data_PCOD9229541
_publ_section_title
;
Structure prediction by ZEFSAII (Michael W. Deem and Ramdas Pophale) SiO2 
 PCOD9229541
Probable space group: P 2/C
;
_chemical_formula_sum "Si O2"
_cell_formula_units_Z 30
_cell_length_a 20.911760
_cell_length_b 14.784924
_cell_length_c 8.604146
_cell_angle_alpha 90.000000
_cell_angle_beta 38.009549
_cell_angle_gamma 90.000000
_cell_volume 1638.143937
_symmetry_space_group_name_H-M "P 2/C"
_symmetry_group_IT_number 13
_symmetry_cell_setting 'monoclinic'
loop_
_space_group_symop_operation_xyz
x,y,z
-x,y,1/2-z
-x,-y,-z
x,-y,1/2+z
loop_
_atom_site_type_symbol
_atom_site_label
_atom_site_fract_x
_atom_site_fract_y
_atom_site_fract_z
Si Si1 0.168298 0.042494 0.048607
Si Si2 0.215277 0.758193 0.957367
Si Si3 0.500000 0.998837 0.750000
Si Si4 0.877908 0.411401 0.030431
Si Si5 0.642195 0.912683 0.722560
Si Si6 0.095956 0.878361 0.994021
Si Si7 0.880168 0.790331 0.036206
Si Si8 0.884410 0.604402 0.893135
O O1 0.100347 0.088925 0.312300
O O2 0.184610 0.122345 0.893943
O O3 0.265634 0.987978 0.932546
O O4 0.104644 0.965251 0.085907
O O5 0.132519 0.775850 0.255581
O O6 0.192968 0.658572 0.932852
O O7 0.315355 0.810308 0.837324
O O8 0.194826 0.818405 0.843111
O O9 0.560319 0.061940 0.513344
O O10 0.583419 0.936006 0.676938
O O11 0.879165 0.400600 0.215807
O O12 0.842460 0.512095 0.048278
O O13 0.000000 0.401259 0.750000
O O14 0.000000 0.824686 0.250000
O O15 0.837224 0.699464 0.038008
O O16 0.000000 0.802522 0.750000
O O17 0.000000 0.608681 0.750000
#
# Coordination Sequence:
#
# PCOD9229541 Si02
#       8
#     4   4   2   4   4   4   4   4
#     4  11  20  32  48  69 102 131 175 216 251 294
#     4  11  21  33  50  74 104 130 176 219 255 296
#     4  10  20  38  58  70 100 128 164 206 276 328
#     4  11  19  33  51  72 106 146 179 217 249 286
#     4  10  21  36  54  78  98 131 164 215 262 320
#     4  11  20  30  43  66  98 142 175 202 243 293
#     4  11  20  32  47  71 106 147 180 213 246 287
#     4  10  20  32  48  71 101 145 192 215 244 280
#
# _framework density 18.313407999999999
#
# number of rings (size 3 to 8) (size 9 to 14) (size 15 to 20)
#    0.000    1.333    0.000   10.800    0.000    0.000 
#    0.000    0.000    0.000    0.000    0.000    0.000 
#    0.000   36.267    0.000    0.000    0.000    0.000 
#
# Total GULP energy -167130.696633 kJ/mol
# GULP energy per Si atom -5571.023221 kJ/mol
# Density = 1.827173 g / cm^3
# Si number density = 18.313408 Si / 1000 Ang^3
#
#
#
# Elastic Constant Matrix: (Units=GPa)
#
#
# Indices 1 2 3 4 5 6 
#
# 1 103.0437 32.5180 19.0276 0.0000 7.3692 0.0000
# 2 32.5180 70.0544 6.3079 0.0000 -14.4690 0.0000
# 3 19.0276 6.3079 47.1237 0.0000 9.7999 0.0000
# 4 0.0000 0.0000 0.0000 12.8158 0.0000 9.6817
# 5 7.3692 -14.4690 9.7999 0.0000 29.7534 0.0000
# 6 0.0000 0.0000 0.0000 9.6817 0.0000 22.8283
#
#
#
# Elastic Compliance Matrix: (Units=1/GPa)
#
#
# Indices 1 2 3 4 5 6 
#
# 1 0.012816 -0.006791 -0.003133 0.000000 -0.005445 0.000000
# 2 -0.006791 0.020203 -0.002528 0.000000 0.012340 0.000000
# 3 -0.003133 -0.002528 0.024604 0.000000 -0.008557 0.000000
# 4 0.000000 0.000000 0.000000 0.114815 0.000000 -0.048694
# 5 -0.005445 0.012340 -0.008557 0.000000 0.043777 0.000000
# 6 0.000000 0.000000 0.000000 -0.048694 0.000000 0.064457
#
#
# Mechanical properties :
#
#
# Convention : Reuss Voigt Hill
#
# Bulk Modulus (GPa) = 30.56518 37.32545 33.94531
# Shear Modulus (GPa) = 15.79860 23.90404 19.85132
#
# Velocity S-wave (km/s) = 2.94033 3.61678 3.29595
# Velocity P-wave (km/s) = 5.31542 6.15363 5.74982
#
# Compressibility (1/GPa) = 0.03271697
#
# Stress axis : x y z
#
# Youngs Moduli (GPa) = 78.02907 49.49695 40.64379
#
# Poissons Ratio (x) = 0.33615 0.12735
# Poissons Ratio (y) = 0.52991 0.10276
# Poissons Ratio (z) = 0.24450 0.12515
#
# Static dielectric constant tensor:
#      x y z
#    x 1.675230 0.000000 -0.017360 
#    y 0.000000 1.667930 0.000000 
#    z -0.017360 0.000000 1.699060 
# 
# From -- ./inp_files/16512.got.cif
#   From: 2010.05.17/outbox.cif.g08.bks.cpg/sg13_9_cif.got.tgz:16512.got - 2010.06.03 16:44:36.
