data_PCOD9229607
_publ_section_title
;
Structure prediction by ZEFSAII (Michael W. Deem and Ramdas Pophale) SiO2 
 PCOD9229607
Probable space group: P 2/C
;
_chemical_formula_sum "Si O2"
_cell_formula_units_Z 30
_cell_length_a 27.484776
_cell_length_b 11.116302
_cell_length_c 28.831348
_cell_angle_alpha 90.000000
_cell_angle_beta 9.998679
_cell_angle_gamma 90.000000
_cell_volume 1529.434655
_symmetry_space_group_name_H-M "P 2/C"
_symmetry_group_IT_number 13
_symmetry_cell_setting 'monoclinic'
loop_
_space_group_symop_operation_xyz
x,y,z
-x,y,1/2-z
-x,-y,-z
x,-y,1/2+z
loop_
_atom_site_type_symbol
_atom_site_label
_atom_site_fract_x
_atom_site_fract_y
_atom_site_fract_z
Si Si1 0.253181 0.325596 0.206979
Si Si2 0.500000 0.081172 0.750000
Si Si3 0.358660 0.581849 0.237386
Si Si4 0.114590 0.179871 0.780863
Si Si5 0.954613 0.100856 0.146280
Si Si6 0.320085 0.683303 0.752470
Si Si7 0.198297 0.157988 0.520530
Si Si8 0.566580 0.805527 0.090337
O O1 0.195485 0.184310 0.251231
O O2 0.293639 0.346575 0.223041
O O3 0.972024 0.391407 0.453272
O O4 0.507816 0.371113 0.936311
O O5 0.405155 0.158621 0.882813
O O6 0.738105 0.985689 0.542273
O O7 0.398969 0.440203 0.204061
O O8 0.506453 0.665180 0.137187
O O9 0.430732 0.221349 0.475640
O O10 0.937017 0.196693 0.900427
O O11 0.102456 0.039627 0.805315
O O12 0.965471 0.260756 0.959736
O O13 0.822069 0.149998 0.318835
O O14 0.285489 0.128009 0.835450
O O15 0.000000 0.179361 0.750000
O O16 0.500000 0.212757 0.250000
#
# Coordination Sequence:
#
# PCOD9229607 Si02
#       8
#     4   2   4   4   4   4   4   4
#     4  10  21  38  62  81 112 158 202 245 277 337
#     4  10  20  32  64  86 106 136 192 236 298 338
#     4  10  21  40  59  82 116 151 201 244 282 330
#     4  12  23  36  57  86 122 147 186 241 287 355
#     4  10  20  37  54  86 118 147 184 238 299 327
#     4  12  24  36  58  86 118 163 195 228 285 348
#     4  10  20  35  58  82 110 144 186 229 282 354
#     4  10  20  34  61  86 109 139 187 250 287 330
#
# _framework density 19.615092000000001
#
# number of rings (size 3 to 8) (size 9 to 14) (size 15 to 20)
#    0.400    1.067    1.333    4.800    0.000    1.067 
#    0.000    0.000    4.400    0.000    0.000    0.000 
#    0.000    0.000    0.000    0.000    0.000    0.000 
#
# Total GULP energy -167607.663944 kJ/mol
# GULP energy per Si atom -5586.922131 kJ/mol
# Density = 1.957045 g / cm^3
# Si number density = 19.615092 Si / 1000 Ang^3
#
#
#
# Elastic Constant Matrix: (Units=GPa)
#
#
# Indices 1 2 3 4 5 6 
#
# 1 34.5736 -21.1805 -14.5943 0.0000 10.7823 0.0000
# 2 -21.1805 69.3825 -14.5107 0.0000 0.0378 0.0000
# 3 -14.5943 -14.5107 61.3920 0.0000 4.8875 0.0000
# 4 0.0000 0.0000 0.0000 13.8300 0.0000 -4.3856
# 5 10.7823 0.0378 4.8875 0.0000 28.5541 0.0000
# 6 0.0000 0.0000 0.0000 -4.3856 0.0000 12.0780
#
#
#
# Elastic Compliance Matrix: (Units=1/GPa)
#
#
# Indices 1 2 3 4 5 6 
#
# 1 0.060784 0.023184 0.022060 0.000000 -0.026759 0.000000
# 2 0.023184 0.024017 0.012052 0.000000 -0.010849 0.000000
# 3 0.022060 0.012052 0.025392 0.000000 -0.012692 0.000000
# 4 0.000000 0.000000 0.000000 0.081716 0.000000 0.029672
# 5 -0.026759 -0.010849 -0.012692 0.000000 0.047312 0.000000
# 6 0.000000 0.000000 0.000000 0.029672 0.000000 0.093570
#
#
# Mechanical properties :
#
#
# Convention : Reuss Voigt Hill
#
# Bulk Modulus (GPa) = 4.44875 7.19746 5.82310
# Shear Modulus (GPa) = 17.05743 25.26799 21.16271
#
# Velocity S-wave (km/s) = 2.95211 3.59303 3.28822
# Velocity P-wave (km/s) = 3.72732 4.57061 4.17033
#
# Compressibility (1/GPa) = 0.22478230
#
# Stress axis : x y z
#
# Youngs Moduli (GPa) = 16.45176 41.63793 39.38273
#
# Poissons Ratio (x) = -0.96532 -0.86877
# Poissons Ratio (y) = -0.38141 -0.47462
# Poissons Ratio (z) = -0.36292 -0.50180
#
# Static dielectric constant tensor:
#      x y z
#    x 1.671460 0.000000 -0.015910 
#    y 0.000000 1.689150 0.000000 
#    z -0.015910 0.000000 1.654000 
# 
# From -- ./inp_files/94215.got.cif
#   From: 2010.05.17/outbox.cif.g08.bks.cpg/sg13_48_cif.got.tgz:94215.got - 2010.06.03 16:44:36.
