data_PCOD9229878
_publ_section_title
;
Structure prediction by ZEFSAII (Michael W. Deem and Ramdas Pophale) SiO2 
 PCOD9229878
Probable space group: P 2/C
;
_chemical_formula_sum "Si O2"
_cell_formula_units_Z 28
_cell_length_a 19.569618
_cell_length_b 9.249540
_cell_length_c 14.586145
_cell_angle_alpha 90.000000
_cell_angle_beta 151.909113
_cell_angle_gamma 90.000000
_cell_volume 1243.212822
_symmetry_space_group_name_H-M "P 2/C"
_symmetry_group_IT_number 13
_symmetry_cell_setting 'monoclinic'
loop_
_space_group_symop_operation_xyz
x,y,z
-x,y,1/2-z
-x,-y,-z
x,-y,1/2+z
loop_
_atom_site_type_symbol
_atom_site_label
_atom_site_fract_x
_atom_site_fract_y
_atom_site_fract_z
Si Si1 0.286779 0.656995 0.640710
Si Si2 0.500000 0.466872 0.250000
Si Si3 0.000000 0.478829 0.250000
Si Si4 0.152529 0.017454 0.314789
Si Si5 0.923647 0.687409 0.845662
Si Si6 0.762978 0.202221 0.725251
Si Si7 0.334762 0.483484 0.383524
Si Si8 0.191003 0.019396 0.065799
O O1 0.380732 0.629545 0.660978
O O2 0.133870 0.578511 0.439086
O O3 0.363913 0.577508 0.817520
O O4 0.256578 0.821154 0.634359
O O5 0.572622 0.559947 0.417473
O O6 0.043588 0.379329 0.215428
O O7 0.238900 0.887863 0.370314
O O8 0.197706 0.045876 0.471962
O O9 0.164054 0.163344 0.270407
O O10 0.981092 0.974597 0.113232
O O11 0.827869 0.575716 0.788635
O O12 0.074242 0.735204 0.069004
O O13 0.665195 0.342815 0.614809
O O14 0.737985 0.087537 0.776961
#
# Coordination Sequence:
#
# PCOD9229878 Si02
#       8
#     4   2   2   4   4   4   4   4
#     4  12  25  44  70  98 137 179 224 280 338 403
#     4  12  28  48  64  96 136 184 232 284 338 400
#     4  12  22  38  70 106 136 168 222 276 336 396
#     4  10  20  34  60  99 142 171 204 268 346 398
#     4  11  21  37  65 107 141 168 217 278 334 403
#     4  11  21  38  63 101 136 168 216 277 339 399
#     4  12  25  42  69  95 135 181 230 276 335 397
#     4  10  21  37  60  92 134 173 215 265 336 399
#
# _framework density 22.522290000000002
#
# number of rings (size 3 to 8) (size 9 to 14) (size 15 to 20)
#    0.000    0.857    2.857    7.714    2.000    0.000 
#    0.000    0.714    0.000    8.571    0.000    0.000 
#    0.000    0.000    0.000    0.000    0.000    0.000 
#
# Total GULP energy -156734.341073 kJ/mol
# GULP energy per Si atom -5597.655038 kJ/mol
# Density = 2.247103 g / cm^3
# Si number density = 22.522290 Si / 1000 Ang^3
#
#
#
# Elastic Constant Matrix: (Units=GPa)
#
#
# Indices 1 2 3 4 5 6 
#
# 1 121.5332 32.8361 19.2107 0.0000 -14.0139 0.0000
# 2 32.8361 96.6864 9.8159 0.0000 8.2915 0.0000
# 3 19.2107 9.8159 78.1693 0.0000 -12.1582 0.0000
# 4 0.0000 0.0000 0.0000 21.6064 0.0000 -12.0331
# 5 -14.0139 8.2915 -12.1582 0.0000 27.3018 0.0000
# 6 0.0000 0.0000 0.0000 -12.0331 0.0000 31.7784
#
#
#
# Elastic Compliance Matrix: (Units=1/GPa)
#
#
# Indices 1 2 3 4 5 6 
#
# 1 0.010111 -0.003826 -0.001092 0.000000 0.005865 0.000000
# 2 -0.003826 0.012358 -0.001612 0.000000 -0.006435 0.000000
# 3 -0.001092 -0.001612 0.014239 0.000000 0.006270 0.000000
# 4 0.000000 0.000000 0.000000 0.058651 0.000000 0.022209
# 5 0.005865 -0.006435 0.006270 0.000000 0.044385 0.000000
# 6 0.000000 0.000000 0.000000 0.022209 0.000000 0.039877
#
#
# Mechanical properties :
#
#
# Convention : Reuss Voigt Hill
#
# Bulk Modulus (GPa) = 42.28959 46.67935 44.48447
# Shear Modulus (GPa) = 24.92979 31.77241 28.35110
#
# Velocity S-wave (km/s) = 3.33061 3.76002 3.55181
# Velocity P-wave (km/s) = 5.79725 6.29453 6.05100
#
# Compressibility (1/GPa) = 0.02364648
#
# Stress axis : x y z
#
# Youngs Moduli (GPa) = 98.90349 80.92203 70.23054
#
# Poissons Ratio (x) = 0.30960 0.07670
# Poissons Ratio (y) = 0.37840 0.11324
# Poissons Ratio (z) = 0.10801 0.13048
#
# Static dielectric constant tensor:
#      x y z
#    x 1.825670 0.000000 0.010700 
#    y 0.000000 1.797550 0.000000 
#    z 0.010700 0.000000 1.862920 
# 
# From -- ./inp_files/57548.got.cif
#   From: 2010.05.17/outbox.cif.g08.bks.cpg/sg13_29_cif.got.tgz:57548.got - 2010.06.03 16:44:36.
