data_PCOD9229052
_publ_section_title
;
Structure prediction by ZEFSAII (Michael W. Deem and Ramdas Pophale) SiO2 
 PCOD9229052
Probable space group: P 2/C
;
_chemical_formula_sum "Si O2"
_cell_formula_units_Z 26
_cell_length_a 11.961045
_cell_length_b 9.348961
_cell_length_c 14.138143
_cell_angle_alpha 90.000000
_cell_angle_beta 52.737170
_cell_angle_gamma 90.000000
_cell_volume 1258.244484
_symmetry_space_group_name_H-M "P 2/C"
_symmetry_group_IT_number 13
_symmetry_cell_setting 'monoclinic'
loop_
_space_group_symop_operation_xyz
x,y,z
-x,y,1/2-z
-x,-y,-z
x,-y,1/2+z
loop_
_atom_site_type_symbol
_atom_site_label
_atom_site_fract_x
_atom_site_fract_y
_atom_site_fract_z
Si Si1 0.655639 0.034782 0.452279
Si Si2 0.160887 0.120771 0.512301
Si Si3 0.266620 0.340513 0.013471
Si Si4 0.157833 0.616140 0.157345
Si Si5 0.500000 0.265622 0.750000
Si Si6 0.962207 0.164634 0.459142
Si Si7 0.745731 0.159394 0.744004
O O1 0.692141 0.950343 0.531426
O O2 0.748286 0.964196 0.321262
O O3 0.500000 0.000000 0.500000
O O4 0.685978 0.201508 0.451287
O O5 0.144339 0.258746 0.585866
O O6 0.113838 0.169844 0.431236
O O7 0.061598 0.982625 0.585776
O O8 0.381087 0.349971 0.870315
O O9 0.109655 0.296772 0.057069
O O10 0.255860 0.487586 0.074209
O O11 0.216563 0.694993 0.219786
O O12 0.000000 0.560776 0.250000
O O13 0.592209 0.173679 0.776040
O O14 0.854583 0.144944 0.602892
#
# Coordination Sequence:
#
# PCOD9229052 Si02
#       7
#     4   4   4   4   2   4   4
#     4  10  19  37  59  89 110 154 200 253 291 368
#     4   9  19  36  61  82 116 149 204 243 299 351
#     4  10  22  38  61  85 123 155 200 240 310 359
#     4  11  22  40  58  89 122 163 191 248 307 370
#     4  10  20  40  60  84 112 164 194 246 296 358
#     4   9  18  38  59  89 106 155 202 252 291 354
#     4  10  20  37  66  80 119 153 203 245 306 355
#
# _framework density 20.663712
#
# number of rings (size 3 to 8) (size 9 to 14) (size 15 to 20)
#    0.000    2.154    3.077    0.000    0.000    1.231 
#    8.308    0.000    0.000    0.923    0.000    0.000 
#    0.000    0.000    0.000    0.000    0.000    0.000 
#
# Total GULP energy -144847.627099 kJ/mol
# GULP energy per Si atom -5571.062581 kJ/mol
# Density = 2.061668 g / cm^3
# Si number density = 20.663712 Si / 1000 Ang^3
#
#
#
# Elastic Constant Matrix: (Units=GPa)
#
#
# Indices 1 2 3 4 5 6 
#
# 1 151.6156 26.7598 14.4017 0.0000 7.4568 0.0000
# 2 26.7598 98.5243 62.8516 0.0000 -1.1878 0.0000
# 3 14.4017 62.8516 57.4858 0.0000 1.9124 0.0000
# 4 0.0000 0.0000 0.0000 23.3233 0.0000 6.1137
# 5 7.4568 -1.1878 1.9124 0.0000 17.1679 0.0000
# 6 0.0000 0.0000 0.0000 6.1137 0.0000 12.9379
#
#
#
# Elastic Compliance Matrix: (Units=1/GPa)
#
#
# Indices 1 2 3 4 5 6 
#
# 1 0.007146 -0.003025 0.001633 0.000000 -0.003495 0.000000
# 2 -0.003025 0.035553 -0.038382 0.000000 0.008049 0.000000
# 3 0.001633 -0.038382 0.059283 0.000000 -0.009969 0.000000
# 4 0.000000 0.000000 0.000000 0.048937 0.000000 -0.023125
# 5 -0.003495 0.008049 -0.009969 0.000000 0.061434 0.000000
# 6 0.000000 0.000000 0.000000 -0.023125 0.000000 0.088220
#
#
# Mechanical properties :
#
#
# Convention : Reuss Voigt Hill
#
# Bulk Modulus (GPa) = 44.57307 57.29464 50.93385
# Shear Modulus (GPa) = 12.89995 24.26002 18.57998
#
# Velocity S-wave (km/s) = 2.50127 3.43014 3.00185
# Velocity P-wave (km/s) = 5.47351 6.59357 6.05948
#
# Compressibility (1/GPa) = 0.02243507
#
# Stress axis : x y z
#
# Youngs Moduli (GPa) = 139.93244 28.12667 16.86836
#
# Poissons Ratio (x) = 0.08509 -0.02755
# Poissons Ratio (y) = 0.42332 0.64744
# Poissons Ratio (z) = -0.22858 1.07956
#
# Static dielectric constant tensor:
#      x y z
#    x 1.836920 0.000000 0.000370 
#    y 0.000000 1.718250 0.000000 
#    z 0.000370 0.000000 1.779340 
# 
# From -- ./inp_files/49928.got.cif
#   From: 2010.05.17/outbox.cif.g08.bks.cpg/sg13_25_cif.got.tgz:49928.got - 2010.06.03 16:44:36.
