data_PCOD9229073
_publ_section_title
;
Structure prediction by ZEFSAII (Michael W. Deem and Ramdas Pophale) SiO2 
 PCOD9229073
Probable space group: P 2/C
;
_chemical_formula_sum "Si O2"
_cell_formula_units_Z 28
_cell_length_a 26.960285
_cell_length_b 8.390915
_cell_length_c 27.223392
_cell_angle_alpha 90.000000
_cell_angle_beta 169.496548
_cell_angle_gamma 90.000000
_cell_volume 1122.665132
_symmetry_space_group_name_H-M "P 2/C"
_symmetry_group_IT_number 13
_symmetry_cell_setting 'monoclinic'
loop_
_space_group_symop_operation_xyz
x,y,z
-x,y,1/2-z
-x,-y,-z
x,-y,1/2+z
loop_
_atom_site_type_symbol
_atom_site_label
_atom_site_fract_x
_atom_site_fract_y
_atom_site_fract_z
Si Si1 0.305034 0.674658 0.332035
Si Si2 0.500000 0.890510 0.750000
Si Si3 0.668757 0.635005 0.779853
Si Si4 0.044036 0.995151 0.119714
Si Si5 0.509654 0.965244 0.865374
Si Si6 0.000000 0.644978 0.250000
Si Si7 0.245700 0.315732 0.299679
Si Si8 0.154575 0.520777 0.801590
O O1 0.565564 0.668915 0.623884
O O2 0.185744 0.494217 0.220277
O O3 0.435838 0.694444 0.405467
O O4 0.129762 0.828123 0.177224
O O5 0.502379 0.003900 0.800842
O O6 0.243735 0.768760 0.498979
O O7 0.537222 0.776125 0.682580
O O8 0.481360 0.489633 0.614632
O O9 0.973389 0.609352 0.094702
O O10 0.134806 0.144850 0.175435
O O11 0.217294 0.994373 0.339038
O O12 0.735102 0.012402 0.836512
O O13 0.929809 0.524868 0.226287
O O14 0.120905 0.327654 0.233393
#
# Coordination Sequence:
#
# PCOD9229073 Si02
#       8
#     4   2   4   4   4   2   4   4
#     4   9  21  41  69  96 130 178 226 258 325 394
#     4  12  22  36  68  96 126 168 226 268 324 398
#     4  10  19  37  60  93 128 163 214 269 314 384
#     4  11  24  42  65  94 135 170 215 271 327 384
#     4  11  21  39  61  96 126 168 218 271 324 387
#     4  12  20  36  62 100 124 164 220 268 326 392
#     4  10  22  42  66  98 134 175 217 274 322 386
#     4  11  21  36  60  92 131 164 214 269 326 382
#
# _framework density 24.940652
#
# number of rings (size 3 to 8) (size 9 to 14) (size 15 to 20)
#    0.000    1.429    2.857    3.857    0.000    2.857 
#    0.000   15.000    0.000    0.000    0.000    0.000 
#    0.000    0.000    0.000    0.000    0.000    0.000 
#
# Total GULP energy -155890.405174 kJ/mol
# GULP energy per Si atom -5567.514470 kJ/mol
# Density = 2.488389 g / cm^3
# Si number density = 24.940652 Si / 1000 Ang^3
#
#
#
# Elastic Constant Matrix: (Units=GPa)
#
#
# Indices 1 2 3 4 5 6 
#
# 1 327.2951 129.5138 386.9545 0.0000 -44.9301 0.0000
# 2 129.5138 179.6328 195.2014 0.0000 -22.2474 0.0000
# 3 386.9545 195.2014 798.7858 0.0000 -98.2163 0.0000
# 4 0.0000 0.0000 0.0000 1.5281 0.0000 11.4625
# 5 -44.9301 -22.2474 -98.2163 0.0000 45.6027 0.0000
# 6 0.0000 0.0000 0.0000 11.4625 0.0000 110.1831
#
#
#
# Elastic Compliance Matrix: (Units=1/GPa)
#
#
# Indices 1 2 3 4 5 6 
#
# 1 0.007666 -0.002024 -0.003281 0.000000 -0.000500 0.000000
# 2 -0.002024 0.008120 -0.001036 0.000000 -0.000265 0.000000
# 3 -0.003281 -0.001036 0.003584 0.000000 0.003981 0.000000
# 4 0.000000 0.000000 0.000000 2.979187 0.000000 -0.309928
# 5 -0.000500 -0.000265 0.003981 0.000000 0.029881 0.000000
# 6 0.000000 0.000000 0.000000 -0.309928 0.000000 0.041318
#
#
# Mechanical properties :
#
#
# Convention : Reuss Voigt Hill
#
# Bulk Modulus (GPa) = 149.53035 303.22813 226.37924
# Shear Modulus (GPa) = 1.62092 71.06572 36.34332
#
# Velocity S-wave (km/s) = 0.80705 5.34376 3.82146
# Velocity P-wave (km/s) = 7.80724 12.64588 10.50884
#
# Compressibility (1/GPa) = 0.00668761
#
# Stress axis : x y z
#
# Youngs Moduli (GPa) = 130.44088 123.15911 279.03807
#
# Poissons Ratio (x) = 0.24932 0.91539
# Poissons Ratio (y) = 0.26407 0.28911
# Poissons Ratio (z) = 0.42791 0.12760
#
# Static dielectric constant tensor:
#      x y z
#    x 2.156800 0.000000 -0.039690 
#    y 0.000000 2.036410 0.000000 
#    z -0.039690 0.000000 2.114410 
# 
# From -- ./inp_files/98015.got.cif
#   From: 2010.05.17/outbox.cif.g08.bks.cpg/sg13_50_cif.got.tgz:98015.got - 2010.06.03 16:44:36.
