data_PCOD9229820
_publ_section_title
;
Structure prediction by ZEFSAII (Michael W. Deem and Ramdas Pophale) SiO2 
 PCOD9229820
Probable space group: P 2/C
;
_chemical_formula_sum "Si O2"
_cell_formula_units_Z 24
_cell_length_a 13.277592
_cell_length_b 9.729524
_cell_length_c 18.652890
_cell_angle_alpha 90.000000
_cell_angle_beta 152.815359
_cell_angle_gamma 90.000000
_cell_volume 1100.879265
_symmetry_space_group_name_H-M "P 2/C"
_symmetry_group_IT_number 13
_symmetry_cell_setting 'monoclinic'
loop_
_space_group_symop_operation_xyz
x,y,z
-x,y,1/2-z
-x,-y,-z
x,-y,1/2+z
loop_
_atom_site_type_symbol
_atom_site_label
_atom_site_fract_x
_atom_site_fract_y
_atom_site_fract_z
Si Si1 0.643351 0.920154 0.269940
Si Si2 0.124784 0.187181 0.063220
Si Si3 0.584019 0.612517 0.670583
Si Si4 0.115016 0.746385 0.396664
Si Si5 0.048148 0.444478 0.197267
Si Si6 0.404295 0.674548 0.109814
O O1 0.500000 0.948464 0.250000
O O2 0.483663 0.817774 0.124736
O O3 0.871183 0.835335 0.423550
O O4 0.733926 0.069563 0.306346
O O5 0.244787 0.328545 0.161465
O O6 0.129121 0.167372 0.979241
O O7 0.361973 0.700690 0.532165
O O8 0.507918 0.457799 0.637818
O O9 0.719653 0.608922 0.683019
O O10 0.987833 0.606285 0.341045
O O11 0.000000 0.797772 0.250000
O O12 0.000000 0.434293 0.250000
O O13 0.853031 0.351881 0.043190
O O14 0.500000 0.675625 0.250000
#
# Coordination Sequence:
#
# PCOD9229820 Si02
#       6
#     4   4   4   4   4   4
#     4  10  21  36  59  85 114 149 191 239 290 336
#     4  11  22  38  62  87 115 153 199 243 286 347
#     4  11  20  36  61  86 115 152 198 245 287 345
#     4  10  22  37  58  90 122 154 193 242 299 350
#     4  10  22  36  55  88 123 155 193 243 300 348
#     4  10  20  34  57  86 114 147 194 243 289 344
#
# _framework density 21.800754999999999
#
# number of rings (size 3 to 8) (size 9 to 14) (size 15 to 20)
#    0.000    1.667    0.000    6.500    0.000    9.333 
#    0.000    0.000    0.000   35.000    0.000    0.000 
#    0.000    0.000    0.000    0.000    0.000    0.000 
#
# Total GULP energy -133801.251189 kJ/mol
# GULP energy per Si atom -5575.052133 kJ/mol
# Density = 2.175114 g / cm^3
# Si number density = 21.800755 Si / 1000 Ang^3
#
#
#
# Elastic Constant Matrix: (Units=GPa)
#
#
# Indices 1 2 3 4 5 6 
#
# 1 90.2993 18.2787 32.6528 0.0000 25.9866 0.0000
# 2 18.2787 49.5813 5.5411 0.0000 0.9780 0.0000
# 3 32.6528 5.5411 52.1682 0.0000 13.7467 0.0000
# 4 0.0000 0.0000 0.0000 15.1673 0.0000 5.4432
# 5 25.9866 0.9780 13.7467 0.0000 48.5494 0.0000
# 6 0.0000 0.0000 0.0000 5.4432 0.0000 16.6510
#
#
#
# Elastic Compliance Matrix: (Units=1/GPa)
#
#
# Indices 1 2 3 4 5 6 
#
# 1 0.017081 -0.005229 -0.008380 0.000000 -0.006665 0.000000
# 2 -0.005229 0.022014 0.000339 0.000000 0.002259 0.000000
# 3 -0.008380 0.000339 0.025068 0.000000 -0.002620 0.000000
# 4 0.000000 0.000000 0.000000 0.074694 0.000000 -0.024418
# 5 -0.006665 0.002259 -0.002620 0.000000 0.024861 0.000000
# 6 0.000000 0.000000 0.000000 -0.024418 0.000000 0.068039
#
#
# Mechanical properties :
#
#
# Convention : Reuss Voigt Hill
#
# Bulk Modulus (GPa) = 26.57857 33.88823 30.23340
# Shear Modulus (GPa) = 18.46129 25.11195 21.78662
#
# Velocity S-wave (km/s) = 2.91317 3.39762 3.16468
# Velocity P-wave (km/s) = 4.85113 5.56508 5.22032
#
# Compressibility (1/GPa) = 0.03762430
#
# Stress axis : x y z
#
# Youngs Moduli (GPa) = 58.54508 45.42526 39.89167
#
# Poissons Ratio (x) = 0.23753 0.33427
# Poissons Ratio (y) = 0.30614 -0.01354
# Poissons Ratio (z) = 0.49058 -0.01541
#
# Static dielectric constant tensor:
#      x y z
#    x 1.691990 0.000000 0.181060 
#    y 0.000000 1.966810 0.000000 
#    z 0.181060 0.000000 1.421350 
# 
# From -- ./inp_files/66712.got.cif
#   From: 2010.05.17/outbox.cif.g08.bks.cpg/sg13_34_cif.got.tgz:66712.got - 2010.06.03 16:44:36.
