data_PCOD9229300
_publ_section_title
;
Structure prediction by ZEFSAII (Michael W. Deem and Ramdas Pophale) SiO2 
 PCOD9229300
Probable space group: P 2/C
;
_chemical_formula_sum "Si O2"
_cell_formula_units_Z 28
_cell_length_a 5.764367
_cell_length_b 13.531382
_cell_length_c 19.143424
_cell_angle_alpha 90.000000
_cell_angle_beta 112.843704
_cell_angle_gamma 90.000000
_cell_volume 1376.069757
_symmetry_space_group_name_H-M "P 2/C"
_symmetry_group_IT_number 13
_symmetry_cell_setting 'monoclinic'
loop_
_space_group_symop_operation_xyz
x,y,z
-x,y,1/2-z
-x,-y,-z
x,-y,1/2+z
loop_
_atom_site_type_symbol
_atom_site_label
_atom_site_fract_x
_atom_site_fract_y
_atom_site_fract_z
Si Si1 0.347560 0.614656 0.378466
Si Si2 0.000000 0.714304 0.750000
Si Si3 0.500000 0.594291 0.250000
Si Si4 0.162850 0.652129 0.993509
Si Si5 0.924726 0.548171 0.853439
Si Si6 0.807041 0.001637 0.044295
Si Si7 0.168243 0.210813 0.958768
Si Si8 0.667802 0.197327 0.100720
O O1 0.369261 0.647218 0.300047
O O2 0.619549 0.593005 0.443283
O O3 0.255471 0.706383 0.414449
O O4 0.170653 0.518977 0.365301
O O5 0.098636 0.640795 0.701348
O O6 0.227126 0.777949 0.810325
O O7 0.300721 0.524133 0.189459
O O8 0.268482 0.706746 0.937896
O O9 0.943463 0.586359 0.934961
O O10 0.070556 0.739305 0.032993
O O11 0.868864 0.894050 0.083252
O O12 0.825621 0.103069 0.090132
O O13 0.500000 0.000000 0.000000
O O14 0.000000 0.000000 0.000000
O O15 0.372184 0.188026 0.045188
#
# Coordination Sequence:
#
# PCOD9229300 Si02
#       8
#     4   2   2   4   4   4   4   4
#     4  11  23  40  56  85 122 164 211 260 312 383
#     4  10  20  40  60  84 126 160 206 256 326 380
#     4  12  24  38  58  78 120 172 206 250 322 370
#     4  10  21  36  62  90 116 161 207 262 310 381
#     4  11  23  38  58  87 121 163 208 261 321 384
#     4  10  19  38  67  95 127 160 206 265 327 382
#     4  10  21  37  63  93 121 160 212 259 320 379
#     4   9  20  36  61  92 126 157 205 262 320 380
#
# _framework density 20.347804
#
# number of rings (size 3 to 8) (size 9 to 14) (size 15 to 20)
#    0.000    1.714    2.857    1.286    2.000    3.429 
#    0.000    0.000    6.286    0.000    0.000    0.000 
#    0.000    0.000    0.000    0.000    0.000    0.000 
#
# Total GULP energy -155904.209645 kJ/mol
# GULP energy per Si atom -5568.007487 kJ/mol
# Density = 2.030149 g / cm^3
# Si number density = 20.347804 Si / 1000 Ang^3
#
#
#
# Elastic Constant Matrix: (Units=GPa)
#
#
# Indices 1 2 3 4 5 6 
#
# 1 41.1341 16.6475 3.2436 0.0000 14.6706 0.0000
# 2 16.6475 85.7610 38.7644 0.0000 2.6445 0.0000
# 3 3.2436 38.7644 79.9815 0.0000 6.7569 0.0000
# 4 0.0000 0.0000 0.0000 26.8677 0.0000 2.6274
# 5 14.6706 2.6445 6.7569 0.0000 22.9462 0.0000
# 6 0.0000 0.0000 0.0000 2.6274 0.0000 7.7037
#
#
#
# Elastic Compliance Matrix: (Units=1/GPa)
#
#
# Indices 1 2 3 4 5 6 
#
# 1 0.035511 -0.008211 0.004489 0.000000 -0.023080 0.000000
# 2 -0.008211 0.016834 -0.008312 0.000000 0.005757 0.000000
# 3 0.004489 -0.008312 0.016932 0.000000 -0.006898 0.000000
# 4 0.000000 0.000000 0.000000 0.038504 0.000000 -0.013132
# 5 -0.023080 0.005757 -0.006898 0.000000 0.059704 0.000000
# 6 0.000000 0.000000 0.000000 -0.013132 0.000000 0.134287
#
#
# Mechanical properties :
#
#
# Convention : Reuss Voigt Hill
#
# Bulk Modulus (GPa) = 22.11919 36.02083 29.07001
# Shear Modulus (GPa) = 14.66671 21.38494 18.02582
#
# Velocity S-wave (km/s) = 2.68769 3.24538 2.97961
# Velocity P-wave (km/s) = 4.53053 5.63776 5.11420
#
# Compressibility (1/GPa) = 0.04520961
#
# Stress axis : x y z
#
# Youngs Moduli (GPa) = 28.16023 59.40453 59.05905
#
# Poissons Ratio (x) = 0.48775 -0.26512
# Poissons Ratio (y) = 0.23121 0.49091
# Poissons Ratio (z) = -0.12641 0.49378
#
# Static dielectric constant tensor:
#      x y z
#    x 1.841030 0.000000 -0.008410 
#    y 0.000000 1.756430 0.000000 
#    z -0.008410 0.000000 1.771380 
# 
# From -- ./inp_files/61706.got.cif
#   From: 2010.05.17/outbox.cif.g08.bks.cpg/sg13_31_cif.got.tgz:61706.got - 2010.06.03 16:44:36.
