data_PCOD9229900
_publ_section_title
;
Structure prediction by ZEFSAII (Michael W. Deem and Ramdas Pophale) SiO2 
 PCOD9229900
Probable space group: P 2/C
;
_chemical_formula_sum "Si O2"
_cell_formula_units_Z 28
_cell_length_a 7.968231
_cell_length_b 17.141510
_cell_length_c 18.724286
_cell_angle_alpha 90.000000
_cell_angle_beta 149.665410
_cell_angle_gamma 90.000000
_cell_volume 1291.664066
_symmetry_space_group_name_H-M "P 2/C"
_symmetry_group_IT_number 13
_symmetry_cell_setting 'monoclinic'
loop_
_space_group_symop_operation_xyz
x,y,z
-x,y,1/2-z
-x,-y,-z
x,-y,1/2+z
loop_
_atom_site_type_symbol
_atom_site_label
_atom_site_fract_x
_atom_site_fract_y
_atom_site_fract_z
Si Si1 0.889676 0.117954 0.397742
Si Si2 0.806945 0.207267 0.807363
Si Si3 0.192236 0.615682 0.689477
Si Si4 0.655928 0.734406 0.476639
Si Si5 0.860103 0.461144 0.622281
Si Si6 0.881945 0.952882 0.367906
Si Si7 0.598194 0.691930 0.960471
O O1 0.500000 0.138859 0.250000
O O2 0.119000 0.189864 0.458779
O O3 0.948735 0.085013 0.499735
O O4 0.991195 0.040150 0.389578
O O5 0.500000 0.204842 0.750000
O O6 0.672853 0.256443 0.691729
O O7 0.887736 0.118286 0.814779
O O8 0.126169 0.245807 0.961130
O O9 0.500000 0.611674 0.750000
O O10 0.315119 0.669621 0.800385
O O11 0.875327 0.658484 0.538786
O O12 0.092824 0.529962 0.678894
O O13 0.555192 0.723485 0.521993
O O14 0.500000 0.500000 0.500000
O O15 0.799025 0.387817 0.549492
O O16 0.000000 0.435101 0.750000
O O17 0.500000 0.965203 0.250000
#
# Coordination Sequence:
#
# PCOD9229900 Si02
#       7
#     4   4   4   4   4   4   4
#     4  10  20  34  65  96 132 182 227 271 326 393
#     4  11  22  40  64  97 131 171 228 276 320 396
#     4  12  27  45  69  99 131 170 228 282 324 400
#     4  12  22  41  64  97 134 177 217 274 335 398
#     4  12  23  48  70  94 134 179 212 266 339 402
#     4   9  18  38  59  94 135 175 230 274 325 379
#     4  12  27  44  69  95 135 176 217 274 346 399
#
# _framework density 21.677462999999999
#
# number of rings (size 3 to 8) (size 9 to 14) (size 15 to 20)
#    0.000    0.857    5.714    3.000    2.000    1.143 
#    0.000    0.714    0.000    1.714    0.000    0.000 
#    0.000    0.000    0.000    0.000    0.000    0.000 
#
# Total GULP energy -156476.095254 kJ/mol
# GULP energy per Si atom -5588.431973 kJ/mol
# Density = 2.162812 g / cm^3
# Si number density = 21.677463 Si / 1000 Ang^3
#
#
#
# Elastic Constant Matrix: (Units=GPa)
#
#
# Indices 1 2 3 4 5 6 
#
# 1 68.1207 12.7234 1.9957 0.0000 5.3414 0.0000
# 2 12.7234 119.0073 0.7822 0.0000 6.7130 0.0000
# 3 1.9957 0.7822 83.2141 0.0000 -4.4363 0.0000
# 4 0.0000 0.0000 0.0000 32.9262 0.0000 4.9421
# 5 5.3414 6.7130 -4.4363 0.0000 27.2109 0.0000
# 6 0.0000 0.0000 0.0000 4.9421 0.0000 18.4528
#
#
#
# Elastic Compliance Matrix: (Units=1/GPa)
#
#
# Indices 1 2 3 4 5 6 
#
# 1 0.015180 -0.001467 -0.000494 0.000000 -0.002698 0.000000
# 2 -0.001467 0.008666 -0.000146 0.000000 -0.001874 0.000000
# 3 -0.000494 -0.000146 0.012143 0.000000 0.002113 0.000000
# 4 0.000000 0.000000 0.000000 0.031643 0.000000 -0.008475
# 5 -0.002698 -0.001874 0.002113 0.000000 0.038086 0.000000
# 6 0.000000 0.000000 0.000000 -0.008475 0.000000 0.056462
#
#
# Mechanical properties :
#
#
# Convention : Reuss Voigt Hill
#
# Bulk Modulus (GPa) = 31.47236 33.48274 32.47755
# Shear Modulus (GPa) = 28.25056 32.70737 30.47897
#
# Velocity S-wave (km/s) = 3.61393 3.88857 3.75376
# Velocity P-wave (km/s) = 5.65367 5.96998 5.81398
#
# Compressibility (1/GPa) = 0.03177391
#
# Stress axis : x y z
#
# Youngs Moduli (GPa) = 65.87635 115.38822 82.35165
#
# Poissons Ratio (x) = 0.16933 0.04069
# Poissons Ratio (y) = 0.09667 0.01204
# Poissons Ratio (z) = 0.03255 0.01687
#
# Static dielectric constant tensor:
#      x y z
#    x 1.801260 0.000000 -0.034860 
#    y 0.000000 1.881400 0.000000 
#    z -0.034860 0.000000 1.867060 
# 
# From -- ./inp_files/76776.got.cif
#   From: 2010.05.17/outbox.cif.g08.bks.cpg/sg13_39_cif.got.tgz:76776.got - 2010.06.03 16:44:36.
