data_PCOD9229085
_publ_section_title
;
Structure prediction by ZEFSAII (Michael W. Deem and Ramdas Pophale) SiO2 
 PCOD9229085
Probable space group: P 2/C
;
_chemical_formula_sum "Si O2"
_cell_formula_units_Z 28
_cell_length_a 11.061637
_cell_length_b 6.346143
_cell_length_c 19.072786
_cell_angle_alpha 90.000000
_cell_angle_beta 109.358689
_cell_angle_gamma 90.000000
_cell_volume 1263.187332
_symmetry_space_group_name_H-M "P 2/C"
_symmetry_group_IT_number 13
_symmetry_cell_setting 'monoclinic'
loop_
_space_group_symop_operation_xyz
x,y,z
-x,y,1/2-z
-x,-y,-z
x,-y,1/2+z
loop_
_atom_site_type_symbol
_atom_site_label
_atom_site_fract_x
_atom_site_fract_y
_atom_site_fract_z
Si Si1 0.841298 0.137826 0.347841
Si Si2 0.877847 0.736628 0.276273
Si Si3 0.307987 0.554443 0.963455
Si Si4 0.649568 0.483565 0.780012
Si Si5 0.489020 0.816835 0.555723
Si Si6 0.325568 0.129232 0.597117
Si Si7 0.019124 0.513242 0.920198
O O1 0.731616 0.313067 0.317278
O O2 0.972706 0.257628 0.386352
O O3 0.850458 0.982152 0.283731
O O4 0.799334 0.003785 0.407173
O O5 0.741621 0.619222 0.236723
O O6 0.000000 0.700598 0.250000
O O7 0.928529 0.646340 0.360700
O O8 0.382430 0.676777 0.915449
O O9 0.164347 0.481135 0.924992
O O10 0.387737 0.355187 0.007608
O O11 0.306559 0.729693 0.024828
O O12 0.500000 0.542336 0.750000
O O13 0.648060 0.294347 0.836492
O O14 0.500000 0.000000 0.500000
O O15 0.436930 0.953809 0.610009
O O16 0.000000 0.500000 0.000000
#
# Coordination Sequence:
#
# PCOD9229085 Si02
#       7
#     4   4   4   4   4   4   4
#     4  10  22  39  65  90 125 166 211 261 325 387
#     4  10  24  46  64  94 138 173 216 277 335 399
#     4  10  20  36  57  92 128 163 204 260 321 377
#     4  10  22  42  66  90 119 169 226 277 317 387
#     4   9  19  35  56  82 130 162 199 252 320 377
#     4  10  19  37  61  88 125 160 205 265 320 380
#     4  11  22  39  67  97 127 169 219 270 323 394
#
# _framework density 22.166149000000001
#
# number of rings (size 3 to 8) (size 9 to 14) (size 15 to 20)
#    0.000    2.000    0.000    4.286    0.000    9.143 
#   12.857    0.000    0.000    0.000    0.000    0.000 
#    0.000    0.000    0.000    0.000    0.000    0.000 
#
# Total GULP energy -156143.800527 kJ/mol
# GULP energy per Si atom -5576.564305 kJ/mol
# Density = 2.211570 g / cm^3
# Si number density = 22.166149 Si / 1000 Ang^3
#
#
#
# Elastic Constant Matrix: (Units=GPa)
#
#
# Indices 1 2 3 4 5 6 
#
# 1 154.1754 42.7750 20.9920 0.0000 8.4316 0.0000
# 2 42.7750 120.8820 16.2185 0.0000 -0.9719 0.0000
# 3 20.9920 16.2185 23.0757 0.0000 -1.0671 0.0000
# 4 0.0000 0.0000 0.0000 16.2403 0.0000 -6.1923
# 5 8.4316 -0.9719 -1.0671 0.0000 32.6849 0.0000
# 6 0.0000 0.0000 0.0000 -6.1923 0.0000 40.8196
#
#
#
# Elastic Compliance Matrix: (Units=1/GPa)
#
#
# Indices 1 2 3 4 5 6 
#
# 1 0.007989 -0.002050 -0.005935 0.000000 -0.002316 0.000000
# 2 -0.002050 0.009660 -0.004894 0.000000 0.000656 0.000000
# 3 -0.005935 -0.004894 0.052318 0.000000 0.003093 0.000000
# 4 0.000000 0.000000 0.000000 0.065356 0.000000 0.009914
# 5 -0.002316 0.000656 0.003093 0.000000 0.031313 0.000000
# 6 0.000000 0.000000 0.000000 0.009914 0.000000 0.026002
#
#
# Mechanical properties :
#
#
# Convention : Reuss Voigt Hill
#
# Bulk Modulus (GPa) = 22.61957 50.90045 36.76001
# Shear Modulus (GPa) = 21.44717 32.49211 26.96964
#
# Velocity S-wave (km/s) = 3.11394 3.83279 3.49191
# Velocity P-wave (km/s) = 4.81202 6.52687 5.73392
#
# Compressibility (1/GPa) = 0.04420951
#
# Stress axis : x y z
#
# Youngs Moduli (GPa) = 125.16558 103.52264 19.11406
#
# Poissons Ratio (x) = 0.21217 0.11343
# Poissons Ratio (y) = 0.25653 0.09355
# Poissons Ratio (z) = 0.74281 0.50669
#
# Static dielectric constant tensor:
#      x y z
#    x 1.910830 0.000000 -0.025390 
#    y 0.000000 1.798130 0.000000 
#    z -0.025390 0.000000 1.845400 
# 
# From -- ./inp_files/77541.got.cif
#   From: 2010.05.17/outbox.cif.g08.bks.cpg/sg13_39_cif.got.tgz:77541.got - 2010.06.03 16:44:36.
