data_PCOD9229800
_publ_section_title
;
Structure prediction by ZEFSAII (Michael W. Deem and Ramdas Pophale) SiO2 
 PCOD9229800
Probable space group: P 2/C
;
_chemical_formula_sum "Si O2"
_cell_formula_units_Z 26
_cell_length_a 18.423204
_cell_length_b 6.352556
_cell_length_c 22.343334
_cell_angle_alpha 90.000000
_cell_angle_beta 155.318630
_cell_angle_gamma 90.000000
_cell_volume 1091.924580
_symmetry_space_group_name_H-M "P 2/C"
_symmetry_group_IT_number 13
_symmetry_cell_setting 'monoclinic'
loop_
_space_group_symop_operation_xyz
x,y,z
-x,y,1/2-z
-x,-y,-z
x,-y,1/2+z
loop_
_atom_site_type_symbol
_atom_site_label
_atom_site_fract_x
_atom_site_fract_y
_atom_site_fract_z
Si Si1 0.211556 0.589723 0.077108
Si Si2 0.209409 0.973160 0.980202
Si Si3 0.500000 0.280371 0.250000
Si Si4 0.677616 0.430337 0.715335
Si Si5 0.618783 0.160776 0.009607
Si Si6 0.941941 0.225164 0.846467
Si Si7 0.274261 0.102220 0.273617
O O1 0.207842 0.775422 0.025248
O O2 0.381032 0.441310 0.197628
O O3 0.228636 0.673134 0.157060
O O4 0.056942 0.422985 0.952436
O O5 0.247416 0.887460 0.942681
O O6 0.370099 0.126532 0.117375
O O7 0.039435 0.118632 0.863692
O O8 0.472917 0.387995 0.565396
O O9 0.748769 0.326401 0.706659
O O10 0.732225 0.670130 0.758990
O O11 0.447299 0.010964 0.878148
O O12 0.696831 0.133809 0.133466
O O13 0.905340 0.026656 0.862591
#
# Coordination Sequence:
#
# PCOD9229800 Si02
#       7
#     4   4   2   4   4   4   4
#     4  11  22  36  59  90 122 157 198 247 306 362
#     4  11  22  39  58  87 124 154 194 248 301 360
#     4  10  20  34  56  86 118 156 196 242 306 356
#     4  11  21  38  62  88 117 154 201 249 297 360
#     4  10  22  39  63  86 114 158 203 249 298 351
#     4  10  24  39  58  87 119 158 194 237 304 358
#     4  10  22  42  61  85 117 156 206 249 291 355
#
# _framework density 23.811170000000001
#
# number of rings (size 3 to 8) (size 9 to 14) (size 15 to 20)
#    0.000    1.538    0.000    5.077    0.000    6.769 
#    0.000    1.538    0.000    0.000    0.000    0.000 
#    0.000    0.000    0.000    0.000    0.000    0.000 
#
# Total GULP energy -145110.638820 kJ/mol
# GULP energy per Si atom -5581.178416 kJ/mol
# Density = 2.375698 g / cm^3
# Si number density = 23.811170 Si / 1000 Ang^3
#
#
#
# Elastic Constant Matrix: (Units=GPa)
#
#
# Indices 1 2 3 4 5 6 
#
# 1 149.3334 36.2031 33.7795 0.0000 1.5998 0.0000
# 2 36.2031 77.8592 12.2755 0.0000 -7.7770 0.0000
# 3 33.7795 12.2755 38.2486 0.0000 7.4176 0.0000
# 4 0.0000 0.0000 0.0000 42.9744 0.0000 11.5426
# 5 1.5998 -7.7770 7.4176 0.0000 26.3013 0.0000
# 6 0.0000 0.0000 0.0000 11.5426 0.0000 35.2990
#
#
#
# Elastic Compliance Matrix: (Units=1/GPa)
#
#
# Indices 1 2 3 4 5 6 
#
# 1 0.009033 -0.003022 -0.007117 0.000000 0.000564 0.000000
# 2 -0.003022 0.015344 -0.003355 0.000000 0.005667 0.000000
# 3 -0.007117 -0.003355 0.035560 0.000000 -0.010588 0.000000
# 4 0.000000 0.000000 0.000000 0.025510 0.000000 -0.008342
# 5 0.000564 0.005667 -0.010588 0.000000 0.042648 0.000000
# 6 0.000000 0.000000 0.000000 -0.008342 0.000000 0.031057
#
#
# Mechanical properties :
#
#
# Convention : Reuss Voigt Hill
#
# Bulk Modulus (GPa) = 30.34926 47.77304 39.06115
# Shear Modulus (GPa) = 25.36491 33.12713 29.24602
#
# Velocity S-wave (km/s) = 3.26736 3.73398 3.50844
# Velocity P-wave (km/s) = 5.19689 6.22069 5.73170
#
# Compressibility (1/GPa) = 0.03294974
#
# Stress axis : x y z
#
# Youngs Moduli (GPa) = 110.70746 65.17342 28.12125
#
# Poissons Ratio (x) = 0.19693 0.20014
# Poissons Ratio (y) = 0.33452 0.09434
# Poissons Ratio (z) = 0.78791 0.21865
#
# Static dielectric constant tensor:
#      x y z
#    x 1.927380 0.000000 0.048250 
#    y 0.000000 1.994580 0.000000 
#    z 0.048250 0.000000 1.903340 
# 
# From -- ./inp_files/77425.got.cif
#   From: 2010.05.17/outbox.cif.g08.bks.cpg/sg13_39_cif.got.tgz:77425.got - 2010.06.03 16:44:36.
