data_PCOD9229708
_publ_section_title
;
Structure prediction by ZEFSAII (Michael W. Deem and Ramdas Pophale) SiO2 
 PCOD9229708
Probable space group: P 2/C
;
_chemical_formula_sum "Si O2"
_cell_formula_units_Z 32
_cell_length_a 9.693196
_cell_length_b 8.664837
_cell_length_c 16.107488
_cell_angle_alpha 90.000000
_cell_angle_beta 103.750302
_cell_angle_gamma 90.000000
_cell_volume 1314.095254
_symmetry_space_group_name_H-M "P 2/C"
_symmetry_group_IT_number 13
_symmetry_cell_setting 'monoclinic'
loop_
_space_group_symop_operation_xyz
x,y,z
-x,y,1/2-z
-x,-y,-z
x,-y,1/2+z
loop_
_atom_site_type_symbol
_atom_site_label
_atom_site_fract_x
_atom_site_fract_y
_atom_site_fract_z
Si Si1 0.533439 0.441014 0.137373
Si Si2 0.327973 0.038607 0.548511
Si Si3 0.041182 0.560699 0.394914
Si Si4 0.569663 0.086292 0.176165
Si Si5 0.706411 0.600909 0.491314
Si Si6 0.179358 0.962977 0.205271
Si Si7 0.212452 0.399826 0.746576
Si Si8 0.927734 0.084791 0.567437
O O1 0.526376 0.263963 0.163069
O O2 0.622192 0.437039 0.063947
O O3 0.631176 0.534732 0.215687
O O4 0.382290 0.513837 0.092646
O O5 0.305716 0.217988 0.526899
O O6 0.251445 0.002676 0.625943
O O7 0.491142 0.996454 0.589010
O O8 0.238865 0.945103 0.467275
O O9 0.132134 0.451700 0.468221
O O10 0.128784 0.571351 0.320737
O O11 0.044097 0.733619 0.430801
O O12 0.882486 0.524417 0.340232
O O13 0.500000 0.018157 0.250000
O O14 0.737024 0.065490 0.215677
O O15 0.210941 0.783966 0.231205
O O16 0.011837 0.975234 0.160696
O O17 0.000000 0.000000 0.500000
#
# Coordination Sequence:
#
# PCOD9229708 Si02
#       8
#     4   4   4   4   4   4   4   4
#     4  10  21  35  51  75 103 132 169 212 253 301
#     4  10  20  34  52  75 103 133 169 210 252 305
#     4   9  18  34  54  75 103 136 167 207 255 300
#     4  10  21  35  52  74 102 133 168 212 257 300
#     4  10  21  35  52  75 103 134 170 209 253 304
#     4   9  19  35  52  74 101 132 167 207 252 301
#     4   9  18  34  54  75 101 133 170 208 251 303
#     4   9  18  34  53  75 104 133 165 206 251 299
#
# _framework density 24.351354000000001
#
# number of rings (size 3 to 8) (size 9 to 14) (size 15 to 20)
#    0.000    2.500    0.000    1.500    0.000    3.500 
#    0.000    5.625    0.000    0.000    0.000    0.000 
#    0.000    0.000    0.000    0.000    0.000    0.000 
#
# Total GULP energy -178935.276518 kJ/mol
# GULP energy per Si atom -5591.727391 kJ/mol
# Density = 2.429593 g / cm^3
# Si number density = 24.351354 Si / 1000 Ang^3
#
#
#
# Elastic Constant Matrix: (Units=GPa)
#
#
# Indices 1 2 3 4 5 6 
#
# 1 96.7702 7.2919 52.3084 0.0000 19.2933 0.0000
# 2 7.2919 79.6987 71.8578 0.0000 32.1379 0.0000
# 3 52.3084 71.8578 221.5225 0.0000 43.0228 0.0000
# 4 0.0000 0.0000 0.0000 53.4171 0.0000 5.6305
# 5 19.2933 32.1379 43.0228 0.0000 44.9756 0.0000
# 6 0.0000 0.0000 0.0000 5.6305 0.0000 34.5251
#
#
#
# Elastic Compliance Matrix: (Units=1/GPa)
#
#
# Indices 1 2 3 4 5 6 
#
# 1 0.012841 0.003853 -0.003288 0.000000 -0.005116 0.000000
# 2 0.003853 0.022270 -0.005800 0.000000 -0.012018 0.000000
# 3 -0.003288 -0.005800 0.007483 0.000000 -0.001604 0.000000
# 4 0.000000 0.000000 0.000000 0.019048 0.000000 -0.003106
# 5 -0.005116 -0.012018 -0.001604 0.000000 0.034551 0.000000
# 6 0.000000 0.000000 0.000000 -0.003106 0.000000 0.029471
#
#
# Mechanical properties :
#
#
# Convention : Reuss Voigt Hill
#
# Bulk Modulus (GPa) = 31.12900 73.43418 52.28159
# Shear Modulus (GPa) = 34.05003 44.35245 39.20124
#
# Velocity S-wave (km/s) = 3.74342 4.27236 4.01661
# Velocity P-wave (km/s) = 5.61206 7.38641 6.55951
#
# Compressibility (1/GPa) = 0.03212439
#
# Stress axis : x y z
#
# Youngs Moduli (GPa) = 77.87599 44.90308 133.62764
#
# Poissons Ratio (x) = -0.17301 0.43942
# Poissons Ratio (y) = -0.30006 0.77500
# Poissons Ratio (z) = 0.25609 0.26043
#
# Static dielectric constant tensor:
#      x y z
#    x 2.008090 0.000000 0.005180 
#    y 0.000000 1.830420 0.000000 
#    z 0.005180 0.000000 1.976650 
# 
# From -- ./inp_files/78292.got.cif
#   From: 2010.05.17/outbox.cif.g08.bks.cpg/sg13_40_cif.got.tgz:78292.got - 2010.06.03 16:44:36.
