data_PCOD9229427
_publ_section_title
;
Structure prediction by ZEFSAII (Michael W. Deem and Ramdas Pophale) SiO2 
 PCOD9229427
Probable space group: P 2/C
;
_chemical_formula_sum "Si O2"
_cell_formula_units_Z 32
_cell_length_a 10.093103
_cell_length_b 19.521997
_cell_length_c 12.767449
_cell_angle_alpha 90.000000
_cell_angle_beta 138.943058
_cell_angle_gamma 90.000000
_cell_volume 1652.311827
_symmetry_space_group_name_H-M "P 2/C"
_symmetry_group_IT_number 13
_symmetry_cell_setting 'monoclinic'
loop_
_space_group_symop_operation_xyz
x,y,z
-x,y,1/2-z
-x,-y,-z
x,-y,1/2+z
loop_
_atom_site_type_symbol
_atom_site_label
_atom_site_fract_x
_atom_site_fract_y
_atom_site_fract_z
Si Si1 0.936446 0.792636 0.465389
Si Si2 0.841397 0.055470 0.946541
Si Si3 0.289147 0.719092 0.569572
Si Si4 0.962790 0.420365 0.605281
Si Si5 0.470787 0.938125 0.062193
Si Si6 0.262712 0.556968 0.100461
Si Si7 0.325395 0.695593 0.056085
Si Si8 0.405089 0.785988 0.420281
O O1 0.943980 0.870761 0.503210
O O2 0.842424 0.746803 0.500861
O O3 0.780295 0.786472 0.273822
O O4 0.152208 0.765745 0.561670
O O5 0.736749 0.049484 0.997828
O O6 0.653688 0.057564 0.754309
O O7 0.000000 0.000000 0.000000
O O8 0.500000 0.703808 0.750000
O O9 0.165062 0.649079 0.480763
O O10 0.324099 0.760971 0.483289
O O11 0.843643 0.487003 0.494849
O O12 0.000000 0.429609 0.750000
O O13 0.161015 0.416736 0.648682
O O14 0.494342 0.861836 0.026329
O O15 0.500000 0.000000 0.000000
O O16 0.500000 0.543642 0.250000
O O17 0.240814 0.618725 0.003430
O O18 0.500000 0.693427 0.250000
O O19 0.433423 0.729299 0.021727
#
# Coordination Sequence:
#
# PCOD9229427 Si02
#       8
#     4   4   4   4   4   4   4   4
#     4  10  19  40  66  87 118 155 211 248 306 368
#     4  10  22  39  62  89 122 163 203 254 301 364
#     4  12  26  41  59  92 128 160 198 260 310 358
#     4  11  24  43  65  92 127 167 206 248 304 370
#     4  10  22  40  61  89 123 160 207 250 303 367
#     4  10  22  41  65  95 125 159 206 258 303 356
#     4   9  17  36  66  92 110 151 202 255 299 357
#     4  10  21  40  66  90 115 160 208 252 305 370
#
# _framework density 19.366803999999998
#
# number of rings (size 3 to 8) (size 9 to 14) (size 15 to 20)
#    0.000    1.750    2.500    1.500    5.250    2.000 
#    4.500    0.625    0.000    0.000    0.000    0.000 
#    0.000    0.000    0.000    0.000    0.000    0.000 
#
# Total GULP energy -178657.129956 kJ/mol
# GULP energy per Si atom -5583.035311 kJ/mol
# Density = 1.932272 g / cm^3
# Si number density = 19.366804 Si / 1000 Ang^3
#
#
#
# Elastic Constant Matrix: (Units=GPa)
#
#
# Indices 1 2 3 4 5 6 
#
# 1 155.6463 71.6739 35.5865 0.0000 24.1900 0.0000
# 2 71.6739 137.0823 14.8639 0.0000 8.2563 0.0000
# 3 35.5865 14.8639 26.9174 0.0000 6.4297 0.0000
# 4 0.0000 0.0000 0.0000 25.4373 0.0000 4.3165
# 5 24.1900 8.2563 6.4297 0.0000 19.4359 0.0000
# 6 0.0000 0.0000 0.0000 4.3165 0.0000 42.1093
#
#
#
# Elastic Compliance Matrix: (Units=1/GPa)
#
#
# Indices 1 2 3 4 5 6 
#
# 1 0.013009 -0.004882 -0.012085 0.000000 -0.010119 0.000000
# 2 -0.004882 0.009667 0.000701 0.000000 0.001738 0.000000
# 3 -0.012085 0.000701 0.053443 0.000000 -0.002936 0.000000
# 4 0.000000 0.000000 0.000000 0.040008 0.000000 -0.004101
# 5 -0.010119 0.001738 -0.002936 0.000000 0.064278 0.000000
# 6 0.000000 0.000000 0.000000 -0.004101 0.000000 0.024168
#
#
# Mechanical properties :
#
#
# Convention : Reuss Voigt Hill
#
# Bulk Modulus (GPa) = 22.94348 62.65495 42.79921
# Shear Modulus (GPa) = 19.87017 30.56462 25.21739
#
# Velocity S-wave (km/s) = 3.20658 3.97696 3.61237
# Velocity P-wave (km/s) = 5.05788 7.31507 6.28858
#
# Compressibility (1/GPa) = 0.04358537
#
# Stress axis : x y z
#
# Youngs Moduli (GPa) = 76.87198 103.44841 18.71168
#
# Poissons Ratio (x) = 0.50501 0.22614
# Poissons Ratio (y) = 0.37527 -0.01312
# Poissons Ratio (z) = 0.92903 -0.07251
#
# Static dielectric constant tensor:
#      x y z
#    x 1.687340 0.000000 0.023980 
#    y 0.000000 1.668740 0.000000 
#    z 0.023980 0.000000 1.714090 
# 
# From -- ./inp_files/30810.got.cif
#   From: 2010.05.17/outbox.cif.g08.bks.cpg/sg13_16_cif.got.tgz:30810.got - 2010.06.03 16:44:36.
