data_PCOD9229403
_publ_section_title
;
Structure prediction by ZEFSAII (Michael W. Deem and Ramdas Pophale) SiO2 
 PCOD9229403
Probable space group: P 2/C
;
_chemical_formula_sum "Si O2"
_cell_formula_units_Z 22
_cell_length_a 5.204908
_cell_length_b 12.658303
_cell_length_c 14.175121
_cell_angle_alpha 90.000000
_cell_angle_beta 112.119424
_cell_angle_gamma 90.000000
_cell_volume 865.195695
_symmetry_space_group_name_H-M "P 2/C"
_symmetry_group_IT_number 13
_symmetry_cell_setting 'monoclinic'
loop_
_space_group_symop_operation_xyz
x,y,z
-x,y,1/2-z
-x,-y,-z
x,-y,1/2+z
loop_
_atom_site_type_symbol
_atom_site_label
_atom_site_fract_x
_atom_site_fract_y
_atom_site_fract_z
Si Si1 0.861221 0.294962 0.626607
Si Si2 0.310124 0.671980 0.630231
Si Si3 0.000000 0.966863 0.750000
Si Si4 0.360010 0.428024 0.627832
Si Si5 0.261373 0.198434 0.428788
Si Si6 0.108524 0.911385 0.087298
O O1 0.581786 0.362871 0.598190
O O2 0.000000 0.288905 0.750000
O O3 0.076724 0.364485 0.596298
O O4 0.890723 0.176605 0.591305
O O5 0.500000 0.676143 0.750000
O O6 0.303328 0.549870 0.598479
O O7 0.483700 0.739264 0.579735
O O8 0.013209 0.726425 0.608661
O O9 0.192061 0.894934 0.844090
O O10 0.176197 0.033489 0.696864
O O11 0.500000 0.429276 0.750000
O O12 0.303014 0.152548 0.540692
O O13 0.000000 0.000000 0.000000
#
# Coordination Sequence:
#
# PCOD9229403 Si02
#       6
#     4   4   2   4   4   4
#     4  10  19  40  62  94 129 171 215 261 316 386
#     4  11  20  41  66  97 133 170 211 268 328 387
#     4  10  20  46  66  92 128 180 210 274 330 378
#     4   9  20  35  66  95 126 171 215 255 322 393
#     4  11  23  40  67  99 129 166 220 267 323 393
#     4  10  23  42  70  95 134 169 228 269 324 380
#
# _framework density 25.427773999999999
#
# number of rings (size 3 to 8) (size 9 to 14) (size 15 to 20)
#    0.000    1.818    2.727    1.091    0.000    4.364 
#    0.000   25.455    0.000    0.000    0.000    0.000 
#    0.000    0.000    0.000    0.000    0.000    0.000 
#
# Total GULP energy -123071.315049 kJ/mol
# GULP energy per Si atom -5594.150684 kJ/mol
# Density = 2.536990 g / cm^3
# Si number density = 25.427774 Si / 1000 Ang^3
#
#
#
# Elastic Constant Matrix: (Units=GPa)
#
#
# Indices 1 2 3 4 5 6 
#
# 1 180.0943 91.2324 18.5368 0.0000 -28.2875 0.0000
# 2 91.2324 192.9404 63.3926 0.0000 -26.2350 0.0000
# 3 18.5368 63.3926 176.2963 0.0000 -22.1459 0.0000
# 4 0.0000 0.0000 0.0000 46.8056 0.0000 -25.2329
# 5 -28.2875 -26.2350 -22.1459 0.0000 31.7383 0.0000
# 6 0.0000 0.0000 0.0000 -25.2329 0.0000 0.6662
#
#
#
# Elastic Compliance Matrix: (Units=1/GPa)
#
#
# Indices 1 2 3 4 5 6 
#
# 1 0.007964 -0.003424 0.001019 0.000000 0.004979 0.000000
# 2 -0.003424 0.007776 -0.002205 0.000000 0.001838 0.000000
# 3 0.001019 -0.002205 0.006843 0.000000 0.003860 0.000000
# 4 0.000000 0.000000 0.000000 -0.001100 0.000000 -0.041672
# 5 0.004979 0.001838 0.003860 0.000000 0.040158 0.000000
# 6 0.000000 0.000000 0.000000 -0.041672 0.000000 -0.077299
#
#
# Mechanical properties :
#
#
# Convention : Reuss Voigt Hill
#
# Bulk Modulus (GPa) = 74.82894 99.51719 87.17307
# Shear Modulus (GPa) = -2521.78981 40.91998 -1240.43491
#
# Velocity S-wave (km/s) = -31.52617 4.01591 -22.11076
# Velocity P-wave (km/s) = 35.99593 7.79266 24.84936
#
# Compressibility (1/GPa) = 0.01336381
#
# Stress axis : x y z
#
# Youngs Moduli (GPa) = 125.56105 128.59526 146.13415
#
# Poissons Ratio (x) = 0.44027 -0.14894
# Poissons Ratio (y) = 0.42988 0.32228
# Poissons Ratio (z) = -0.12797 0.28360
#
# Static dielectric constant tensor:
#      x y z
#    x 1.994010 0.000000 0.100430 
#    y 0.000000 2.021330 0.000000 
#    z 0.100430 0.000000 2.176790 
# 
# From -- ./inp_files/43701.got.cif
#   From: 2010.05.17/outbox.cif.g08.bks.cpg/sg13_22_cif.got.tgz:43701.got - 2010.06.03 16:44:36.
