data_PCOD9229791
_publ_section_title
;
Structure prediction by ZEFSAII (Michael W. Deem and Ramdas Pophale) SiO2 
 PCOD9229791
Probable space group: P 2/C
;
_chemical_formula_sum "Si O2"
_cell_formula_units_Z 28
_cell_length_a 23.016419
_cell_length_b 10.796889
_cell_length_c 7.742231
_cell_angle_alpha 90.000000
_cell_angle_beta 37.081926
_cell_angle_gamma 90.000000
_cell_volume 1160.081220
_symmetry_space_group_name_H-M "P 2/C"
_symmetry_group_IT_number 13
_symmetry_cell_setting 'monoclinic'
loop_
_space_group_symop_operation_xyz
x,y,z
-x,y,1/2-z
-x,-y,-z
x,-y,1/2+z
loop_
_atom_site_type_symbol
_atom_site_label
_atom_site_fract_x
_atom_site_fract_y
_atom_site_fract_z
Si Si1 0.500000 0.947197 0.750000
Si Si2 0.086257 0.674488 0.182318
Si Si3 0.807086 0.843688 0.109333
Si Si4 0.500000 0.585059 0.750000
Si Si5 0.894410 0.943296 0.228657
Si Si6 0.629571 0.609918 0.753349
Si Si7 0.153911 0.415262 0.871217
Si Si8 0.612025 0.137920 0.297095
O O1 0.474613 0.877038 0.635156
O O2 0.591720 0.030854 0.481828
O O3 0.125048 0.816543 0.114386
O O4 0.077046 0.626807 0.405281
O O5 0.000000 0.690062 0.250000
O O6 0.138242 0.552231 0.980542
O O7 0.885382 0.895133 0.056833
O O8 0.833187 0.698544 0.021852
O O9 0.708448 0.856247 0.452516
O O10 0.818575 0.943638 0.931844
O O11 0.577208 0.643318 0.696988
O O12 0.571620 0.502450 0.466756
O O13 0.000000 0.000000 0.000000
O O14 0.741337 0.583625 0.468099
O O15 0.614213 0.734202 0.897907
#
# Coordination Sequence:
#
# PCOD9229791 Si02
#       8
#     2   4   4   2   4   4   4   4
#     4  10  20  34  56  84 114 148 192 236 286 344
#     4  11  23  40  61  87 117 152 195 240 293 348
#     4  10  22  39  60  85 117 153 193 239 294 347
#     4  10  20  34  58  82 110 150 190 230 280 342
#     4  11  23  41  62  87 116 152 195 243 293 351
#     4  10  20  37  56  82 114 149 190 234 286 340
#     4  10  23  39  59  86 119 152 191 242 291 347
#     4  10  20  36  56  82 114 149 188 236 286 342
#
# _framework density 24.136243
#
# number of rings (size 3 to 8) (size 9 to 14) (size 15 to 20)
#    0.000    1.714    0.000    4.286    0.000    4.571 
#    0.000    7.143    0.000    0.000    0.000    0.000 
#    0.000    0.000    0.000    0.000    0.000    0.000 
#
# Total GULP energy -156012.070318 kJ/mol
# GULP energy per Si atom -5571.859654 kJ/mol
# Density = 2.408131 g / cm^3
# Si number density = 24.136243 Si / 1000 Ang^3
#
#
#
# Elastic Constant Matrix: (Units=GPa)
#
#
# Indices 1 2 3 4 5 6 
#
# 1 65.6220 8.3193 -2.0176 0.0000 -1.1990 0.0000
# 2 8.3193 142.3055 35.6616 0.0000 3.9863 0.0000
# 3 -2.0176 35.6616 56.1373 0.0000 -7.1752 0.0000
# 4 0.0000 0.0000 0.0000 57.8326 0.0000 29.4103
# 5 -1.1990 3.9863 -7.1752 0.0000 26.3781 0.0000
# 6 0.0000 0.0000 0.0000 29.4103 0.0000 32.1259
#
#
#
# Elastic Compliance Matrix: (Units=1/GPa)
#
#
# Indices 1 2 3 4 5 6 
#
# 1 0.015481 -0.001338 0.001577 0.000000 0.001335 0.000000
# 2 -0.001338 0.008678 -0.005943 0.000000 -0.002989 0.000000
# 3 0.001577 -0.005943 0.022554 0.000000 0.007105 0.000000
# 4 0.000000 0.000000 0.000000 0.032354 0.000000 -0.029619
# 5 0.001335 -0.002989 0.007105 0.000000 0.040355 0.000000
# 6 0.000000 0.000000 0.000000 -0.029619 0.000000 0.058243
#
#
# Mechanical properties :
#
#
# Convention : Reuss Voigt Hill
#
# Bulk Modulus (GPa) = 28.32435 38.66571 33.49503
# Shear Modulus (GPa) = 24.89528 38.07408 31.48468
#
# Velocity S-wave (km/s) = 3.21510 3.97604 3.61564
# Velocity P-wave (km/s) = 5.05402 6.09369 5.59805
#
# Compressibility (1/GPa) = 0.03530532
#
# Stress axis : x y z
#
# Youngs Moduli (GPa) = 64.59432 115.22870 44.33879
#
# Poissons Ratio (x) = 0.15412 -0.06991
# Poissons Ratio (y) = 0.08640 0.26351
# Poissons Ratio (z) = -0.10185 0.68482
#
# Static dielectric constant tensor:
#      x y z
#    x 2.062710 0.000000 0.016500 
#    y 0.000000 2.035820 0.000000 
#    z 0.016500 0.000000 1.959140 
# 
# From -- ./inp_files/24563.got.cif
#   From: 2010.05.17/outbox.cif.g08.bks.cpg/sg13_13_cif.got.tgz:24563.got - 2010.06.03 16:44:36.
