data_PCOD9229562
_publ_section_title
;
Structure prediction by ZEFSAII (Michael W. Deem and Ramdas Pophale) SiO2 
 PCOD9229562
Probable space group: P 2/C
;
_chemical_formula_sum "Si O2"
_cell_formula_units_Z 22
_cell_length_a 9.163886
_cell_length_b 10.853209
_cell_length_c 9.128753
_cell_angle_alpha 90.000000
_cell_angle_beta 88.419673
_cell_angle_gamma 90.000000
_cell_volume 907.578256
_symmetry_space_group_name_H-M "P 2/C"
_symmetry_group_IT_number 13
_symmetry_cell_setting 'monoclinic'
loop_
_space_group_symop_operation_xyz
x,y,z
-x,y,1/2-z
-x,-y,-z
x,-y,1/2+z
loop_
_atom_site_type_symbol
_atom_site_label
_atom_site_fract_x
_atom_site_fract_y
_atom_site_fract_z
Si Si1 0.000000 0.995875 0.250000
Si Si2 0.500000 0.329371 0.250000
Si Si3 0.204922 0.074915 0.993668
Si Si4 0.500000 0.692566 0.250000
Si Si5 0.008535 0.633529 0.073263
Si Si6 0.686649 0.323016 0.494440
Si Si7 0.299009 0.208027 0.504423
O O1 0.901591 0.075329 0.362404
O O2 0.106575 0.915416 0.349249
O O3 0.619866 0.387965 0.355253
O O4 0.396007 0.256027 0.366342
O O5 0.333822 0.173710 0.006278
O O6 0.263322 0.935041 0.987369
O O7 0.396553 0.620707 0.365044
O O8 0.610619 0.768165 0.349243
O O9 0.150012 0.712010 0.022109
O O10 0.000000 0.626733 0.250000
O O11 0.857537 0.683375 0.012730
O O12 0.000000 0.500000 0.000000
#
# Coordination Sequence:
#
# PCOD9229562 Si02
#       7
#     2   2   4   2   4   4   4
#     4  10  20  32  50  96 134 174 234 274 338 370
#     4  10  26  43  65 110 150 186 215 281 348 416
#     4  11  22  35  66 100 142 190 222 278 332 420
#     4  10  22  43  69  98 144 188 231 281 342 426
#     4  12  28  50  77 102 130 179 241 304 350 405
#     4  11  24  44  70 103 146 183 234 278 347 413
#     4  11  24  44  70 103 146 183 234 278 347 413
#
# _framework density 24.240331000000001
#
# number of rings (size 3 to 8) (size 9 to 14) (size 15 to 20)
#    0.000    1.091    1.818    4.364    5.091    4.364 
#    0.000    5.455    0.000    0.000    0.000    0.000 
#    0.000    0.000    0.000    0.000    0.000    0.000 
#
# Total GULP energy -123011.690055 kJ/mol
# GULP energy per Si atom -5591.440457 kJ/mol
# Density = 2.418516 g / cm^3
# Si number density = 24.240331 Si / 1000 Ang^3
#
#
#
# Elastic Constant Matrix: (Units=GPa)
#
#
# Indices 1 2 3 4 5 6 
#
# 1 168.8051 25.4556 63.6036 0.0000 17.1824 0.0000
# 2 25.4556 70.8643 16.3532 0.0000 6.5005 0.0000
# 3 63.6036 16.3532 172.5336 0.0000 12.3159 0.0000
# 4 0.0000 0.0000 0.0000 15.6641 0.0000 2.4679
# 5 17.1824 6.5005 12.3159 0.0000 53.5530 0.0000
# 6 0.0000 0.0000 0.0000 2.4679 0.0000 19.6467
#
#
#
# Elastic Compliance Matrix: (Units=1/GPa)
#
#
# Indices 1 2 3 4 5 6 
#
# 1 0.007271 -0.001919 -0.002388 0.000000 -0.001551 0.000000
# 2 -0.001919 0.015047 -0.000643 0.000000 -0.001063 0.000000
# 3 -0.002388 -0.000643 0.006788 0.000000 -0.000717 0.000000
# 4 0.000000 0.000000 0.000000 0.065129 0.000000 -0.008181
# 5 -0.001551 -0.001063 -0.000717 0.000000 0.019465 0.000000
# 6 0.000000 0.000000 0.000000 -0.008181 0.000000 0.051927
#
#
# Mechanical properties :
#
#
# Convention : Reuss Voigt Hill
#
# Bulk Modulus (GPa) = 52.06422 69.22530 60.64476
# Shear Modulus (GPa) = 27.48352 38.22550 32.85451
#
# Velocity S-wave (km/s) = 3.37084 3.97538 3.68552
# Velocity P-wave (km/s) = 6.05599 7.04921 6.57139
#
# Compressibility (1/GPa) = 0.01920705
#
# Stress axis : x y z
#
# Youngs Moduli (GPa) = 137.53540 66.46045 147.31109
#
# Poissons Ratio (x) = 0.12751 0.35175
# Poissons Ratio (y) = 0.26386 0.09472
# Poissons Ratio (z) = 0.32841 0.04274
#
# Static dielectric constant tensor:
#      x y z
#    x 2.067480 0.000000 -0.009800 
#    y 0.000000 2.533590 0.000000 
#    z -0.009800 0.000000 1.934710 
# 
# From -- ./inp_files/12520.got.cif
#   From: 2010.05.17/outbox.cif.g08.bks.cpg/sg13_7_cif.got.tgz:12520.got - 2010.06.03 16:44:36.
