data_PCOD9229492
_publ_section_title
;
Structure prediction by ZEFSAII (Michael W. Deem and Ramdas Pophale) SiO2 
 PCOD9229492
Probable space group: P 2/C
;
_chemical_formula_sum "Si O2"
_cell_formula_units_Z 30
_cell_length_a 15.107779
_cell_length_b 16.188078
_cell_length_c 13.796837
_cell_angle_alpha 90.000000
_cell_angle_beta 27.755152
_cell_angle_gamma 90.000000
_cell_volume 1571.361749
_symmetry_space_group_name_H-M "P 2/C"
_symmetry_group_IT_number 13
_symmetry_cell_setting 'monoclinic'
loop_
_space_group_symop_operation_xyz
x,y,z
-x,y,1/2-z
-x,-y,-z
x,-y,1/2+z
loop_
_atom_site_type_symbol
_atom_site_label
_atom_site_fract_x
_atom_site_fract_y
_atom_site_fract_z
Si Si1 0.797165 0.470884 0.477293
Si Si2 0.683247 0.882218 0.307230
Si Si3 0.103958 0.862203 0.951427
Si Si4 0.700426 0.648468 0.596478
Si Si5 0.481105 0.564376 0.428340
Si Si6 0.401000 0.736133 0.604385
Si Si7 0.444468 0.020968 0.192497
Si Si8 0.000000 0.230513 0.750000
O O1 0.820168 0.565237 0.493059
O O2 0.670001 0.469361 0.503332
O O3 0.679126 0.428329 0.677594
O O4 0.000000 0.436014 0.250000
O O5 0.590465 0.792077 0.412838
O O6 0.610721 0.938430 0.467105
O O7 0.590445 0.926446 0.303928
O O8 0.910294 0.885989 0.085563
O O9 0.225840 0.800240 0.765431
O O10 0.253570 0.931241 0.842506
O O11 0.033592 0.820218 0.120019
O O12 0.500000 0.620634 0.750000
O O13 0.643305 0.698252 0.747197
O O14 0.817101 0.710499 0.415963
O O15 0.500000 0.500000 0.500000
O O16 0.416814 0.655309 0.523298
O O17 0.500000 0.032203 0.250000
#
# Coordination Sequence:
#
# PCOD9229492 Si02
#       8
#     4   4   4   4   4   4   4   2
#     4  11  23  38  59  87 117 157 207 257 299 360
#     4  10  21  39  60  86 121 155 197 251 291 354
#     4  10  20  35  59  91 121 156 197 247 300 360
#     4  11  18  34  55  82 118 152 193 247 306 356
#     4  11  22  42  61  85 120 165 203 253 311 363
#     4  10  22  37  58  86 119 157 203 245 306 358
#     4  10  21  38  61  89 120 158 195 237 301 362
#     4  10  20  28  54  90 122 146 194 250 304 352
#
# _framework density 19.091721
#
# number of rings (size 3 to 8) (size 9 to 14) (size 15 to 20)
#    0.000    1.600    3.333    2.000    0.000    5.333 
#    2.400    0.000    0.000    0.000    1.733    0.000 
#    0.000    0.000    0.000    0.000    0.000    0.000 
#
# Total GULP energy -167231.772324 kJ/mol
# GULP energy per Si atom -5574.392411 kJ/mol
# Density = 1.904827 g / cm^3
# Si number density = 19.091721 Si / 1000 Ang^3
#
#
#
# Elastic Constant Matrix: (Units=GPa)
#
#
# Indices 1 2 3 4 5 6 
#
# 1 63.4011 32.1942 39.1384 0.0000 -1.3730 0.0000
# 2 32.1942 92.1550 32.0058 0.0000 3.0781 0.0000
# 3 39.1384 32.0058 128.8485 0.0000 -4.3529 0.0000
# 4 0.0000 0.0000 0.0000 23.7058 0.0000 5.1706
# 5 -1.3730 3.0781 -4.3529 0.0000 24.7571 0.0000
# 6 0.0000 0.0000 0.0000 5.1706 0.0000 18.4961
#
#
#
# Elastic Compliance Matrix: (Units=1/GPa)
#
#
# Indices 1 2 3 4 5 6 
#
# 1 0.021997 -0.005922 -0.005175 0.000000 0.001046 0.000000
# 2 -0.005922 0.013570 -0.001650 0.000000 -0.002306 0.000000
# 3 -0.005175 -0.001650 0.009798 0.000000 0.001641 0.000000
# 4 0.000000 0.000000 0.000000 0.044923 0.000000 -0.012558
# 5 0.001046 -0.002306 0.001641 0.000000 0.041026 0.000000
# 6 0.000000 0.000000 0.000000 -0.012558 0.000000 0.057576
#
#
# Mechanical properties :
#
#
# Convention : Reuss Voigt Hill
#
# Bulk Modulus (GPa) = 50.32455 54.56462 52.44458
# Shear Modulus (GPa) = 22.62348 25.46288 24.04318
#
# Velocity S-wave (km/s) = 3.44610 3.65597 3.55258
# Velocity P-wave (km/s) = 6.50006 6.81643 6.66012
#
# Compressibility (1/GPa) = 0.01987102
#
# Stress axis : x y z
#
# Youngs Moduli (GPa) = 45.46005 73.69077 102.05808
#
# Poissons Ratio (x) = 0.43642 0.52819
# Poissons Ratio (y) = 0.26923 0.16838
# Poissons Ratio (z) = 0.23527 0.12158
#
# Static dielectric constant tensor:
#      x y z
#    x 1.636570 0.000000 -0.009870 
#    y 0.000000 1.706190 0.000000 
#    z -0.009870 0.000000 1.690940 
# 
# From -- ./inp_files/53853.got.cif
#   From: 2010.05.17/outbox.cif.g08.bks.cpg/sg13_27_cif.got.tgz:53853.got - 2010.06.03 16:44:36.
