data_PCOD9229929
_publ_section_title
;
Structure prediction by ZEFSAII (Michael W. Deem and Ramdas Pophale) SiO2 
 PCOD9229929
Probable space group: P 2/C
;
_chemical_formula_sum "Si O2"
_cell_formula_units_Z 30
_cell_length_a 18.832720
_cell_length_b 8.349414
_cell_length_c 8.392754
_cell_angle_alpha 90.000000
_cell_angle_beta 93.286619
_cell_angle_gamma 90.000000
_cell_volume 1317.524311
_symmetry_space_group_name_H-M "P 2/C"
_symmetry_group_IT_number 13
_symmetry_cell_setting 'monoclinic'
loop_
_space_group_symop_operation_xyz
x,y,z
-x,y,1/2-z
-x,-y,-z
x,-y,1/2+z
loop_
_atom_site_type_symbol
_atom_site_label
_atom_site_fract_x
_atom_site_fract_y
_atom_site_fract_z
Si Si1 0.234825 0.239594 0.620197
Si Si2 0.500000 0.395406 0.750000
Si Si3 0.813369 0.958538 0.088501
Si Si4 0.846533 0.563132 0.615446
Si Si5 0.096874 0.841390 0.681314
Si Si6 0.598334 0.404563 0.504355
Si Si7 0.966977 0.660483 0.074420
Si Si8 0.305640 0.545449 0.732876
O O1 0.223387 0.149974 0.784769
O O2 0.168064 0.350170 0.555239
O O3 0.296984 0.367050 0.656039
O O4 0.234852 0.107772 0.478903
O O5 0.551383 0.307118 0.627993
O O6 0.453099 0.508725 0.628232
O O7 0.885961 0.025811 0.183063
O O8 0.837278 0.875089 0.929222
O O9 0.896407 0.674395 0.726759
O O10 0.885420 0.396296 0.594879
O O11 0.770428 0.568367 0.693828
O O12 0.032158 0.806548 0.551943
O O13 0.636347 0.534247 0.622365
O O14 0.664118 0.341289 0.403674
O O15 0.000000 0.697512 0.250000
O O16 0.000000 0.500000 0.000000
#
# Coordination Sequence:
#
# PCOD9229929 Si02
#       8
#     4   2   4   4   4   4   4   4
#     4  10  20  35  54  78 115 143 188 228 286 337
#     4   8  16  34  44  72 132 168 180 204 254 358
#     4   9  21  38  59  75 107 160 178 230 298 327
#     4  11  22  36  57  85 115 140 178 250 295 336
#     4  10  21  40  59  79 106 146 185 227 290 347
#     4   9  18  29  52  80 121 162 181 215 274 338
#     4  12  25  40  59  84 109 145 187 236 300 350
#     4  11  19  31  53  93 111 145 186 237 292 329
#
# _framework density 22.769977000000001
#
# number of rings (size 3 to 8) (size 9 to 14) (size 15 to 20)
#    0.000    1.867    2.667    1.600    3.733    0.000 
#    0.000    0.667    0.000    0.000    0.000    0.000 
#    0.000   53.333    0.000    0.000    0.000    0.000 
#
# Total GULP energy -167064.316934 kJ/mol
# GULP energy per Si atom -5568.810564 kJ/mol
# Density = 2.271815 g / cm^3
# Si number density = 22.769977 Si / 1000 Ang^3
#
#
#
# Elastic Constant Matrix: (Units=GPa)
#
#
# Indices 1 2 3 4 5 6 
#
# 1 86.9382 9.1311 37.5123 0.0000 -20.5590 0.0000
# 2 9.1311 50.3077 24.3446 0.0000 2.1152 0.0000
# 3 37.5123 24.3446 140.0058 0.0000 7.1804 0.0000
# 4 0.0000 0.0000 0.0000 33.5073 0.0000 -5.5030
# 5 -20.5590 2.1152 7.1804 0.0000 53.7935 0.0000
# 6 0.0000 0.0000 0.0000 -5.5030 0.0000 3.2701
#
#
#
# Elastic Compliance Matrix: (Units=1/GPa)
#
#
# Indices 1 2 3 4 5 6 
#
# 1 0.014873 -0.000960 -0.004140 0.000000 0.006275 0.000000
# 2 -0.000960 0.021773 -0.003490 0.000000 -0.000757 0.000000
# 3 -0.004140 -0.003490 0.008994 0.000000 -0.002646 0.000000
# 4 0.000000 0.000000 0.000000 0.041243 0.000000 0.069404
# 5 0.006275 -0.000757 -0.002646 0.000000 0.021371 0.000000
# 6 0.000000 0.000000 0.000000 0.069404 0.000000 0.422599
#
#
# Mechanical properties :
#
#
# Convention : Reuss Voigt Hill
#
# Bulk Modulus (GPa) = 35.13627 46.58087 40.85857
# Shear Modulus (GPa) = 8.96831 31.86509 20.41670
#
# Velocity S-wave (km/s) = 1.98676 3.74496 2.99766
# Velocity P-wave (km/s) = 4.55274 6.26108 5.47396
#
# Compressibility (1/GPa) = 0.02846062
#
# Stress axis : x y z
#
# Youngs Moduli (GPa) = 67.23407 45.92944 111.18156
#
# Poissons Ratio (x) = 0.04409 0.46029
# Poissons Ratio (y) = 0.06455 0.38800
# Poissons Ratio (z) = 0.27835 0.16028
#
# Static dielectric constant tensor:
#      x y z
#    x 1.979930 0.000000 -0.057670 
#    y 0.000000 1.851650 0.000000 
#    z -0.057670 0.000000 1.932750 
# 
# From -- ./inp_files/22804.got.cif
#   From: 2010.05.17/outbox.cif.g08.bks.cpg/sg13_12_cif.got.tgz:22804.got - 2010.06.03 16:44:36.
