data_PCOD9229806
_publ_section_title
;
Structure prediction by ZEFSAII (Michael W. Deem and Ramdas Pophale) SiO2 
 PCOD9229806
Probable space group: P 2/C
;
_chemical_formula_sum "Si O2"
_cell_formula_units_Z 26
_cell_length_a 11.329848
_cell_length_b 11.549688
_cell_length_c 10.102742
_cell_angle_alpha 90.000000
_cell_angle_beta 74.868702
_cell_angle_gamma 90.000000
_cell_volume 1276.172803
_symmetry_space_group_name_H-M "P 2/C"
_symmetry_group_IT_number 13
_symmetry_cell_setting 'monoclinic'
loop_
_space_group_symop_operation_xyz
x,y,z
-x,y,1/2-z
-x,-y,-z
x,-y,1/2+z
loop_
_atom_site_type_symbol
_atom_site_label
_atom_site_fract_x
_atom_site_fract_y
_atom_site_fract_z
Si Si1 0.220086 0.764342 0.509788
Si Si2 0.371746 0.044681 0.098432
Si Si3 0.985420 0.388766 0.098662
Si Si4 0.500000 0.769275 0.750000
Si Si5 0.427738 0.573861 0.131879
Si Si6 0.280062 0.372530 0.254655
Si Si7 0.627930 0.808786 0.283697
O O1 0.267843 0.892635 0.540234
O O2 0.081433 0.715763 0.543218
O O3 0.274966 0.685981 0.611115
O O4 0.284377 0.751342 0.350207
O O5 0.424643 0.141543 0.180981
O O6 0.318514 0.927813 0.177509
O O7 0.500000 0.000000 0.000000
O O8 0.000000 0.421855 0.250000
O O9 0.845122 0.349697 0.133308
O O10 0.000000 0.500000 0.000000
O O11 0.609379 0.678214 0.691920
O O12 0.500000 0.580265 0.250000
O O13 0.306034 0.504913 0.208605
O O14 0.404872 0.707978 0.102690
O O15 0.500000 0.500000 0.000000
O O16 0.500000 0.840932 0.250000
#
# Coordination Sequence:
#
# PCOD9229806 Si02
#       7
#     4   4   4   2   4   4   4
#     4  10  21  38  63  92 126 171 224 272 326 408
#     4  11  20  35  59  88 126 166 217 265 338 393
#     4  10  22  42  67  92 132 180 223 270 333 410
#     4  10  20  34  56  88 118 158 212 264 330 392
#     4  11  23  35  56  94 137 160 205 267 338 397
#     4  10  20  38  61  91 130 166 215 272 339 402
#     4  11  20  35  57  89 128 166 210 271 335 394
#
# _framework density 20.373417
#
# number of rings (size 3 to 8) (size 9 to 14) (size 15 to 20)
#    0.000    1.538    3.077    2.769    2.154    1.231 
#    0.000    1.538    0.000   24.923    0.000   16.154 
#    0.000    0.000    0.000    0.000    0.000    0.000 
#
# Total GULP energy -144750.651263 kJ/mol
# GULP energy per Si atom -5567.332741 kJ/mol
# Density = 2.032705 g / cm^3
# Si number density = 20.373417 Si / 1000 Ang^3
#
#
#
# Elastic Constant Matrix: (Units=GPa)
#
#
# Indices 1 2 3 4 5 6 
#
# 1 118.9002 50.6858 39.5319 0.0000 -25.2313 0.0000
# 2 50.6858 142.5958 33.9500 0.0000 -7.5916 0.0000
# 3 39.5319 33.9500 87.0863 0.0000 -11.9717 0.0000
# 4 0.0000 0.0000 0.0000 26.0155 0.0000 4.2654
# 5 -25.2313 -7.5916 -11.9717 0.0000 23.3594 0.0000
# 6 0.0000 0.0000 0.0000 4.2654 0.0000 29.6618
#
#
#
# Elastic Compliance Matrix: (Units=1/GPa)
#
#
# Indices 1 2 3 4 5 6 
#
# 1 0.013394 -0.003387 -0.003144 0.000000 0.011755 0.000000
# 2 -0.003387 0.008610 -0.002084 0.000000 -0.001928 0.000000
# 3 -0.003144 -0.002084 0.014160 0.000000 0.003184 0.000000
# 4 0.000000 0.000000 0.000000 0.039367 0.000000 -0.005661
# 5 0.011755 -0.001928 0.003184 0.000000 0.056512 0.000000
# 6 0.000000 0.000000 0.000000 -0.005661 0.000000 0.034527
#
#
# Mechanical properties :
#
#
# Convention : Reuss Voigt Hill
#
# Bulk Modulus (GPa) = 52.81251 66.32421 59.56836
# Shear Modulus (GPa) = 26.30037 30.76832 28.53434
#
# Velocity S-wave (km/s) = 3.59683 3.89037 3.74648
# Velocity P-wave (km/s) = 6.57481 7.26670 6.92940
#
# Compressibility (1/GPa) = 0.01893491
#
# Stress axis : x y z
#
# Youngs Moduli (GPa) = 74.66114 116.14135 70.62034
#
# Poissons Ratio (x) = 0.39332 0.22201
# Poissons Ratio (y) = 0.25284 0.14720
# Poissons Ratio (z) = 0.23472 0.24208
#
# Static dielectric constant tensor:
#      x y z
#    x 1.765020 0.000000 0.002730 
#    y 0.000000 1.973850 0.000000 
#    z 0.002730 0.000000 1.779080 
# 
# From -- ./inp_files/33168.got.cif
#   From: 2010.05.17/outbox.cif.g08.bks.cpg/sg13_17_cif.got.tgz:33168.got - 2010.06.03 16:44:36.
