data_PCOD9229760
_publ_section_title
;
Structure prediction by ZEFSAII (Michael W. Deem and Ramdas Pophale) SiO2 
 PCOD9229760
Probable space group: P 2/C
;
_chemical_formula_sum "Si O2"
_cell_formula_units_Z 26
_cell_length_a 24.173603
_cell_length_b 8.914865
_cell_length_c 10.763711
_cell_angle_alpha 90.000000
_cell_angle_beta 33.084637
_cell_angle_gamma 90.000000
_cell_volume 1266.231857
_symmetry_space_group_name_H-M "P 2/C"
_symmetry_group_IT_number 13
_symmetry_cell_setting 'monoclinic'
loop_
_space_group_symop_operation_xyz
x,y,z
-x,y,1/2-z
-x,-y,-z
x,-y,1/2+z
loop_
_atom_site_type_symbol
_atom_site_label
_atom_site_fract_x
_atom_site_fract_y
_atom_site_fract_z
Si Si1 0.051931 0.656939 0.925965
Si Si2 0.000000 0.099785 0.250000
Si Si3 0.118656 0.863541 0.201551
Si Si4 0.317021 0.961985 0.320512
Si Si5 0.613997 0.159994 0.547231
Si Si6 0.191864 0.707247 0.437481
Si Si7 0.201221 0.631195 0.858352
O O1 0.143771 0.668434 0.660105
O O2 0.100051 0.661643 0.970199
O O3 0.000000 0.500000 0.000000
O O4 0.974624 0.791867 0.049489
O O5 0.901675 0.209974 0.456001
O O6 0.940274 0.979053 0.276365
O O7 0.172984 0.717659 0.038405
O O8 0.213575 0.960758 0.069381
O O9 0.377062 0.923480 0.334619
O O10 0.282419 0.818089 0.303487
O O11 0.365004 0.065175 0.120398
O O12 0.702252 0.284281 0.379954
O O13 0.500000 0.219659 0.750000
O O14 0.218569 0.546801 0.329279
#
# Coordination Sequence:
#
# PCOD9229760 Si02
#       7
#     4   2   4   4   4   4   4
#     4  12  21  33  60  88 133 177 224 249 317 388
#     4  10  20  34  54  84 132 170 218 254 318 384
#     4  10  21  36  60  92 132 179 212 268 321 393
#     4  10  24  44  69 102 133 165 227 282 340 406
#     4  11  24  48  75  96 125 172 224 291 352 400
#     4  11  23  36  57  94 133 177 217 272 318 394
#     4  11  22  41  58  91 135 170 224 269 329 394
#
# _framework density 20.533363999999999
#
# number of rings (size 3 to 8) (size 9 to 14) (size 15 to 20)
#    0.000    1.231    4.615    1.385    0.000    7.385 
#    0.000    1.538    0.000    0.000    0.000    0.000 
#    0.000    0.000    0.000    0.000    0.000    0.000 
#
# Total GULP energy -144825.833224 kJ/mol
# GULP energy per Si atom -5570.224355 kJ/mol
# Density = 2.048663 g / cm^3
# Si number density = 20.533364 Si / 1000 Ang^3
#
#
#
# Elastic Constant Matrix: (Units=GPa)
#
#
# Indices 1 2 3 4 5 6 
#
# 1 87.3981 18.0330 17.1838 0.0000 -17.0926 0.0000
# 2 18.0330 118.5835 28.5703 0.0000 -7.6075 0.0000
# 3 17.1838 28.5703 64.7138 0.0000 -10.9042 0.0000
# 4 0.0000 0.0000 0.0000 15.7141 0.0000 -0.0069
# 5 -17.0926 -7.6075 -10.9042 0.0000 25.3422 0.0000
# 6 0.0000 0.0000 0.0000 -0.0069 0.0000 19.7817
#
#
#
# Elastic Compliance Matrix: (Units=1/GPa)
#
#
# Indices 1 2 3 4 5 6 
#
# 1 0.013599 -0.001128 -0.001752 0.000000 0.008080 0.000000
# 2 -0.001128 0.009560 -0.003844 0.000000 0.000455 0.000000
# 3 -0.001752 -0.003844 0.018568 0.000000 0.005654 0.000000
# 4 0.000000 0.000000 0.000000 0.063637 0.000000 0.000022
# 5 0.008080 0.000455 0.005654 0.000000 0.047479 0.000000
# 6 0.000000 0.000000 0.000000 0.000022 0.000000 0.050552
#
#
# Mechanical properties :
#
#
# Convention : Reuss Voigt Hill
#
# Bulk Modulus (GPa) = 35.36181 44.25217 39.80699
# Shear Modulus (GPa) = 22.09763 25.96148 24.02956
#
# Velocity S-wave (km/s) = 3.28408 3.55964 3.42463
# Velocity P-wave (km/s) = 5.62488 6.20426 5.92166
#
# Compressibility (1/GPa) = 0.02827909
#
# Stress axis : x y z
#
# Youngs Moduli (GPa) = 73.53370 104.60485 53.85692
#
# Poissons Ratio (x) = 0.11795 0.09434
# Poissons Ratio (y) = 0.08292 0.20705
# Poissons Ratio (z) = 0.12881 0.40215
#
# Static dielectric constant tensor:
#      x y z
#    x 1.699900 0.000000 0.086770 
#    y 0.000000 2.353450 0.000000 
#    z 0.086770 0.000000 1.714640 
# 
# From -- ./inp_files/42250.got.cif
#   From: 2010.05.17/outbox.cif.g08.bks.cpg/sg13_22_cif.got.tgz:42250.got - 2010.06.03 16:44:36.
