data_PCOD9229234
_publ_section_title
;
Structure prediction by ZEFSAII (Michael W. Deem and Ramdas Pophale) SiO2 
 PCOD9229234
Probable space group: P 2/C
;
_chemical_formula_sum "Si O2"
_cell_formula_units_Z 22
_cell_length_a 14.031626
_cell_length_b 7.566111
_cell_length_c 19.522324
_cell_angle_alpha 90.000000
_cell_angle_beta 27.286872
_cell_angle_gamma 90.000000
_cell_volume 950.167896
_symmetry_space_group_name_H-M "P 2/C"
_symmetry_group_IT_number 13
_symmetry_cell_setting 'monoclinic'
loop_
_space_group_symop_operation_xyz
x,y,z
-x,y,1/2-z
-x,-y,-z
x,-y,1/2+z
loop_
_atom_site_type_symbol
_atom_site_label
_atom_site_fract_x
_atom_site_fract_y
_atom_site_fract_z
Si Si1 0.501029 0.520898 0.821645
Si Si2 0.248454 0.857019 0.216520
Si Si3 0.232563 0.257498 0.240883
Si Si4 0.297372 0.291581 0.050727
Si Si5 0.000000 0.971057 0.250000
Si Si6 0.108467 0.309651 0.939678
O O1 0.500000 0.624539 0.750000
O O2 0.616328 0.635119 0.805955
O O3 0.303880 0.435010 0.985807
O O4 0.652458 0.358603 0.703489
O O5 0.459376 0.744726 0.086382
O O6 0.105937 0.801584 0.371842
O O7 0.318281 0.061025 0.175900
O O8 0.110775 0.853106 0.236314
O O9 0.014681 0.229394 0.418785
O O10 0.206706 0.346278 0.182959
O O11 0.176347 0.109835 0.109966
O O12 0.000000 0.500000 0.000000
#
# Coordination Sequence:
#
# PCOD9229234 Si02
#       6
#     4   4   4   4   2   4
#     4  10  22  38  58  88 123 158 209 257 309 370
#     4  10  21  40  62  90 127 163 202 261 310 370
#     4  10  19  38  62  84 120 162 204 248 315 360
#     4  10  22  40  63  86 125 165 202 260 318 369
#     4  10  20  36  66  94 118 160 226 250 314 382
#     4   9  20  39  60  86 121 160 196 252 313 368
#
# _framework density 23.153803
#
# number of rings (size 3 to 8) (size 9 to 14) (size 15 to 20)
#    0.000    2.182    0.000    3.273    5.091    0.000 
#   13.091    0.909    0.000    1.091    0.000    0.000 
#    0.000    0.000    0.000    0.000    0.000    0.000 
#
# Total GULP energy -122726.411622 kJ/mol
# GULP energy per Si atom -5578.473256 kJ/mol
# Density = 2.310110 g / cm^3
# Si number density = 23.153803 Si / 1000 Ang^3
#
#
#
# Elastic Constant Matrix: (Units=GPa)
#
#
# Indices 1 2 3 4 5 6 
#
# 1 110.3424 21.2006 41.2145 0.0000 10.7400 0.0000
# 2 21.2006 46.8030 8.6796 0.0000 4.4696 0.0000
# 3 41.2145 8.6796 118.7864 0.0000 24.7800 0.0000
# 4 0.0000 0.0000 0.0000 17.9991 0.0000 5.9379
# 5 10.7400 4.4696 24.7800 0.0000 40.8953 0.0000
# 6 0.0000 0.0000 0.0000 5.9379 0.0000 31.9228
#
#
#
# Elastic Compliance Matrix: (Units=1/GPa)
#
#
# Indices 1 2 3 4 5 6 
#
# 1 0.011256 -0.004415 -0.003511 0.000000 -0.000346 0.000000
# 2 -0.004415 0.023484 0.000125 0.000000 -0.001483 0.000000
# 3 -0.003511 0.000125 0.010803 0.000000 -0.005638 0.000000
# 4 0.000000 0.000000 0.000000 0.059190 0.000000 -0.011010
# 5 -0.000346 -0.001483 -0.005638 0.000000 0.028122 0.000000
# 6 0.000000 0.000000 0.000000 -0.011010 0.000000 0.033374
#
#
# Mechanical properties :
#
#
# Convention : Reuss Voigt Hill
#
# Bulk Modulus (GPa) = 33.39603 46.45793 39.92698
# Shear Modulus (GPa) = 26.06739 31.81926 28.94332
#
# Velocity S-wave (km/s) = 3.35899 3.71112 3.53943
# Velocity P-wave (km/s) = 5.43126 6.20255 5.82968
#
# Compressibility (1/GPa) = 0.02994368
#
# Stress axis : x y z
#
# Youngs Moduli (GPa) = 88.84285 42.58174 92.56262
#
# Poissons Ratio (x) = 0.18798 0.32494
# Poissons Ratio (y) = 0.39220 -0.01158
# Poissons Ratio (z) = 0.31189 -0.00533
#
# Static dielectric constant tensor:
#      x y z
#    x 2.010860 0.000000 0.025130 
#    y 0.000000 1.861260 0.000000 
#    z 0.025130 0.000000 1.966620 
# 
# From -- ./inp_files/79519.got.cif
#   From: 2010.05.17/outbox.cif.g08.bks.cpg/sg13_40_cif.got.tgz:79519.got - 2010.06.03 16:44:36.
