data_PCOD9229287
_publ_section_title
;
Structure prediction by ZEFSAII (Michael W. Deem and Ramdas Pophale) SiO2 
 PCOD9229287
Probable space group: P 2/C
;
_chemical_formula_sum "Si O2"
_cell_formula_units_Z 32
_cell_length_a 25.291110
_cell_length_b 9.683713
_cell_length_c 19.284612
_cell_angle_alpha 90.000000
_cell_angle_beta 160.761500
_cell_angle_gamma 90.000000
_cell_volume 1556.243811
_symmetry_space_group_name_H-M "P 2/C"
_symmetry_group_IT_number 13
_symmetry_cell_setting 'monoclinic'
loop_
_space_group_symop_operation_xyz
x,y,z
-x,y,1/2-z
-x,-y,-z
x,-y,1/2+z
loop_
_atom_site_type_symbol
_atom_site_label
_atom_site_fract_x
_atom_site_fract_y
_atom_site_fract_z
Si Si1 0.929332 0.871965 0.302424
Si Si2 0.479373 0.190572 0.538747
Si Si3 0.657763 0.099680 0.983607
Si Si4 0.826861 0.746273 0.320182
Si Si5 0.851934 0.352155 0.226113
Si Si6 0.009520 0.403862 0.682154
Si Si7 0.270190 0.979553 0.210134
Si Si8 0.725588 0.443983 0.219347
O O1 0.909282 0.784170 0.349129
O O2 0.924108 0.751842 0.239220
O O3 0.094377 0.953776 0.493338
O O4 0.792381 0.985717 0.139201
O O5 0.390623 0.137014 0.497813
O O6 0.388110 0.109439 0.364067
O O7 0.437362 0.352741 0.477933
O O8 0.658765 0.126980 0.759147
O O9 0.500000 0.052826 0.750000
O O10 0.724625 0.245639 0.038153
O O11 0.721383 0.607857 0.198341
O O12 0.975082 0.721723 0.556215
O O13 0.729417 0.879564 0.222582
O O14 0.811297 0.388251 0.255470
O O15 0.870179 0.492369 0.207293
O O16 0.843464 0.414731 0.431140
O O17 0.000000 0.446616 0.750000
#
# Coordination Sequence:
#
# PCOD9229287 Si02
#       8
#     4   4   4   4   4   4   4   4
#     4  12  20  39  65  95 122 170 216 251 321 394
#     4  10  22  39  61  91 132 159 205 267 317 367
#     4  11  24  42  63  87 125 169 217 260 313 385
#     4  11  18  34  68  96 114 158 222 262 299 381
#     4  10  19  40  66  89 118 165 214 257 307 383
#     4  11  22  37  61  99 130 158 203 273 321 374
#     4  11  21  35  63  95 127 157 204 269 317 368
#     4  10  19  38  66  91 122 164 216 256 313 380
#
# _framework density 20.562329999999999
#
# number of rings (size 3 to 8) (size 9 to 14) (size 15 to 20)
#    0.000    1.250    6.250    1.875    0.000    1.500 
#    4.500    1.250    0.000    0.000    0.000    0.000 
#    0.000    0.000    0.000    0.000    0.000    0.000 
#
# Total GULP energy -178284.484385 kJ/mol
# GULP energy per Si atom -5571.390137 kJ/mol
# Density = 2.051553 g / cm^3
# Si number density = 20.562330 Si / 1000 Ang^3
#
#
#
# Elastic Constant Matrix: (Units=GPa)
#
#
# Indices 1 2 3 4 5 6 
#
# 1 74.6056 27.0338 31.1649 0.0000 7.2563 0.0000
# 2 27.0338 124.4385 38.8789 0.0000 14.1305 0.0000
# 3 31.1649 38.8789 64.8084 0.0000 21.5559 0.0000
# 4 0.0000 0.0000 0.0000 6.9767 0.0000 10.7306
# 5 7.2563 14.1305 21.5559 0.0000 21.2689 0.0000
# 6 0.0000 0.0000 0.0000 10.7306 0.0000 30.8990
#
#
#
# Elastic Compliance Matrix: (Units=1/GPa)
#
#
# Indices 1 2 3 4 5 6 
#
# 1 0.017182 -0.001463 -0.008686 0.000000 0.003914 0.000000
# 2 -0.001463 0.010024 -0.004919 0.000000 -0.001175 0.000000
# 3 -0.008686 -0.004919 0.030903 0.000000 -0.025088 0.000000
# 4 0.000000 0.000000 0.000000 0.307677 0.000000 -0.106850
# 5 0.003914 -0.001175 -0.025088 0.000000 0.071889 0.000000
# 6 0.000000 0.000000 0.000000 -0.106850 0.000000 0.069470
#
#
# Mechanical properties :
#
#
# Convention : Reuss Voigt Hill
#
# Bulk Modulus (GPa) = 35.75071 50.88975 43.32023
# Shear Modulus (GPa) = 9.14736 22.94723 16.04729
#
# Velocity S-wave (km/s) = 2.11146 3.34426 2.79663
# Velocity P-wave (km/s) = 4.83411 6.30197 5.61620
#
# Compressibility (1/GPa) = 0.02797148
#
# Stress axis : x y z
#
# Youngs Moduli (GPa) = 58.20077 99.75725 32.35969
#
# Poissons Ratio (x) = 0.14597 0.28109
# Poissons Ratio (y) = 0.08516 0.15918
# Poissons Ratio (z) = 0.50555 0.49072
#
# Static dielectric constant tensor:
#      x y z
#    x 1.789770 0.000000 0.028260 
#    y 0.000000 1.774620 0.000000 
#    z 0.028260 0.000000 1.753800 
# 
# From -- ./inp_files/82548.got.cif
#   From: 2010.05.17/outbox.cif.g08.bks.cpg/sg13_42_cif.got.tgz:82548.got - 2010.06.03 16:44:36.
