data_PCOD9229817
_publ_section_title
;
Structure prediction by ZEFSAII (Michael W. Deem and Ramdas Pophale) SiO2 
 PCOD9229817
Probable space group: P 2/C
;
_chemical_formula_sum "Si O2"
_cell_formula_units_Z 24
_cell_length_a 17.958124
_cell_length_b 8.927826
_cell_length_c 18.759240
_cell_angle_alpha 90.000000
_cell_angle_beta 21.915777
_cell_angle_gamma 90.000000
_cell_volume 1122.571197
_symmetry_space_group_name_H-M "P 2/C"
_symmetry_group_IT_number 13
_symmetry_cell_setting 'monoclinic'
loop_
_space_group_symop_operation_xyz
x,y,z
-x,y,1/2-z
-x,-y,-z
x,-y,1/2+z
loop_
_atom_site_type_symbol
_atom_site_label
_atom_site_fract_x
_atom_site_fract_y
_atom_site_fract_z
Si Si1 0.901300 0.972011 0.722881
Si Si2 0.840731 0.309084 0.197321
Si Si3 0.062143 0.714665 0.269339
Si Si4 0.334416 0.437167 0.002993
Si Si5 0.722576 0.146028 0.523549
Si Si6 0.781456 0.486332 0.109733
O O1 0.114049 0.915671 0.566165
O O2 0.853569 0.868117 0.697879
O O3 0.895497 0.149140 0.715281
O O4 0.751916 0.936281 0.921411
O O5 0.709845 0.368233 0.379860
O O6 0.756908 0.375721 0.199077
O O7 0.059770 0.384474 0.011435
O O8 0.000000 0.788076 0.250000
O O9 0.885977 0.612482 0.456411
O O10 0.238584 0.600972 0.093605
O O11 0.240637 0.321121 0.029495
O O12 0.567783 0.448707 0.780834
O O13 0.500000 0.127122 0.750000
#
# Coordination Sequence:
#
# PCOD9229817 Si02
#       6
#     4   4   4   4   4   4
#     4  10  21  40  54  82 120 152 189 239 286 348
#     4   9  20  39  64  84 117 150 199 241 285 341
#     4  11  24  38  54  84 124 152 185 241 293 345
#     4  10  22  35  61  87 114 147 196 244 289 339
#     4  10  20  34  57  82 107 149 193 234 287 339
#     4  10  21  39  61  90 113 154 194 242 290 340
#
# _framework density 21.379490000000001
#
# number of rings (size 3 to 8) (size 9 to 14) (size 15 to 20)
#    0.000    2.000    1.667    1.500    9.333    2.000 
#    0.000    0.833    0.000    0.000    0.000    0.000 
#    0.000    0.000    0.000    0.000    0.000    0.000 
#
# Total GULP energy -134091.751754 kJ/mol
# GULP energy per Si atom -5587.156323 kJ/mol
# Density = 2.133083 g / cm^3
# Si number density = 21.379490 Si / 1000 Ang^3
#
#
#
# Elastic Constant Matrix: (Units=GPa)
#
#
# Indices 1 2 3 4 5 6 
#
# 1 26.6791 -9.6635 1.1965 0.0000 2.0898 0.0000
# 2 -9.6635 95.6101 9.4974 0.0000 -18.6490 0.0000
# 3 1.1965 9.4974 119.0991 0.0000 -9.1253 0.0000
# 4 0.0000 0.0000 0.0000 8.8961 0.0000 -1.9402
# 5 2.0898 -18.6490 -9.1253 0.0000 15.9726 0.0000
# 6 0.0000 0.0000 0.0000 -1.9402 0.0000 20.0134
#
#
#
# Elastic Compliance Matrix: (Units=1/GPa)
#
#
# Indices 1 2 3 4 5 6 
#
# 1 0.038981 0.003801 -0.000780 0.000000 -0.001107 0.000000
# 2 0.003801 0.013916 0.000062 0.000000 0.015786 0.000000
# 3 -0.000780 0.000062 0.008798 0.000000 0.005200 0.000000
# 4 0.000000 0.000000 0.000000 0.114836 0.000000 0.011133
# 5 -0.001107 0.015786 0.005200 0.000000 0.084154 0.000000
# 6 0.000000 0.000000 0.000000 0.011133 0.000000 0.051046
#
#
# Mechanical properties :
#
#
# Convention : Reuss Voigt Hill
#
# Bulk Modulus (GPa) = 14.73580 27.04988 20.89284
# Shear Modulus (GPa) = 15.23531 25.00030 20.11780
#
# Velocity S-wave (km/s) = 2.67238 3.42330 3.07088
# Velocity P-wave (km/s) = 4.05334 5.32025 4.72941
#
# Compressibility (1/GPa) = 0.06786196
#
# Stress axis : x y z
#
# Youngs Moduli (GPa) = 25.65346 71.85790 113.66581
#
# Poissons Ratio (x) = -0.27316 0.08861
# Poissons Ratio (y) = -0.09752 -0.00700
# Poissons Ratio (z) = 0.02000 -0.00443
#
# Static dielectric constant tensor:
#      x y z
#    x 1.782090 0.000000 0.016220 
#    y 0.000000 1.804020 0.000000 
#    z 0.016220 0.000000 1.737520 
# 
# From -- ./inp_files/81620.got.cif
#   From: 2010.05.17/outbox.cif.g08.bks.cpg/sg13_41_cif.got.tgz:81620.got - 2010.06.03 16:44:36.
