data_PCOD9229600
_publ_section_title
;
Structure prediction by ZEFSAII (Michael W. Deem and Ramdas Pophale) SiO2 
 PCOD9229600
Probable space group: P 2/C
;
_chemical_formula_sum "Si O2"
_cell_formula_units_Z 24
_cell_length_a 9.302001
_cell_length_b 11.320269
_cell_length_c 16.964691
_cell_angle_alpha 90.000000
_cell_angle_beta 40.769613
_cell_angle_gamma 90.000000
_cell_volume 1166.554209
_symmetry_space_group_name_H-M "P 2/C"
_symmetry_group_IT_number 13
_symmetry_cell_setting 'monoclinic'
loop_
_space_group_symop_operation_xyz
x,y,z
-x,y,1/2-z
-x,-y,-z
x,-y,1/2+z
loop_
_atom_site_type_symbol
_atom_site_label
_atom_site_fract_x
_atom_site_fract_y
_atom_site_fract_z
Si Si1 0.000000 0.354506 0.750000
Si Si2 0.500000 0.675114 0.250000
Si Si3 0.334491 0.287227 0.484336
Si Si4 0.381635 0.492863 0.170662
Si Si5 0.110632 0.617225 0.919039
Si Si6 0.337248 0.067729 0.393380
Si Si7 0.137598 0.171230 0.961323
O O1 0.821153 0.438397 0.783171
O O2 0.141701 0.280680 0.628507
O O3 0.512970 0.592173 0.167022
O O4 0.713154 0.759752 0.165170
O O5 0.494414 0.398455 0.436628
O O6 0.232918 0.331138 0.443982
O O7 0.423399 0.157201 0.425041
O O8 0.279754 0.412969 0.281652
O O9 0.000000 0.500000 0.000000
O O10 0.947761 0.717453 0.953207
O O11 0.500000 0.073757 0.250000
O O12 0.088948 0.112217 0.474846
O O13 0.292392 0.930445 0.432848
#
# Coordination Sequence:
#
# PCOD9229600 Si02
#       7
#     2   2   4   4   4   4   4
#     4  12  26  38  56  90 130 166 206 256 328 392
#     4  12  20  36  64 100 124 156 208 262 318 376
#     4  11  21  38  58  85 120 165 203 254 312 369
#     4  12  22  38  63  93 126 162 201 262 325 377
#     4  11  17  35  60  92 122 152 200 256 307 364
#     4  10  20  37  59  91 124 159 211 265 306 360
#     4  10  20  32  58  97 125 157 201 264 315 365
#
# _framework density 20.573411
#
# number of rings (size 3 to 8) (size 9 to 14) (size 15 to 20)
#    0.000    1.000    5.833    3.500    0.000    0.000 
#    0.000    0.000    0.000    2.000    0.000    0.000 
#    0.000    0.000    0.000    0.000    0.000    0.000 
#
# Total GULP energy -133624.734567 kJ/mol
# GULP energy per Si atom -5567.697274 kJ/mol
# Density = 2.052659 g / cm^3
# Si number density = 20.573411 Si / 1000 Ang^3
#
#
#
# Elastic Constant Matrix: (Units=GPa)
#
#
# Indices 1 2 3 4 5 6 
#
# 1 39.0708 10.2203 0.9492 0.0000 -6.1306 0.0000
# 2 10.2203 143.4356 35.8531 0.0000 -8.0417 0.0000
# 3 0.9492 35.8531 125.5403 0.0000 -0.5262 0.0000
# 4 0.0000 0.0000 0.0000 36.2258 0.0000 -17.2162
# 5 -6.1306 -8.0417 -0.5262 0.0000 25.4778 0.0000
# 6 0.0000 0.0000 0.0000 -17.2162 0.0000 8.1665
#
#
#
# Elastic Compliance Matrix: (Units=1/GPa)
#
#
# Indices 1 2 3 4 5 6 
#
# 1 0.026958 -0.001660 0.000295 0.000000 0.005969 0.000000
# 2 -0.001660 0.007750 -0.002192 0.000000 0.002002 0.000000
# 3 0.000295 -0.002192 0.008588 0.000000 -0.000444 0.000000
# 4 0.000000 0.000000 0.000000-14.555099 0.000000-30.684442
# 5 0.005969 0.002002 -0.000444 0.000000 0.041309 0.000000
# 6 0.000000 0.000000 0.000000-30.684442 0.000000-64.565183
#
#
# Mechanical properties :
#
#
# Convention : Reuss Voigt Hill
#
# Bulk Modulus (GPa) = 27.63828 44.67686 36.15757
# Shear Modulus (GPa) = -0.06328 31.37562 15.65617
#
# Velocity S-wave (km/s) = -0.17557 3.90943 2.76160
# Velocity P-wave (km/s) = 3.66361 6.49163 5.27083
#
# Compressibility (1/GPa) = 0.03618170
#
# Stress axis : x y z
#
# Youngs Moduli (GPa) = 37.09445 129.02728 116.44659
#
# Poissons Ratio (x) = 0.21419 -0.03438
# Poissons Ratio (y) = 0.06158 0.25531
# Poissons Ratio (z) = -0.01095 0.28289
#
# Static dielectric constant tensor:
#      x y z
#    x 1.769910 0.000000 -0.037280 
#    y 0.000000 1.898210 0.000000 
#    z -0.037280 0.000000 1.777280 
# 
# From -- ./inp_files/78452.got.cif
#   From: 2010.05.17/outbox.cif.g08.bks.cpg/sg13_40_cif.got.tgz:78452.got - 2010.06.03 16:44:36.
