data_PCOD9229667
_publ_section_title
;
Structure prediction by ZEFSAII (Michael W. Deem and Ramdas Pophale) SiO2 
 PCOD9229667
Probable space group: P 2/C
;
_chemical_formula_sum "Si O2"
_cell_formula_units_Z 26
_cell_length_a 19.364680
_cell_length_b 5.935338
_cell_length_c 12.742879
_cell_angle_alpha 90.000000
_cell_angle_beta 126.607282
_cell_angle_gamma 90.000000
_cell_volume 1175.707149
_symmetry_space_group_name_H-M "P 2/C"
_symmetry_group_IT_number 13
_symmetry_cell_setting 'monoclinic'
loop_
_space_group_symop_operation_xyz
x,y,z
-x,y,1/2-z
-x,-y,-z
x,-y,1/2+z
loop_
_atom_site_type_symbol
_atom_site_label
_atom_site_fract_x
_atom_site_fract_y
_atom_site_fract_z
Si Si1 0.847291 0.699917 0.156672
Si Si2 0.461454 0.141665 0.614737
Si Si3 0.374157 0.815088 0.366323
Si Si4 0.215513 0.068228 0.239139
Si Si5 0.308424 0.558601 0.960714
Si Si6 0.000000 0.993614 0.750000
Si Si7 0.943049 0.335178 0.377440
O O1 0.757897 0.594820 0.032241
O O2 0.899613 0.491902 0.250213
O O3 0.820904 0.853745 0.231850
O O4 0.915018 0.854092 0.158109
O O5 0.500000 0.017069 0.750000
O O6 0.544896 0.239311 0.632169
O O7 0.393829 0.334336 0.586853
O O8 0.413439 0.972572 0.493644
O O9 0.337952 0.593735 0.389162
O O10 0.295321 0.963400 0.245807
O O11 0.256562 0.232805 0.364107
O O12 0.133278 0.210698 0.126553
O O13 0.009091 0.848837 0.651363
O O14 0.000000 0.500000 0.500000
#
# Coordination Sequence:
#
# PCOD9229667 Si02
#       7
#     4   4   4   4   4   2   4
#     4   9  18  35  60  78 115 153 193 242 295 347
#     4  10  20  33  57  86 115 146 200 236 285 363
#     4   9  18  35  58  78 114 160 183 236 302 347
#     4   8  17  33  58  78 111 151 193 237 296 348
#     4   9  17  34  59  78 108 155 189 237 301 342
#     4  10  20  34  58  88 116 156 200 244 298 356
#     4  10  20  35  61  84 116 156 204 244 293 354
#
# _framework density 22.114349000000001
#
# number of rings (size 3 to 8) (size 9 to 14) (size 15 to 20)
#    0.000    2.769    0.000    0.923    0.000    3.077 
#    0.000    0.000  111.692    0.000    0.000    0.000 
#    0.000    0.000    0.000    0.000    0.000    0.000 
#
# Total GULP energy -144823.149499 kJ/mol
# GULP energy per Si atom -5570.121135 kJ/mol
# Density = 2.206402 g / cm^3
# Si number density = 22.114349 Si / 1000 Ang^3
#
#
#
# Elastic Constant Matrix: (Units=GPa)
#
#
# Indices 1 2 3 4 5 6 
#
# 1 89.1545 35.9116 48.8833 0.0000 38.1983 0.0000
# 2 35.9116 71.4465 18.3688 0.0000 20.0397 0.0000
# 3 48.8833 18.3688 68.9232 0.0000 17.4662 0.0000
# 4 0.0000 0.0000 0.0000 15.2306 0.0000 7.9757
# 5 38.1983 20.0397 17.4662 0.0000 26.9215 0.0000
# 6 0.0000 0.0000 0.0000 7.9757 0.0000 32.0439
#
#
#
# Elastic Compliance Matrix: (Units=1/GPa)
#
#
# Indices 1 2 3 4 5 6 
#
# 1 0.041015 -0.003830 -0.016807 0.000000 -0.044440 0.000000
# 2 -0.003830 0.018205 -0.000094 0.000000 -0.008057 0.000000
# 3 -0.016807 -0.000094 0.024406 0.000000 0.008083 0.000000
# 4 0.000000 0.000000 0.000000 0.075498 0.000000 -0.018791
# 5 -0.044440 -0.008057 0.008083 0.000000 0.100953 0.000000
# 6 0.000000 0.000000 0.000000 -0.018791 0.000000 0.035884
#
#
# Mechanical properties :
#
#
# Convention : Reuss Voigt Hill
#
# Bulk Modulus (GPa) = 23.71658 48.42796 36.07227
# Shear Modulus (GPa) = 14.22568 23.26324 18.74446
#
# Velocity S-wave (km/s) = 2.53904 3.24690 2.91454
# Velocity P-wave (km/s) = 4.39812 6.00024 5.26053
#
# Compressibility (1/GPa) = 0.04216460
#
# Stress axis : x y z
#
# Youngs Moduli (GPa) = 24.38158 54.92868 40.97376
#
# Poissons Ratio (x) = 0.21036 0.68864
# Poissons Ratio (y) = 0.09337 0.00385
# Poissons Ratio (z) = 0.40978 0.00517
#
# Static dielectric constant tensor:
#      x y z
#    x 1.899640 0.000000 -0.006740 
#    y 0.000000 1.820140 0.000000 
#    z -0.006740 0.000000 1.897990 
# 
# From -- ./inp_files/52263.got.cif
#   From: 2010.05.17/outbox.cif.g08.bks.cpg/sg13_27_cif.got.tgz:52263.got - 2010.06.03 16:44:36.
