data_PCOD9229125
_publ_section_title
;
Structure prediction by ZEFSAII (Michael W. Deem and Ramdas Pophale) SiO2 
 PCOD9229125
Probable space group: P 2/C
;
_chemical_formula_sum "Si O2"
_cell_formula_units_Z 32
_cell_length_a 13.499360
_cell_length_b 14.644689
_cell_length_c 17.999081
_cell_angle_alpha 90.000000
_cell_angle_beta 20.964880
_cell_angle_gamma 90.000000
_cell_volume 1273.147443
_symmetry_space_group_name_H-M "P 2/C"
_symmetry_group_IT_number 13
_symmetry_cell_setting 'monoclinic'
loop_
_space_group_symop_operation_xyz
x,y,z
-x,y,1/2-z
-x,-y,-z
x,-y,1/2+z
loop_
_atom_site_type_symbol
_atom_site_label
_atom_site_fract_x
_atom_site_fract_y
_atom_site_fract_z
Si Si1 0.323445 0.173774 0.445015
Si Si2 0.744507 0.847031 0.270090
Si Si3 0.049168 0.212873 0.034339
Si Si4 0.141222 0.548405 0.067396
Si Si5 0.637023 0.351930 0.860422
Si Si6 0.777628 0.648457 0.971578
Si Si7 0.256764 0.960764 0.769201
Si Si8 0.451479 0.342470 0.142746
O O1 0.500000 0.205063 0.250000
O O2 0.498753 0.089700 0.356426
O O3 0.326769 0.259731 0.497805
O O4 0.025074 0.148072 0.622519
O O5 0.590463 0.756823 0.404443
O O6 0.630064 0.948799 0.349461
O O7 0.798735 0.820496 0.146103
O O8 0.217071 0.263377 0.980485
O O9 0.884027 0.122558 0.177216
O O10 0.833278 0.288693 0.155961
O O11 0.145983 0.444009 0.039013
O O12 0.000000 0.548420 0.250000
O O13 0.949226 0.613869 0.152297
O O14 0.449229 0.585379 0.866547
O O15 0.504968 0.372418 0.874170
O O16 0.477725 0.389778 0.043933
O O17 0.000000 0.663470 0.750000
O O18 0.000000 0.000000 0.000000
#
# Coordination Sequence:
#
# PCOD9229125 Si02
#       8
#     4   4   4   4   4   4   4   4
#     4  11  18  34  63  89 118 156 201 249 300 343
#     4  11  22  39  62  90 124 157 202 253 303 357
#     4  10  21  38  63  88 119 159 207 241 305 360
#     4   9  21  35  61  92 115 153 211 249 293 360
#     4  11  23  39  61  91 122 156 202 252 308 353
#     4  11  23  39  63  87 125 163 197 252 308 360
#     4   9  19  35  59  91 115 157 210 243 289 367
#     4  10  19  37  63  88 116 156 207 247 289 367
#
# _framework density 25.134558999999999
#
# number of rings (size 3 to 8) (size 9 to 14) (size 15 to 20)
#    0.000    1.750    6.250    0.000    1.750    3.000 
#    0.000    3.125    8.250    0.000    0.000    0.000 
#    0.000    0.000    0.000    0.000    0.000    0.000 
#
# Total GULP energy -178868.422354 kJ/mol
# GULP energy per Si atom -5589.638199 kJ/mol
# Density = 2.507735 g / cm^3
# Si number density = 25.134559 Si / 1000 Ang^3
#
#
#
# Elastic Constant Matrix: (Units=GPa)
#
#
# Indices 1 2 3 4 5 6 
#
# 1 125.4792 59.8291 21.1511 0.0000 -20.6639 0.0000
# 2 59.8291 153.2912 24.0650 0.0000 -12.6229 0.0000
# 3 21.1511 24.0650 45.2229 0.0000 -10.5084 0.0000
# 4 0.0000 0.0000 0.0000 25.4858 0.0000 -3.5457
# 5 -20.6639 -12.6229 -10.5084 0.0000 37.1066 0.0000
# 6 0.0000 0.0000 0.0000 -3.5457 0.0000 38.3567
#
#
#
# Elastic Compliance Matrix: (Units=1/GPa)
#
#
# Indices 1 2 3 4 5 6 
#
# 1 0.010681 -0.003486 -0.002178 0.000000 0.004146 0.000000
# 2 -0.003486 0.008329 -0.002777 0.000000 0.000106 0.000000
# 3 -0.002178 -0.002777 0.025806 0.000000 0.005151 0.000000
# 4 0.000000 0.000000 0.000000 0.039749 0.000000 0.003674
# 5 0.004146 0.000106 0.005151 0.000000 0.030753 0.000000
# 6 0.000000 0.000000 0.000000 0.003674 0.000000 0.026411
#
#
# Mechanical properties :
#
#
# Convention : Reuss Voigt Hill
#
# Bulk Modulus (GPa) = 35.79731 59.34263 47.56997
# Shear Modulus (GPa) = 29.77606 34.78635 32.28121
#
# Velocity S-wave (km/s) = 3.44563 3.72426 3.58765
# Velocity P-wave (km/s) = 5.48662 6.49266 6.01073
#
# Compressibility (1/GPa) = 0.02793506
#
# Stress axis : x y z
#
# Youngs Moduli (GPa) = 93.62273 120.06750 38.75084
#
# Poissons Ratio (x) = 0.41851 0.08438
# Poissons Ratio (y) = 0.32633 0.10762
# Poissons Ratio (z) = 0.20386 0.33345
#
# Static dielectric constant tensor:
#      x y z
#    x 2.015280 0.000000 0.049980 
#    y 0.000000 1.987380 0.000000 
#    z 0.049980 0.000000 2.076080 
# 
# From -- ./inp_files/80380.got.cif
#   From: 2010.05.17/outbox.cif.g08.bks.cpg/sg13_41_cif.got.tgz:80380.got - 2010.06.03 16:44:36.
