data_PCOD9229245
_publ_section_title
;
Structure prediction by ZEFSAII (Michael W. Deem and Ramdas Pophale) SiO2 
 PCOD9229245
Probable space group: P 2/C
;
_chemical_formula_sum "Si O2"
_cell_formula_units_Z 28
_cell_length_a 18.120148
_cell_length_b 12.057882
_cell_length_c 11.089539
_cell_angle_alpha 90.000000
_cell_angle_beta 31.890453
_cell_angle_gamma 90.000000
_cell_volume 1280.042228
_symmetry_space_group_name_H-M "P 2/C"
_symmetry_group_IT_number 13
_symmetry_cell_setting 'monoclinic'
loop_
_space_group_symop_operation_xyz
x,y,z
-x,y,1/2-z
-x,-y,-z
x,-y,1/2+z
loop_
_atom_site_type_symbol
_atom_site_label
_atom_site_fract_x
_atom_site_fract_y
_atom_site_fract_z
Si Si1 0.398940 0.100908 0.983032
Si Si2 0.587099 0.339824 0.469326
Si Si3 0.839259 0.640218 0.430198
Si Si4 0.058992 0.160956 0.868320
Si Si5 0.162854 0.189133 0.127850
Si Si6 0.166689 0.992558 0.414785
Si Si7 0.698998 0.410156 0.575953
O O1 0.500000 0.038939 0.750000
O O2 0.467276 0.213531 0.937922
O O3 0.276412 0.146732 0.066309
O O4 0.323566 0.038505 0.195848
O O5 0.650491 0.383531 0.507120
O O6 0.444213 0.408590 0.647798
O O7 0.718575 0.335621 0.196746
O O8 0.855629 0.745915 0.319727
O O9 0.783950 0.523773 0.455627
O O10 0.000000 0.624955 0.250000
O O11 0.153875 0.071907 0.805096
O O12 0.970900 0.210312 0.102199
O O13 0.946826 0.091841 0.942676
O O14 0.146483 0.091886 0.052618
O O15 0.209165 0.305820 0.008483
#
# Coordination Sequence:
#
# PCOD9229245 Si02
#       7
#     4   4   4   4   4   4   4
#     4  10  19  38  62  89 123 166 214 259 316 396
#     4  10  21  43  67  88 131 173 210 272 342 390
#     4  12  25  39  66  98 127 171 224 273 328 396
#     4  10  24  42  58  93 133 168 212 264 331 389
#     4  10  20  39  65  89 128 170 209 264 328 385
#     4  10  22  38  64  95 132 172 209 267 329 386
#     4  10  22  43  65  94 124 171 223 271 324 393
#
# _framework density 21.874279000000001
#
# number of rings (size 3 to 8) (size 9 to 14) (size 15 to 20)
#    0.000    1.714    2.857    3.429    0.000   13.143 
#    2.571    0.000    0.000    0.000    0.000    0.000 
#    0.000    0.000    0.000    0.000    0.000    0.000 
#
# Total GULP energy -156197.798926 kJ/mol
# GULP energy per Si atom -5578.492819 kJ/mol
# Density = 2.182449 g / cm^3
# Si number density = 21.874279 Si / 1000 Ang^3
#
#
#
# Elastic Constant Matrix: (Units=GPa)
#
#
# Indices 1 2 3 4 5 6 
#
# 1 20.0249 26.8711 23.8270 0.0000 7.3101 0.0000
# 2 26.8711 129.2787 86.9589 0.0000 9.0504 0.0000
# 3 23.8270 86.9589 164.4096 0.0000 21.4083 0.0000
# 4 0.0000 0.0000 0.0000 40.4706 0.0000 15.2196
# 5 7.3101 9.0504 21.4083 0.0000 26.2601 0.0000
# 6 0.0000 0.0000 0.0000 15.2196 0.0000 -0.6290
#
#
#
# Elastic Compliance Matrix: (Units=1/GPa)
#
#
# Indices 1 2 3 4 5 6 
#
# 1 0.075617 -0.013360 -0.001959 0.000000 -0.014848 0.000000
# 2 -0.013360 0.014399 -0.006173 0.000000 0.003789 0.000000
# 3 -0.001959 -0.006173 0.010386 0.000000 -0.005794 0.000000
# 4 0.000000 0.000000 0.000000 0.002446 0.000000 0.059199
# 5 -0.014848 0.003789 -0.005794 0.000000 0.045631 0.000000
# 6 0.000000 0.000000 0.000000 0.059199 0.000000 -0.157418
#
#
# Mechanical properties :
#
#
# Convention : Reuss Voigt Hill
#
# Bulk Modulus (GPa) = 17.41630 65.44748 41.43189
# Shear Modulus (GPa) = 94.01075 24.95744 59.48409
#
# Velocity S-wave (km/s) = 6.56285 3.38146 5.22041
# Velocity P-wave (km/s) = 8.08748 6.72536 7.43767
#
# Compressibility (1/GPa) = 0.05741747
#
# Stress axis : x y z
#
# Youngs Moduli (GPa) = 13.22455 69.44776 96.28498
#
# Poissons Ratio (x) = 0.92783 0.18862
# Poissons Ratio (y) = 0.17668 0.59439
# Poissons Ratio (z) = 0.02591 0.42871
#
# Static dielectric constant tensor:
#      x y z
#    x 1.814660 0.000000 -0.021630 
#    y 0.000000 1.830280 0.000000 
#    z -0.021630 0.000000 1.884890 
# 
# From -- ./inp_files/40762.got.cif
#   From: 2010.05.17/outbox.cif.g08.bks.cpg/sg13_21_cif.got.tgz:40762.got - 2010.06.03 16:44:36.
