data_PCOD9229202
_publ_section_title
;
Structure prediction by ZEFSAII (Michael W. Deem and Ramdas Pophale) SiO2 
 PCOD9229202
Probable space group: P 2/C
;
_chemical_formula_sum "Si O2"
_cell_formula_units_Z 30
_cell_length_a 11.701167
_cell_length_b 14.446504
_cell_length_c 9.651797
_cell_angle_alpha 90.000000
_cell_angle_beta 86.628363
_cell_angle_gamma 90.000000
_cell_volume 1628.724884
_symmetry_space_group_name_H-M "P 2/C"
_symmetry_group_IT_number 13
_symmetry_cell_setting 'monoclinic'
loop_
_space_group_symop_operation_xyz
x,y,z
-x,y,1/2-z
-x,-y,-z
x,-y,1/2+z
loop_
_atom_site_type_symbol
_atom_site_label
_atom_site_fract_x
_atom_site_fract_y
_atom_site_fract_z
Si Si1 0.936685 0.871142 0.619394
Si Si2 0.420380 0.614587 0.381375
Si Si3 0.046372 0.384788 0.973267
Si Si4 0.590262 0.596282 0.624873
Si Si5 0.000000 0.470155 0.250000
Si Si6 0.902130 0.921416 0.143475
Si Si7 0.197881 0.295782 0.506218
Si Si8 0.223921 0.744997 0.326909
O O1 0.850576 0.798836 0.556563
O O2 0.000000 0.831246 0.750000
O O3 0.036776 0.900141 0.506145
O O4 0.878189 0.969524 0.660232
O O5 0.500000 0.643118 0.250000
O O6 0.508404 0.602759 0.498648
O O7 0.371450 0.511047 0.356890
O O8 0.324182 0.692302 0.401105
O O9 0.066298 0.463542 0.854709
O O10 0.110421 0.296555 0.907364
O O11 0.073521 0.411595 0.131582
O O12 0.911496 0.363409 0.984172
O O13 0.500000 0.622025 0.750000
O O14 0.699490 0.660218 0.589395
O O15 0.793400 0.854933 0.166220
O O16 0.000000 0.897190 0.250000
O O17 0.231905 0.282214 0.664509
#
# Coordination Sequence:
#
# PCOD9229202 Si02
#       8
#     4   4   4   4   2   4   4   4
#     4  10  22  36  59  90 129 157 194 243 308 376
#     4  10  22  41  60  87 115 163 212 244 290 354
#     4  11  23  37  54  88 121 156 195 238 307 367
#     4  10  24  42  61  86 121 158 208 257 299 343
#     4  10  24  36  46  78 132 158 184 230 300 372
#     4  10  19  38  59  90 126 161 191 241 305 379
#     4  12  22  38  63  88 121 158 204 253 298 364
#     4  12  21  37  66  87 120 158 207 248 293 371
#
# _framework density 18.419316999999999
#
# number of rings (size 3 to 8) (size 9 to 14) (size 15 to 20)
#    0.000    1.333    5.333    0.000    4.667    2.133 
#    0.000    0.000    0.000    1.600    0.000    0.000 
#    0.000    0.000    0.000    0.000    0.000    0.000 
#
# Total GULP energy -167262.973789 kJ/mol
# GULP energy per Si atom -5575.432460 kJ/mol
# Density = 1.837739 g / cm^3
# Si number density = 18.419317 Si / 1000 Ang^3
#
#
#
# Elastic Constant Matrix: (Units=GPa)
#
#
# Indices 1 2 3 4 5 6 
#
# 1 74.2170 34.5537 6.2531 0.0000 -5.9348 0.0000
# 2 34.5537 87.0873 -4.3144 0.0000 -2.5785 0.0000
# 3 6.2531 -4.3144 75.8687 0.0000 -8.7966 0.0000
# 4 0.0000 0.0000 0.0000 23.2443 0.0000 3.6406
# 5 -5.9348 -2.5785 -8.7966 0.0000 20.8568 0.0000
# 6 0.0000 0.0000 0.0000 3.6406 0.0000 28.8726
#
#
#
# Elastic Compliance Matrix: (Units=1/GPa)
#
#
# Indices 1 2 3 4 5 6 
#
# 1 0.016987 -0.006707 -0.001385 0.000000 0.003420 0.000000
# 2 -0.006707 0.014227 0.001414 0.000000 0.000447 0.000000
# 3 -0.001385 0.001414 0.014036 0.000000 0.005701 0.000000
# 4 0.000000 0.000000 0.000000 0.043888 0.000000 -0.005534
# 5 0.003420 0.000447 0.005701 0.000000 0.051379 0.000000
# 6 0.000000 0.000000 0.000000 -0.005534 0.000000 0.035333
#
#
# Mechanical properties :
#
#
# Convention : Reuss Voigt Hill
#
# Bulk Modulus (GPa) = 31.35459 34.46199 32.90829
# Shear Modulus (GPa) = 25.02025 27.97342 26.49684
#
# Velocity S-wave (km/s) = 3.68961 3.90128 3.79692
# Velocity P-wave (km/s) = 5.93385 6.24849 6.09320
#
# Compressibility (1/GPa) = 0.03189326
#
# Stress axis : x y z
#
# Youngs Moduli (GPa) = 58.86870 70.28772 71.24455
#
# Poissons Ratio (x) = 0.47144 0.09867
# Poissons Ratio (y) = 0.39485 -0.10071
# Poissons Ratio (z) = 0.08153 -0.09936
#
# Static dielectric constant tensor:
#      x y z
#    x 1.629230 0.000000 0.003440 
#    y 0.000000 1.692280 0.000000 
#    z 0.003440 0.000000 1.657000 
# 
# From -- ./inp_files/16504.got.cif
#   From: 2010.05.17/outbox.cif.g08.bks.cpg/sg13_9_cif.got.tgz:16504.got - 2010.06.03 16:44:36.
