data_PCOD9229942
_publ_section_title
;
Structure prediction by ZEFSAII (Michael W. Deem and Ramdas Pophale) SiO2 
 PCOD9229942
Probable space group: P 2/C
;
_chemical_formula_sum "Si O2"
_cell_formula_units_Z 26
_cell_length_a 14.861329
_cell_length_b 6.558795
_cell_length_c 28.433818
_cell_angle_alpha 90.000000
_cell_angle_beta 25.554658
_cell_angle_gamma 90.000000
_cell_volume 1195.552823
_symmetry_space_group_name_H-M "P 2/C"
_symmetry_group_IT_number 13
_symmetry_cell_setting 'monoclinic'
loop_
_space_group_symop_operation_xyz
x,y,z
-x,y,1/2-z
-x,-y,-z
x,-y,1/2+z
loop_
_atom_site_type_symbol
_atom_site_label
_atom_site_fract_x
_atom_site_fract_y
_atom_site_fract_z
Si Si1 0.577382 0.718975 0.450143
Si Si2 0.205924 0.954289 0.339619
Si Si3 0.840167 0.023813 0.367194
Si Si4 0.377473 0.698830 0.177995
Si Si5 0.500645 0.682066 0.668713
Si Si6 0.209101 0.031633 0.003255
Si Si7 0.500000 0.356663 0.750000
O O1 0.500000 0.500000 0.500000
O O2 0.753028 0.794858 0.402911
O O3 0.667084 0.735766 0.355267
O O4 0.365829 0.848617 0.548365
O O5 0.218486 0.814174 0.286772
O O6 0.309672 0.797388 0.327603
O O7 0.971078 0.038619 0.451224
O O8 0.354816 0.149207 0.262208
O O9 0.890853 0.060020 0.397696
O O10 0.000000 0.065152 0.250000
O O11 0.384810 0.458782 0.185089
O O12 0.601826 0.803854 0.085429
O O13 0.679272 0.814049 0.559238
O O14 0.558525 0.511516 0.680275
#
# Coordination Sequence:
#
# PCOD9229942 Si02
#       7
#     4   4   4   4   4   4   2
#     4  10  20  35  55  80 115 156 194 236 280 326
#     4  10  21  39  61  83 113 149 185 233 287 342
#     4  10  21  36  55  84 119 154 195 238 278 326
#     4   9  20  36  56  84 114 152 195 229 280 338
#     4  10  21  40  60  84 119 147 183 238 284 340
#     4  10  21  37  59  86 115 152 193 233 282 335
#     4  10  22  40  62  88 112 144 186 228 290 352
#
# _framework density 21.747260000000001
#
# number of rings (size 3 to 8) (size 9 to 14) (size 15 to 20)
#    0.000    2.154    0.000    2.308    0.000    7.385 
#    0.000   13.846    0.000    0.000    0.000    0.000 
#    0.000    0.000    0.000    0.000    0.000    0.000 
#
# Total GULP energy -144957.828271 kJ/mol
# GULP energy per Si atom -5575.301087 kJ/mol
# Density = 2.169776 g / cm^3
# Si number density = 21.747260 Si / 1000 Ang^3
#
#
#
# Elastic Constant Matrix: (Units=GPa)
#
#
# Indices 1 2 3 4 5 6 
#
# 1 41.2540 13.2061 8.6902 0.0000 -2.3323 0.0000
# 2 13.2061 95.7386 8.2959 0.0000 2.7760 0.0000
# 3 8.6902 8.2959 31.1953 0.0000 15.2513 0.0000
# 4 0.0000 0.0000 0.0000 11.2385 0.0000 4.8390
# 5 -2.3323 2.7760 15.2513 0.0000 27.2299 0.0000
# 6 0.0000 0.0000 0.0000 4.8390 0.0000 22.3580
#
#
#
# Elastic Compliance Matrix: (Units=1/GPa)
#
#
# Indices 1 2 3 4 5 6 
#
# 1 0.028193 -0.003158 -0.011501 0.000000 0.009179 0.000000
# 2 -0.003158 0.011055 -0.001896 0.000000 -0.000336 0.000000
# 3 -0.011501 -0.001896 0.049783 0.000000 -0.028675 0.000000
# 4 0.000000 0.000000 0.000000 0.098123 0.000000 -0.021237
# 5 0.009179 -0.000336 -0.028675 0.000000 0.053606 0.000000
# 6 0.000000 0.000000 0.000000 -0.021237 0.000000 0.049323
#
#
# Mechanical properties :
#
#
# Convention : Reuss Voigt Hill
#
# Bulk Modulus (GPa) = 17.88269 25.39695 21.63982
# Shear Modulus (GPa) = 14.62698 21.36502 17.99600
#
# Velocity S-wave (km/s) = 2.59625 3.13776 2.87976
# Velocity P-wave (km/s) = 4.15068 4.98307 4.58580
#
# Compressibility (1/GPa) = 0.05591998
#
# Stress axis : x y z
#
# Youngs Moduli (GPa) = 35.47007 90.45853 20.08698
#
# Poissons Ratio (x) = 0.28571 0.23102
# Poissons Ratio (y) = 0.11203 0.03808
# Poissons Ratio (z) = 0.40795 0.17150
#
# Static dielectric constant tensor:
#      x y z
#    x 1.728240 0.000000 -0.301000 
#    y 0.000000 1.757610 0.000000 
#    z -0.301000 0.000000 0.862040 
# 
# From -- ./inp_files/96832.got.cif
#   From: 2010.05.17/outbox.cif.g08.bks.cpg/sg13_49_cif.got.tgz:96832.got - 2010.06.03 16:44:36.
