data_PCOD9229805
_publ_section_title
;
Structure prediction by ZEFSAII (Michael W. Deem and Ramdas Pophale) SiO2 
 PCOD9229805
Probable space group: P 2/C
;
_chemical_formula_sum "Si O2"
_cell_formula_units_Z 26
_cell_length_a 18.271031
_cell_length_b 9.094762
_cell_length_c 18.314774
_cell_angle_alpha 90.000000
_cell_angle_beta 153.424839
_cell_angle_gamma 90.000000
_cell_volume 1361.520495
_symmetry_space_group_name_H-M "P 2/C"
_symmetry_group_IT_number 13
_symmetry_cell_setting 'monoclinic'
loop_
_space_group_symop_operation_xyz
x,y,z
-x,y,1/2-z
-x,-y,-z
x,-y,1/2+z
loop_
_atom_site_type_symbol
_atom_site_label
_atom_site_fract_x
_atom_site_fract_y
_atom_site_fract_z
Si Si1 0.202368 0.592221 0.143598
Si Si2 0.500000 0.797686 0.250000
Si Si3 0.863200 0.732095 0.566246
Si Si4 0.970304 0.932915 0.140820
Si Si5 0.238166 0.053591 0.275616
Si Si6 0.907927 0.280011 0.461965
Si Si7 0.547602 0.840548 0.132563
O O1 0.213379 0.417284 0.154500
O O2 0.371543 0.679958 0.296366
O O3 0.116622 0.641521 0.990612
O O4 0.085633 0.648750 0.104808
O O5 0.671711 0.711695 0.416705
O O6 0.526322 0.884244 0.198105
O O7 0.000000 0.698289 0.750000
O O8 0.883742 0.906992 0.567731
O O9 0.000000 0.886040 0.250000
O O10 0.137681 0.965427 0.246404
O O11 0.887324 0.806007 0.019202
O O12 0.119635 0.158258 0.124544
O O13 0.376073 0.147945 0.439050
O O14 0.328018 0.946736 0.298896
#
# Coordination Sequence:
#
# PCOD9229805 Si02
#       7
#     4   2   4   4   4   4   4
#     4  10  21  36  57  81 117 159 191 232 295 359
#     4  10  20  34  56  88 114 146 196 252 284 354
#     4  10  20  36  61  86 117 156 201 245 300 350
#     4  11  21  36  61  88 115 153 197 251 303 351
#     4  11  21  36  61  87 116 151 198 251 296 351
#     4  11  21  36  57  84 118 151 190 242 292 362
#     4  10  21  37  59  85 116 153 199 245 297 351
#
# _framework density 19.096298000000001
#
# number of rings (size 3 to 8) (size 9 to 14) (size 15 to 20)
#    0.000    1.538    3.077    4.154    0.000    1.231 
#    0.000    0.000    0.000   20.308    0.000    0.000 
#    0.000    0.000    0.000    0.000    0.000    0.000 
#
# Total GULP energy -145013.431088 kJ/mol
# GULP energy per Si atom -5577.439657 kJ/mol
# Density = 1.905283 g / cm^3
# Si number density = 19.096298 Si / 1000 Ang^3
#
#
#
# Elastic Constant Matrix: (Units=GPa)
#
#
# Indices 1 2 3 4 5 6 
#
# 1 108.3379 17.5305 22.7097 0.0000 -16.5158 0.0000
# 2 17.5305 58.2271 10.0047 0.0000 -11.1468 0.0000
# 3 22.7097 10.0047 60.3032 0.0000 -2.7010 0.0000
# 4 0.0000 0.0000 0.0000 14.8325 0.0000 -0.8564
# 5 -16.5158 -11.1468 -2.7010 0.0000 31.3157 0.0000
# 6 0.0000 0.0000 0.0000 -0.8564 0.0000 17.6809
#
#
#
# Elastic Compliance Matrix: (Units=1/GPa)
#
#
# Indices 1 2 3 4 5 6 
#
# 1 0.011021 -0.001760 -0.003640 0.000000 0.004872 0.000000
# 2 -0.001760 0.019185 -0.002265 0.000000 0.005705 0.000000
# 3 -0.003640 -0.002265 0.018278 0.000000 -0.001149 0.000000
# 4 0.000000 0.000000 0.000000 0.067609 0.000000 0.003275
# 5 0.004872 0.005705 -0.001149 0.000000 0.036434 0.000000
# 6 0.000000 0.000000 0.000000 0.003275 0.000000 0.056717
#
#
# Mechanical properties :
#
#
# Convention : Reuss Voigt Hill
#
# Bulk Modulus (GPa) = 30.16162 36.37311 33.26737
# Shear Modulus (GPa) = 21.22015 24.54069 22.88042
#
# Velocity S-wave (km/s) = 3.33711 3.58872 3.46520
# Velocity P-wave (km/s) = 5.53870 6.02167 5.78522
#
# Compressibility (1/GPa) = 0.03315471
#
# Stress axis : x y z
#
# Youngs Moduli (GPa) = 90.73642 52.12308 54.71071
#
# Poissons Ratio (x) = 0.09173 0.19916
# Poissons Ratio (y) = 0.15969 0.12390
# Poissons Ratio (z) = 0.33030 0.11804
#
# Static dielectric constant tensor:
#      x y z
#    x 1.688170 0.000000 0.009390 
#    y 0.000000 1.652630 0.000000 
#    z 0.009390 0.000000 1.690400 
# 
# From -- ./inp_files/69702.got.cif
#   From: 2010.05.17/outbox.cif.g08.bks.cpg/sg13_35_cif.got.tgz:69702.got - 2010.06.03 16:44:36.
