data_PCOD9229841
_publ_section_title
;
Structure prediction by ZEFSAII (Michael W. Deem and Ramdas Pophale) SiO2 
 PCOD9229841
Probable space group: P 2/C
;
_chemical_formula_sum "Si O2"
_cell_formula_units_Z 30
_cell_length_a 15.032531
_cell_length_b 15.182572
_cell_length_c 16.212803
_cell_angle_alpha 90.000000
_cell_angle_beta 25.789912
_cell_angle_gamma 90.000000
_cell_volume 1609.893960
_symmetry_space_group_name_H-M "P 2/C"
_symmetry_group_IT_number 13
_symmetry_cell_setting 'monoclinic'
loop_
_space_group_symop_operation_xyz
x,y,z
-x,y,1/2-z
-x,-y,-z
x,-y,1/2+z
loop_
_atom_site_type_symbol
_atom_site_label
_atom_site_fract_x
_atom_site_fract_y
_atom_site_fract_z
Si Si1 0.381229 0.776990 0.434712
Si Si2 0.954241 0.439164 0.691560
Si Si3 0.603721 0.466295 0.244151
Si Si4 0.649274 0.401027 0.450707
Si Si5 0.582686 0.322061 0.003269
Si Si6 0.000000 0.908691 0.750000
Si Si7 0.852522 0.984444 0.701550
Si Si8 0.528517 0.141355 0.979985
O O1 0.500000 0.773918 0.250000
O O2 0.314525 0.678298 0.515842
O O3 0.514722 0.813894 0.400520
O O4 0.194966 0.844650 0.580281
O O5 0.835093 0.531789 0.787637
O O6 0.000000 0.423568 0.750000
O O7 0.160801 0.447185 0.467437
O O8 0.800343 0.361601 0.793524
O O9 0.500000 0.507150 0.250000
O O10 0.543239 0.536801 0.364078
O O11 0.479233 0.376185 0.364292
O O12 0.592172 0.354573 0.413565
O O13 0.575976 0.217825 0.005924
O O14 0.968247 0.963660 0.691528
O O15 0.705071 0.068738 0.834656
O O16 0.691542 0.904320 0.821041
O O17 0.000000 0.000000 0.500000
#
# Coordination Sequence:
#
# PCOD9229841 Si02
#       8
#     4   4   4   4   4   2   4   4
#     4  10  20  34  58  86 116 147 180 234 284 340
#     4  11  21  35  56  77 110 152 193 237 272 321
#     4  11  20  35  55  77 109 153 194 231 280 324
#     4  10  22  35  54  82 115 146 190 236 284 335
#     4  10  22  39  53  82 114 146 191 237 280 338
#     4  10  22  36  58  94 112 138 196 230 276 360
#     4  10  20  40  65  86 117 152 181 235 296 353
#     4   9  21  40  58  84 120 146 184 234 288 343
#
# _framework density 18.634768000000001
#
# number of rings (size 3 to 8) (size 9 to 14) (size 15 to 20)
#    0.000    1.867    2.667    2.800    0.933    3.200 
#    1.200    6.667    0.000    0.000    0.000    0.000 
#    0.000    0.000    0.000    0.000    0.000    0.000 
#
# Total GULP energy -167304.369805 kJ/mol
# GULP energy per Si atom -5576.812327 kJ/mol
# Density = 1.859235 g / cm^3
# Si number density = 18.634768 Si / 1000 Ang^3
#
#
#
# Elastic Constant Matrix: (Units=GPa)
#
#
# Indices 1 2 3 4 5 6 
#
# 1 57.5993 21.0818 15.3345 0.0000 -6.0338 0.0000
# 2 21.0818 109.0381 31.5697 0.0000 -8.1988 0.0000
# 3 15.3345 31.5697 110.1752 0.0000 -5.9223 0.0000
# 4 0.0000 0.0000 0.0000 2.3487 0.0000 4.1300
# 5 -6.0338 -8.1988 -5.9223 0.0000 25.4646 0.0000
# 6 0.0000 0.0000 0.0000 4.1300 0.0000 26.0350
#
#
#
# Elastic Compliance Matrix: (Units=1/GPa)
#
#
# Indices 1 2 3 4 5 6 
#
# 1 0.019234 -0.003001 -0.001645 0.000000 0.003209 0.000000
# 2 -0.003001 0.010640 -0.002517 0.000000 0.002129 0.000000
# 3 -0.001645 -0.002517 0.010088 0.000000 0.001146 0.000000
# 4 0.000000 0.000000 0.000000 0.590470 0.000000 -0.093667
# 5 0.003209 0.002129 0.001146 0.000000 0.040983 0.000000
# 6 0.000000 0.000000 0.000000 -0.093667 0.000000 0.053268
#
#
# Mechanical properties :
#
#
# Convention : Reuss Voigt Hill
#
# Bulk Modulus (GPa) = 39.00615 45.86497 42.43556
# Shear Modulus (GPa) = 6.68848 24.69144 15.68996
#
# Velocity S-wave (km/s) = 1.89659 3.64403 2.90482
# Velocity P-wave (km/s) = 5.07675 6.50932 5.83715
#
# Compressibility (1/GPa) = 0.02563699
#
# Stress axis : x y z
#
# Youngs Moduli (GPa) = 51.99188 93.98369 99.12690
#
# Poissons Ratio (x) = 0.28208 0.16302
# Poissons Ratio (y) = 0.15604 0.24947
# Poissons Ratio (z) = 0.08550 0.23652
#
# Static dielectric constant tensor:
#      x y z
#    x 1.702240 0.000000 0.028430 
#    y 0.000000 1.647700 0.000000 
#    z 0.028430 0.000000 1.645970 
# 
# From -- ./inp_files/53831.got.cif
#   From: 2010.05.17/outbox.cif.g08.bks.cpg/sg13_27_cif.got.tgz:53831.got - 2010.06.03 16:44:36.
