data_PCOD9229950
_publ_section_title
;
Structure prediction by ZEFSAII (Michael W. Deem and Ramdas Pophale) SiO2 
 PCOD9229950
Probable space group: P 2/C
;
_chemical_formula_sum "Si O2"
_cell_formula_units_Z 26
_cell_length_a 8.411833
_cell_length_b 7.133526
_cell_length_c 17.725786
_cell_angle_alpha 90.000000
_cell_angle_beta 96.331600
_cell_angle_gamma 90.000000
_cell_volume 1057.166048
_symmetry_space_group_name_H-M "P 2/C"
_symmetry_group_IT_number 13
_symmetry_cell_setting 'monoclinic'
loop_
_space_group_symop_operation_xyz
x,y,z
-x,y,1/2-z
-x,-y,-z
x,-y,1/2+z
loop_
_atom_site_type_symbol
_atom_site_label
_atom_site_fract_x
_atom_site_fract_y
_atom_site_fract_z
Si Si1 0.566436 0.419690 0.426495
Si Si2 0.028289 0.980746 0.590494
Si Si3 0.000000 0.493894 0.250000
Si Si4 0.929093 0.535987 0.911011
Si Si5 0.344053 0.324516 0.293482
Si Si6 0.641134 0.032189 0.932472
Si Si7 0.306742 0.977984 0.393123
O O1 0.500000 0.500000 0.500000
O O2 0.738575 0.500200 0.410906
O O3 0.415919 0.448260 0.364140
O O4 0.607699 0.194340 0.430016
O O5 0.033702 0.757060 0.604709
O O6 0.205720 0.060825 0.611961
O O7 0.876404 0.082375 0.618384
O O8 0.000000 0.000000 0.500000
O O9 0.995369 0.563931 0.338372
O O10 0.825679 0.394205 0.243435
O O11 0.000000 0.500000 0.000000
O O12 0.500000 0.314763 0.250000
O O13 0.316580 0.120441 0.325455
O O14 0.680863 0.073725 0.022114
O O15 0.475809 0.129274 0.900172
#
# Coordination Sequence:
#
# PCOD9229950 Si02
#       7
#     4   4   2   4   4   4   4
#     4  10  20  35  55  83 116 148 195 244 291 356
#     4   9  17  32  53  80 108 141 181 233 286 345
#     4  12  22  38  58  84 120 154 202 254 300 358
#     4  11  22  36  59  90 116 155 204 246 303 362
#     4  11  21  34  53  81 112 147 189 242 300 345
#     4   8  17  29  49  79 101 133 177 224 277 338
#     4   9  16  30  51  74 105 135 178 227 281 335
#
# _framework density 24.594054
#
# number of rings (size 3 to 8) (size 9 to 14) (size 15 to 20)
#    0.000    2.154    3.077    0.923    2.154    0.000 
#    0.000    0.000    0.000    1.846    8.000    0.000 
#    0.000    0.000    0.000    0.000    0.000    0.000 
#
# Total GULP energy -144752.912740 kJ/mol
# GULP energy per Si atom -5567.419721 kJ/mol
# Density = 2.453808 g / cm^3
# Si number density = 24.594054 Si / 1000 Ang^3
#
#
#
# Elastic Constant Matrix: (Units=GPa)
#
#
# Indices 1 2 3 4 5 6 
#
# 1 263.7175 26.8196 60.1905 0.0000 -12.0387 0.0000
# 2 26.8196 72.2437 31.0622 0.0000 5.1629 0.0000
# 3 60.1905 31.0622 126.9666 0.0000 -9.0730 0.0000
# 4 0.0000 0.0000 0.0000 18.6935 0.0000 -0.6110
# 5 -12.0387 5.1629 -9.0730 0.0000 43.1752 0.0000
# 6 0.0000 0.0000 0.0000 -0.6110 0.0000 16.4266
#
#
#
# Elastic Compliance Matrix: (Units=1/GPa)
#
#
# Indices 1 2 3 4 5 6 
#
# 1 0.004330 -0.000918 -0.001761 0.000000 0.000947 0.000000
# 2 -0.000918 0.015977 -0.003683 0.000000 -0.002941 0.000000
# 3 -0.001761 -0.003683 0.009755 0.000000 0.001999 0.000000
# 4 0.000000 0.000000 0.000000 0.053560 0.000000 0.001992
# 5 0.000947 -0.002941 0.001999 0.000000 0.024197 0.000000
# 6 0.000000 0.000000 0.000000 0.001992 0.000000 0.060951
#
#
# Mechanical properties :
#
#
# Convention : Reuss Voigt Hill
#
# Bulk Modulus (GPa) = 57.67919 77.67471 67.67695
# Shear Modulus (GPa) = 26.69885 38.64942 32.67414
#
# Velocity S-wave (km/s) = 3.29839 3.96851 3.64887
# Velocity P-wave (km/s) = 6.16516 7.25603 6.73273
#
# Compressibility (1/GPa) = 0.01733728
#
# Stress axis : x y z
#
# Youngs Moduli (GPa) = 230.92583 62.59041 102.51436
#
# Poissons Ratio (x) = 0.05748 0.18048
# Poissons Ratio (y) = 0.21207 0.37761
# Poissons Ratio (z) = 0.40655 0.23055
#
# Static dielectric constant tensor:
#      x y z
#    x 2.040190 0.000000 0.036250 
#    y 0.000000 2.025370 0.000000 
#    z 0.036250 0.000000 1.851040 
# 
# From -- ./inp_files/46608.got.cif
#   From: 2010.05.17/outbox.cif.g08.bks.cpg/sg13_24_cif.got.tgz:46608.got - 2010.06.03 16:44:36.
