data_PCOD9229823
_publ_section_title
;
Structure prediction by ZEFSAII (Michael W. Deem and Ramdas Pophale) SiO2 
 PCOD9229823
Probable space group: P 2/C
;
_chemical_formula_sum "Si O2"
_cell_formula_units_Z 24
_cell_length_a 11.292431
_cell_length_b 15.414090
_cell_length_c 17.018463
_cell_angle_alpha 90.000000
_cell_angle_beta 159.384480
_cell_angle_gamma 90.000000
_cell_volume 1043.003495
_symmetry_space_group_name_H-M "P 2/C"
_symmetry_group_IT_number 13
_symmetry_cell_setting 'monoclinic'
loop_
_space_group_symop_operation_xyz
x,y,z
-x,y,1/2-z
-x,-y,-z
x,-y,1/2+z
loop_
_atom_site_type_symbol
_atom_site_label
_atom_site_fract_x
_atom_site_fract_y
_atom_site_fract_z
Si Si1 0.490260 0.401951 0.336251
Si Si2 0.158261 0.752061 0.721472
Si Si3 0.524086 0.077326 0.120159
Si Si4 0.842986 0.901058 0.279463
Si Si5 0.221995 0.542039 0.269091
Si Si6 0.501805 0.728298 0.105226
O O1 0.500000 0.389278 0.250000
O O2 0.387861 0.313326 0.314578
O O3 0.220317 0.470579 0.200052
O O4 0.860680 0.440687 0.583020
O O5 0.200640 0.847141 0.711920
O O6 0.770760 0.727517 0.494411
O O7 0.311826 0.746621 0.904565
O O8 0.690187 0.983282 0.229670
O O9 0.337222 0.089289 0.918844
O O10 0.236535 0.091231 0.005928
O O11 0.753268 0.809770 0.264119
O O12 0.500000 0.500000 0.500000
O O13 0.335643 0.634402 0.304985
#
# Coordination Sequence:
#
# PCOD9229823 Si02
#       6
#     4   4   4   4   4   4
#     4  12  26  43  62  89 125 164 206 259 318 379
#     4  10  20  35  56  85 120 157 203 249 311 372
#     4   9  16  27  47  77 119 158 194 243 305 377
#     4   9  16  27  46  79 119 155 193 247 315 362
#     4  12  24  40  65  89 119 159 210 262 313 374
#     4  10  20  34  57  87 117 154 202 259 308 368
#
# _framework density 23.010469000000001
#
# number of rings (size 3 to 8) (size 9 to 14) (size 15 to 20)
#    0.000    1.667    1.667    4.000    2.333    5.333 
#    0.000    0.000    0.000    0.000    0.000   11.667 
#    0.000    0.000    0.000    0.000    0.000    0.000 
#
# Total GULP energy -134164.090722 kJ/mol
# GULP energy per Si atom -5590.170447 kJ/mol
# Density = 2.295810 g / cm^3
# Si number density = 23.010469 Si / 1000 Ang^3
#
#
#
# Elastic Constant Matrix: (Units=GPa)
#
#
# Indices 1 2 3 4 5 6 
#
# 1 80.8694 15.3694 44.8512 0.0000 25.0933 0.0000
# 2 15.3694 137.4816 9.4609 0.0000 27.7797 0.0000
# 3 44.8512 9.4609 46.3809 0.0000 13.5105 0.0000
# 4 0.0000 0.0000 0.0000 28.2828 0.0000 13.0144
# 5 25.0933 27.7797 13.5105 0.0000 42.0065 0.0000
# 6 0.0000 0.0000 0.0000 13.0144 0.0000 111.9427
#
#
#
# Elastic Compliance Matrix: (Units=1/GPa)
#
#
# Indices 1 2 3 4 5 6 
#
# 1 0.029697 0.000420 -0.025990 0.000000 -0.009659 0.000000
# 2 0.000420 0.008402 -0.000473 0.000000 -0.005655 0.000000
# 3 -0.025990 -0.000473 0.046536 0.000000 0.000871 0.000000
# 4 0.000000 0.000000 0.000000 0.037356 0.000000 -0.004343
# 5 -0.009659 -0.005655 0.000871 0.000000 0.033036 0.000000
# 6 0.000000 0.000000 0.000000 -0.004343 0.000000 0.009438
#
#
# Mechanical properties :
#
#
# Convention : Reuss Voigt Hill
#
# Bulk Modulus (GPa) = 30.72171 44.89944 37.81058
# Shear Modulus (GPa) = 21.98774 49.44975 35.71874
#
# Velocity S-wave (km/s) = 3.09456 4.64077 3.94418
# Velocity P-wave (km/s) = 5.11356 6.94771 6.09997
#
# Compressibility (1/GPa) = 0.03255027
#
# Stress axis : x y z
#
# Youngs Moduli (GPa) = 33.67326 119.01948 21.48874
#
# Poissons Ratio (x) = -0.05002 0.55849
# Poissons Ratio (y) = -0.01415 0.01016
# Poissons Ratio (z) = 0.87516 0.05629
#
# Static dielectric constant tensor:
#      x y z
#    x 1.878020 0.000000 -0.073880 
#    y 0.000000 1.801370 0.000000 
#    z -0.073880 0.000000 1.916330 
# 
# From -- ./inp_files/78747.got.cif
#   From: 2010.05.17/outbox.cif.g08.bks.cpg/sg13_40_cif.got.tgz:78747.got - 2010.06.03 16:44:36.
