data_PCOD9229376
_publ_section_title
;
Structure prediction by ZEFSAII (Michael W. Deem and Ramdas Pophale) SiO2 
 PCOD9229376
Probable space group: P 2/C
;
_chemical_formula_sum "Si O2"
_cell_formula_units_Z 26
_cell_length_a 17.530239
_cell_length_b 8.731439
_cell_length_c 16.094290
_cell_angle_alpha 90.000000
_cell_angle_beta 147.930554
_cell_angle_gamma 90.000000
_cell_volume 1307.966015
_symmetry_space_group_name_H-M "P 2/C"
_symmetry_group_IT_number 13
_symmetry_cell_setting 'monoclinic'
loop_
_space_group_symop_operation_xyz
x,y,z
-x,y,1/2-z
-x,-y,-z
x,-y,1/2+z
loop_
_atom_site_type_symbol
_atom_site_label
_atom_site_fract_x
_atom_site_fract_y
_atom_site_fract_z
Si Si1 0.000000 0.769827 0.750000
Si Si2 0.596833 0.884419 0.922047
Si Si3 0.614974 0.627045 0.075420
Si Si4 0.500000 0.343734 0.750000
Si Si5 0.843499 0.034872 0.524431
Si Si6 0.000000 0.281303 0.750000
Si Si7 0.387859 0.122279 0.785263
Si Si8 0.226953 0.525339 0.904537
O O1 0.875727 0.669067 0.676243
O O2 0.929426 0.879594 0.617190
O O3 0.500000 0.868355 0.750000
O O4 0.747878 0.932295 0.019716
O O5 0.533685 0.021947 0.920501
O O6 0.585331 0.731027 0.965873
O O7 0.637439 0.758531 0.164561
O O8 0.747431 0.523551 0.166833
O O9 0.500000 0.500000 0.000000
O O10 0.409131 0.232280 0.725469
O O11 0.381688 0.438365 0.589024
O O12 0.956426 0.173501 0.631954
O O13 0.736574 0.001214 0.349788
O O14 0.137632 0.388069 0.863356
#
# Coordination Sequence:
#
# PCOD9229376 Si02
#       8
#     2   4   4   2   4   2   4   4
#     4  10  20  38  68  90 120 170 218 266 306 396
#     4  10  21  40  66  94 121 169 225 265 315 385
#     4  12  25  37  58  98 142 163 201 278 338 383
#     4  12  20  38  68  94 126 170 220 266 322 390
#     4  10  19  39  67  87 118 166 227 262 309 380
#     4  10  22  40  66  92 122 170 228 268 306 396
#     4  11  21  39  62  96 126 165 220 274 324 374
#     4  11  23  39  63  96 129 166 215 259 331 387
#
# _framework density 19.878193
#
# number of rings (size 3 to 8) (size 9 to 14) (size 15 to 20)
#    0.000    1.231    6.923    0.462    1.077    0.000 
#    0.000    1.538    0.000    0.000    0.000    0.000 
#    0.000    0.000    0.000    0.000    0.000    0.000 
#
# Total GULP energy -144826.948491 kJ/mol
# GULP energy per Si atom -5570.267250 kJ/mol
# Density = 1.983295 g / cm^3
# Si number density = 19.878193 Si / 1000 Ang^3
#
#
#
# Elastic Constant Matrix: (Units=GPa)
#
#
# Indices 1 2 3 4 5 6 
#
# 1 52.5568 20.4714 8.2083 0.0000 -4.4338 0.0000
# 2 20.4714 114.2181 20.6568 0.0000 4.8325 0.0000
# 3 8.2083 20.6568 59.8050 0.0000 15.1335 0.0000
# 4 0.0000 0.0000 0.0000 26.0567 0.0000 -7.5530
# 5 -4.4338 4.8325 15.1335 0.0000 20.2851 0.0000
# 6 0.0000 0.0000 0.0000 -7.5530 0.0000 32.5944
#
#
#
# Elastic Compliance Matrix: (Units=1/GPa)
#
#
# Indices 1 2 3 4 5 6 
#
# 1 0.021739 -0.003549 -0.003913 0.000000 0.008516 0.000000
# 2 -0.003549 0.009919 -0.002644 0.000000 -0.001166 0.000000
# 3 -0.003913 -0.002644 0.022470 0.000000 -0.016989 0.000000
# 4 0.000000 0.000000 0.000000 0.041141 0.000000 0.009534
# 5 0.008516 -0.001166 -0.016989 0.000000 0.064111 0.000000
# 6 0.000000 0.000000 0.000000 0.009534 0.000000 0.032889
#
#
# Mechanical properties :
#
#
# Convention : Reuss Voigt Hill
#
# Bulk Modulus (GPa) = 29.48388 36.13921 32.81155
# Shear Modulus (GPa) = 22.34269 27.60344 24.97307
#
# Velocity S-wave (km/s) = 3.35622 3.73047 3.54828
# Velocity P-wave (km/s) = 5.46657 6.06424 5.77315
#
# Compressibility (1/GPa) = 0.03391683
#
# Stress axis : x y z
#
# Youngs Moduli (GPa) = 46.00038 100.81929 44.50318
#
# Poissons Ratio (x) = 0.35780 0.17414
# Poissons Ratio (y) = 0.16325 0.11765
# Poissons Ratio (z) = 0.17999 0.26654
#
# Static dielectric constant tensor:
#      x y z
#    x 1.737180 0.000000 0.018470 
#    y 0.000000 1.755070 0.000000 
#    z 0.018470 0.000000 1.769040 
# 
# From -- ./inp_files/53407.got.cif
#   From: 2010.05.17/outbox.cif.g08.bks.cpg/sg13_27_cif.got.tgz:53407.got - 2010.06.03 16:44:36.
