data_PCOD9229693
_publ_section_title
;
Structure prediction by ZEFSAII (Michael W. Deem and Ramdas Pophale) SiO2 
 PCOD9229693
Probable space group: P 2/C
;
_chemical_formula_sum "Si O2"
_cell_formula_units_Z 16
_cell_length_a 13.627743
_cell_length_b 8.003064
_cell_length_c 9.852591
_cell_angle_alpha 90.000000
_cell_angle_beta 145.397118
_cell_angle_gamma 90.000000
_cell_volume 610.226678
_symmetry_space_group_name_H-M "P 2/C"
_symmetry_group_IT_number 13
_symmetry_cell_setting 'monoclinic'
loop_
_space_group_symop_operation_xyz
x,y,z
-x,y,1/2-z
-x,-y,-z
x,-y,1/2+z
loop_
_atom_site_type_symbol
_atom_site_label
_atom_site_fract_x
_atom_site_fract_y
_atom_site_fract_z
Si Si1 0.260201 0.289612 0.540063
Si Si2 0.016806 0.194419 0.043133
Si Si3 0.487938 0.702177 0.958644
Si Si4 0.231745 0.316597 0.952951
O O1 0.197666 0.217176 0.326516
O O2 0.368823 0.262333 0.993775
O O3 0.116753 0.256090 0.492679
O O4 0.434629 0.229519 0.812709
O O5 0.951339 0.284164 0.830264
O O6 0.000000 0.000000 0.000000
O O7 0.308896 0.755809 0.682270
O O8 0.500000 0.500000 0.000000
O O9 0.742799 0.486724 0.994638
#
# Coordination Sequence:
#
# PCOD9229693 Si02
#       4
#     4   4   4   4
#     4   9  18  34  53  77 103 136 178 216 260 317
#     4  10  20  34  50  76 111 143 174 216 262 312
#     4   8  15  29  53  83 104 125 168 223 264 307
#     4   9  16  31  57  80 103 134 171 217 262 314
#
# _framework density 26.219764999999999
#
# number of rings (size 3 to 8) (size 9 to 14) (size 15 to 20)
#    0.000    3.000    0.000    0.750    0.000    0.000 
#    0.000   21.250    0.000   21.000    0.000    0.000 
#    0.000    0.000    0.000    0.000    0.000    0.000 
#
# Total GULP energy -89309.406228 kJ/mol
# GULP energy per Si atom -5581.837889 kJ/mol
# Density = 2.616009 g / cm^3
# Si number density = 26.219765 Si / 1000 Ang^3
#
#
#
# Elastic Constant Matrix: (Units=GPa)
#
#
# Indices 1 2 3 4 5 6 
#
# 1 123.2906 0.1296 89.2642 0.0000 -45.2909 0.0000
# 2 0.1296 44.0673 44.3400 0.0000 -26.1560 0.0000
# 3 89.2642 44.3400 403.4304 0.0000 -55.2149 0.0000
# 4 0.0000 0.0000 0.0000 -20.0074 0.0000 34.0465
# 5 -45.2909 -26.1560 -55.2149 0.0000 79.8865 0.0000
# 6 0.0000 0.0000 0.0000 34.0465 0.0000 -53.7514
#
#
#
# Elastic Compliance Matrix: (Units=1/GPa)
#
#
# Indices 1 2 3 4 5 6 
#
# 1 0.012849 0.007211 -0.002557 0.000000 0.007878 0.000000
# 2 0.007211 0.033796 -0.003574 0.000000 0.012683 0.000000
# 3 -0.002557 -0.003574 0.003400 0.000000 -0.000270 0.000000
# 4 0.000000 0.000000 0.000000 0.641862 0.000000 0.406560
# 5 0.007878 0.012683 -0.000270 0.000000 0.020950 0.000000
# 6 0.000000 0.000000 0.000000 0.406560 0.000000 0.238914
#
#
# Mechanical properties :
#
#
# Convention : Reuss Voigt Hill
#
# Bulk Modulus (GPa) = 19.15523 93.13956 56.14740
# Shear Modulus (GPa) = 5.17056 30.36251 17.76653
#
# Velocity S-wave (km/s) = 1.40581 3.40663 2.60590
# Velocity P-wave (km/s) = 3.15540 7.14656 5.52403
#
# Compressibility (1/GPa) = 0.05220507
#
# Stress axis : x y z
#
# Youngs Moduli (GPa) = 77.82742 29.58951 294.07517
#
# Poissons Ratio (x) = -0.21338 0.75205
# Poissons Ratio (y) = -0.56125 1.05107
# Poissons Ratio (z) = 0.19903 0.10576
#
# Static dielectric constant tensor:
#      x y z
#    x 2.039920 0.000000 0.057540 
#    y 0.000000 1.951660 0.000000 
#    z 0.057540 0.000000 2.237600 
# 
# From -- ./inp_files/35014.got.cif
#   From: 2010.05.17/outbox.cif.g08.bks.cpg/sg13_18_cif.got.tgz:35014.got - 2010.06.03 16:44:36.
