data_PCOD9229293
_publ_section_title
;
Structure prediction by ZEFSAII (Michael W. Deem and Ramdas Pophale) SiO2 
 PCOD9229293
Probable space group: P 2/C
;
_chemical_formula_sum "Si O2"
_cell_formula_units_Z 20
_cell_length_a 9.738286
_cell_length_b 19.312995
_cell_length_c 5.545401
_cell_angle_alpha 90.000000
_cell_angle_beta 56.823948
_cell_angle_gamma 90.000000
_cell_volume 872.945218
_symmetry_space_group_name_H-M "P 2/C"
_symmetry_group_IT_number 13
_symmetry_cell_setting 'monoclinic'
loop_
_space_group_symop_operation_xyz
x,y,z
-x,y,1/2-z
-x,-y,-z
x,-y,1/2+z
loop_
_atom_site_type_symbol
_atom_site_label
_atom_site_fract_x
_atom_site_fract_y
_atom_site_fract_z
Si Si1 0.750665 0.359370 0.156269
Si Si2 0.693679 0.252313 0.832534
Si Si3 0.500000 0.629958 0.250000
Si Si4 0.500000 0.140665 0.750000
Si Si5 0.000000 0.541616 0.250000
Si Si6 0.000000 0.717905 0.750000
Si Si7 0.186244 0.956080 0.593108
O O1 0.607179 0.400589 0.432481
O O2 0.896813 0.333370 0.183310
O O3 0.695430 0.285857 0.094855
O O4 0.838078 0.410768 0.890443
O O5 0.627784 0.317965 0.748554
O O6 0.571761 0.189839 0.892406
O O7 0.874428 0.239614 0.543440
O O8 0.659359 0.095318 0.533342
O O9 0.000000 0.500000 0.500000
O O10 0.000000 0.926057 0.750000
O O11 0.198847 0.998153 0.326762
#
# Coordination Sequence:
#
# PCOD9229293 Si02
#       7
#     4   4   2   2   2   2   4
#     4  11  21  44  69  95 142 189 231 305 380 441
#     4  10  21  39  64 103 138 184 225 299 375 437
#     4   9  22  38  66  92 138 180 225 278 392 439
#     4  11  24  42  70 116 146 180 257 298 362 451
#     4  12  27  44  74 106 132 187 262 304 356 456
#     4  10  19  38  66  96 138 189 226 282 386 444
#     4  10  23  49  76 102 148 205 247 303 362 420
#
# _framework density 22.910945999999999
#
# number of rings (size 3 to 8) (size 9 to 14) (size 15 to 20)
#    0.000    1.600    2.000    1.800    4.200    0.000 
#   21.600    3.000    0.000    0.000    0.000    0.000 
#    0.000    0.000    0.000    0.000    0.000    0.000 
#
# Total GULP energy -111481.024140 kJ/mol
# GULP energy per Si atom -5574.051207 kJ/mol
# Density = 2.285880 g / cm^3
# Si number density = 22.910946 Si / 1000 Ang^3
#
#
#
# Elastic Constant Matrix: (Units=GPa)
#
#
# Indices 1 2 3 4 5 6 
#
# 1 125.2955 47.6282 64.3067 0.0000 -11.3259 0.0000
# 2 47.6282 74.7803 63.6594 0.0000 -16.7602 0.0000
# 3 64.3067 63.6594 173.9102 0.0000 -27.3332 0.0000
# 4 0.0000 0.0000 0.0000 -12.3149 0.0000 11.6408
# 5 -11.3259 -16.7602 -27.3332 0.0000 52.0846 0.0000
# 6 0.0000 0.0000 0.0000 11.6408 0.0000 23.3411
#
#
#
# Elastic Compliance Matrix: (Units=1/GPa)
#
#
# Indices 1 2 3 4 5 6 
#
# 1 0.011091 -0.005250 -0.002251 0.000000 -0.000459 0.000000
# 2 -0.005250 0.022278 -0.005740 0.000000 0.003015 0.000000
# 3 -0.002251 -0.005740 0.009064 0.000000 0.002420 0.000000
# 4 0.000000 0.000000 0.000000 -0.055186 0.000000 0.027523
# 5 -0.000459 0.003015 0.002420 0.000000 0.021340 0.000000
# 6 0.000000 0.000000 0.000000 0.027523 0.000000 0.029117
#
#
# Mechanical properties :
#
#
# Convention : Reuss Voigt Hill
#
# Bulk Modulus (GPa) = 62.69381 80.57494 71.63437
# Shear Modulus (GPa) = 71.93960 25.84829 48.89394
#
# Velocity S-wave (km/s) = 5.60962 3.36252 4.62463
# Velocity P-wave (km/s) = 8.32950 7.09370 7.73632
#
# Compressibility (1/GPa) = 0.01595054
#
# Stress axis : x y z
#
# Youngs Moduli (GPa) = 90.16418 44.88688 110.32723
#
# Poissons Ratio (x) = 0.23566 0.24839
# Poissons Ratio (y) = 0.47338 0.63324
# Poissons Ratio (z) = 0.20300 0.25763
#
# Static dielectric constant tensor:
#      x y z
#    x 3.067080 0.000000 1.056570 
#    y 0.000000 1.848110 0.000000 
#    z 1.056570 0.000000 2.968550 
# 
# From -- ./inp_files/2021.got.cif
#   From: 2010.05.17/outbox.cif.g08.bks.cpg/sg13_2_cif.got.tgz:2021.got - 2010.06.03 16:44:36.
