data_PCOD9229018
_publ_section_title
;
Structure prediction by ZEFSAII (Michael W. Deem and Ramdas Pophale) SiO2 
 PCOD9229018
Probable space group: P 2/C
;
_chemical_formula_sum "Si O2"
_cell_formula_units_Z 26
_cell_length_a 6.046937
_cell_length_b 12.442326
_cell_length_c 18.530510
_cell_angle_alpha 90.000000
_cell_angle_beta 69.347669
_cell_angle_gamma 90.000000
_cell_volume 1304.603567
_symmetry_space_group_name_H-M "P 2/C"
_symmetry_group_IT_number 13
_symmetry_cell_setting 'monoclinic'
loop_
_space_group_symop_operation_xyz
x,y,z
-x,y,1/2-z
-x,-y,-z
x,-y,1/2+z
loop_
_atom_site_type_symbol
_atom_site_label
_atom_site_fract_x
_atom_site_fract_y
_atom_site_fract_z
Si Si1 0.694272 0.144372 0.849932
Si Si2 0.962247 0.662211 0.472346
Si Si3 0.794047 0.619229 0.327206
Si Si4 0.500000 0.012986 0.250000
Si Si5 0.234820 0.124576 0.983457
Si Si6 0.052211 0.013580 0.375624
Si Si7 0.615508 0.492552 0.065258
O O1 0.711991 0.261883 0.812682
O O2 0.585922 0.064051 0.804237
O O3 0.507973 0.153488 0.937890
O O4 0.936881 0.089091 0.848473
O O5 0.882572 0.646481 0.398489
O O6 0.751330 0.621389 0.549062
O O7 0.064336 0.777910 0.480083
O O8 0.180681 0.581326 0.455599
O O9 0.586646 0.531206 0.356616
O O10 0.000000 0.583418 0.250000
O O11 0.741013 0.068445 0.194875
O O12 0.177258 0.029431 0.933804
O O13 0.162595 0.086993 0.071567
O O14 0.500000 0.500000 0.000000
#
# Coordination Sequence:
#
# PCOD9229018 Si02
#       7
#     4   4   4   2   4   4   4
#     4  11  20  33  51  81 117 146 180 231 281 332
#     4  10  19  37  56  80 109 143 186 225 270 328
#     4  11  21  31  55  85 116 145 175 218 289 341
#     4  10  22  34  52  76 114 150 184 222 282 326
#     4  10  20  33  56  81 105 148 190 221 272 329
#     4  10  20  35  51  79 112 145 185 230 268 328
#     4   9  20  36  54  77 108 144 180 225 274 323
#
# _framework density 19.929425999999999
#
# number of rings (size 3 to 8) (size 9 to 14) (size 15 to 20)
#    0.000    1.846    3.077    1.846    2.154    0.615 
#    0.000    0.000    0.000    5.538    0.000    0.000 
#    0.000    0.000    0.000    0.000    0.000    0.000 
#
# Total GULP energy -144872.188528 kJ/mol
# GULP energy per Si atom -5572.007251 kJ/mol
# Density = 1.988407 g / cm^3
# Si number density = 19.929426 Si / 1000 Ang^3
#
#
#
# Elastic Constant Matrix: (Units=GPa)
#
#
# Indices 1 2 3 4 5 6 
#
# 1 45.5465 -5.7190 19.7767 0.0000 -21.9749 0.0000
# 2 -5.7190 23.1022 22.8084 0.0000 -12.4765 0.0000
# 3 19.7767 22.8084 111.1713 0.0000 -51.1879 0.0000
# 4 0.0000 0.0000 0.0000 21.0304 0.0000 -7.5135
# 5 -21.9749 -12.4765 -51.1879 0.0000 47.9189 0.0000
# 6 0.0000 0.0000 0.0000 -7.5135 0.0000 18.1980
#
#
#
# Elastic Compliance Matrix: (Units=1/GPa)
#
#
# Indices 1 2 3 4 5 6 
#
# 1 0.034702 0.020560 -0.001179 0.000000 0.020007 0.000000
# 2 0.020560 0.066938 -0.009888 0.000000 0.016294 0.000000
# 3 -0.001179 -0.009888 0.019284 0.000000 0.017484 0.000000
# 4 0.000000 0.000000 0.000000 0.055778 0.000000 0.023029
# 5 0.020007 0.016294 0.017484 0.000000 0.052963 0.000000
# 6 0.000000 0.000000 0.000000 0.023029 0.000000 0.064459
#
#
# Mechanical properties :
#
#
# Convention : Reuss Voigt Hill
#
# Bulk Modulus (GPa) = 7.14753 28.17249 17.66001
# Shear Modulus (GPa) = 15.53877 26.95974 21.24925
#
# Velocity S-wave (km/s) = 2.79532 3.68198 3.26885
# Velocity P-wave (km/s) = 3.74335 5.67827 4.80913
#
# Compressibility (1/GPa) = 0.13990853
#
# Stress axis : x y z
#
# Youngs Moduli (GPa) = 28.81669 14.93927 51.85607
#
# Poissons Ratio (x) = -0.30715 0.06115
# Poissons Ratio (y) = -0.59247 0.51277
# Poissons Ratio (z) = 0.03398 0.14772
#
# Static dielectric constant tensor:
#      x y z
#    x 1.755220 0.000000 -0.046410 
#    y 0.000000 1.717540 0.000000 
#    z -0.046410 0.000000 1.769620 
# 
# From -- ./inp_files/61256.got.cif
#   From: 2010.05.17/outbox.cif.g08.bks.cpg/sg13_31_cif.got.tgz:61256.got - 2010.06.03 16:44:36.
