data_PCOD9229574
_publ_section_title
;
Structure prediction by ZEFSAII (Michael W. Deem and Ramdas Pophale) SiO2 
 PCOD9229574
Probable space group: P 2/C
;
_chemical_formula_sum "Si O2"
_cell_formula_units_Z 22
_cell_length_a 6.595212
_cell_length_b 15.783856
_cell_length_c 10.534223
_cell_angle_alpha 90.000000
_cell_angle_beta 135.697627
_cell_angle_gamma 90.000000
_cell_volume 765.907893
_symmetry_space_group_name_H-M "P 2/C"
_symmetry_group_IT_number 13
_symmetry_cell_setting 'monoclinic'
loop_
_space_group_symop_operation_xyz
x,y,z
-x,y,1/2-z
-x,-y,-z
x,-y,1/2+z
loop_
_atom_site_type_symbol
_atom_site_label
_atom_site_fract_x
_atom_site_fract_y
_atom_site_fract_z
Si Si1 0.544383 0.372802 0.094385
Si Si2 0.500000 0.517927 0.250000
Si Si3 0.084994 0.162935 0.467028
Si Si4 0.304979 0.982700 0.538741
Si Si5 0.536097 0.809326 0.955894
Si Si6 0.107267 0.346483 0.512499
O O1 0.425024 0.461438 0.091899
O O2 0.358101 0.286468 0.010501
O O3 0.699922 0.362902 0.028770
O O4 0.792436 0.361353 0.313121
O O5 0.770118 0.580762 0.342024
O O6 0.394488 0.171565 0.527964
O O7 0.133931 0.249504 0.568648
O O8 0.768534 0.182817 0.260859
O O9 0.081822 0.059753 0.457593
O O10 0.500000 0.988640 0.750000
O O11 0.235646 0.882018 0.485333
O O12 0.500000 0.000000 0.500000
#
# Coordination Sequence:
#
# PCOD9229574 Si02
#       6
#     4   2   4   4   4   4
#     4   9  19  35  52  73 105 141 173 209 263 326
#     4  12  20  28  56  82  96 124 180 236 264 286
#     4   8  16  33  53  72 101 140 172 203 256 322
#     4  10  20  32  54  80 104 134 178 218 256 310
#     4   8  16  33  53  72 101 140 172 203 256 322
#     4   9  19  35  52  73 105 141 173 209 263 326
#
# _framework density 28.724079
#
# number of rings (size 3 to 8) (size 9 to 14) (size 15 to 20)
#    0.000    2.909    0.000    3.273    2.545    0.727 
#    0.000    0.000    0.000    0.000    0.000    0.000 
#    0.000    0.000    0.000    0.000    0.000    0.000 
#
# Total GULP energy -122628.882249 kJ/mol
# GULP energy per Si atom -5574.040102 kJ/mol
# Density = 2.865870 g / cm^3
# Si number density = 28.724079 Si / 1000 Ang^3
#
#
#
# Elastic Constant Matrix: (Units=GPa)
#
#
# Indices 1 2 3 4 5 6 
#
# 1 104.4810 58.8076 8.2676 0.0000 2.5293 0.0000
# 2 58.8076 264.3663 3.0250 0.0000 14.4146 0.0000
# 3 8.2676 3.0250 55.4691 0.0000 4.3509 0.0000
# 4 0.0000 0.0000 0.0000 26.8918 0.0000 6.6341
# 5 2.5293 14.4146 4.3509 0.0000 36.1806 0.0000
# 6 0.0000 0.0000 0.0000 6.6341 0.0000 42.9723
#
#
#
# Elastic Compliance Matrix: (Units=1/GPa)
#
#
# Indices 1 2 3 4 5 6 
#
# 1 0.011072 -0.002467 -0.001547 0.000000 0.000395 0.000000
# 2 -0.002467 0.004417 0.000254 0.000000 -0.001618 0.000000
# 3 -0.001547 0.000254 0.018418 0.000000 -0.002208 0.000000
# 4 0.000000 0.000000 0.000000 0.038658 0.000000 -0.005968
# 5 0.000395 -0.001618 -0.002208 0.000000 0.028522 0.000000
# 6 0.000000 0.000000 0.000000 -0.005968 0.000000 0.024192
#
#
# Mechanical properties :
#
#
# Convention : Reuss Voigt Hill
#
# Bulk Modulus (GPa) = 37.89716 62.72410 50.31063
# Shear Modulus (GPa) = 35.31205 44.82336 40.06770
#
# Velocity S-wave (km/s) = 3.51002 3.95458 3.73891
# Velocity P-wave (km/s) = 5.44510 6.53726 6.01601
#
# Compressibility (1/GPa) = 0.02638720
#
# Stress axis : x y z
#
# Youngs Moduli (GPa) = 90.31429 226.41448 54.29491
#
# Poissons Ratio (x) = 0.55853 0.08398
# Poissons Ratio (y) = 0.22279 -0.01378
# Poissons Ratio (z) = 0.13970 -0.05744
#
# Static dielectric constant tensor:
#      x y z
#    x 2.419180 0.000000 -0.140720 
#    y 0.000000 2.414320 0.000000 
#    z -0.140720 0.000000 2.228540 
# 
# From -- ./inp_files/29984.got.cif
#   From: 2010.05.17/outbox.cif.g08.bks.cpg/sg13_15_cif.got.tgz:29984.got - 2010.06.03 16:44:36.
