data_PCOD9229647
_publ_section_title
;
Structure prediction by ZEFSAII (Michael W. Deem and Ramdas Pophale) SiO2 
 PCOD9229647
Probable space group: P 2/C
;
_chemical_formula_sum "Si O2"
_cell_formula_units_Z 22
_cell_length_a 11.863027
_cell_length_b 12.067649
_cell_length_c 9.429149
_cell_angle_alpha 90.000000
_cell_angle_beta 59.907248
_cell_angle_gamma 90.000000
_cell_volume 1167.924193
_symmetry_space_group_name_H-M "P 2/C"
_symmetry_group_IT_number 13
_symmetry_cell_setting 'monoclinic'
loop_
_space_group_symop_operation_xyz
x,y,z
-x,y,1/2-z
-x,-y,-z
x,-y,1/2+z
loop_
_atom_site_type_symbol
_atom_site_label
_atom_site_fract_x
_atom_site_fract_y
_atom_site_fract_z
Si Si1 0.000000 0.005727 0.250000
Si Si2 0.569317 0.406813 0.053951
Si Si3 0.884370 0.143641 0.582892
Si Si4 0.027014 0.345168 0.387708
Si Si5 0.373870 0.717584 0.232170
Si Si6 0.211796 0.502432 0.913756
O O1 0.917746 0.075667 0.418272
O O2 0.909616 0.930599 0.205201
O O3 0.500000 0.397791 0.250000
O O4 0.715438 0.442539 0.000747
O O5 0.500000 0.500000 0.000000
O O6 0.575355 0.294943 0.960256
O O7 0.983889 0.248975 0.522510
O O8 0.739167 0.193530 0.672852
O O9 0.920561 0.442770 0.458365
O O10 0.000000 0.296063 0.250000
O O11 0.165855 0.400908 0.334493
O O12 0.500000 0.731393 0.250000
O O13 0.305661 0.597562 0.305539
#
# Coordination Sequence:
#
# PCOD9229647 Si02
#       6
#     2   4   4   4   4   4
#     4  10  22  48  64  90 110 150 196 282 324 350
#     4  12  21  35  54  83 126 177 198 229 271 349
#     4  10  23  41  68  88 118 150 206 256 321 362
#     4  10  20  33  55  91 119 165 196 244 290 355
#     4  11  22  40  59  92 127 169 201 236 292 368
#     4  10  20  33  54  83 134 164 201 226 277 352
#
# _framework density 18.836839000000001
#
# number of rings (size 3 to 8) (size 9 to 14) (size 15 to 20)
#    0.000    1.455    4.545    1.091    2.545    0.000 
#    3.273    0.909    0.000    0.000    0.000    0.000 
#    0.000    0.000    0.000    0.000    0.000    0.000 
#
# Total GULP energy -122603.925176 kJ/mol
# GULP energy per Si atom -5572.905690 kJ/mol
# Density = 1.879397 g / cm^3
# Si number density = 18.836839 Si / 1000 Ang^3
#
#
#
# Elastic Constant Matrix: (Units=GPa)
#
#
# Indices 1 2 3 4 5 6 
#
# 1 145.7961 72.2096 58.5944 0.0000 10.3661 0.0000
# 2 72.2096 81.3749 46.3925 0.0000 7.4979 0.0000
# 3 58.5944 46.3925 110.9453 0.0000 15.7104 0.0000
# 4 0.0000 0.0000 0.0000 21.8070 0.0000 -4.4740
# 5 10.3661 7.4979 15.7104 0.0000 28.3496 0.0000
# 6 0.0000 0.0000 0.0000 -4.4740 0.0000 25.5376
#
#
#
# Elastic Compliance Matrix: (Units=1/GPa)
#
#
# Indices 1 2 3 4 5 6 
#
# 1 0.012811 -0.009852 -0.002552 0.000000 -0.000664 0.000000
# 2 -0.009852 0.023720 -0.004707 0.000000 -0.000063 0.000000
# 3 -0.002552 -0.004707 0.013045 0.000000 -0.005051 0.000000
# 4 0.000000 0.000000 0.000000 0.047567 0.000000 0.008333
# 5 -0.000664 -0.000063 -0.005051 0.000000 0.038332 0.000000
# 6 0.000000 0.000000 0.000000 0.008333 0.000000 0.040618
#
#
# Mechanical properties :
#
#
# Convention : Reuss Voigt Hill
#
# Bulk Modulus (GPa) = 65.12840 76.94547 71.03693
# Shear Modulus (GPa) = 23.20897 25.86683 24.53790
#
# Velocity S-wave (km/s) = 3.51394 3.70970 3.61315
# Velocity P-wave (km/s) = 7.14939 7.69975 7.42967
#
# Compressibility (1/GPa) = 0.01535429
#
# Stress axis : x y z
#
# Youngs Moduli (GPa) = 78.05510 42.15790 76.65884
#
# Poissons Ratio (x) = 0.41534 0.19566
# Poissons Ratio (y) = 0.76901 0.36081
# Poissons Ratio (z) = 0.19923 0.19842
#
# Static dielectric constant tensor:
#      x y z
#    x 1.666970 0.000000 0.008340 
#    y 0.000000 1.685160 0.000000 
#    z 0.008340 0.000000 1.768800 
# 
# From -- ./inp_files/15578.got.cif
#   From: 2010.05.17/outbox.cif.g08.bks.cpg/sg13_8_cif.got.tgz:15578.got - 2010.06.03 16:44:36.
