data_PCOD9229343
_publ_section_title
;
Structure prediction by ZEFSAII (Michael W. Deem and Ramdas Pophale) SiO2 
 PCOD9229343
Probable space group: P 2/C
;
_chemical_formula_sum "Si O2"
_cell_formula_units_Z 30
_cell_length_a 10.119770
_cell_length_b 5.340586
_cell_length_c 27.458168
_cell_angle_alpha 90.000000
_cell_angle_beta 92.169986
_cell_angle_gamma 90.000000
_cell_volume 1482.926287
_symmetry_space_group_name_H-M "P 2/C"
_symmetry_group_IT_number 13
_symmetry_cell_setting 'monoclinic'
loop_
_space_group_symop_operation_xyz
x,y,z
-x,y,1/2-z
-x,-y,-z
x,-y,1/2+z
loop_
_atom_site_type_symbol
_atom_site_label
_atom_site_fract_x
_atom_site_fract_y
_atom_site_fract_z
Si Si1 0.000000 0.046875 0.750000
Si Si2 0.886072 0.609333 0.162902
Si Si3 0.614225 0.587173 0.111986
Si Si4 0.010192 0.059431 0.915198
Si Si5 0.678710 0.471573 0.386232
Si Si6 0.306516 0.090085 0.441749
Si Si7 0.107321 0.240090 0.174124
Si Si8 0.743002 0.029829 0.948344
O O1 0.879970 0.901801 0.775209
O O2 0.931811 0.200636 0.705355
O O3 0.731038 0.585863 0.153273
O O4 0.964425 0.365217 0.178560
O O5 0.943919 0.682917 0.109867
O O6 0.471694 0.519143 0.131199
O O7 0.644710 0.361592 0.074641
O O8 0.623562 0.859229 0.085901
O O9 0.920223 0.940754 0.871369
O O10 0.149261 0.926447 0.927082
O O11 0.903298 0.045022 0.956391
O O12 0.778374 0.424494 0.342475
O O13 0.713767 0.720736 0.416887
O O14 0.694819 0.225689 0.421195
O O15 0.320928 0.049379 0.499422
#
# Coordination Sequence:
#
# PCOD9229343 Si02
#       8
#     2   4   4   4   4   4   4   4
#     4  10  22  36  70 100 110 144 200 262 310 370
#     4  10  19  39  63  90 119 152 200 248 311 372
#     4  11  24  40  61  90 127 171 203 246 307 366
#     4   9  19  35  57  92 122 160 203 257 305 353
#     4  11  24  40  61  90 127 171 203 246 307 366
#     4  11  22  37  60  90 127 168 216 259 293 346
#     4  10  19  39  63  90 119 152 200 248 311 372
#     4  11  22  37  60  90 127 168 216 259 293 346
#
# _framework density 20.230273
#
# number of rings (size 3 to 8) (size 9 to 14) (size 15 to 20)
#    0.000    1.600    2.667    2.400    0.000    3.200 
#    0.000    4.000    0.000    4.800    0.000    0.000 
#    0.000    0.000    0.000    0.000    0.000    0.000 
#
# Total GULP energy -167178.800646 kJ/mol
# GULP energy per Si atom -5572.626688 kJ/mol
# Density = 2.018423 g / cm^3
# Si number density = 20.230273 Si / 1000 Ang^3
#
#
#
# Elastic Constant Matrix: (Units=GPa)
#
#
# Indices 1 2 3 4 5 6 
#
# 1 117.5065 19.8610 26.9723 0.0000 9.1183 0.0000
# 2 19.8610 100.3894 24.0237 0.0000 2.7942 0.0000
# 3 26.9723 24.0237 77.1852 0.0000 -7.7365 0.0000
# 4 0.0000 0.0000 0.0000 -12.7845 0.0000 -30.6587
# 5 9.1183 2.7942 -7.7365 0.0000 8.6449 0.0000
# 6 0.0000 0.0000 0.0000 -30.6587 0.0000 3.0290
#
#
#
# Elastic Compliance Matrix: (Units=1/GPa)
#
#
# Indices 1 2 3 4 5 6 
#
# 1 0.011090 -0.000453 -0.005374 0.000000 -0.016360 0.000000
# 2 -0.000453 0.011195 -0.004000 0.000000 -0.006721 0.000000
# 3 -0.005374 -0.004000 0.018430 0.000000 0.023455 0.000000
# 4 0.000000 0.000000 0.000000 -0.003095 0.000000 -0.031327
# 5 -0.016360 -0.006721 0.023455 0.000000 0.156094 0.000000
# 6 0.000000 0.000000 0.000000 -0.031327 0.000000 0.013063
#
#
# Mechanical properties :
#
#
# Convention : Reuss Voigt Hill
#
# Bulk Modulus (GPa) = 47.48100 48.53279 48.00689
# Shear Modulus (GPa) = 21.41783 14.72616 18.07199
#
# Velocity S-wave (km/s) = 3.25730 2.70094 2.99208
# Velocity P-wave (km/s) = 6.13742 5.81111 5.97649
#
# Compressibility (1/GPa) = 0.02106106
#
# Stress axis : x y z
#
# Youngs Moduli (GPa) = 90.17295 89.32557 54.26005
#
# Poissons Ratio (x) = 0.04042 0.29161
# Poissons Ratio (y) = 0.04081 0.21704
# Poissons Ratio (z) = 0.48462 0.35730
#
# Static dielectric constant tensor:
#      x y z
#    x 1.849990 0.000000 -0.158710 
#    y 0.000000 1.770460 0.000000 
#    z -0.158710 0.000000 1.974040 
# 
# From -- ./inp_files/94352.got.cif
#   From: 2010.05.17/outbox.cif.g08.bks.cpg/sg13_48_cif.got.tgz:94352.got - 2010.06.03 16:44:36.
