data_PCOD9229829
_publ_section_title
;
Structure prediction by ZEFSAII (Michael W. Deem and Ramdas Pophale) SiO2 
 PCOD9229829
Probable space group: P 2/C
;
_chemical_formula_sum "Si O2"
_cell_formula_units_Z 24
_cell_length_a 9.926706
_cell_length_b 5.996899
_cell_length_c 16.577927
_cell_angle_alpha 90.000000
_cell_angle_beta 69.579282
_cell_angle_gamma 90.000000
_cell_volume 924.855650
_symmetry_space_group_name_H-M "P 2/C"
_symmetry_group_IT_number 13
_symmetry_cell_setting 'monoclinic'
loop_
_space_group_symop_operation_xyz
x,y,z
-x,y,1/2-z
-x,-y,-z
x,-y,1/2+z
loop_
_atom_site_type_symbol
_atom_site_label
_atom_site_fract_x
_atom_site_fract_y
_atom_site_fract_z
Si Si1 0.260189 0.126453 0.320696
Si Si2 0.844604 0.512863 0.244875
Si Si3 0.722324 0.742975 0.501253
Si Si4 0.064821 0.231363 0.925769
Si Si5 0.569643 0.748309 0.306784
Si Si6 0.321940 0.238513 0.990953
O O1 0.221488 0.272701 0.251716
O O2 0.315218 0.229764 0.394243
O O3 0.112201 0.001525 0.376040
O O4 0.368152 0.947021 0.261708
O O5 0.867940 0.586899 0.147721
O O6 0.719800 0.657359 0.310244
O O7 0.000000 0.527858 0.250000
O O8 0.667102 0.499029 0.482700
O O9 0.896093 0.737806 0.463958
O O10 0.675383 0.984594 0.471992
O O11 0.161738 0.241178 0.985153
O O12 0.500000 0.593054 0.250000
O O13 0.448833 0.776633 0.398483
#
# Coordination Sequence:
#
# PCOD9229829 Si02
#       6
#     4   4   4   4   4   4
#     4  10  20  34  57  90 124 159 210 255 324 364
#     4  11  24  39  60  88 128 173 209 255 316 388
#     4  11  21  35  61  97 128 156 206 267 327 367
#     4  10  21  36  59  90 125 160 205 264 313 380
#     4  11  20  37  61  93 124 159 207 270 319 370
#     4  11  21  35  60  98 122 159 198 269 324 370
#
# _framework density 25.949992999999999
#
# number of rings (size 3 to 8) (size 9 to 14) (size 15 to 20)
#    0.000    1.333    6.667    2.500    4.667    3.333 
#    0.000    0.000    0.000    2.000    0.000    0.000 
#    0.000    0.000    0.000    0.000    0.000    0.000 
#
# Total GULP energy -133824.715226 kJ/mol
# GULP energy per Si atom -5576.029801 kJ/mol
# Density = 2.589093 g / cm^3
# Si number density = 25.949993 Si / 1000 Ang^3
#
#
#
# Elastic Constant Matrix: (Units=GPa)
#
#
# Indices 1 2 3 4 5 6 
#
# 1 107.3180 26.3077 22.9837 0.0000 -29.8403 0.0000
# 2 26.3077 152.3844 47.4475 0.0000 -4.6261 0.0000
# 3 22.9837 47.4475 104.4202 0.0000 -37.5042 0.0000
# 4 0.0000 0.0000 0.0000 -44.2717 0.0000 59.4579
# 5 -29.8403 -4.6261 -37.5042 0.0000 37.5685 0.0000
# 6 0.0000 0.0000 0.0000 59.4579 0.0000 -56.5489
#
#
#
# Elastic Compliance Matrix: (Units=1/GPa)
#
#
# Indices 1 2 3 4 5 6 
#
# 1 0.012975 -0.002814 0.003118 0.000000 0.013072 0.000000
# 2 -0.002814 0.008647 -0.005815 0.000000 -0.006975 0.000000
# 3 0.003118 -0.005815 0.018965 0.000000 0.020693 0.000000
# 4 0.000000 0.000000 0.000000 0.054810 0.000000 0.057630
# 5 0.013072 -0.006975 0.020693 0.000000 0.056799 0.000000
# 6 0.000000 0.000000 0.000000 0.057630 0.000000 0.042911
#
#
# Mechanical properties :
#
#
# Convention : Reuss Voigt Hill
#
# Bulk Modulus (GPa) = 33.82488 61.95562 47.89025
# Shear Modulus (GPa) = 23.14984 5.17515 14.16249
#
# Velocity S-wave (km/s) = 2.99004 1.41372 2.33869
# Velocity P-wave (km/s) = 4.99833 5.15671 5.07814
#
# Compressibility (1/GPa) = 0.02956404
#
# Stress axis : x y z
#
# Youngs Moduli (GPa) = 77.07229 115.64678 52.72886
#
# Poissons Ratio (x) = 0.32542 -0.16439
# Poissons Ratio (y) = 0.21687 0.30662
# Poissons Ratio (z) = -0.24028 0.67250
#
# Static dielectric constant tensor:
#      x y z
#    x 2.090930 0.000000 0.072770 
#    y 0.000000 2.221080 0.000000 
#    z 0.072770 0.000000 1.982750 
# 
# From -- ./inp_files/85773.got.cif
#   From: 2010.05.17/outbox.cif.g08.bks.cpg/sg13_43_cif.got.tgz:85773.got - 2010.06.03 16:44:36.
