data_PCOD9229671
_publ_section_title
;
Structure prediction by ZEFSAII (Michael W. Deem and Ramdas Pophale) SiO2 
 PCOD9229671
Probable space group: P 2/C
;
_chemical_formula_sum "Si O2"
_cell_formula_units_Z 22
_cell_length_a 5.694251
_cell_length_b 14.994269
_cell_length_c 11.512885
_cell_angle_alpha 90.000000
_cell_angle_beta 75.403291
_cell_angle_gamma 90.000000
_cell_volume 951.256035
_symmetry_space_group_name_H-M "P 2/C"
_symmetry_group_IT_number 13
_symmetry_cell_setting 'monoclinic'
loop_
_space_group_symop_operation_xyz
x,y,z
-x,y,1/2-z
-x,-y,-z
x,-y,1/2+z
loop_
_atom_site_type_symbol
_atom_site_label
_atom_site_fract_x
_atom_site_fract_y
_atom_site_fract_z
Si Si1 0.500000 0.435955 0.250000
Si Si2 0.000000 0.547867 0.750000
Si Si3 0.801664 0.978255 0.376985
Si Si4 0.091114 0.658259 0.500579
Si Si5 0.079798 0.143063 0.442549
Si Si6 0.500000 0.921382 0.750000
Si Si7 0.410681 0.397510 0.510370
O O1 0.259360 0.493531 0.252683
O O2 0.448106 0.374723 0.368342
O O3 0.943524 0.606011 0.872397
O O4 0.558452 0.011493 0.347108
O O5 0.000000 0.964505 0.250000
O O6 0.889951 0.064947 0.437531
O O7 0.791781 0.890841 0.455935
O O8 0.380162 0.649445 0.440142
O O9 0.031234 0.761073 0.526826
O O10 0.879598 0.618248 0.441304
O O11 0.272876 0.138208 0.313925
O O12 0.500000 0.500000 0.500000
#
# Coordination Sequence:
#
# PCOD9229671 Si02
#       7
#     2   2   4   4   4   2   4
#     4   8  16  31  50  75  98 136 168 224 279 338
#     4   8  16  28  46  76 108 126 168 228 292 326
#     4   9  20  38  54  81 116 162 197 242 295 359
#     4  10  21  33  56  86 113 147 188 241 295 349
#     4  10  21  34  56  83 121 150 201 246 301 354
#     4  10  20  33  58  85 114 156 198 250 303 360
#     4  10  20  37  57  80 114 147 188 234 296 352
#
# _framework density 23.127317999999999
#
# number of rings (size 3 to 8) (size 9 to 14) (size 15 to 20)
#    0.000    2.545    0.000    1.091    6.364    2.909 
#    0.000    0.000    4.000    0.000    0.000    0.000 
#    0.000    0.000    0.000    0.000    0.000    0.000 
#
# Total GULP energy -122625.231254 kJ/mol
# GULP energy per Si atom -5573.874148 kJ/mol
# Density = 2.307468 g / cm^3
# Si number density = 23.127318 Si / 1000 Ang^3
#
#
#
# Elastic Constant Matrix: (Units=GPa)
#
#
# Indices 1 2 3 4 5 6 
#
# 1 212.8986 39.4006 15.0799 0.0000 16.3584 0.0000
# 2 39.4006 94.8716 15.4728 0.0000 5.9671 0.0000
# 3 15.0799 15.4728 24.9306 0.0000 3.7469 0.0000
# 4 0.0000 0.0000 0.0000 16.1878 0.0000 -1.4211
# 5 16.3584 5.9671 3.7469 0.0000 33.5714 0.0000
# 6 0.0000 0.0000 0.0000 -1.4211 0.0000 20.4693
#
#
#
# Elastic Compliance Matrix: (Units=1/GPa)
#
#
# Indices 1 2 3 4 5 6 
#
# 1 0.005314 -0.001784 -0.001796 0.000000 -0.002072 0.000000
# 2 -0.001784 0.012382 -0.006515 0.000000 -0.000605 0.000000
# 3 -0.001796 -0.006515 0.045702 0.000000 -0.003068 0.000000
# 4 0.000000 0.000000 0.000000 0.062154 0.000000 0.004315
# 5 -0.002072 -0.000605 -0.003068 0.000000 0.031247 0.000000
# 6 0.000000 0.000000 0.000000 0.004315 0.000000 0.049153
#
#
# Mechanical properties :
#
#
# Convention : Reuss Voigt Hill
#
# Bulk Modulus (GPa) = 23.14335 52.51193 37.82764
# Shear Modulus (GPa) = 20.78636 31.56220 26.17428
#
# Velocity S-wave (km/s) = 3.00122 3.69821 3.36779
# Velocity P-wave (km/s) = 4.69451 6.40239 5.61378
#
# Compressibility (1/GPa) = 0.04320895
#
# Stress axis : x y z
#
# Youngs Moduli (GPa) = 188.19892 80.76346 21.88091
#
# Poissons Ratio (x) = 0.14405 0.03929
# Poissons Ratio (y) = 0.33566 0.14255
# Poissons Ratio (z) = 0.33795 0.52617
#
# Static dielectric constant tensor:
#      x y z
#    x 2.015940 0.000000 -0.002060 
#    y 0.000000 1.791180 0.000000 
#    z -0.002060 0.000000 1.997480 
# 
# From -- ./inp_files/26229.got.cif
#   From: 2010.05.17/outbox.cif.g08.bks.cpg/sg13_14_cif.got.tgz:26229.got - 2010.06.03 16:44:36.
