data_PCOD9229617
_publ_section_title
;
Structure prediction by ZEFSAII (Michael W. Deem and Ramdas Pophale) SiO2 
 PCOD9229617
Probable space group: P 2/C
;
_chemical_formula_sum "Si O2"
_cell_formula_units_Z 24
_cell_length_a 7.511757
_cell_length_b 21.722862
_cell_length_c 6.825019
_cell_angle_alpha 90.000000
_cell_angle_beta 59.165943
_cell_angle_gamma 90.000000
_cell_volume 956.271771
_symmetry_space_group_name_H-M "P 2/C"
_symmetry_group_IT_number 13
_symmetry_cell_setting 'monoclinic'
loop_
_space_group_symop_operation_xyz
x,y,z
-x,y,1/2-z
-x,-y,-z
x,-y,1/2+z
loop_
_atom_site_type_symbol
_atom_site_label
_atom_site_fract_x
_atom_site_fract_y
_atom_site_fract_z
Si Si1 0.227424 0.550760 0.055326
Si Si2 0.273190 0.298373 0.263907
Si Si3 0.500000 0.951823 0.250000
Si Si4 0.342374 0.585242 0.550981
Si Si5 0.000000 0.263869 0.750000
Si Si6 0.739249 0.173865 0.102619
Si Si7 0.207356 0.944268 0.737427
O O1 0.241940 0.476510 0.023405
O O2 0.000000 0.565157 0.250000
O O3 0.281505 0.577127 0.814380
O O4 0.409303 0.575554 0.095670
O O5 0.500000 0.302771 0.250000
O O6 0.280463 0.343496 0.072604
O O7 0.083851 0.306984 0.526978
O O8 0.235048 0.226294 0.243233
O O9 0.371066 0.916555 0.486752
O O10 0.669936 0.998072 0.245906
O O11 0.188366 0.213211 0.629269
O O12 0.500000 0.158257 0.250000
O O13 0.850424 0.109849 0.079393
O O14 0.000000 0.965252 0.750000
#
# Coordination Sequence:
#
# PCOD9229617 Si02
#       7
#     4   4   2   4   2   4   4
#     4  10  20  33  50  76 106 148 182 240 296 354
#     4   9  17  34  54  84 108 148 198 249 289 370
#     4  10  24  42  64  94 136 176 206 254 302 358
#     4  10  20  34  53  78 111 140 198 239 291 369
#     4   8  18  32  58  86 102 154 200 242 314 346
#     4   9  19  36  59  87 118 148 204 258 299 358
#     4  11  22  42  64  96 131 171 212 253 305 368
#
# _framework density 25.097470999999999
#
# number of rings (size 3 to 8) (size 9 to 14) (size 15 to 20)
#    1.000    1.333    2.500    1.000    1.167    1.333 
#    1.500    0.833    0.000    4.000    0.000    0.000 
#    0.000    0.000    0.000    0.000    0.000    0.000 
#
# Total GULP energy -133628.921254 kJ/mol
# GULP energy per Si atom -5567.871719 kJ/mol
# Density = 2.504035 g / cm^3
# Si number density = 25.097471 Si / 1000 Ang^3
#
#
#
# Elastic Constant Matrix: (Units=GPa)
#
#
# Indices 1 2 3 4 5 6 
#
# 1 95.0098 27.5377 24.6050 0.0000 -35.0891 0.0000
# 2 27.5377 107.1892 16.0692 0.0000 -5.8222 0.0000
# 3 24.6050 16.0692 107.1901 0.0000 -40.3089 0.0000
# 4 0.0000 0.0000 0.0000 -52.5028 0.0000 80.5270
# 5 -35.0891 -5.8222 -40.3089 0.0000 27.4733 0.0000
# 6 0.0000 0.0000 0.0000 80.5270 0.0000 -107.8222
#
#
#
# Elastic Compliance Matrix: (Units=1/GPa)
#
#
# Indices 1 2 3 4 5 6 
#
# 1 0.033878 -0.007861 0.020183 0.000000 0.071216 0.000000
# 2 -0.007861 0.011368 -0.006178 0.000000 -0.016696 0.000000
# 3 0.020183 -0.006178 0.033070 0.000000 0.072988 0.000000
# 4 0.000000 0.000000 0.000000 0.130909 0.000000 0.097770
# 5 0.071216 -0.016696 0.072988 0.000000 0.230907 0.000000
# 6 0.000000 0.000000 0.000000 0.097770 0.000000 0.063745
#
#
# Mechanical properties :
#
#
# Convention : Reuss Voigt Hill
#
# Bulk Modulus (GPa) = 11.03714 49.53478 30.28596
# Shear Modulus (GPa) = 9.58237 -10.49187 -0.45475
#
# Velocity S-wave (km/s) = 1.95611 -2.04683 -0.42613
# Velocity P-wave (km/s) = 3.08368 3.76746 3.44259
#
# Compressibility (1/GPa) = 0.09060317
#
# Stress axis : x y z
#
# Youngs Moduli (GPa) = 29.51735 87.96466 30.23898
#
# Poissons Ratio (x) = 0.69149 -0.61030
# Poissons Ratio (y) = 0.23204 0.18682
# Poissons Ratio (z) = -0.59574 0.54346
#
# Static dielectric constant tensor:
#      x y z
#    x 2.101280 0.000000 0.099000 
#    y 0.000000 2.064830 0.000000 
#    z 0.099000 0.000000 2.085800 
# 
# From -- ./inp_files/13731.got.cif
#   From: 2010.05.17/outbox.cif.g08.bks.cpg/sg13_7_cif.got.tgz:13731.got - 2010.06.03 16:44:36.
