data_PCOD9229355
_publ_section_title
;
Structure prediction by ZEFSAII (Michael W. Deem and Ramdas Pophale) SiO2 
 PCOD9229355
Probable space group: P 2/C
;
_chemical_formula_sum "Si O2"
_cell_formula_units_Z 24
_cell_length_a 10.652220
_cell_length_b 9.514409
_cell_length_c 12.106175
_cell_angle_alpha 90.000000
_cell_angle_beta 121.459849
_cell_angle_gamma 90.000000
_cell_volume 1046.600724
_symmetry_space_group_name_H-M "P 2/C"
_symmetry_group_IT_number 13
_symmetry_cell_setting 'monoclinic'
loop_
_space_group_symop_operation_xyz
x,y,z
-x,y,1/2-z
-x,-y,-z
x,-y,1/2+z
loop_
_atom_site_type_symbol
_atom_site_label
_atom_site_fract_x
_atom_site_fract_y
_atom_site_fract_z
Si Si1 0.705109 0.403653 0.162284
Si Si2 0.000000 0.710518 0.750000
Si Si3 0.181839 0.873735 0.024554
Si Si4 0.699928 0.674327 0.031779
Si Si5 0.500000 0.620799 0.750000
Si Si6 0.966210 0.848813 0.113512
Si Si7 0.535059 0.155744 0.972775
O O1 0.877164 0.380805 0.256662
O O2 0.611902 0.460897 0.222067
O O3 0.682435 0.510977 0.051784
O O4 0.634119 0.252631 0.100605
O O5 0.088851 0.797465 0.883875
O O6 0.138914 0.038179 0.995029
O O7 0.355262 0.853071 0.081871
O O8 0.109896 0.824779 0.106136
O O9 0.610359 0.706178 0.879104
O O10 0.867841 0.713044 0.091153
O O11 0.620477 0.762979 0.092264
O O12 0.000000 0.908257 0.250000
O O13 0.500000 0.000000 0.000000
#
# Coordination Sequence:
#
# PCOD9229355 Si02
#       7
#     4   2   4   4   2   4   4
#     4  10  23  40  65  93 130 170 218 271 331 395
#     4  10  20  42  66  92 126 172 224 264 332 410
#     4  10  21  40  67  93 129 178 218 273 332 393
#     4  11  23  43  65  95 134 171 221 275 328 394
#     4  10  20  42  66  90 124 182 216 258 328 402
#     4  11  23  41  63  99 138 168 221 276 328 393
#     4  10  19  39  64  92 126 164 218 273 316 390
#
# _framework density 22.931380000000001
#
# number of rings (size 3 to 8) (size 9 to 14) (size 15 to 20)
#    0.000    1.667    2.500    3.000    1.167    0.000 
#    9.000    4.167    0.000    0.000    0.000    0.000 
#    0.000    0.000    0.000    0.000    0.000    0.000 
#
# Total GULP energy -133838.926838 kJ/mol
# GULP energy per Si atom -5576.621952 kJ/mol
# Density = 2.287919 g / cm^3
# Si number density = 22.931380 Si / 1000 Ang^3
#
#
#
# Elastic Constant Matrix: (Units=GPa)
#
#
# Indices 1 2 3 4 5 6 
#
# 1 178.1220 40.8543 56.1041 0.0000 -31.2312 0.0000
# 2 40.8543 83.5318 17.7798 0.0000 3.5953 0.0000
# 3 56.1041 17.7798 51.7126 0.0000 -9.8914 0.0000
# 4 0.0000 0.0000 0.0000 10.0277 0.0000 0.9704
# 5 -31.2312 3.5953 -9.8914 0.0000 34.1534 0.0000
# 6 0.0000 0.0000 0.0000 0.9704 0.0000 22.7609
#
#
#
# Elastic Compliance Matrix: (Units=1/GPa)
#
#
# Indices 1 2 3 4 5 6 
#
# 1 0.010492 -0.003595 -0.008722 0.000000 0.007446 0.000000
# 2 -0.003595 0.014407 -0.002087 0.000000 -0.005409 0.000000
# 3 -0.008722 -0.002087 0.029679 0.000000 0.000839 0.000000
# 4 0.000000 0.000000 0.000000 0.100136 0.000000 -0.004269
# 5 0.007446 -0.005409 0.000839 0.000000 0.036901 0.000000
# 6 0.000000 0.000000 0.000000 -0.004269 0.000000 0.044117
#
#
# Mechanical properties :
#
#
# Convention : Reuss Voigt Hill
#
# Bulk Modulus (GPa) = 38.80825 60.31586 49.56205
# Shear Modulus (GPa) = 18.30623 26.63030 22.46826
#
# Velocity S-wave (km/s) = 2.82849 3.41149 3.13358
# Velocity P-wave (km/s) = 5.25619 6.47128 5.89513
#
# Compressibility (1/GPa) = 0.02576772
#
# Stress axis : x y z
#
# Youngs Moduli (GPa) = 95.31407 69.41069 33.69413
#
# Poissons Ratio (x) = 0.24955 0.29389
# Poissons Ratio (y) = 0.34268 0.07033
# Poissons Ratio (z) = 0.83134 0.14489
#
# Static dielectric constant tensor:
#      x y z
#    x 1.902360 0.000000 -0.036360 
#    y 0.000000 1.859020 0.000000 
#    z -0.036360 0.000000 1.902680 
# 
# From -- ./inp_files/32722.got.cif
#   From: 2010.05.17/outbox.cif.g08.bks.cpg/sg13_17_cif.got.tgz:32722.got - 2010.06.03 16:44:36.
