data_PCOD9229972
_publ_section_title
;
Structure prediction by ZEFSAII (Michael W. Deem and Ramdas Pophale) SiO2 
 PCOD9229972
Probable space group: P 2/C
;
_chemical_formula_sum "Si O2"
_cell_formula_units_Z 32
_cell_length_a 16.819047
_cell_length_b 11.251689
_cell_length_c 19.340579
_cell_angle_alpha 90.000000
_cell_angle_beta 28.053297
_cell_angle_gamma 90.000000
_cell_volume 1721.300911
_symmetry_space_group_name_H-M "P 2/C"
_symmetry_group_IT_number 13
_symmetry_cell_setting 'monoclinic'
loop_
_space_group_symop_operation_xyz
x,y,z
-x,y,1/2-z
-x,-y,-z
x,-y,1/2+z
loop_
_atom_site_type_symbol
_atom_site_label
_atom_site_fract_x
_atom_site_fract_y
_atom_site_fract_z
Si Si1 0.633895 0.072192 0.443027
Si Si2 0.364998 0.336519 0.103551
Si Si3 0.000871 0.380385 0.588796
Si Si4 0.983227 0.874901 0.845307
Si Si5 0.299428 0.426825 0.580108
Si Si6 0.654110 0.026036 0.079295
Si Si7 0.680801 0.697873 0.577069
Si Si8 0.998869 0.341581 0.064826
O O1 0.600885 0.211183 0.457328
O O2 0.836940 0.064731 0.271779
O O3 0.500000 0.000000 0.500000
O O4 0.611716 0.031099 0.538335
O O5 0.310441 0.433211 0.088126
O O6 0.205414 0.331790 0.277438
O O7 0.527342 0.376745 0.021208
O O8 0.168898 0.315114 0.483910
O O9 0.941348 0.330725 0.560157
O O10 0.854772 0.372492 0.757920
O O11 0.040386 0.522009 0.552465
O O12 0.000000 0.843778 0.750000
O O13 0.950328 0.758717 0.918366
O O14 0.827344 0.964992 0.971646
O O15 0.285132 0.391532 0.511919
O O16 0.500000 0.007303 0.250000
O O17 0.677932 0.167129 0.052108
O O18 0.500000 0.672675 0.750000
#
# Coordination Sequence:
#
# PCOD9229972 Si02
#       8
#     4   4   4   4   4   4   4   4
#     4  10  20  36  60  84 110 149 187 224 274 333
#     4   9  19  35  56  82 113 144 180 223 276 329
#     4  10  21  34  56  84 110 142 182 226 270 326
#     4   9  20  38  60  81 110 149 185 227 279 335
#     4  10  20  35  56  83 112 143 184 229 270 327
#     4  10  23  40  55  79 112 144 186 236 279 328
#     4  11  23  38  55  76 110 150 183 226 284 332
#     4   9  19  38  57  81 114 143 177 223 277 331
#
# _framework density 18.590589999999999
#
# number of rings (size 3 to 8) (size 9 to 14) (size 15 to 20)
#    0.000    2.250    0.000    1.875    0.000   13.000 
#    0.000    2.500    0.000    0.000    0.000    0.000 
#    0.000    0.000    0.000    0.000    0.000    0.000 
#
# Total GULP energy -178492.377773 kJ/mol
# GULP energy per Si atom -5577.886805 kJ/mol
# Density = 1.854828 g / cm^3
# Si number density = 18.590590 Si / 1000 Ang^3
#
#
#
# Elastic Constant Matrix: (Units=GPa)
#
#
# Indices 1 2 3 4 5 6 
#
# 1 61.7889 23.9643 16.4685 0.0000 3.4274 0.0000
# 2 23.9643 55.7249 25.5977 0.0000 6.9578 0.0000
# 3 16.4685 25.5977 43.9877 0.0000 2.1462 0.0000
# 4 0.0000 0.0000 0.0000 20.7288 0.0000 -1.1411
# 5 3.4274 6.9578 2.1462 0.0000 30.0301 0.0000
# 6 0.0000 0.0000 0.0000 -1.1411 0.0000 21.7553
#
#
#
# Elastic Compliance Matrix: (Units=1/GPa)
#
#
# Indices 1 2 3 4 5 6 
#
# 1 0.019784 -0.006910 -0.003365 0.000000 -0.000416 0.000000
# 2 -0.006910 0.027577 -0.013234 0.000000 -0.004655 0.000000
# 3 -0.003365 -0.013234 0.031637 0.000000 0.001189 0.000000
# 4 0.000000 0.000000 0.000000 0.048382 0.000000 0.002538
# 5 -0.000416 -0.004655 0.001189 0.000000 0.034341 0.000000
# 6 0.000000 0.000000 0.000000 0.002538 0.000000 0.046099
#
#
# Mechanical properties :
#
#
# Convention : Reuss Voigt Hill
#
# Bulk Modulus (GPa) = 31.27015 32.61807 31.94411
# Shear Modulus (GPa) = 18.83250 20.86758 19.85004
#
# Velocity S-wave (km/s) = 3.18624 3.35398 3.27118
# Velocity P-wave (km/s) = 5.51299 5.70811 5.61140
#
# Compressibility (1/GPa) = 0.03197938
#
# Stress axis : x y z
#
# Youngs Moduli (GPa) = 50.54511 36.26175 31.60890
#
# Poissons Ratio (x) = 0.25058 0.10638
# Poissons Ratio (y) = 0.34928 0.41830
# Poissons Ratio (z) = 0.17011 0.47988
#
# Static dielectric constant tensor:
#      x y z
#    x 1.637670 0.000000 -0.003540 
#    y 0.000000 1.636920 0.000000 
#    z -0.003540 0.000000 1.645250 
# 
# From -- ./inp_files/68633.got.cif
#   From: 2010.05.17/outbox.cif.g08.bks.cpg/sg13_35_cif.got.tgz:68633.got - 2010.06.03 16:44:36.
