data_PCOD9229440
_publ_section_title
;
Structure prediction by ZEFSAII (Michael W. Deem and Ramdas Pophale) SiO2 
 PCOD9229440
Probable space group: P 2/C
;
_chemical_formula_sum "Si O2"
_cell_formula_units_Z 20
_cell_length_a 14.735693
_cell_length_b 10.554246
_cell_length_c 16.832417
_cell_angle_alpha 90.000000
_cell_angle_beta 17.904314
_cell_angle_gamma 90.000000
_cell_volume 804.800161
_symmetry_space_group_name_H-M "P 2/C"
_symmetry_group_IT_number 13
_symmetry_cell_setting 'monoclinic'
loop_
_space_group_symop_operation_xyz
x,y,z
-x,y,1/2-z
-x,-y,-z
x,-y,1/2+z
loop_
_atom_site_type_symbol
_atom_site_label
_atom_site_fract_x
_atom_site_fract_y
_atom_site_fract_z
Si Si1 0.500000 0.856307 0.250000
Si Si2 0.882646 0.082150 0.981251
Si Si3 0.714302 0.289182 0.431553
Si Si4 0.517981 0.832698 0.942796
Si Si5 0.500000 0.295342 0.250000
Si Si6 0.698397 0.576675 0.448850
O O1 0.767279 0.956163 0.034810
O O2 0.519519 0.769102 0.311649
O O3 0.767062 0.918330 0.300683
O O4 0.705701 0.114660 0.211152
O O5 0.769045 0.196895 0.019225
O O6 0.715492 0.202457 0.353400
O O7 0.665942 0.434514 0.446408
O O8 0.000000 0.286737 0.250000
O O9 0.351640 0.696714 0.065205
O O10 0.555556 0.389721 0.275667
O O11 0.000000 0.579342 0.250000
#
# Coordination Sequence:
#
# PCOD9229440 Si02
#       6
#     2   4   4   4   2   4
#     4  11  27  46  70  98 145 183 240 276 362 405
#     4  10  24  42  75  96 132 181 238 292 325 408
#     4  11  27  44  65 100 145 187 221 288 355 420
#     4  11  24  46  72 105 132 181 241 284 345 405
#     4   9  17  36  64 100 127 171 230 286 340 387
#     4  10  19  40  69 101 139 178 228 286 350 411
#
# _framework density 24.85089
#
# number of rings (size 3 to 8) (size 9 to 14) (size 15 to 20)
#    0.000    1.600    2.000    1.200    5.600    1.600 
#    0.000    3.000    0.000    0.000    0.000    0.000 
#    0.000    0.000    0.000    0.000    0.000    0.000 
#
# Total GULP energy -111658.675517 kJ/mol
# GULP energy per Si atom -5582.933776 kJ/mol
# Density = 2.479433 g / cm^3
# Si number density = 24.850890 Si / 1000 Ang^3
#
#
#
# Elastic Constant Matrix: (Units=GPa)
#
#
# Indices 1 2 3 4 5 6 
#
# 1 90.1500 27.5963 17.6739 0.0000 -5.7741 0.0000
# 2 27.5963 139.5841 29.4666 0.0000 -6.1352 0.0000
# 3 17.6739 29.4666 96.4487 0.0000 -12.9808 0.0000
# 4 0.0000 0.0000 0.0000 17.1345 0.0000 10.1645
# 5 -5.7741 -6.1352 -12.9808 0.0000 34.5283 0.0000
# 6 0.0000 0.0000 0.0000 10.1645 0.0000 22.0511
#
#
#
# Elastic Compliance Matrix: (Units=1/GPa)
#
#
# Indices 1 2 3 4 5 6 
#
# 1 0.012069 -0.002033 -0.001440 0.000000 0.001116 0.000000
# 2 -0.002033 0.008009 -0.002031 0.000000 0.000319 0.000000
# 3 -0.001440 -0.002031 0.011767 0.000000 0.003822 0.000000
# 4 0.000000 0.000000 0.000000 0.080327 0.000000 -0.037027
# 5 0.001116 0.000319 0.003822 0.000000 0.030642 0.000000
# 6 0.000000 0.000000 0.000000 -0.037027 0.000000 0.062417
#
#
# Mechanical properties :
#
#
# Convention : Reuss Voigt Hill
#
# Bulk Modulus (GPa) = 47.99475 52.85070 50.42273
# Shear Modulus (GPa) = 22.40295 31.50584 26.95440
#
# Velocity S-wave (km/s) = 3.00575 3.56447 3.29697
# Velocity P-wave (km/s) = 5.60366 6.18498 5.90148
#
# Compressibility (1/GPa) = 0.02083561
#
# Stress axis : x y z
#
# Youngs Moduli (GPa) = 82.85851 124.86077 84.98247
#
# Poissons Ratio (x) = 0.25384 0.12240
# Poissons Ratio (y) = 0.16845 0.17263
# Poissons Ratio (z) = 0.11934 0.25363
#
# Static dielectric constant tensor:
#      x y z
#    x 1.999960 0.000000 0.024580 
#    y 0.000000 1.933870 0.000000 
#    z 0.024580 0.000000 2.117640 
# 
# From -- ./inp_files/34064.got.cif
#   From: 2010.05.17/outbox.cif.g08.bks.cpg/sg13_18_cif.got.tgz:34064.got - 2010.06.03 16:44:36.
