data_PCOD9229094
_publ_section_title
;
Structure prediction by ZEFSAII (Michael W. Deem and Ramdas Pophale) SiO2 
 PCOD9229094
Probable space group: P 2/C
;
_chemical_formula_sum "Si O2"
_cell_formula_units_Z 24
_cell_length_a 12.872836
_cell_length_b 10.095049
_cell_length_c 12.988717
_cell_angle_alpha 90.000000
_cell_angle_beta 135.904038
_cell_angle_gamma 90.000000
_cell_volume 1174.551754
_symmetry_space_group_name_H-M "P 2/C"
_symmetry_group_IT_number 13
_symmetry_cell_setting 'monoclinic'
loop_
_space_group_symop_operation_xyz
x,y,z
-x,y,1/2-z
-x,-y,-z
x,-y,1/2+z
loop_
_atom_site_type_symbol
_atom_site_label
_atom_site_fract_x
_atom_site_fract_y
_atom_site_fract_z
Si Si1 0.840219 0.095797 0.190861
Si Si2 0.059782 0.289317 0.060134
Si Si3 0.614000 0.617259 0.106451
Si Si4 0.134147 0.201721 0.764359
Si Si5 0.798659 0.529895 0.439968
Si Si6 0.389093 0.269266 0.577460
O O1 0.856298 0.190580 0.302658
O O2 0.000000 0.090629 0.250000
O O3 0.797482 0.944898 0.183532
O O4 0.733267 0.160881 0.030882
O O5 0.163416 0.377297 0.057584
O O6 0.942061 0.216743 0.902137
O O7 0.958269 0.393591 0.053346
O O8 0.742002 0.684448 0.129227
O O9 0.705026 0.572388 0.272468
O O10 0.495758 0.728297 0.055039
O O11 0.500000 0.500000 0.000000
O O12 0.000000 0.214118 0.750000
O O13 0.698538 0.591507 0.460699
O O14 0.500000 0.243162 0.750000
#
# Coordination Sequence:
#
# PCOD9229094 Si02
#       6
#     4   4   4   4   4   4
#     4  11  21  39  66  93 127 176 218 257 322 389
#     4  10  19  37  61  95 124 157 215 271 314 369
#     4  10  21  38  60  86 125 162 206 261 332 381
#     4  10  24  40  61  93 129 168 217 269 318 383
#     4   9  19  35  57  93 121 157 206 263 322 371
#     4  10  21  38  62  89 127 166 208 266 318 387
#
# _framework density 20.433326999999998
#
# number of rings (size 3 to 8) (size 9 to 14) (size 15 to 20)
#    0.000    2.000    1.667    1.500    2.333    0.667 
#    0.000    0.000    0.000    0.000    0.000    0.000 
#    0.000    0.000    0.000    0.000    0.000    0.000 
#
# Total GULP energy -133694.341088 kJ/mol
# GULP energy per Si atom -5570.597545 kJ/mol
# Density = 2.038682 g / cm^3
# Si number density = 20.433327 Si / 1000 Ang^3
#
#
#
# Elastic Constant Matrix: (Units=GPa)
#
#
# Indices 1 2 3 4 5 6 
#
# 1 80.4710 33.2815 18.4946 0.0000 10.5923 0.0000
# 2 33.2815 119.1702 50.5028 0.0000 7.1314 0.0000
# 3 18.4946 50.5028 73.2494 0.0000 19.0020 0.0000
# 4 0.0000 0.0000 0.0000 -35.7278 0.0000 -28.6858
# 5 10.5923 7.1314 19.0020 0.0000 24.9300 0.0000
# 6 0.0000 0.0000 0.0000 -28.6858 0.0000 9.3067
#
#
#
# Elastic Compliance Matrix: (Units=1/GPa)
#
#
# Indices 1 2 3 4 5 6 
#
# 1 0.014680 -0.003957 0.000432 0.000000 -0.005434 0.000000
# 2 -0.003957 0.013178 -0.009404 0.000000 0.005080 0.000000
# 3 0.000432 -0.009404 0.024152 0.000000 -0.015903 0.000000
# 4 0.000000 0.000000 0.000000 -0.008055 0.000000 -0.024828
# 5 -0.005434 0.005080 -0.015903 0.000000 0.053089 0.000000
# 6 0.000000 0.000000 0.000000 -0.024828 0.000000 0.030923
#
#
# Mechanical properties :
#
#
# Convention : Reuss Voigt Hill
#
# Bulk Modulus (GPa) = 38.24112 53.04981 45.64547
# Shear Modulus (GPa) = 30.76097 11.07589 20.91843
#
# Velocity S-wave (km/s) = 3.88420 2.33072 3.20307
# Velocity P-wave (km/s) = 6.23472 5.76730 6.00556
#
# Compressibility (1/GPa) = 0.02614986
#
# Stress axis : x y z
#
# Youngs Moduli (GPa) = 68.12163 75.88382 41.40394
#
# Poissons Ratio (x) = 0.30031 -0.01788
# Poissons Ratio (y) = 0.26959 0.38938
# Poissons Ratio (z) = -0.02941 0.71364
#
# Static dielectric constant tensor:
#      x y z
#    x 1.792510 0.000000 -0.005160 
#    y 0.000000 1.758480 0.000000 
#    z -0.005160 0.000000 1.709640 
# 
# From -- ./inp_files/53180.got.cif
#   From: 2010.05.17/outbox.cif.g08.bks.cpg/sg13_27_cif.got.tgz:53180.got - 2010.06.03 16:44:36.
