data_PCOD9229987
_publ_section_title
;
Structure prediction by ZEFSAII (Michael W. Deem and Ramdas Pophale) SiO2 
 PCOD9229987
Probable space group: P 2/C
;
_chemical_formula_sum "Si O2"
_cell_formula_units_Z 24
_cell_length_a 23.050629
_cell_length_b 10.109333
_cell_length_c 11.303286
_cell_angle_alpha 90.000000
_cell_angle_beta 152.788237
_cell_angle_gamma 90.000000
_cell_volume 1204.460877
_symmetry_space_group_name_H-M "P 2/C"
_symmetry_group_IT_number 13
_symmetry_cell_setting 'monoclinic'
loop_
_space_group_symop_operation_xyz
x,y,z
-x,y,1/2-z
-x,-y,-z
x,-y,1/2+z
loop_
_atom_site_type_symbol
_atom_site_label
_atom_site_fract_x
_atom_site_fract_y
_atom_site_fract_z
Si Si1 0.073435 0.995632 0.760084
Si Si2 0.230797 0.229684 0.431229
Si Si3 0.482758 0.856054 0.025856
Si Si4 0.223435 0.230254 0.146591
Si Si5 0.534352 0.371247 0.186070
Si Si6 0.718056 0.500500 0.376767
O O1 0.000000 0.959328 0.750000
O O2 0.178472 0.886166 0.919300
O O3 0.137782 0.135130 0.910264
O O4 0.000000 0.000000 0.500000
O O5 0.381432 0.202594 0.690135
O O6 0.178954 0.231471 0.202755
O O7 0.206493 0.367074 0.456483
O O8 0.364702 0.837137 0.900187
O O9 0.442852 0.754420 0.852272
O O10 0.500000 0.000000 0.000000
O O11 0.226082 0.377568 0.094672
O O12 0.500000 0.320591 0.250000
O O13 0.661937 0.454885 0.402516
O O14 0.411896 0.456718 0.925734
#
# Coordination Sequence:
#
# PCOD9229987 Si02
#       6
#     4   4   4   4   4   4
#     4  12  26  49  70  91 127 175 224 275 333 377
#     4  11  22  42  68  95 135 168 213 270 322 396
#     4  10  20  35  57 101 130 164 207 255 328 388
#     4  11  22  42  68  95 136 168 211 271 323 394
#     4   9  17  31  53  84 135 168 198 248 309 392
#     4   9  20  36  58  93 124 168 212 251 323 380
#
# _framework density 19.925929
#
# number of rings (size 3 to 8) (size 9 to 14) (size 15 to 20)
#    0.000    1.667    3.333    2.500    0.000    1.333 
#   15.000    1.667    0.000    0.000    0.000    0.000 
#    0.000    0.000    0.000    0.000    0.000    0.000 
#
# Total GULP energy -133633.617258 kJ/mol
# GULP energy per Si atom -5568.067386 kJ/mol
# Density = 1.988058 g / cm^3
# Si number density = 19.925929 Si / 1000 Ang^3
#
#
#
# Elastic Constant Matrix: (Units=GPa)
#
#
# Indices 1 2 3 4 5 6 
#
# 1 107.1068 24.1697 16.6347 0.0000 -7.6684 0.0000
# 2 24.1697 138.9787 20.8063 0.0000 -4.6877 0.0000
# 3 16.6347 20.8063 44.4721 0.0000 -2.6167 0.0000
# 4 0.0000 0.0000 0.0000 14.3123 0.0000 -0.2057
# 5 -7.6684 -4.6877 -2.6167 0.0000 20.4556 0.0000
# 6 0.0000 0.0000 0.0000 -0.2057 0.0000 13.1034
#
#
#
# Elastic Compliance Matrix: (Units=1/GPa)
#
#
# Indices 1 2 3 4 5 6 
#
# 1 0.010323 -0.001223 -0.003101 0.000000 0.003193 0.000000
# 2 -0.001223 0.007918 -0.003191 0.000000 0.000948 0.000000
# 3 -0.003101 -0.003191 0.025217 0.000000 0.001332 0.000000
# 4 0.000000 0.000000 0.000000 0.069886 0.000000 0.001097
# 5 0.003193 0.000948 0.001332 0.000000 0.050471 0.000000
# 6 0.000000 0.000000 0.000000 0.001097 0.000000 0.076333
#
#
# Mechanical properties :
#
#
# Convention : Reuss Voigt Hill
#
# Bulk Modulus (GPa) = 35.17771 45.97546 40.57659
# Shear Modulus (GPa) = 18.89260 24.83738 21.86499
#
# Velocity S-wave (km/s) = 3.08253 3.53439 3.31617
# Velocity P-wave (km/s) = 5.51016 6.30707 5.92204
#
# Compressibility (1/GPa) = 0.02842709
#
# Stress axis : x y z
#
# Youngs Moduli (GPa) = 96.87355 126.29810 39.65543
#
# Poissons Ratio (x) = 0.15450 0.12297
# Poissons Ratio (y) = 0.11850 0.12654
# Poissons Ratio (z) = 0.30041 0.40302
#
# Static dielectric constant tensor:
#      x y z
#    x 1.422120 0.000000 -0.017730 
#    y 0.000000 1.909330 0.000000 
#    z -0.017730 0.000000 1.750530 
# 
# From -- ./inp_files/41558.got.cif
#   From: 2010.05.17/outbox.cif.g08.bks.cpg/sg13_21_cif.got.tgz:41558.got - 2010.06.03 16:44:36.
