data_PCOD9229479
_publ_section_title
;
Structure prediction by ZEFSAII (Michael W. Deem and Ramdas Pophale) SiO2 
 PCOD9229479
Probable space group: P 2/C
;
_chemical_formula_sum "Si O2"
_cell_formula_units_Z 20
_cell_length_a 7.548163
_cell_length_b 24.881691
_cell_length_c 5.600999
_cell_angle_alpha 90.000000
_cell_angle_beta 118.843703
_cell_angle_gamma 90.000000
_cell_volume 921.426083
_symmetry_space_group_name_H-M "P 2/C"
_symmetry_group_IT_number 13
_symmetry_cell_setting 'monoclinic'
loop_
_space_group_symop_operation_xyz
x,y,z
-x,y,1/2-z
-x,-y,-z
x,-y,1/2+z
loop_
_atom_site_type_symbol
_atom_site_label
_atom_site_fract_x
_atom_site_fract_y
_atom_site_fract_z
Si Si1 0.000000 0.340192 0.750000
Si Si2 0.500000 0.120251 0.250000
Si Si3 0.000000 0.532318 0.750000
Si Si4 0.767504 0.978730 0.845428
Si Si5 0.500000 0.184350 0.750000
Si Si6 0.780065 0.716269 0.487720
Si Si7 0.310746 0.388161 0.297423
O O1 0.172333 0.303640 0.746703
O O2 0.887382 0.376650 0.489754
O O3 0.300763 0.082350 0.150333
O O4 0.525957 0.151675 0.518742
O O5 0.214691 0.565633 0.898578
O O6 0.000000 0.500000 0.500000
O O7 0.688649 0.991069 0.529338
O O8 0.000000 0.000000 0.000000
O O9 0.319266 0.226024 0.580227
O O10 0.660111 0.668465 0.544253
O O11 0.000000 0.719240 0.750000
O O12 0.500000 0.400758 0.250000
#
# Coordination Sequence:
#
# PCOD9229479 Si02
#       7
#     2   2   2   4   2   4   4
#     4  10  19  42  70 102 134 176 260 291 326 426
#     4  12  26  45  66 106 152 175 224 316 350 400
#     4  12  27  48  68 106 150 178 236 327 376 414
#     4  10  21  43  73  97 127 185 243 274 336 420
#     4  12  28  45  66 112 152 179 228 294 376 418
#     4  10  23  43  71 100 138 197 240 286 348 450
#     4  11  23  43  75 101 135 197 248 288 358 454
#
# _framework density 21.705484999999999
#
# number of rings (size 3 to 8) (size 9 to 14) (size 15 to 20)
#    0.000    1.200    3.000    3.600    7.000    0.800 
#   10.800    0.000    0.000    0.000    0.000    0.000 
#    0.000    0.000    0.000    0.000    0.000    0.000 
#
# Total GULP energy -111457.003411 kJ/mol
# GULP energy per Si atom -5572.850171 kJ/mol
# Density = 2.165608 g / cm^3
# Si number density = 21.705485 Si / 1000 Ang^3
#
#
#
# Elastic Constant Matrix: (Units=GPa)
#
#
# Indices 1 2 3 4 5 6 
#
# 1 179.7580 78.5309 40.5520 0.0000 -21.5628 0.0000
# 2 78.5309 135.0632 51.0635 0.0000 -24.3455 0.0000
# 3 40.5520 51.0635 115.9228 0.0000 -29.9987 0.0000
# 4 0.0000 0.0000 0.0000 10.3155 0.0000 -45.2485
# 5 -21.5628 -24.3455 -29.9987 0.0000 49.9269 0.0000
# 6 0.0000 0.0000 0.0000 -45.2485 0.0000 -12.0886
#
#
#
# Elastic Compliance Matrix: (Units=1/GPa)
#
#
# Indices 1 2 3 4 5 6 
#
# 1 0.007561 -0.003983 -0.000649 0.000000 0.000934 0.000000
# 2 -0.003983 0.011219 -0.003053 0.000000 0.001916 0.000000
# 3 -0.000649 -0.003053 0.011534 0.000000 0.005161 0.000000
# 4 0.000000 0.000000 0.000000 0.005565 0.000000 -0.020831
# 5 0.000934 0.001916 0.005161 0.000000 0.024468 0.000000
# 6 0.000000 0.000000 0.000000 -0.020831 0.000000 -0.004749
#
#
# Mechanical properties :
#
#
# Convention : Reuss Voigt Hill
#
# Bulk Modulus (GPa) = 66.91204 85.67075 76.29140
# Shear Modulus (GPa) = 65.83249 27.00393 46.41821
#
# Velocity S-wave (km/s) = 5.51323 3.53102 4.62946
# Velocity P-wave (km/s) = 8.45114 7.49529 7.98753
#
# Compressibility (1/GPa) = 0.01494499
#
# Stress axis : x y z
#
# Youngs Moduli (GPa) = 132.25021 89.13189 86.70086
#
# Poissons Ratio (x) = 0.35499 0.05628
# Poissons Ratio (y) = 0.52673 0.26469
# Poissons Ratio (z) = 0.08585 0.27211
#
# Static dielectric constant tensor:
#      x y z
#    x 1.865660 0.000000 -0.074690 
#    y 0.000000 1.822650 0.000000 
#    z -0.074690 0.000000 2.065430 
# 
# From -- ./inp_files/2255.got.cif
#   From: 2010.05.17/outbox.cif.g08.bks.cpg/sg13_2_cif.got.tgz:2255.got - 2010.06.03 16:44:36.
