data_PCOD9229690
_publ_section_title
;
Structure prediction by ZEFSAII (Michael W. Deem and Ramdas Pophale) SiO2 
 PCOD9229690
Probable space group: P 2/C
;
_chemical_formula_sum "Si O2"
_cell_formula_units_Z 22
_cell_length_a 20.424326
_cell_length_b 9.539124
_cell_length_c 13.570209
_cell_angle_alpha 90.000000
_cell_angle_beta 26.970348
_cell_angle_gamma 90.000000
_cell_volume 1199.079930
_symmetry_space_group_name_H-M "P 2/C"
_symmetry_group_IT_number 13
_symmetry_cell_setting 'monoclinic'
loop_
_space_group_symop_operation_xyz
x,y,z
-x,y,1/2-z
-x,-y,-z
x,-y,1/2+z
loop_
_atom_site_type_symbol
_atom_site_label
_atom_site_fract_x
_atom_site_fract_y
_atom_site_fract_z
Si Si1 0.270511 0.057397 0.790094
Si Si2 0.519014 0.125857 0.608457
Si Si3 0.000000 0.074226 0.250000
Si Si4 0.871076 0.661412 0.815453
Si Si5 0.195232 0.380354 0.874793
Si Si6 0.617224 0.420748 0.512466
O O1 0.383402 0.071062 0.728444
O O2 0.234079 0.216353 0.806891
O O3 0.344795 0.963808 0.608809
O O4 0.120793 0.992645 0.028971
O O5 0.500000 0.111838 0.750000
O O6 0.542060 0.290909 0.557390
O O7 0.913703 0.180740 0.292768
O O8 0.748631 0.646602 0.899140
O O9 0.025657 0.598443 0.575095
O O10 0.810455 0.595448 0.999088
O O11 0.308659 0.471509 0.661767
O O12 0.500000 0.476543 0.750000
#
# Coordination Sequence:
#
# PCOD9229690 Si02
#       6
#     4   4   2   4   4   4
#     4   9  19  35  52  70  97 128 160 199 238 284
#     4  10  20  34  50  71 100 129 157 196 245 285
#     4   8  14  32  54  70  92 130 164 190 236 290
#     4   8  17  33  51  70  99 129 156 196 242 284
#     4   9  18  34  53  71  95 129 163 195 237 284
#     4  11  20  30  50  76  99 126 161 197 237 286
#
# _framework density 18.347401000000001
#
# number of rings (size 3 to 8) (size 9 to 14) (size 15 to 20)
#    0.000    3.273    0.000    4.909    0.000    3.636 
#    0.000   11.818    0.000    0.000    0.000    0.000 
#    0.000    0.000    0.000    0.000    0.000    0.000 
#
# Total GULP energy -122518.085099 kJ/mol
# GULP energy per Si atom -5569.003868 kJ/mol
# Density = 1.830564 g / cm^3
# Si number density = 18.347401 Si / 1000 Ang^3
#
#
#
# Elastic Constant Matrix: (Units=GPa)
#
#
# Indices 1 2 3 4 5 6 
#
# 1 29.1190 -1.9067 12.8169 0.0000 -7.7775 0.0000
# 2 -1.9067 42.2931 66.8701 0.0000 10.0301 0.0000
# 3 12.8169 66.8701 191.7664 0.0000 -2.0433 0.0000
# 4 0.0000 0.0000 0.0000 33.6863 0.0000 -2.4978
# 5 -7.7775 10.0301 -2.0433 0.0000 17.9610 0.0000
# 6 0.0000 0.0000 0.0000 -2.4978 0.0000 1.3320
#
#
#
# Elastic Compliance Matrix: (Units=1/GPa)
#
#
# Indices 1 2 3 4 5 6 
#
# 1 0.040405 0.005800 -0.004577 0.000000 0.013737 0.000000
# 2 0.005800 0.080564 -0.028969 0.000000 -0.045774 0.000000
# 3 -0.004577 -0.028969 0.015792 0.000000 0.015992 0.000000
# 4 0.000000 0.000000 0.000000 0.034480 0.000000 0.064658
# 5 0.013737 -0.045774 0.015992 0.000000 0.089006 0.000000
# 6 0.000000 0.000000 0.000000 0.064658 0.000000 0.872004
#
#
# Mechanical properties :
#
#
# Convention : Reuss Voigt Hill
#
# Bulk Modulus (GPa) = 12.30449 46.52657 29.41553
# Shear Modulus (GPa) = 4.11580 22.95575 13.53577
#
# Velocity S-wave (km/s) = 1.49938 3.54103 2.71910
# Velocity P-wave (km/s) = 3.11744 6.49093 5.09169
#
# Compressibility (1/GPa) = 0.08127112
#
# Stress axis : x y z
#
# Youngs Moduli (GPa) = 24.74946 12.41248 63.32141
#
# Poissons Ratio (x) = -0.07199 0.28980
# Poissons Ratio (y) = -0.14355 1.83433
# Poissons Ratio (z) = 0.11327 0.35957
#
# Static dielectric constant tensor:
#      x y z
#    x 1.641360 0.000000 -0.025170 
#    y 0.000000 1.619180 0.000000 
#    z -0.025170 0.000000 1.667950 
# 
# From -- ./inp_files/40589.got.cif
#   From: 2010.05.17/outbox.cif.g08.bks.cpg/sg13_21_cif.got.tgz:40589.got - 2010.06.03 16:44:36.
