data_PCOD9229833
_publ_section_title
;
Structure prediction by ZEFSAII (Michael W. Deem and Ramdas Pophale) SiO2 
 PCOD9229833
Probable space group: P 2/C
;
_chemical_formula_sum "Si O2"
_cell_formula_units_Z 22
_cell_length_a 9.654036
_cell_length_b 21.948626
_cell_length_c 5.186016
_cell_angle_alpha 90.000000
_cell_angle_beta 99.365290
_cell_angle_gamma 90.000000
_cell_volume 1084.232534
_symmetry_space_group_name_H-M "P 2/C"
_symmetry_group_IT_number 13
_symmetry_cell_setting 'monoclinic'
loop_
_space_group_symop_operation_xyz
x,y,z
-x,y,1/2-z
-x,-y,-z
x,-y,1/2+z
loop_
_atom_site_type_symbol
_atom_site_label
_atom_site_fract_x
_atom_site_fract_y
_atom_site_fract_z
Si Si1 0.830852 0.961890 0.194090
Si Si2 0.000000 0.748997 0.250000
Si Si3 0.148403 0.343125 0.166850
Si Si4 0.664928 0.540122 0.796241
Si Si5 0.650093 0.240213 0.191722
Si Si6 0.746818 0.174870 0.745251
O O1 0.761097 0.897213 0.230362
O O2 0.000000 0.952944 0.250000
O O3 0.794773 0.010242 0.405826
O O4 0.897495 0.794810 0.370857
O O5 0.100371 0.702348 0.427923
O O6 0.235178 0.402710 0.123610
O O7 0.254472 0.298689 0.352488
O O8 0.000000 0.359997 0.250000
O O9 0.500000 0.557715 0.750000
O O10 0.690079 0.509994 0.525313
O O11 0.500000 0.262013 0.250000
O O12 0.711100 0.201024 0.450620
O O13 0.644244 0.198016 0.938195
#
# Coordination Sequence:
#
# PCOD9229833 Si02
#       6
#     4   2   4   4   4   4
#     4  10  20  34  57  91 123 159 204 253 311 367
#     4  10  22  38  58  98 124 162 192 260 322 366
#     4  11  23  40  64  93 128 156 205 258 315 361
#     4  10  24  44  65  89 123 169 210 247 296 362
#     4  11  24  40  63  91 122 166 207 251 312 377
#     4  11  21  39  63  86 130 157 205 257 311 368
#
# _framework density 20.290849999999999
#
# number of rings (size 3 to 8) (size 9 to 14) (size 15 to 20)
#    0.000    1.455    2.727    2.182    2.545    0.727 
#    0.000    3.636    0.000   10.909    0.000    0.000 
#    0.000    0.000    0.000    0.000    0.000    0.000 
#
# Total GULP energy -122733.691528 kJ/mol
# GULP energy per Si atom -5578.804160 kJ/mol
# Density = 2.024467 g / cm^3
# Si number density = 20.290850 Si / 1000 Ang^3
#
#
#
# Elastic Constant Matrix: (Units=GPa)
#
#
# Indices 1 2 3 4 5 6 
#
# 1 77.8746 35.0746 8.4737 0.0000 -1.8479 0.0000
# 2 35.0746 80.7870 1.7689 0.0000 9.1349 0.0000
# 3 8.4737 1.7689 67.1149 0.0000 -8.2151 0.0000
# 4 0.0000 0.0000 0.0000 23.1924 0.0000 -1.3591
# 5 -1.8479 9.1349 -8.2151 0.0000 23.0359 0.0000
# 6 0.0000 0.0000 0.0000 -1.3591 0.0000 22.1835
#
#
#
# Elastic Compliance Matrix: (Units=1/GPa)
#
#
# Indices 1 2 3 4 5 6 
#
# 1 0.016491 -0.007560 -0.001416 0.000000 0.003816 0.000000
# 2 -0.007560 0.016492 -0.000371 0.000000 -0.007279 0.000000
# 3 -0.001416 -0.000371 0.015781 0.000000 0.005662 0.000000
# 4 0.000000 0.000000 0.000000 0.043273 0.000000 0.002651
# 5 0.003816 -0.007279 0.005662 0.000000 0.048622 0.000000
# 6 0.000000 0.000000 0.000000 0.002651 0.000000 0.045241
#
#
# Mechanical properties :
#
#
# Convention : Reuss Voigt Hill
#
# Bulk Modulus (GPa) = 33.25579 35.15677 34.20628
# Shear Modulus (GPa) = 23.29731 25.71298 24.50514
#
# Velocity S-wave (km/s) = 3.39214 3.56367 3.47896
# Velocity P-wave (km/s) = 5.63625 5.85636 5.74736
#
# Compressibility (1/GPa) = 0.03006995
#
# Stress axis : x y z
#
# Youngs Moduli (GPa) = 60.63972 60.63651 63.36595
#
# Poissons Ratio (x) = 0.45842 0.08971
# Poissons Ratio (y) = 0.45845 0.02351
# Poissons Ratio (z) = 0.08585 0.02250
#
# Static dielectric constant tensor:
#      x y z
#    x 1.785710 0.000000 0.036730 
#    y 0.000000 1.665550 0.000000 
#    z 0.036730 0.000000 1.667050 
# 
# From -- ./inp_files/2137.got.cif
#   From: 2010.05.17/outbox.cif.g08.bks.cpg/sg13_2_cif.got.tgz:2137.got - 2010.06.03 16:44:36.
