data_PCOD9229796
_publ_section_title
;
Structure prediction by ZEFSAII (Michael W. Deem and Ramdas Pophale) SiO2 
 PCOD9229796
Probable space group: P 2/C
;
_chemical_formula_sum "Si O2"
_cell_formula_units_Z 20
_cell_length_a 8.343834
_cell_length_b 5.547965
_cell_length_c 17.372992
_cell_angle_alpha 90.000000
_cell_angle_beta 98.869645
_cell_angle_gamma 90.000000
_cell_volume 794.601276
_symmetry_space_group_name_H-M "P 2/C"
_symmetry_group_IT_number 13
_symmetry_cell_setting 'monoclinic'
loop_
_space_group_symop_operation_xyz
x,y,z
-x,y,1/2-z
-x,-y,-z
x,-y,1/2+z
loop_
_atom_site_type_symbol
_atom_site_label
_atom_site_fract_x
_atom_site_fract_y
_atom_site_fract_z
Si Si1 0.893106 0.676622 0.163754
Si Si2 0.011989 0.173146 0.158254
Si Si3 0.666550 0.480701 0.964533
Si Si4 0.526124 0.745310 0.164902
Si Si5 0.279705 0.979130 0.566238
O O1 0.964543 0.441142 0.126676
O O2 0.704118 0.641238 0.167340
O O3 0.000000 0.695233 0.250000
O O4 0.901527 0.944373 0.129838
O O5 0.000000 0.196546 0.250000
O O6 0.181116 0.074542 0.136952
O O7 0.604716 0.455970 0.871170
O O8 0.747327 0.735941 0.982267
O O9 0.762708 0.230468 0.978813
O O10 0.500000 0.500000 0.000000
O O11 0.500000 0.818493 0.250000
O O12 0.467270 0.962202 0.103972
#
# Coordination Sequence:
#
# PCOD9229796 Si02
#       5
#     4   4   4   4   4
#     4  10  21  34  54  85 130 159 190 248 326 367
#     4  10  20  34  56  84 126 159 191 247 320 371
#     4  10  23  41  65  89 124 165 213 260 306 363
#     4  10  23  36  64  96 123 158 217 264 310 368
#     4  10  22  38  64  88 120 160 215 251 306 371
#
# _framework density 25.169857
#
# number of rings (size 3 to 8) (size 9 to 14) (size 15 to 20)
#    1.200    0.800    0.000    4.200    8.400    0.800 
#    0.000    0.000    0.000    7.200    0.000    0.000 
#    0.000    0.000    0.000    0.000    0.000    0.000 
#
# Total GULP energy -111433.632510 kJ/mol
# GULP energy per Si atom -5571.681626 kJ/mol
# Density = 2.511257 g / cm^3
# Si number density = 25.169857 Si / 1000 Ang^3
#
#
#
# Elastic Constant Matrix: (Units=GPa)
#
#
# Indices 1 2 3 4 5 6 
#
# 1 62.8860 16.5683 8.1077 0.0000 4.0059 0.0000
# 2 16.5683 224.0444 32.7400 0.0000 -3.8270 0.0000
# 3 8.1077 32.7400 63.2331 0.0000 4.1823 0.0000
# 4 0.0000 0.0000 0.0000 25.5500 0.0000 -0.6912
# 5 4.0059 -3.8270 4.1823 0.0000 45.4957 0.0000
# 6 0.0000 0.0000 0.0000 -0.6912 0.0000 25.9802
#
#
#
# Elastic Compliance Matrix: (Units=1/GPa)
#
#
# Indices 1 2 3 4 5 6 
#
# 1 0.016452 -0.001023 -0.001487 0.000000 -0.001398 0.000000
# 2 -0.001023 0.004911 -0.002460 0.000000 0.000729 0.000000
# 3 -0.001487 -0.002460 0.017390 0.000000 -0.001675 0.000000
# 4 0.000000 0.000000 0.000000 0.039167 0.000000 0.001042
# 5 -0.001398 0.000729 -0.001675 0.000000 0.022318 0.000000
# 6 0.000000 0.000000 0.000000 0.001042 0.000000 0.038519
#
#
# Mechanical properties :
#
#
# Convention : Reuss Voigt Hill
#
# Bulk Modulus (GPa) = 34.70748 51.66615 43.18682
# Shear Modulus (GPa) = 31.58531 38.92167 35.25349
#
# Velocity S-wave (km/s) = 3.54628 3.93665 3.74655
# Velocity P-wave (km/s) = 5.53059 6.42141 5.99257
#
# Compressibility (1/GPa) = 0.02881223
#
# Stress axis : x y z
#
# Youngs Moduli (GPa) = 60.78225 203.62546 57.50577
#
# Poissons Ratio (x) = 0.20835 0.08553
# Poissons Ratio (y) = 0.06219 0.14145
# Poissons Ratio (z) = 0.09040 0.50087
#
# Static dielectric constant tensor:
#      x y z
#    x 1.825830 0.000000 0.016840 
#    y 0.000000 2.109310 0.000000 
#    z 0.016840 0.000000 2.030610 
# 
# From -- ./inp_files/74225.got.cif
#   From: 2010.05.17/outbox.cif.g08.bks.cpg/sg13_38_cif.got.tgz:74225.got - 2010.06.03 16:44:36.
