data_PCOD9229741
_publ_section_title
;
Structure prediction by ZEFSAII (Michael W. Deem and Ramdas Pophale) SiO2 
 PCOD9229741
Probable space group: P 2/C
;
_chemical_formula_sum "Si O2"
_cell_formula_units_Z 28
_cell_length_a 21.158172
_cell_length_b 5.740392
_cell_length_c 23.811872
_cell_angle_alpha 90.000000
_cell_angle_beta 28.970252
_cell_angle_gamma 90.000000
_cell_volume 1400.804169
_symmetry_space_group_name_H-M "P 2/C"
_symmetry_group_IT_number 13
_symmetry_cell_setting 'monoclinic'
loop_
_space_group_symop_operation_xyz
x,y,z
-x,y,1/2-z
-x,-y,-z
x,-y,1/2+z
loop_
_atom_site_type_symbol
_atom_site_label
_atom_site_fract_x
_atom_site_fract_y
_atom_site_fract_z
Si Si1 0.287850 0.182461 0.306585
Si Si2 0.852066 0.439155 0.179268
Si Si3 0.629497 0.119280 0.608284
Si Si4 0.524555 0.979444 0.074965
Si Si5 0.659237 0.609879 0.624034
Si Si6 0.615787 0.310285 0.907431
Si Si7 0.087069 0.191173 0.965204
O O1 0.232641 0.250604 0.289023
O O2 0.276616 0.369650 0.364178
O O3 0.440143 0.154316 0.178232
O O4 0.214847 0.949759 0.384277
O O5 0.755142 0.561598 0.298070
O O6 0.879634 0.627590 0.109454
O O7 0.990284 0.317097 0.084716
O O8 0.500000 0.114338 0.750000
O O9 0.600731 0.152643 0.564213
O O10 0.701465 0.359785 0.567755
O O11 0.689429 0.859567 0.570770
O O12 0.419548 0.822873 0.123008
O O13 0.603213 0.122929 0.967149
O O14 0.500000 0.601852 0.750000
O O15 0.500000 0.500000 0.000000
O O16 0.000000 0.000000 0.000000
#
# Coordination Sequence:
#
# PCOD9229741 Si02
#       7
#     4   4   4   4   4   4   4
#     4  11  19  33  54  79 118 157 195 252 308 367
#     4  10  20  34  54  78 114 158 203 246 292 369
#     4  10  21  34  51  77 116 160 192 237 295 365
#     4  11  22  34  49  81 119 167 194 244 301 381
#     4  10  21  31  52  82 110 162 185 239 303 365
#     4  11  23  33  54  80 117 168 201 234 301 379
#     4   9  20  34  53  77 110 155 194 254 300 344
#
# _framework density 19.988519
#
# number of rings (size 3 to 8) (size 9 to 14) (size 15 to 20)
#    0.000    1.714    5.714    0.000    8.000    0.000 
#    0.000    0.000    0.000    0.000    0.000    0.000 
#    0.000   27.429    0.000    0.000    0.000    0.000 
#
# Total GULP energy -155890.299900 kJ/mol
# GULP energy per Si atom -5567.510711 kJ/mol
# Density = 1.994302 g / cm^3
# Si number density = 19.988519 Si / 1000 Ang^3
#
#
#
# Elastic Constant Matrix: (Units=GPa)
#
#
# Indices 1 2 3 4 5 6 
#
# 1 65.8887 14.4005 6.6144 0.0000 22.3837 0.0000
# 2 14.4005 102.1225 16.2067 0.0000 10.5023 0.0000
# 3 6.6144 16.2067 75.0678 0.0000 3.6786 0.0000
# 4 0.0000 0.0000 0.0000 29.7838 0.0000 -8.1730
# 5 22.3837 10.5023 3.6786 0.0000 13.9359 0.0000
# 6 0.0000 0.0000 0.0000 -8.1730 0.0000 21.9079
#
#
#
# Elastic Compliance Matrix: (Units=1/GPa)
#
#
# Indices 1 2 3 4 5 6 
#
# 1 0.033494 0.000947 -0.000491 0.000000 -0.054382 0.000000
# 2 0.000947 0.010923 -0.001990 0.000000 -0.009229 0.000000
# 3 -0.000491 -0.001990 0.013861 0.000000 -0.001371 0.000000
# 4 0.000000 0.000000 0.000000 0.037404 0.000000 0.013954
# 5 -0.054382 -0.009229 -0.001371 0.000000 0.166422 0.000000
# 6 0.000000 0.000000 0.000000 0.013954 0.000000 0.050851
#
#
# Mechanical properties :
#
#
# Convention : Reuss Voigt Hill
#
# Bulk Modulus (GPa) = 18.11176 35.28027 26.69602
# Shear Modulus (GPa) = 14.95097 26.84935 20.90016
#
# Velocity S-wave (km/s) = 2.73789 3.66900 3.23709
# Velocity P-wave (km/s) = 4.36754 5.96970 5.23033
#
# Compressibility (1/GPa) = 0.05521275
#
# Stress axis : x y z
#
# Youngs Moduli (GPa) = 29.85610 91.54686 72.14350
#
# Poissons Ratio (x) = -0.08674 0.03541
# Poissons Ratio (y) = -0.02829 0.14353
# Poissons Ratio (z) = 0.01466 0.18214
#
# Static dielectric constant tensor:
#      x y z
#    x 1.780830 0.000000 -0.021710 
#    y 0.000000 1.890590 0.000000 
#    z -0.021710 0.000000 1.772280 
# 
# From -- ./inp_files/85549.got.cif
#   From: 2010.05.17/outbox.cif.g08.bks.cpg/sg13_43_cif.got.tgz:85549.got - 2010.06.03 16:44:36.
