data_PCOD9229048
_publ_section_title
;
Structure prediction by ZEFSAII (Michael W. Deem and Ramdas Pophale) SiO2 
 PCOD9229048
Probable space group: P 2/C
;
_chemical_formula_sum "Si O2"
_cell_formula_units_Z 24
_cell_length_a 5.496626
_cell_length_b 14.978194
_cell_length_c 12.707990
_cell_angle_alpha 90.000000
_cell_angle_beta 95.207943
_cell_angle_gamma 90.000000
_cell_volume 1041.923777
_symmetry_space_group_name_H-M "P 2/C"
_symmetry_group_IT_number 13
_symmetry_cell_setting 'monoclinic'
loop_
_space_group_symop_operation_xyz
x,y,z
-x,y,1/2-z
-x,-y,-z
x,-y,1/2+z
loop_
_atom_site_type_symbol
_atom_site_label
_atom_site_fract_x
_atom_site_fract_y
_atom_site_fract_z
Si Si1 0.046404 0.765858 0.087664
Si Si2 0.988608 0.081972 0.417964
Si Si3 0.010983 0.400674 0.454862
Si Si4 0.458788 0.182213 0.924363
Si Si5 0.477406 0.989806 0.861250
Si Si6 0.500158 0.682750 0.627265
O O1 0.028508 0.825568 0.979223
O O2 0.027441 0.663863 0.056818
O O3 0.805566 0.799459 0.134767
O O4 0.314637 0.786902 0.135722
O O5 0.220027 0.061008 0.355266
O O6 0.000000 0.000000 0.500000
O O7 0.714109 0.073384 0.367140
O O8 0.250586 0.372810 0.393848
O O9 0.000000 0.500000 0.500000
O O10 0.749881 0.375308 0.392483
O O11 0.485735 0.075298 0.940797
O O12 0.477403 0.241646 0.033419
O O13 0.500000 0.038446 0.750000
O O14 0.500000 0.713985 0.750000
#
# Coordination Sequence:
#
# PCOD9229048 Si02
#       6
#     4   4   4   4   4   4
#     4  10  20  35  62  83 115 157 208 247 311 372
#     4  12  21  38  62  82 118 168 213 260 312 361
#     4  10  21  39  64  91 121 161 202 252 324 382
#     4  10  19  37  59  87 123 169 204 259 312 365
#     4  12  24  38  59  90 129 174 220 263 306 371
#     4  10  21  38  65  98 130 161 211 266 314 374
#
# _framework density 23.034316
#
# number of rings (size 3 to 8) (size 9 to 14) (size 15 to 20)
#    0.000    1.333    3.333    3.000    0.000    0.000 
#    0.000   20.000    0.000   24.000    0.000    0.000 
#    0.000    0.000    0.000    0.000    0.000    0.000 
#
# Total GULP energy -133861.999490 kJ/mol
# GULP energy per Si atom -5577.583312 kJ/mol
# Density = 2.298189 g / cm^3
# Si number density = 23.034316 Si / 1000 Ang^3
#
#
#
# Elastic Constant Matrix: (Units=GPa)
#
#
# Indices 1 2 3 4 5 6 
#
# 1 266.5784 45.4904 46.2597 0.0000 -6.1185 0.0000
# 2 45.4904 151.6092 19.1931 0.0000 -7.1560 0.0000
# 3 46.2597 19.1931 79.5694 0.0000 -25.0556 0.0000
# 4 0.0000 0.0000 0.0000 13.0676 0.0000 0.5034
# 5 -6.1185 -7.1560 -25.0556 0.0000 23.8874 0.0000
# 6 0.0000 0.0000 0.0000 0.5034 0.0000 31.1804
#
#
#
# Elastic Compliance Matrix: (Units=1/GPa)
#
#
# Indices 1 2 3 4 5 6 
#
# 1 0.004407 -0.001048 -0.003065 0.000000 -0.002400 0.000000
# 2 -0.001048 0.007056 -0.000764 0.000000 0.001044 0.000000
# 3 -0.003065 -0.000764 0.021225 0.000000 0.021249 0.000000
# 4 0.000000 0.000000 0.000000 0.076573 0.000000 -0.001236
# 5 -0.002400 0.001044 0.021249 0.000000 0.063849 0.000000
# 6 0.000000 0.000000 0.000000 -0.001236 0.000000 0.032091
#
#
# Mechanical properties :
#
#
# Convention : Reuss Voigt Hill
#
# Bulk Modulus (GPa) = 43.60298 79.96037 61.78167
# Shear Modulus (GPa) = 22.46179 39.41466 30.93822
#
# Velocity S-wave (km/s) = 3.12612 4.14107 3.66886
# Velocity P-wave (km/s) = 5.65693 7.59299 6.69531
#
# Compressibility (1/GPa) = 0.02293421
#
# Stress axis : x y z
#
# Youngs Moduli (GPa) = 226.92209 141.71844 47.11400
#
# Poissons Ratio (x) = 0.14845 0.14441
# Poissons Ratio (y) = 0.23770 0.03601
# Poissons Ratio (z) = 0.69554 0.10833
#
# Static dielectric constant tensor:
#      x y z
#    x 1.975270 0.000000 -0.259850 
#    y 0.000000 1.832500 0.000000 
#    z -0.259850 0.000000 4.912310 
# 
# From -- ./inp_files/43873.got.cif
#   From: 2010.05.17/outbox.cif.g08.bks.cpg/sg13_22_cif.got.tgz:43873.got - 2010.06.03 16:44:36.
