data_PCOD9229196
_publ_section_title
;
Structure prediction by ZEFSAII (Michael W. Deem and Ramdas Pophale) SiO2 
 PCOD9229196
Probable space group: P 2/C
;
_chemical_formula_sum "Si O2"
_cell_formula_units_Z 26
_cell_length_a 6.589962
_cell_length_b 14.099025
_cell_length_c 13.129113
_cell_angle_alpha 90.000000
_cell_angle_beta 85.721994
_cell_angle_gamma 90.000000
_cell_volume 1216.453957
_symmetry_space_group_name_H-M "P 2/C"
_symmetry_group_IT_number 13
_symmetry_cell_setting 'monoclinic'
loop_
_space_group_symop_operation_xyz
x,y,z
-x,y,1/2-z
-x,-y,-z
x,-y,1/2+z
loop_
_atom_site_type_symbol
_atom_site_label
_atom_site_fract_x
_atom_site_fract_y
_atom_site_fract_z
Si Si1 0.082890 0.204913 0.973149
Si Si2 0.554855 0.688689 0.934292
Si Si3 0.181845 0.372436 0.553971
Si Si4 0.570455 0.079307 0.634749
Si Si5 0.686410 0.877390 0.556356
Si Si6 0.500000 0.547912 0.750000
Si Si7 0.914828 0.465977 0.156026
O O1 0.232752 0.271073 0.033932
O O2 0.927165 0.140718 0.043507
O O3 0.230856 0.139427 0.902493
O O4 0.932694 0.274932 0.917683
O O5 0.422239 0.780092 0.905522
O O6 0.568557 0.614878 0.841737
O O7 0.423598 0.642552 0.032807
O O8 0.122410 0.402827 0.440843
O O9 0.080673 0.454330 0.624023
O O10 0.500000 0.103419 0.750000
O O11 0.401965 0.102047 0.554218
O O12 0.623911 0.968156 0.623675
O O13 0.305636 0.493775 0.802460
O O14 0.000000 0.410364 0.250000
#
# Coordination Sequence:
#
# PCOD9229196 Si02
#       7
#     4   4   4   4   4   2   4
#     4  10  19  38  58  81 114 155 191 238 287 341
#     4   9  19  35  59  82 114 150 188 243 292 338
#     4   9  20  37  54  79 116 149 189 237 292 350
#     4  10  21  37  59  85 118 155 191 235 283 338
#     4   9  20  38  58  83 119 151 193 234 285 343
#     4  10  20  34  58  88 110 146 198 246 292 354
#     4  10  20  36  55  81 112 149 191 241 294 348
#
# _framework density 21.373602000000002
#
# number of rings (size 3 to 8) (size 9 to 14) (size 15 to 20)
#    0.000    2.462    0.000    1.385    1.077    1.846 
#    9.692    4.615    0.000    0.000    0.000    0.000 
#    0.000    0.000    0.000    0.000    0.000    0.000 
#
# Total GULP energy -145100.194752 kJ/mol
# GULP energy per Si atom -5580.776721 kJ/mol
# Density = 2.132495 g / cm^3
# Si number density = 21.373602 Si / 1000 Ang^3
#
#
#
# Elastic Constant Matrix: (Units=GPa)
#
#
# Indices 1 2 3 4 5 6 
#
# 1 123.9264 27.1131 36.3376 0.0000 -30.9270 0.0000
# 2 27.1131 58.2560 9.4657 0.0000 -11.1105 0.0000
# 3 36.3376 9.4657 59.1255 0.0000 -12.0731 0.0000
# 4 0.0000 0.0000 0.0000 2.3281 0.0000 -2.6424
# 5 -30.9270 -11.1105 -12.0731 0.0000 26.6759 0.0000
# 6 0.0000 0.0000 0.0000 -2.6424 0.0000 35.9557
#
#
#
# Elastic Compliance Matrix: (Units=1/GPa)
#
#
# Indices 1 2 3 4 5 6 
#
# 1 0.013177 -0.003064 -0.005233 0.000000 0.011632 0.000000
# 2 -0.003064 0.019488 -0.000336 0.000000 0.004412 0.000000
# 3 -0.005233 -0.000336 0.020842 0.000000 0.003226 0.000000
# 4 0.000000 0.000000 0.000000 0.468623 0.000000 0.034439
# 5 0.011632 0.004412 0.003226 0.000000 0.054271 0.000000
# 6 0.000000 0.000000 0.000000 0.034439 0.000000 0.030343
#
#
# Mechanical properties :
#
#
# Convention : Reuss Voigt Hill
#
# Bulk Modulus (GPa) = 27.59265 43.01565 35.30415
# Shear Modulus (GPa) = 7.86054 24.21804 16.03929
#
# Velocity S-wave (km/s) = 1.91981 3.36978 2.74236
# Velocity P-wave (km/s) = 4.22516 5.94221 5.15567
#
# Compressibility (1/GPa) = 0.03624154
#
# Stress axis : x y z
#
# Youngs Moduli (GPa) = 75.89025 51.31434 47.98102
#
# Poissons Ratio (x) = 0.15723 0.25106
# Poissons Ratio (y) = 0.23253 0.01611
# Poissons Ratio (z) = 0.39710 0.01723
#
# Static dielectric constant tensor:
#      x y z
#    x 1.827270 0.000000 -0.002640 
#    y 0.000000 1.778890 0.000000 
#    z -0.002640 0.000000 1.775180 
# 
# From -- ./inp_files/43983.got.cif
#   From: 2010.05.17/outbox.cif.g08.bks.cpg/sg13_22_cif.got.tgz:43983.got - 2010.06.03 16:44:36.
