data_PCOD9229757
_publ_section_title
;
Structure prediction by ZEFSAII (Michael W. Deem and Ramdas Pophale) SiO2 
 PCOD9229757
Probable space group: P 2/C
;
_chemical_formula_sum "Si O2"
_cell_formula_units_Z 24
_cell_length_a 21.662829
_cell_length_b 9.581631
_cell_length_c 8.520265
_cell_angle_alpha 90.000000
_cell_angle_beta 131.830616
_cell_angle_gamma 90.000000
_cell_volume 1317.752291
_symmetry_space_group_name_H-M "P 2/C"
_symmetry_group_IT_number 13
_symmetry_cell_setting 'monoclinic'
loop_
_space_group_symop_operation_xyz
x,y,z
-x,y,1/2-z
-x,-y,-z
x,-y,1/2+z
loop_
_atom_site_type_symbol
_atom_site_label
_atom_site_fract_x
_atom_site_fract_y
_atom_site_fract_z
Si Si1 0.012734 0.346565 0.084073
Si Si2 0.154470 0.854400 0.886481
Si Si3 0.918393 0.909579 0.401266
Si Si4 0.491101 0.657420 0.547152
Si Si5 0.581164 0.106652 0.994805
Si Si6 0.656980 0.160863 0.802760
O O1 0.101280 0.267915 0.212106
O O2 0.000000 0.352975 0.250000
O O3 0.000000 0.500000 0.000000
O O4 0.943309 0.244877 0.890302
O O5 0.155324 0.999892 0.793815
O O6 0.102281 0.892952 0.952148
O O7 0.248143 0.816305 0.081740
O O8 0.000000 0.000000 0.500000
O O9 0.500000 0.663815 0.750000
O O10 0.500000 0.500000 0.500000
O O11 0.552158 0.766237 0.558661
O O12 0.400250 0.712849 0.349559
O O13 0.500000 0.067979 0.750000
O O14 0.647459 0.149125 0.974881
O O15 0.617061 0.977636 0.154773
#
# Coordination Sequence:
#
# PCOD9229757 Si02
#       6
#     4   4   4   4   4   4
#     4   9  19  35  53  73 103 141 178 212 261 328
#     4  10  20  34  54  83 109 137 180 232 273 313
#     4   9  18  34  54  77 106 141 180 219 268 332
#     4  11  22  39  59  79 108 150 188 223 275 343
#     4  10  20  35  56  81 109 147 185 220 274 338
#     4  11  20  35  56  83 113 140 183 238 278 322
#
# _framework density 18.212831999999999
#
# number of rings (size 3 to 8) (size 9 to 14) (size 15 to 20)
#    0.000    2.000    0.000    7.500    0.000    2.667 
#    0.000    8.333    0.000    0.000    0.000    0.000 
#    0.000    0.000    0.000    0.000    0.000    0.000 
#
# Total GULP energy -133701.696944 kJ/mol
# GULP energy per Si atom -5570.904039 kJ/mol
# Density = 1.817138 g / cm^3
# Si number density = 18.212832 Si / 1000 Ang^3
#
#
#
# Elastic Constant Matrix: (Units=GPa)
#
#
# Indices 1 2 3 4 5 6 
#
# 1 90.0953 37.4889 43.8175 0.0000 -4.0376 0.0000
# 2 37.4889 168.0088 67.1432 0.0000 4.5300 0.0000
# 3 43.8175 67.1432 66.2371 0.0000 0.3731 0.0000
# 4 0.0000 0.0000 0.0000 30.2722 0.0000 -11.2683
# 5 -4.0376 4.5300 0.3731 0.0000 30.1003 0.0000
# 6 0.0000 0.0000 0.0000 -11.2683 0.0000 19.6338
#
#
#
# Elastic Compliance Matrix: (Units=1/GPa)
#
#
# Indices 1 2 3 4 5 6 
#
# 1 0.016640 0.001061 -0.012096 0.000000 0.002222 0.000000
# 2 0.001061 0.010131 -0.010964 0.000000 -0.001246 0.000000
# 3 -0.012096 -0.010964 0.034216 0.000000 -0.000397 0.000000
# 4 0.000000 0.000000 0.000000 0.042008 0.000000 0.024109
# 5 0.002222 -0.001246 -0.000397 0.000000 0.033713 0.000000
# 6 0.000000 0.000000 0.000000 0.024109 0.000000 0.064769
#
#
# Mechanical properties :
#
#
# Convention : Reuss Voigt Hill
#
# Bulk Modulus (GPa) = 58.86453 69.02672 63.94563
# Shear Modulus (GPa) = 19.90936 27.72734 23.81835
#
# Velocity S-wave (km/s) = 3.30987 3.90604 3.62025
# Velocity P-wave (km/s) = 6.85547 7.63709 7.25681
#
# Compressibility (1/GPa) = 0.01698816
#
# Stress axis : x y z
#
# Youngs Moduli (GPa) = 60.09484 98.71055 29.22637
#
# Poissons Ratio (x) = -0.10475 0.35353
# Poissons Ratio (y) = -0.06377 0.32044
# Poissons Ratio (z) = 0.72692 1.08228
#
# Static dielectric constant tensor:
#      x y z
#    x 1.657210 0.000000 -0.005430 
#    y 0.000000 1.631700 0.000000 
#    z -0.005430 0.000000 1.674920 
# 
# From -- ./inp_files/22813.got.cif
#   From: 2010.05.17/outbox.cif.g08.bks.cpg/sg13_12_cif.got.tgz:22813.got - 2010.06.03 16:44:36.
