data_PCOD9229084
_publ_section_title
;
Structure prediction by ZEFSAII (Michael W. Deem and Ramdas Pophale) SiO2 
 PCOD9229084
Probable space group: P 2/C
;
_chemical_formula_sum "Si O2"
_cell_formula_units_Z 24
_cell_length_a 14.428370
_cell_length_b 12.654889
_cell_length_c 22.747507
_cell_angle_alpha 90.000000
_cell_angle_beta 17.907031
_cell_angle_gamma 90.000000
_cell_volume 1277.076619
_symmetry_space_group_name_H-M "P 2/C"
_symmetry_group_IT_number 13
_symmetry_cell_setting 'monoclinic'
loop_
_space_group_symop_operation_xyz
x,y,z
-x,y,1/2-z
-x,-y,-z
x,-y,1/2+z
loop_
_atom_site_type_symbol
_atom_site_label
_atom_site_fract_x
_atom_site_fract_y
_atom_site_fract_z
Si Si1 0.146658 0.385480 0.899351
Si Si2 0.852735 0.970796 0.274871
Si Si3 0.850039 0.386767 0.469870
Si Si4 0.796721 0.765287 0.234366
Si Si5 0.122805 0.816504 0.610359
Si Si6 0.189502 0.561758 0.196624
O O1 0.495583 0.404049 0.671223
O O2 0.134650 0.344080 0.973070
O O3 0.030946 0.300274 0.921421
O O4 0.000000 0.500000 0.000000
O O5 0.909449 0.870028 0.199230
O O6 0.000000 0.950603 0.250000
O O7 0.500000 0.000000 0.500000
O O8 0.006616 0.074651 0.153495
O O9 0.991691 0.292759 0.346879
O O10 0.011537 0.494405 0.353769
O O11 0.481927 0.804061 0.395848
O O12 0.750843 0.677344 0.312860
O O13 0.000000 0.821798 0.750000
O O14 0.000000 0.563956 0.250000
O O15 0.500000 0.500000 0.000000
#
# Coordination Sequence:
#
# PCOD9229084 Si02
#       6
#     4   4   4   4   4   4
#     4  10  20  39  62  86 125 174 214 259 318 385
#     4  11  21  38  63  91 128 166 209 269 331 385
#     4  10  21  37  61  89 125 171 212 260 324 397
#     4  11  21  38  60  91 125 165 216 259 317 393
#     4  10  19  37  61  88 123 163 207 255 334 386
#     4  12  24  37  61  98 133 161 211 276 336 397
#
# _framework density 18.792919999999999
#
# number of rings (size 3 to 8) (size 9 to 14) (size 15 to 20)
#    0.000    1.333    5.000    4.000    0.000    0.000 
#    0.000    0.833    0.000    0.000    0.000    0.000 
#    0.000    0.000    0.000    0.000    0.000    0.000 
#
# Total GULP energy -133645.245474 kJ/mol
# GULP energy per Si atom -5568.551895 kJ/mol
# Density = 1.875015 g / cm^3
# Si number density = 18.792920 Si / 1000 Ang^3
#
#
#
# Elastic Constant Matrix: (Units=GPa)
#
#
# Indices 1 2 3 4 5 6 
#
# 1 66.1804 34.2050 23.2987 0.0000 -7.1862 0.0000
# 2 34.2050 171.9143 39.7292 0.0000 0.8613 0.0000
# 3 23.2987 39.7292 54.6968 0.0000 1.0108 0.0000
# 4 0.0000 0.0000 0.0000 24.8444 0.0000 -7.4331
# 5 -7.1862 0.8613 1.0108 0.0000 25.0777 0.0000
# 6 0.0000 0.0000 0.0000 -7.4331 0.0000 24.2020
#
#
#
# Elastic Compliance Matrix: (Units=1/GPa)
#
#
# Indices 1 2 3 4 5 6 
#
# 1 0.019289 -0.002335 -0.006628 0.000000 0.005875 0.000000
# 2 -0.002335 0.007273 -0.004274 0.000000 -0.000747 0.000000
# 3 -0.006628 -0.004274 0.024261 0.000000 -0.002730 0.000000
# 4 0.000000 0.000000 0.000000 0.044323 0.000000 0.013613
# 5 0.005875 -0.000747 -0.002730 0.000000 0.041695 0.000000
# 6 0.000000 0.000000 0.000000 0.013613 0.000000 0.045500
#
#
# Mechanical properties :
#
#
# Convention : Reuss Voigt Hill
#
# Bulk Modulus (GPa) = 41.07333 54.13970 47.60652
# Shear Modulus (GPa) = 23.04859 27.86205 25.45532
#
# Velocity S-wave (km/s) = 3.50587 3.85461 3.68437
# Velocity P-wave (km/s) = 6.18800 6.97723 6.59444
#
# Compressibility (1/GPa) = 0.02434670
#
# Stress axis : x y z
#
# Youngs Moduli (GPa) = 51.84385 137.49459 41.21824
#
# Poissons Ratio (x) = 0.32110 0.27321
# Poissons Ratio (y) = 0.12108 0.17617
# Poissons Ratio (z) = 0.34365 0.58768
#
# Static dielectric constant tensor:
#      x y z
#    x 1.759800 0.000000 -0.040220 
#    y 0.000000 1.717850 0.000000 
#    z -0.040220 0.000000 1.682030 
# 
# From -- ./inp_files/87490.got.cif
#   From: 2010.05.17/outbox.cif.g08.bks.cpg/sg13_44_cif.got.tgz:87490.got - 2010.06.03 16:44:36.
