data_PCOD9229119
_publ_section_title
;
Structure prediction by ZEFSAII (Michael W. Deem and Ramdas Pophale) SiO2 
 PCOD9229119
Probable space group: P 2/C
;
_chemical_formula_sum "Si O2"
_cell_formula_units_Z 16
_cell_length_a 9.137484
_cell_length_b 7.836742
_cell_length_c 16.821322
_cell_angle_alpha 90.000000
_cell_angle_beta 32.949710
_cell_angle_gamma 90.000000
_cell_volume 655.154185
_symmetry_space_group_name_H-M "P 2/C"
_symmetry_group_IT_number 13
_symmetry_cell_setting 'monoclinic'
loop_
_space_group_symop_operation_xyz
x,y,z
-x,y,1/2-z
-x,-y,-z
x,-y,1/2+z
loop_
_atom_site_type_symbol
_atom_site_label
_atom_site_fract_x
_atom_site_fract_y
_atom_site_fract_z
Si Si1 0.538240 0.322617 0.605616
Si Si2 0.485023 0.179681 0.462307
Si Si3 0.285577 0.040160 0.407960
Si Si4 0.902585 0.575870 0.705679
O O1 0.458225 0.302854 0.548928
O O2 0.569974 0.137186 0.630299
O O3 0.310480 0.450466 0.738615
O O4 0.836266 0.399332 0.466821
O O5 0.750143 0.244644 0.294896
O O6 0.500000 0.000000 0.500000
O O7 0.259011 0.157184 0.498554
O O8 0.500000 0.121129 0.250000
O O9 0.000000 0.000000 0.500000
O O10 0.000000 0.521365 0.750000
#
# Coordination Sequence:
#
# PCOD9229119 Si02
#       4
#     4   4   4   4
#     4  10  22  40  64  91 122 159 203 254 304 363
#     4   9  19  37  62  88 117 157 203 250 300 356
#     4  11  24  42  61  88 124 164 205 251 305 365
#     4  10  19  37  62  93 121 152 202 259 304 358
#
# _framework density 24.42173
#
# number of rings (size 3 to 8) (size 9 to 14) (size 15 to 20)
#    0.000    2.000    0.000    4.500    0.000    6.000 
#    0.000   26.250    0.000    0.000    0.000    0.000 
#    0.000    0.000    0.000    0.000    0.000    0.000 
#
# Total GULP energy -89368.869596 kJ/mol
# GULP energy per Si atom -5585.554350 kJ/mol
# Density = 2.436615 g / cm^3
# Si number density = 24.421730 Si / 1000 Ang^3
#
#
#
# Elastic Constant Matrix: (Units=GPa)
#
#
# Indices 1 2 3 4 5 6 
#
# 1 134.2085 8.9667 38.0579 0.0000 -15.8809 0.0000
# 2 8.9667 82.8909 24.1491 0.0000 -18.5385 0.0000
# 3 38.0579 24.1491 65.9408 0.0000 -17.7982 0.0000
# 4 0.0000 0.0000 0.0000 27.9464 0.0000 -19.1935
# 5 -15.8809 -18.5385 -17.7982 0.0000 32.7605 0.0000
# 6 0.0000 0.0000 0.0000 -19.1935 0.0000 30.6469
#
#
#
# Elastic Compliance Matrix: (Units=1/GPa)
#
#
# Indices 1 2 3 4 5 6 
#
# 1 0.009064 0.000971 -0.004984 0.000000 0.002236 0.000000
# 2 0.000971 0.014622 -0.004166 0.000000 0.006482 0.000000
# 3 -0.004984 -0.004166 0.021420 0.000000 0.006864 0.000000
# 4 0.000000 0.000000 0.000000 0.062791 0.000000 0.039325
# 5 0.002236 0.006482 0.006864 0.000000 0.039005 0.000000
# 6 0.000000 0.000000 0.000000 0.039325 0.000000 0.057258
#
#
# Mechanical properties :
#
#
# Convention : Reuss Voigt Hill
#
# Bulk Modulus (GPa) = 34.78306 47.26529 41.02418
# Shear Modulus (GPa) = 21.72966 32.39518 27.06242
#
# Velocity S-wave (km/s) = 2.98613 3.64605 3.33247
# Velocity P-wave (km/s) = 5.11497 6.09268 5.62511
#
# Compressibility (1/GPa) = 0.02874963
#
# Stress axis : x y z
#
# Youngs Moduli (GPa) = 110.32683 68.38809 46.68598
#
# Poissons Ratio (x) = -0.06644 0.23266
# Poissons Ratio (y) = -0.10718 0.19450
# Poissons Ratio (z) = 0.54982 0.28492
#
# Static dielectric constant tensor:
#      x y z
#    x 1.978570 0.000000 0.028470 
#    y 0.000000 1.987540 0.000000 
#    z 0.028470 0.000000 1.911990 
# 
# From -- ./inp_files/10839.got.cif
#   From: 2010.05.17/outbox.cif.g08.bks.cpg/sg13_6_cif.got.tgz:10839.got - 2010.06.03 16:44:36.
