data_PCOD9229700
_publ_section_title
;
Structure prediction by ZEFSAII (Michael W. Deem and Ramdas Pophale) SiO2 
 PCOD9229700
Probable space group: P 2/C
;
_chemical_formula_sum "Si O2"
_cell_formula_units_Z 30
_cell_length_a 25.698256
_cell_length_b 14.507808
_cell_length_c 8.751818
_cell_angle_alpha 90.000000
_cell_angle_beta 149.579219
_cell_angle_gamma 90.000000
_cell_volume 1652.158061
_symmetry_space_group_name_H-M "P 2/C"
_symmetry_group_IT_number 13
_symmetry_cell_setting 'monoclinic'
loop_
_space_group_symop_operation_xyz
x,y,z
-x,y,1/2-z
-x,-y,-z
x,-y,1/2+z
loop_
_atom_site_type_symbol
_atom_site_label
_atom_site_fract_x
_atom_site_fract_y
_atom_site_fract_z
Si Si1 0.766657 0.254927 0.707543
Si Si2 0.629387 0.568428 0.453807
Si Si3 0.409263 0.620956 0.800446
Si Si4 0.086710 0.589903 0.792699
Si Si5 0.000000 0.971607 0.250000
Si Si6 0.083263 0.272752 0.677551
Si Si7 0.853914 0.601646 0.909673
Si Si8 0.094472 0.878780 0.766893
O O1 0.648819 0.285873 0.394721
O O2 0.819736 0.240902 0.676181
O O3 0.825314 0.346680 0.911894
O O4 0.803717 0.173630 0.914882
O O5 0.639357 0.587532 0.659983
O O6 0.607262 0.460809 0.363791
O O7 0.732169 0.594554 0.625831
O O8 0.530614 0.624060 0.141643
O O9 0.111113 0.596462 0.674729
O O10 0.975462 0.636483 0.535265
O O11 0.099829 0.487653 0.887796
O O12 0.078822 0.913507 0.554373
O O13 0.066562 0.036231 0.306386
O O14 0.997203 0.195230 0.446874
O O15 0.111967 0.304575 0.919911
#
# Coordination Sequence:
#
# PCOD9229700 Si02
#       8
#     4   4   4   4   2   4   4   4
#     4  11  20  37  52  76 107 144 179 230 264 317
#     4  10  20  34  51  71  96 145 194 231 270 302
#     4  10  20  35  52  70 101 140 192 236 269 306
#     4  11  23  32  47  70 103 151 187 222 261 308
#     4  10  20  38  58  80 108 144 172 206 272 352
#     4  11  22  35  49  74 110 143 178 221 259 318
#     4  12  21  34  48  71 103 146 191 224 265 308
#     4  10  21  36  57  80 110 141 171 213 268 330
#
# _framework density 18.158069000000001
#
# number of rings (size 3 to 8) (size 9 to 14) (size 15 to 20)
#    0.000    1.333    4.000    3.600    3.733    1.067 
#    0.000    0.000    0.000    0.000    0.000    0.000 
#    0.000   19.200    0.000    0.267    0.000    0.000 
#
# Total GULP energy -167495.209369 kJ/mol
# GULP energy per Si atom -5583.173646 kJ/mol
# Density = 1.811674 g / cm^3
# Si number density = 18.158069 Si / 1000 Ang^3
#
#
#
# Elastic Constant Matrix: (Units=GPa)
#
#
# Indices 1 2 3 4 5 6 
#
# 1 68.5358 16.3204 33.2855 0.0000 -11.0357 0.0000
# 2 16.3204 62.3914 33.0056 0.0000 -6.6606 0.0000
# 3 33.2855 33.0056 71.5569 0.0000 5.4021 0.0000
# 4 0.0000 0.0000 0.0000 35.9361 0.0000 -11.4383
# 5 -11.0357 -6.6606 5.4021 0.0000 38.6964 0.0000
# 6 0.0000 0.0000 0.0000 -11.4383 0.0000 16.5172
#
#
#
# Elastic Compliance Matrix: (Units=1/GPa)
#
#
# Indices 1 2 3 4 5 6 
#
# 1 0.020771 0.001049 -0.010719 0.000000 0.007601 0.000000
# 2 0.001049 0.022285 -0.011197 0.000000 0.005698 0.000000
# 3 -0.010719 -0.011197 0.024763 0.000000 -0.008441 0.000000
# 4 0.000000 0.000000 0.000000 0.035695 0.000000 0.024719
# 5 0.007601 0.005698 -0.008441 0.000000 0.030169 0.000000
# 6 0.000000 0.000000 0.000000 0.024719 0.000000 0.077661
#
#
# Mechanical properties :
#
#
# Convention : Reuss Voigt Hill
#
# Bulk Modulus (GPa) = 38.33788 40.85635 39.59712
# Shear Modulus (GPa) = 19.10040 26.22145 22.66093
#
# Velocity S-wave (km/s) = 3.24681 3.80421 3.53651
# Velocity P-wave (km/s) = 5.93422 6.46879 6.20726
#
# Compressibility (1/GPa) = 0.02608386
#
# Stress axis : x y z
#
# Youngs Moduli (GPa) = 48.14380 44.87293 40.38270
#
# Poissons Ratio (x) = -0.04706 0.43288
# Poissons Ratio (y) = -0.05049 0.45217
# Poissons Ratio (z) = 0.51608 0.50244
#
# Static dielectric constant tensor:
#      x y z
#    x 1.670450 0.000000 -0.036120 
#    y 0.000000 1.622000 0.000000 
#    z -0.036120 0.000000 1.671300 
# 
# From -- ./inp_files/24738.got.cif
#   From: 2010.05.17/outbox.cif.g08.bks.cpg/sg13_13_cif.got.tgz:24738.got - 2010.06.03 16:44:36.
