data_PCOD9229362
_publ_section_title
;
Structure prediction by ZEFSAII (Michael W. Deem and Ramdas Pophale) SiO2 
 PCOD9229362
Probable space group: P 2/C
;
_chemical_formula_sum "Si O2"
_cell_formula_units_Z 22
_cell_length_a 8.838782
_cell_length_b 7.113116
_cell_length_c 17.307823
_cell_angle_alpha 90.000000
_cell_angle_beta 97.345499
_cell_angle_gamma 90.000000
_cell_volume 1079.234691
_symmetry_space_group_name_H-M "P 2/C"
_symmetry_group_IT_number 13
_symmetry_cell_setting 'monoclinic'
loop_
_space_group_symop_operation_xyz
x,y,z
-x,y,1/2-z
-x,-y,-z
x,-y,1/2+z
loop_
_atom_site_type_symbol
_atom_site_label
_atom_site_fract_x
_atom_site_fract_y
_atom_site_fract_z
Si Si1 0.500000 0.020048 0.250000
Si Si2 0.340091 0.879000 0.891276
Si Si3 0.005895 0.806939 0.659003
Si Si4 0.632423 0.195389 0.496914
Si Si5 0.846306 0.510962 0.941352
Si Si6 0.759207 0.898702 0.378726
O O1 0.590234 0.136924 0.190153
O O2 0.628577 0.905749 0.304889
O O3 0.167325 0.809385 0.883549
O O4 0.458591 0.782753 0.957835
O O5 0.348797 0.099184 0.918475
O O6 0.000000 0.784277 0.750000
O O7 0.109590 0.645989 0.627463
O O8 0.087791 0.003521 0.643533
O O9 0.723312 0.382840 0.486044
O O10 0.703109 0.036560 0.443762
O O11 0.791831 0.308663 0.910209
O O12 0.000000 0.500000 0.000000
#
# Coordination Sequence:
#
# PCOD9229362 Si02
#       6
#     2   4   4   4   4   4
#     4  10  20  38  62  86 122 162 198 252 298 358
#     4  10  19  39  65  87 121 163 202 248 301 356
#     4  11  22  40  63  92 124 161 200 248 308 360
#     4   9  21  40  64  90 118 163 205 247 300 356
#     4  11  23  41  62  93 124 159 206 252 298 363
#     4  10  21  41  63  89 123 157 202 248 310 356
#
# _framework density 20.384813999999999
#
# number of rings (size 3 to 8) (size 9 to 14) (size 15 to 20)
#    0.000    1.818    1.818    2.182    0.000    3.636 
#    6.545   14.545    0.000    0.000    0.000    0.000 
#    0.000    0.000    0.000    0.000    0.000    0.000 
#
# Total GULP energy -122912.727338 kJ/mol
# GULP energy per Si atom -5586.942152 kJ/mol
# Density = 2.033842 g / cm^3
# Si number density = 20.384814 Si / 1000 Ang^3
#
#
#
# Elastic Constant Matrix: (Units=GPa)
#
#
# Indices 1 2 3 4 5 6 
#
# 1 115.3965 25.7025 4.0326 0.0000 10.7351 0.0000
# 2 25.7025 98.5418 1.9538 0.0000 1.0143 0.0000
# 3 4.0326 1.9538 47.5052 0.0000 -12.7544 0.0000
# 4 0.0000 0.0000 0.0000 18.0024 0.0000 -5.3137
# 5 10.7351 1.0143 -12.7544 0.0000 41.5127 0.0000
# 6 0.0000 0.0000 0.0000 -5.3137 0.0000 27.4657
#
#
#
# Elastic Compliance Matrix: (Units=1/GPa)
#
#
# Indices 1 2 3 4 5 6 
#
# 1 0.009523 -0.002425 -0.001476 0.000000 -0.002857 0.000000
# 2 -0.002425 0.010780 -0.000152 0.000000 0.000317 0.000000
# 3 -0.001476 -0.000152 0.023199 0.000000 0.007513 0.000000
# 4 0.000000 0.000000 0.000000 0.058912 0.000000 0.011397
# 5 -0.002857 0.000317 0.007513 0.000000 0.027128 0.000000
# 6 0.000000 0.000000 0.000000 0.011397 0.000000 0.038614
#
#
# Mechanical properties :
#
#
# Convention : Reuss Voigt Hill
#
# Bulk Modulus (GPa) = 28.25187 36.09125 32.17156
# Shear Modulus (GPa) = 26.58687 32.71313 29.65000
#
# Velocity S-wave (km/s) = 3.61536 4.01032 3.81795
# Velocity P-wave (km/s) = 5.59617 6.25995 5.93734
#
# Compressibility (1/GPa) = 0.03539589
#
# Stress axis : x y z
#
# Youngs Moduli (GPa) = 105.00570 92.76168 43.10528
#
# Poissons Ratio (x) = 0.22497 0.06361
# Poissons Ratio (y) = 0.25467 0.00657
# Poissons Ratio (z) = 0.15495 0.01414
#
# Static dielectric constant tensor:
#      x y z
#    x 1.753540 0.000000 -0.029950 
#    y 0.000000 1.711820 0.000000 
#    z -0.029950 0.000000 1.746580 
# 
# From -- ./inp_files/74475.got.cif
#   From: 2010.05.17/outbox.cif.g08.bks.cpg/sg13_38_cif.got.tgz:74475.got - 2010.06.03 16:44:36.
