data_PCOD9229208
_publ_section_title
;
Structure prediction by ZEFSAII (Michael W. Deem and Ramdas Pophale) SiO2 
 PCOD9229208
Probable space group: P 2/C
;
_chemical_formula_sum "Si O2"
_cell_formula_units_Z 20
_cell_length_a 11.349600
_cell_length_b 9.474267
_cell_length_c 14.000091
_cell_angle_alpha 90.000000
_cell_angle_beta 31.772674
_cell_angle_gamma 90.000000
_cell_volume 792.678317
_symmetry_space_group_name_H-M "P 2/C"
_symmetry_group_IT_number 13
_symmetry_cell_setting 'monoclinic'
loop_
_space_group_symop_operation_xyz
x,y,z
-x,y,1/2-z
-x,-y,-z
x,-y,1/2+z
loop_
_atom_site_type_symbol
_atom_site_label
_atom_site_fract_x
_atom_site_fract_y
_atom_site_fract_z
Si Si1 0.270614 0.683375 0.359350
Si Si2 0.716707 0.978934 0.657838
Si Si3 0.137234 0.397312 0.240703
Si Si4 0.365359 0.676567 0.070358
Si Si5 0.121454 0.047235 0.757416
O O1 0.500000 0.633248 0.250000
O O2 0.255066 0.853298 0.386821
O O3 0.312026 0.664896 0.219593
O O4 0.051128 0.605262 0.548219
O O5 0.500000 0.930915 0.750000
O O6 0.724848 0.970832 0.767902
O O7 0.925298 0.902502 0.464687
O O8 0.232405 0.540387 0.125175
O O9 0.000000 0.322688 0.250000
O O10 0.367767 0.332959 0.122660
O O11 0.257408 0.824367 0.117602
O O12 0.000000 0.977092 0.750000
#
# Coordination Sequence:
#
# PCOD9229208 Si02
#       5
#     4   4   4   4   4
#     4  10  19  38  60  84 119 159 203 255 305 362
#     4   9  21  41  63  90 124 162 211 256 305 378
#     4  11  21  36  62  87 118 160 204 253 309 369
#     4  10  22  39  57  89 122 156 205 253 308 374
#     4  10  21  42  62  88 127 162 201 261 312 364
#
# _framework density 25.230915
#
# number of rings (size 3 to 8) (size 9 to 14) (size 15 to 20)
#    0.000    2.000    2.000    1.200    0.000    1.600 
#   10.800    1.000    0.000    0.000    0.000    0.000 
#    0.000    0.000    0.000    0.000    0.000    0.000 
#
# Total GULP energy -111648.700759 kJ/mol
# GULP energy per Si atom -5582.435038 kJ/mol
# Density = 2.517349 g / cm^3
# Si number density = 25.230915 Si / 1000 Ang^3
#
#
#
# Elastic Constant Matrix: (Units=GPa)
#
#
# Indices 1 2 3 4 5 6 
#
# 1 166.1168 29.2852 39.1893 0.0000 -19.4024 0.0000
# 2 29.2852 81.2837 43.5617 0.0000 -25.7816 0.0000
# 3 39.1893 43.5617 167.0663 0.0000 -40.8041 0.0000
# 4 0.0000 0.0000 0.0000 25.5803 0.0000 15.5403
# 5 -19.4024 -25.7816 -40.8041 0.0000 59.6819 0.0000
# 6 0.0000 0.0000 0.0000 15.5403 0.0000 -40.8074
#
#
#
# Elastic Compliance Matrix: (Units=1/GPa)
#
#
# Indices 1 2 3 4 5 6 
#
# 1 0.006621 -0.001629 -0.000930 0.000000 0.000813 0.000000
# 2 -0.001629 0.015712 -0.002624 0.000000 0.004463 0.000000
# 3 -0.000930 -0.002624 0.007848 0.000000 0.003930 0.000000
# 4 0.000000 0.000000 0.000000 0.031748 0.000000 0.012090
# 5 0.000813 0.004463 0.003930 0.000000 0.021634 0.000000
# 6 0.000000 0.000000 0.000000 0.012090 0.000000 -0.019901
#
#
# Mechanical properties :
#
#
# Convention : Reuss Voigt Hill
#
# Bulk Modulus (GPa) = 50.47018 70.94881 60.70950
# Shear Modulus (GPa) = 62.00878 29.05302 45.53090
#
# Velocity S-wave (km/s) = 4.96285 3.39704 4.25263
# Velocity P-wave (km/s) = 7.27231 6.60055 6.94456
#
# Compressibility (1/GPa) = 0.01981368
#
# Stress axis : x y z
#
# Youngs Moduli (GPa) = 151.02492 63.64656 127.42425
#
# Poissons Ratio (x) = 0.10371 0.11848
# Poissons Ratio (y) = 0.24608 0.33442
# Poissons Ratio (z) = 0.14042 0.16704
#
# Static dielectric constant tensor:
#      x y z
#    x 2.119730 0.000000 -0.120180 
#    y 0.000000 2.099610 0.000000 
#    z -0.120180 0.000000 2.074340 
# 
# From -- ./inp_files/50975.got.cif
#   From: 2010.05.17/outbox.cif.g08.bks.cpg/sg13_26_cif.got.tgz:50975.got - 2010.06.03 16:44:36.
