data_PCOD9229131
_publ_section_title
;
Structure prediction by ZEFSAII (Michael W. Deem and Ramdas Pophale) SiO2 
 PCOD9229131
Probable space group: P 2/C
;
_chemical_formula_sum "Si O2"
_cell_formula_units_Z 28
_cell_length_a 8.336378
_cell_length_b 15.544076
_cell_length_c 12.547645
_cell_angle_alpha 90.000000
_cell_angle_beta 120.740729
_cell_angle_gamma 90.000000
_cell_volume 1397.477816
_symmetry_space_group_name_H-M "P 2/C"
_symmetry_group_IT_number 13
_symmetry_cell_setting 'monoclinic'
loop_
_space_group_symop_operation_xyz
x,y,z
-x,y,1/2-z
-x,-y,-z
x,-y,1/2+z
loop_
_atom_site_type_symbol
_atom_site_label
_atom_site_fract_x
_atom_site_fract_y
_atom_site_fract_z
Si Si1 0.328953 0.124807 0.620725
Si Si2 0.731169 0.668557 0.994936
Si Si3 0.107146 0.440337 0.121290
Si Si4 0.000000 0.568562 0.250000
Si Si5 0.000000 0.695663 0.750000
Si Si6 0.392379 0.946396 0.553490
Si Si7 0.048687 0.168206 0.889009
Si Si8 0.616858 0.213568 0.091140
O O1 0.500000 0.156222 0.750000
O O2 0.349872 0.171573 0.514031
O O3 0.136850 0.145585 0.612110
O O4 0.341960 0.021028 0.618425
O O5 0.732665 0.607444 0.891750
O O6 0.531038 0.707211 0.960539
O O7 0.856460 0.621522 0.127766
O O8 0.854221 0.753341 0.016865
O O9 0.990143 0.365549 0.141866
O O10 0.136896 0.507814 0.226379
O O11 0.000000 0.500000 0.000000
O O12 0.814492 0.752147 0.697855
O O13 0.201922 0.907085 0.441937
O O14 0.522490 0.864683 0.625602
O O15 0.500000 0.000000 0.500000
O O16 0.000000 0.189866 0.750000
#
# Coordination Sequence:
#
# PCOD9229131 Si02
#       8
#     4   4   4   2   2   4   4   4
#     4  11  22  40  59  89 125 160 209 260 308 371
#     4  10  19  37  63  92 122 160 211 249 314 374
#     4   9  20  39  63  91 124 162 199 252 316 379
#     4   9  18  36  66  91 126 158 196 259 312 374
#     4  11  22  44  62  87 132 162 210 261 306 376
#     4   9  20  40  55  85 120 152 209 251 305 367
#     4  11  20  35  63  87 118 163 202 257 313 363
#     4  10  23  41  62  90 123 165 210 257 309 370
#
# _framework density 20.036097000000002
#
# number of rings (size 3 to 8) (size 9 to 14) (size 15 to 20)
#    0.000    2.000    0.714    3.857    0.000    0.571 
#   18.000    7.857    0.000    0.000    0.000    0.000 
#    0.000    0.000    0.000    0.000    0.000    0.000 
#
# Total GULP energy -156028.543878 kJ/mol
# GULP energy per Si atom -5572.447996 kJ/mol
# Density = 1.999049 g / cm^3
# Si number density = 20.036097 Si / 1000 Ang^3
#
#
#
# Elastic Constant Matrix: (Units=GPa)
#
#
# Indices 1 2 3 4 5 6 
#
# 1 142.8425 66.6019 41.5413 0.0000 13.8664 0.0000
# 2 66.6019 104.0208 38.4713 0.0000 4.0873 0.0000
# 3 41.5413 38.4713 57.8755 0.0000 1.9884 0.0000
# 4 0.0000 0.0000 0.0000 -11.0717 0.0000 -0.0308
# 5 13.8664 4.0873 1.9884 0.0000 35.5286 0.0000
# 6 0.0000 0.0000 0.0000 -0.0308 0.0000 28.6022
#
#
#
# Elastic Compliance Matrix: (Units=1/GPa)
#
#
# Indices 1 2 3 4 5 6 
#
# 1 0.011088 -0.005388 -0.004258 0.000000 -0.003469 0.000000
# 2 -0.005388 0.015401 -0.006393 0.000000 0.000689 0.000000
# 3 -0.004258 -0.006393 0.024549 0.000000 0.001023 0.000000
# 4 0.000000 0.000000 0.000000 -0.090320 0.000000 -0.000097
# 5 -0.003469 0.000689 0.001023 0.000000 0.029364 0.000000
# 6 0.000000 0.000000 0.000000 -0.000097 0.000000 0.034962
#
#
# Mechanical properties :
#
#
# Convention : Reuss Voigt Hill
#
# Bulk Modulus (GPa) = 52.74480 66.44085 59.59282
# Shear Modulus (GPa) = 78.81019 21.15344 49.98181
#
# Velocity S-wave (km/s) = 6.27849 3.25278 5.00000
# Velocity P-wave (km/s) = 8.88489 6.88041 7.94611
#
# Compressibility (1/GPa) = 0.01895922
#
# Stress axis : x y z
#
# Youngs Moduli (GPa) = 90.18627 64.93061 40.73441
#
# Poissons Ratio (x) = 0.34988 0.17344
# Poissons Ratio (y) = 0.48597 0.26043
# Poissons Ratio (z) = 0.38399 0.41513
#
# Static dielectric constant tensor:
#      x y z
#    x 1.692880 0.000000 -0.024150 
#    y 0.000000 1.744620 0.000000 
#    z -0.024150 0.000000 1.719180 
# 
# From -- ./inp_files/30534.got.cif
#   From: 2010.05.17/outbox.cif.g08.bks.cpg/sg13_16_cif.got.tgz:30534.got - 2010.06.03 16:44:36.
