data_PCOD9229852
_publ_section_title
;
Structure prediction by ZEFSAII (Michael W. Deem and Ramdas Pophale) SiO2 
 PCOD9229852
Probable space group: P 2/C
;
_chemical_formula_sum "Si O2"
_cell_formula_units_Z 28
_cell_length_a 11.642026
_cell_length_b 8.789669
_cell_length_c 15.730188
_cell_angle_alpha 90.000000
_cell_angle_beta 66.260251
_cell_angle_gamma 90.000000
_cell_volume 1473.459112
_symmetry_space_group_name_H-M "P 2/C"
_symmetry_group_IT_number 13
_symmetry_cell_setting 'monoclinic'
loop_
_space_group_symop_operation_xyz
x,y,z
-x,y,1/2-z
-x,-y,-z
x,-y,1/2+z
loop_
_atom_site_type_symbol
_atom_site_label
_atom_site_fract_x
_atom_site_fract_y
_atom_site_fract_z
Si Si1 0.752863 0.390982 0.022638
Si Si2 0.150795 0.655715 0.692406
Si Si3 0.283811 0.669328 0.153623
Si Si4 0.817549 0.183461 0.148940
Si Si5 0.087625 0.329112 0.028156
Si Si6 0.763767 0.169968 0.660315
Si Si7 0.552459 0.372676 0.646654
O O1 0.737297 0.281416 0.107103
O O2 0.645542 0.517985 0.067457
O O3 0.744141 0.301221 0.936848
O O4 0.883549 0.488756 0.983995
O O5 0.222276 0.497204 0.685931
O O6 0.199858 0.772209 0.747814
O O7 0.166032 0.710648 0.591004
O O8 0.000000 0.631428 0.750000
O O9 0.231609 0.778847 0.242732
O O10 0.432551 0.665174 0.125770
O O11 0.955948 0.248164 0.085454
O O12 0.793333 0.006750 0.142959
O O13 0.137737 0.262970 0.925527
O O14 0.632185 0.228778 0.658696
O O15 0.500000 0.446742 0.750000
#
# Coordination Sequence:
#
# PCOD9229852 Si02
#       7
#     4   4   4   4   4   4   4
#     4  10  20  34  59  84 103 141 192 234 274 324
#     4   9  19  35  57  81 104 136 185 234 276 323
#     4  10  20  37  56  78 108 145 186 231 274 322
#     4  11  20  34  53  81 113 142 177 225 280 337
#     4   9  19  36  55  77 108 143 181 230 277 326
#     4  10  21  34  52  78 112 149 178 219 280 340
#     4   9  18  36  56  77 108 146 187 231 274 320
#
# _framework density 19.002903
#
# number of rings (size 3 to 8) (size 9 to 14) (size 15 to 20)
#    0.000    2.286    0.000    3.857    0.000    3.429 
#    0.000   10.714    0.000    0.000    0.000    0.000 
#    0.000    0.000    0.000    0.000    0.000    0.000 
#
# Total GULP energy -155949.320394 kJ/mol
# GULP energy per Si atom -5569.618585 kJ/mol
# Density = 1.895965 g / cm^3
# Si number density = 19.002903 Si / 1000 Ang^3
#
#
#
# Elastic Constant Matrix: (Units=GPa)
#
#
# Indices 1 2 3 4 5 6 
#
# 1 56.0624 30.3779 27.0315 0.0000 9.1414 0.0000
# 2 30.3779 89.2342 34.9038 0.0000 17.2087 0.0000
# 3 27.0315 34.9038 101.3294 0.0000 12.0208 0.0000
# 4 0.0000 0.0000 0.0000 5.4639 0.0000 0.4732
# 5 9.1414 17.2087 12.0208 0.0000 28.0679 0.0000
# 6 0.0000 0.0000 0.0000 0.4732 0.0000 6.4296
#
#
#
# Elastic Compliance Matrix: (Units=1/GPa)
#
#
# Indices 1 2 3 4 5 6 
#
# 1 0.023324 -0.005981 -0.003894 0.000000 -0.002262 0.000000
# 2 -0.005981 0.015658 -0.003045 0.000000 -0.006348 0.000000
# 3 -0.003894 -0.003045 0.012204 0.000000 -0.002092 0.000000
# 4 0.000000 0.000000 0.000000 0.184192 0.000000 -0.013555
# 5 -0.002262 -0.006348 -0.002092 0.000000 0.041153 0.000000
# 6 0.000000 0.000000 0.000000 -0.013555 0.000000 0.156529
#
#
# Mechanical properties :
#
#
# Convention : Reuss Voigt Hill
#
# Bulk Modulus (GPa) = 39.45161 47.91692 43.68426
# Shear Modulus (GPa) = 10.69865 18.27980 14.48922
#
# Velocity S-wave (km/s) = 2.37534 3.10489 2.76429
# Velocity P-wave (km/s) = 5.32249 6.17447 5.76424
#
# Compressibility (1/GPa) = 0.02534751
#
# Stress axis : x y z
#
# Youngs Moduli (GPa) = 42.87361 63.86604 81.93707
#
# Poissons Ratio (x) = 0.38199 0.31903
# Poissons Ratio (y) = 0.25643 0.24948
# Poissons Ratio (z) = 0.16693 0.19446
#
# Static dielectric constant tensor:
#      x y z
#    x 1.708530 0.000000 -0.002280 
#    y 0.000000 1.610590 0.000000 
#    z -0.002280 0.000000 1.694100 
# 
# From -- ./inp_files/49983.got.cif
#   From: 2010.05.17/outbox.cif.g08.bks.cpg/sg13_25_cif.got.tgz:49983.got - 2010.06.03 16:44:36.
