data_PCOD9229822
_publ_section_title
;
Structure prediction by ZEFSAII (Michael W. Deem and Ramdas Pophale) SiO2 
 PCOD9229822
Probable space group: P 2/C
;
_chemical_formula_sum "Si O2"
_cell_formula_units_Z 28
_cell_length_a 7.984106
_cell_length_b 18.893532
_cell_length_c 11.117993
_cell_angle_alpha 90.000000
_cell_angle_beta 140.471062
_cell_angle_gamma 90.000000
_cell_volume 1067.437168
_symmetry_space_group_name_H-M "P 2/C"
_symmetry_group_IT_number 13
_symmetry_cell_setting 'monoclinic'
loop_
_space_group_symop_operation_xyz
x,y,z
-x,y,1/2-z
-x,-y,-z
x,-y,1/2+z
loop_
_atom_site_type_symbol
_atom_site_label
_atom_site_fract_x
_atom_site_fract_y
_atom_site_fract_z
Si Si1 0.739023 0.048724 0.476061
Si Si2 0.197205 0.902857 0.049099
Si Si3 0.230428 0.475839 0.284326
Si Si4 0.390790 0.195336 0.994142
Si Si5 0.075142 0.230766 0.583104
Si Si6 0.289805 0.379155 0.729917
Si Si7 0.720147 0.326419 0.162324
O O1 0.500000 0.044334 0.250000
O O2 0.632262 0.109809 0.504967
O O3 0.000300 0.073866 0.548957
O O4 0.804299 0.967650 0.546650
O O5 0.500000 0.898700 0.250000
O O6 0.110805 0.821466 0.989779
O O7 0.500000 0.500000 0.500000
O O8 0.137729 0.548875 0.172060
O O9 0.274599 0.397934 0.252120
O O10 0.000000 0.460883 0.250000
O O11 0.292824 0.209022 0.804689
O O12 0.186102 0.220187 0.983441
O O13 0.634403 0.247607 0.155490
O O14 0.127740 0.312832 0.589802
O O15 0.500000 0.403393 0.750000
O O16 0.471479 0.348967 0.938593
O O17 0.000000 0.319461 0.250000
#
# Coordination Sequence:
#
# PCOD9229822 Si02
#       7
#     4   4   4   4   4   4   4
#     4   9  18  34  52  78 109 140 174 225 283 345
#     4   9  17  33  55  75 105 141 173 226 283 326
#     4   9  19  34  58  79 112 158 188 231 295 347
#     4   9  18  34  55  79 104 147 194 226 277 349
#     4   9  18  32  57  81 106 141 192 238 275 332
#     4  10  20  34  57  87 112 143 199 245 280 339
#     4   9  19  38  55  78 116 153 186 232 294 347
#
# _framework density 26.231054
#
# number of rings (size 3 to 8) (size 9 to 14) (size 15 to 20)
#    0.000    2.857    0.000    0.429    6.000    0.000 
#   10.286   10.000    0.000    1.714    0.000    0.000 
#    0.000    0.000    0.000    0.000    0.000    0.000 
#
# Total GULP energy -156076.090607 kJ/mol
# GULP energy per Si atom -5574.146093 kJ/mol
# Density = 2.617135 g / cm^3
# Si number density = 26.231054 Si / 1000 Ang^3
#
#
#
# Elastic Constant Matrix: (Units=GPa)
#
#
# Indices 1 2 3 4 5 6 
#
# 1 49.8743 55.9940 11.7023 0.0000 25.5853 0.0000
# 2 55.9940 275.4232 68.8908 0.0000 12.4025 0.0000
# 3 11.7023 68.8908 91.9203 0.0000 12.1208 0.0000
# 4 0.0000 0.0000 0.0000 26.5284 0.0000 0.2736
# 5 25.5853 12.4025 12.1208 0.0000 44.3972 0.0000
# 6 0.0000 0.0000 0.0000 0.2736 0.0000 25.3806
#
#
#
# Elastic Compliance Matrix: (Units=1/GPa)
#
#
# Indices 1 2 3 4 5 6 
#
# 1 0.038949 -0.007904 0.003769 0.000000 -0.021267 0.000000
# 2 -0.007904 0.006077 -0.004072 0.000000 0.003969 0.000000
# 3 0.003769 -0.004072 0.014095 0.000000 -0.004883 0.000000
# 4 0.000000 0.000000 0.000000 0.037700 0.000000 -0.000406
# 5 -0.021267 0.003969 -0.004883 0.000000 0.035004 0.000000
# 6 0.000000 0.000000 0.000000 -0.000406 0.000000 0.039405
#
#
# Mechanical properties :
#
#
# Convention : Reuss Voigt Hill
#
# Bulk Modulus (GPa) = 23.41450 76.71022 50.06236
# Shear Modulus (GPa) = 24.76744 37.96995 31.36870
#
# Velocity S-wave (km/s) = 3.07612 3.80876 3.46187
# Velocity P-wave (km/s) = 4.64353 6.97493 5.92503
#
# Compressibility (1/GPa) = 0.04270859
#
# Stress axis : x y z
#
# Youngs Moduli (GPa) = 25.67454 164.54534 70.94870
#
# Poissons Ratio (x) = 1.30049 -0.26741
# Poissons Ratio (y) = 0.20292 0.28889
# Poissons Ratio (z) = -0.09677 0.67001
#
# Static dielectric constant tensor:
#      x y z
#    x 2.509390 0.000000 0.236600 
#    y 0.000000 2.240690 0.000000 
#    z 0.236600 0.000000 2.319310 
# 
# From -- ./inp_files/48112.got.cif
#   From: 2010.05.17/outbox.cif.g08.bks.cpg/sg13_25_cif.got.tgz:48112.got - 2010.06.03 16:44:36.
