data_PCOD9229924
_publ_section_title
;
Structure prediction by ZEFSAII (Michael W. Deem and Ramdas Pophale) SiO2 
 PCOD9229924
Probable space group: P 2/C
;
_chemical_formula_sum "Si O2"
_cell_formula_units_Z 30
_cell_length_a 5.667985
_cell_length_b 13.246695
_cell_length_c 17.695311
_cell_angle_alpha 90.000000
_cell_angle_beta 78.385320
_cell_angle_gamma 90.000000
_cell_volume 1301.395728
_symmetry_space_group_name_H-M "P 2/C"
_symmetry_group_IT_number 13
_symmetry_cell_setting 'monoclinic'
loop_
_space_group_symop_operation_xyz
x,y,z
-x,y,1/2-z
-x,-y,-z
x,-y,1/2+z
loop_
_atom_site_type_symbol
_atom_site_label
_atom_site_fract_x
_atom_site_fract_y
_atom_site_fract_z
Si Si1 0.500000 0.838449 0.750000
Si Si2 0.281637 0.560110 0.051484
Si Si3 0.961509 0.641753 0.953119
Si Si4 0.139382 0.954969 0.879786
Si Si5 0.605720 0.113704 0.000521
Si Si6 0.780789 0.198200 0.362695
Si Si7 0.559497 0.279524 0.597255
Si Si8 0.774862 0.154538 0.704550
O O1 0.359070 0.908224 0.818008
O O2 0.315518 0.774482 0.712711
O O3 0.088016 0.471176 0.074876
O O4 0.367158 0.629748 0.114418
O O5 0.500000 0.500000 0.000000
O O6 0.190532 0.635412 0.991963
O O7 0.961952 0.721439 0.886163
O O8 0.751470 0.679772 0.023399
O O9 0.157771 0.910279 0.963669
O O10 0.907122 0.910338 0.853647
O O11 0.148428 0.073194 0.864455
O O12 0.438994 0.180393 0.066335
O O13 0.581290 0.178864 0.925173
O O14 0.500000 0.000000 0.000000
O O15 0.711006 0.255314 0.662108
O O16 0.500000 0.125612 0.750000
O O17 0.000000 0.159481 0.750000
#
# Coordination Sequence:
#
# PCOD9229924 Si02
#       8
#     2   4   4   4   4   4   4   4
#     4  10  20  36  54  76 116 158 204 236 290 356
#     4   9  18  36  65  88 118 149 194 260 328 381
#     4   9  19  37  61  97 116 149 200 264 328 388
#     4  11  21  37  56  81 121 166 211 250 302 364
#     4  10  20  35  53  87 120 153 198 257 306 364
#     4  10  21  34  57  85 119 155 199 247 308 370
#     4  10  21  38  61  90 124 161 205 264 321 374
#     4  12  27  42  61  89 129 182 227 253 301 382
#
# _framework density 23.052173
#
# number of rings (size 3 to 8) (size 9 to 14) (size 15 to 20)
#    0.000    1.867    2.000    2.000    3.733    1.600 
#    0.000    0.000    1.467    0.000    0.000    0.000 
#    0.000    0.000    0.000    0.000    0.000    0.000 
#
# Total GULP energy -167270.362824 kJ/mol
# GULP energy per Si atom -5575.678761 kJ/mol
# Density = 2.299971 g / cm^3
# Si number density = 23.052173 Si / 1000 Ang^3
#
#
#
# Elastic Constant Matrix: (Units=GPa)
#
#
# Indices 1 2 3 4 5 6 
#
# 1 98.5735 31.5972 37.5825 0.0000 33.1704 0.0000
# 2 31.5972 94.9129 26.5663 0.0000 22.9263 0.0000
# 3 37.5825 26.5663 69.8160 0.0000 25.2941 0.0000
# 4 0.0000 0.0000 0.0000 9.1685 0.0000 6.8366
# 5 33.1704 22.9263 25.2941 0.0000 44.1838 0.0000
# 6 0.0000 0.0000 0.0000 6.8366 0.0000 37.6192
#
#
#
# Elastic Compliance Matrix: (Units=1/GPa)
#
#
# Indices 1 2 3 4 5 6 
#
# 1 0.015105 -0.001869 -0.004621 0.000000 -0.007724 0.000000
# 2 -0.001869 0.012770 -0.002474 0.000000 -0.003807 0.000000
# 3 -0.004621 -0.002474 0.020225 0.000000 -0.006825 0.000000
# 4 0.000000 0.000000 0.000000 0.126165 0.000000 -0.022928
# 5 -0.007724 -0.003807 -0.006825 0.000000 0.034314 0.000000
# 6 0.000000 0.000000 0.000000 -0.022928 0.000000 0.030749
#
#
# Mechanical properties :
#
#
# Convention : Reuss Voigt Hill
#
# Bulk Modulus (GPa) = 33.14384 50.53272 41.83828
# Shear Modulus (GPa) = 18.70447 29.36472 24.03460
#
# Velocity S-wave (km/s) = 2.85159 3.57296 3.23246
# Velocity P-wave (km/s) = 5.02505 6.24420 5.66750
#
# Compressibility (1/GPa) = 0.03017152
#
# Stress axis : x y z
#
# Youngs Moduli (GPa) = 66.20253 78.30707 49.44308
#
# Poissons Ratio (x) = 0.14637 0.22850
# Poissons Ratio (y) = 0.12375 0.12232
# Poissons Ratio (z) = 0.30595 0.19373
#
# Static dielectric constant tensor:
#      x y z
#    x 1.961450 0.000000 0.021770 
#    y 0.000000 1.880370 0.000000 
#    z 0.021770 0.000000 1.912250 
# 
# From -- ./inp_files/61390.got.cif
#   From: 2010.05.17/outbox.cif.g08.bks.cpg/sg13_31_cif.got.tgz:61390.got - 2010.06.03 16:44:36.
