data_PCOD9229723
_publ_section_title
;
Structure prediction by ZEFSAII (Michael W. Deem and Ramdas Pophale) SiO2 
 PCOD9229723
Probable space group: P 2/C
;
_chemical_formula_sum "Si O2"
_cell_formula_units_Z 26
_cell_length_a 14.626182
_cell_length_b 11.218973
_cell_length_c 9.119137
_cell_angle_alpha 90.000000
_cell_angle_beta 63.713263
_cell_angle_gamma 90.000000
_cell_volume 1341.625203
_symmetry_space_group_name_H-M "P 2/C"
_symmetry_group_IT_number 13
_symmetry_cell_setting 'monoclinic'
loop_
_space_group_symop_operation_xyz
x,y,z
-x,y,1/2-z
-x,-y,-z
x,-y,1/2+z
loop_
_atom_site_type_symbol
_atom_site_label
_atom_site_fract_x
_atom_site_fract_y
_atom_site_fract_z
Si Si1 0.015423 0.359604 0.010640
Si Si2 0.226288 0.370492 0.987360
Si Si3 0.000000 0.789989 0.250000
Si Si4 0.218524 0.623527 0.826609
Si Si5 0.209215 0.859262 0.974906
Si Si6 0.612031 0.829958 0.161180
Si Si7 0.316574 0.008050 0.149198
O O1 0.897742 0.327604 0.116639
O O2 0.106025 0.336058 0.059031
O O3 0.000000 0.500000 0.000000
O O4 0.049396 0.296755 0.836291
O O5 0.228954 0.495991 0.898187
O O6 0.298540 0.266192 0.875173
O O7 0.258924 0.386624 0.133149
O O8 0.908735 0.859584 0.391727
O O9 0.255107 0.728252 0.907715
O O10 0.229430 0.932632 0.812118
O O11 0.269695 0.918570 0.064595
O O12 0.500000 0.774306 0.250000
O O13 0.617041 0.933886 0.280996
O O14 0.630804 0.890841 0.988607
#
# Coordination Sequence:
#
# PCOD9229723 Si02
#       7
#     4   4   2   4   4   4   4
#     4   9  20  30  56  85 119 161 203 233 284 352
#     4  11  22  37  61  87 122 160 197 248 302 355
#     4  10  20  34  52  88 128 158 200 244 288 360
#     4  10  22  36  60  88 126 157 198 239 297 370
#     4  10  21  39  60  89 121 160 200 245 298 361
#     4  11  23  42  66  90 116 153 208 258 309 357
#     4  10  22  41  66  84 116 159 203 257 302 351
#
# _framework density 19.379481999999999
#
# number of rings (size 3 to 8) (size 9 to 14) (size 15 to 20)
#    0.000    1.846    1.538    1.846   15.077    0.615 
#    0.000    2.308    0.000    0.000    0.000    0.000 
#    0.000    0.000    0.000    0.000    0.000    0.000 
#
# Total GULP energy -144781.235346 kJ/mol
# GULP energy per Si atom -5568.509052 kJ/mol
# Density = 1.933537 g / cm^3
# Si number density = 19.379482 Si / 1000 Ang^3
#
#
#
# Elastic Constant Matrix: (Units=GPa)
#
#
# Indices 1 2 3 4 5 6 
#
# 1 42.9235 24.9912 31.6304 0.0000 -12.6962 0.0000
# 2 24.9912 67.5628 30.7890 0.0000 -1.6609 0.0000
# 3 31.6304 30.7890 107.1955 0.0000 15.6692 0.0000
# 4 0.0000 0.0000 0.0000 32.7174 0.0000 7.1461
# 5 -12.6962 -1.6609 15.6692 0.0000 25.8084 0.0000
# 6 0.0000 0.0000 0.0000 7.1461 0.0000 22.5100
#
#
#
# Elastic Compliance Matrix: (Units=1/GPa)
#
#
# Indices 1 2 3 4 5 6 
#
# 1 0.053845 -0.010720 -0.018195 0.000000 0.036845 0.000000
# 2 -0.010720 0.019646 -0.002078 0.000000 -0.002747 0.000000
# 3 -0.018195 -0.002078 0.018241 0.000000 -0.020159 0.000000
# 4 0.000000 0.000000 0.000000 0.032842 0.000000 -0.010426
# 5 0.036845 -0.002747 -0.020159 0.000000 0.068935 0.000000
# 6 0.000000 0.000000 0.000000 -0.010426 0.000000 0.047735
#
#
# Mechanical properties :
#
#
# Convention : Reuss Voigt Hill
#
# Bulk Modulus (GPa) = 33.61750 43.61143 38.61447
# Shear Modulus (GPa) = 15.96708 24.89191 20.42950
#
# Velocity S-wave (km/s) = 2.87351 3.58781 3.25034
# Velocity P-wave (km/s) = 5.32860 6.30206 5.83566
#
# Compressibility (1/GPa) = 0.02974641
#
# Stress axis : x y z
#
# Youngs Moduli (GPa) = 18.57190 50.90191 54.82092
#
# Poissons Ratio (x) = 0.54565 0.99747
# Poissons Ratio (y) = 0.19908 0.11392
# Poissons Ratio (z) = 0.33792 0.10577
#
# Static dielectric constant tensor:
#      x y z
#    x 1.567390 0.000000 -0.044890 
#    y 0.000000 1.707650 0.000000 
#    z -0.044890 0.000000 1.695670 
# 
# From -- ./inp_files/18683.got.cif
#   From: 2010.05.17/outbox.cif.g08.bks.cpg/sg13_10_cif.got.tgz:18683.got - 2010.06.03 16:44:36.
