data_PCOD9229934
_publ_section_title
;
Structure prediction by ZEFSAII (Michael W. Deem and Ramdas Pophale) SiO2 
 PCOD9229934
Probable space group: P 2/C
;
_chemical_formula_sum "Si O2"
_cell_formula_units_Z 20
_cell_length_a 13.475707
_cell_length_b 8.954243
_cell_length_c 16.406515
_cell_angle_alpha 90.000000
_cell_angle_beta 24.884490
_cell_angle_gamma 90.000000
_cell_volume 833.033477
_symmetry_space_group_name_H-M "P 2/C"
_symmetry_group_IT_number 13
_symmetry_cell_setting 'monoclinic'
loop_
_space_group_symop_operation_xyz
x,y,z
-x,y,1/2-z
-x,-y,-z
x,-y,1/2+z
loop_
_atom_site_type_symbol
_atom_site_label
_atom_site_fract_x
_atom_site_fract_y
_atom_site_fract_z
Si Si1 0.838834 0.667842 0.030467
Si Si2 0.101167 0.676674 0.991103
Si Si3 0.735361 0.153021 0.985085
Si Si4 0.373645 0.189111 0.956505
Si Si5 0.571684 0.670572 0.459583
O O1 0.828757 0.729999 0.946444
O O2 0.616506 0.748067 0.237817
O O3 0.059789 0.697937 0.925590
O O4 0.805259 0.489471 0.059787
O O5 0.241541 0.797570 0.938465
O O6 0.837001 0.680687 0.225885
O O7 0.592909 0.271780 0.036119
O O8 0.000000 0.151387 0.750000
O O9 0.642050 0.986764 0.043861
O O10 0.399272 0.230997 0.031844
O O11 0.500000 0.500000 0.500000
#
# Coordination Sequence:
#
# PCOD9229934 Si02
#       5
#     4   4   4   4   4
#     4   9  19  37  56  77 107 144 185 225 267 323
#     4   9  19  37  57  77 106 145 188 226 267 323
#     4  10  21  36  56  82 112 145 181 226 278 327
#     4  10  20  35  54  81 114 141 178 227 276 329
#     4  10  20  35  57  82 108 143 186 228 271 324
#
# _framework density 24.008638999999999
#
# number of rings (size 3 to 8) (size 9 to 14) (size 15 to 20)
#    0.000    2.400    0.000    1.800    0.000    2.400 
#    0.000   16.000    0.000    0.000    0.000    0.000 
#    0.000    0.000    0.000    0.000    0.000    0.000 
#
# Total GULP energy -111919.770235 kJ/mol
# GULP energy per Si atom -5595.988512 kJ/mol
# Density = 2.395399 g / cm^3
# Si number density = 24.008639 Si / 1000 Ang^3
#
#
#
# Elastic Constant Matrix: (Units=GPa)
#
#
# Indices 1 2 3 4 5 6 
#
# 1 166.4057 109.1824 28.8760 0.0000 -16.7438 0.0000
# 2 109.1824 180.2078 23.5449 0.0000 -33.7080 0.0000
# 3 28.8760 23.5449 75.1816 0.0000 -9.4740 0.0000
# 4 0.0000 0.0000 0.0000 43.2710 0.0000 -17.9158
# 5 -16.7438 -33.7080 -9.4740 0.0000 40.4110 0.0000
# 6 0.0000 0.0000 0.0000 -17.9158 0.0000 58.7325
#
#
#
# Elastic Compliance Matrix: (Units=1/GPa)
#
#
# Indices 1 2 3 4 5 6 
#
# 1 0.010348 -0.006252 -0.002198 0.000000 -0.001443 0.000000
# 2 -0.006252 0.010501 -0.000113 0.000000 0.006142 0.000000
# 3 -0.002198 -0.000113 0.014482 0.000000 0.002390 0.000000
# 4 0.000000 0.000000 0.000000 0.026451 0.000000 0.008069
# 5 -0.001443 0.006142 0.002390 0.000000 0.029831 0.000000
# 6 0.000000 0.000000 0.000000 0.008069 0.000000 0.019488
#
#
# Mechanical properties :
#
#
# Convention : Reuss Voigt Hill
#
# Bulk Modulus (GPa) = 54.93476 82.77796 68.85636
# Shear Modulus (GPa) = 37.23130 45.82902 41.53016
#
# Velocity S-wave (km/s) = 3.94222 4.37378 4.16360
# Velocity P-wave (km/s) = 6.60700 7.74983 7.20112
#
# Compressibility (1/GPa) = 0.01820341
#
# Stress axis : x y z
#
# Youngs Moduli (GPa) = 96.63844 95.23095 69.05092
#
# Poissons Ratio (x) = 0.59540 0.15179
# Poissons Ratio (y) = 0.60420 0.00782
# Poissons Ratio (z) = 0.21244 0.01078
#
# Static dielectric constant tensor:
#      x y z
#    x 1.950090 0.000000 0.004430 
#    y 0.000000 1.799620 0.000000 
#    z 0.004430 0.000000 1.982450 
# 
# From -- ./inp_files/59320.got.cif
#   From: 2010.05.17/outbox.cif.g08.bks.cpg/sg13_30_cif.got.tgz:59320.got - 2010.06.03 16:44:36.
