data_PCOD9229887
_publ_section_title
;
Structure prediction by ZEFSAII (Michael W. Deem and Ramdas Pophale) SiO2 
 PCOD9229887
Probable space group: P 2/C
;
_chemical_formula_sum "Si O2"
_cell_formula_units_Z 26
_cell_length_a 5.572976
_cell_length_b 14.791929
_cell_length_c 16.801853
_cell_angle_alpha 90.000000
_cell_angle_beta 54.553555
_cell_angle_gamma 90.000000
_cell_volume 1128.351650
_symmetry_space_group_name_H-M "P 2/C"
_symmetry_group_IT_number 13
_symmetry_cell_setting 'monoclinic'
loop_
_space_group_symop_operation_xyz
x,y,z
-x,y,1/2-z
-x,-y,-z
x,-y,1/2+z
loop_
_atom_site_type_symbol
_atom_site_label
_atom_site_fract_x
_atom_site_fract_y
_atom_site_fract_z
Si Si1 0.926364 0.120099 0.358594
Si Si2 0.792876 0.079246 0.870131
Si Si3 0.378847 0.298466 0.112266
Si Si4 0.500000 0.199776 0.250000
Si Si5 0.701584 0.172164 0.633286
Si Si6 0.976864 0.639470 0.054948
Si Si7 0.832347 0.533529 0.921490
O O1 0.759763 0.213168 0.406519
O O2 0.000000 0.120395 0.250000
O O3 0.248180 0.134553 0.334204
O O4 0.772976 0.025185 0.400456
O O5 0.484969 0.122954 0.900378
O O6 0.000000 0.081584 0.750000
O O7 0.982953 0.129344 0.902166
O O8 0.401724 0.264977 0.198180
O O9 0.192043 0.389830 0.140010
O O10 0.697538 0.318711 0.014386
O O11 0.500000 0.162401 0.750000
O O12 0.754007 0.278314 0.608036
O O13 0.977183 0.558321 0.120033
O O14 0.927525 0.588871 0.981175
O O15 0.500000 0.500000 0.000000
#
# Coordination Sequence:
#
# PCOD9229887 Si02
#       7
#     4   4   4   2   4   4   4
#     4   9  19  33  59  86 125 163 203 250 308 374
#     4   9  20  36  60  91 124 166 209 254 313 371
#     4  10  20  36  61  91 120 163 204 255 309 378
#     4  10  20  34  62  88 126 162 206 258 310 372
#     4  10  22  39  65  92 125 162 213 262 307 367
#     4  10  21  39  66  85 118 165 206 254 319 381
#     4   9  20  38  64  82 114 160 206 247 316 386
#
# _framework density 23.042459999999998
#
# number of rings (size 3 to 8) (size 9 to 14) (size 15 to 20)
#    0.000    2.462    0.000    0.923   11.846    0.000 
#    0.000    1.538   50.769    0.000    0.000    0.000 
#    0.000    0.000    0.000    0.000    0.000    0.000 
#
# Total GULP energy -145145.762918 kJ/mol
# GULP energy per Si atom -5582.529343 kJ/mol
# Density = 2.299001 g / cm^3
# Si number density = 23.042460 Si / 1000 Ang^3
#
#
#
# Elastic Constant Matrix: (Units=GPa)
#
#
# Indices 1 2 3 4 5 6 
#
# 1 134.3936 98.2468 19.5214 0.0000 -16.6277 0.0000
# 2 98.2468 217.8704 31.3180 0.0000 -6.2807 0.0000
# 3 19.5214 31.3180 42.9561 0.0000 4.2829 0.0000
# 4 0.0000 0.0000 0.0000 27.9060 0.0000 -2.9869
# 5 -16.6277 -6.2807 4.2829 0.0000 14.9754 0.0000
# 6 0.0000 0.0000 0.0000 -2.9869 0.0000 38.1847
#
#
#
# Elastic Compliance Matrix: (Units=1/GPa)
#
#
# Indices 1 2 3 4 5 6 
#
# 1 0.013447 -0.005124 -0.003756 0.000000 0.013856 0.000000
# 2 -0.005124 0.007245 -0.002768 0.000000 -0.001860 0.000000
# 3 -0.003756 -0.002768 0.028344 0.000000 -0.013438 0.000000
# 4 0.000000 0.000000 0.000000 0.036137 0.000000 0.002827
# 5 0.013856 -0.001860 -0.013438 0.000000 0.085224 0.000000
# 6 0.000000 0.000000 0.000000 0.002827 0.000000 0.026410
#
#
# Mechanical properties :
#
#
# Convention : Reuss Voigt Hill
#
# Bulk Modulus (GPa) = 38.85149 77.04360 57.94754
# Shear Modulus (GPa) = 21.86427 32.62213 27.24320
#
# Velocity S-wave (km/s) = 3.08371 3.76671 3.44220
# Velocity P-wave (km/s) = 5.43843 7.24055 6.40320
#
# Compressibility (1/GPa) = 0.02573904
#
# Stress axis : x y z
#
# Youngs Moduli (GPa) = 74.36707 138.02752 35.28025
#
# Poissons Ratio (x) = 0.70730 0.13252
# Poissons Ratio (y) = 0.38108 0.09765
# Poissons Ratio (z) = 0.27935 0.38205
#
# Static dielectric constant tensor:
#      x y z
#    x 1.950350 0.000000 -0.034070 
#    y 0.000000 1.875840 0.000000 
#    z -0.034070 0.000000 1.903800 
# 
# From -- ./inp_files/73540.got.cif
#   From: 2010.05.17/outbox.cif.g08.bks.cpg/sg13_37_cif.got.tgz:73540.got - 2010.06.03 16:44:36.
