data_PCOD9229307
_publ_section_title
;
Structure prediction by ZEFSAII (Michael W. Deem and Ramdas Pophale) SiO2 
 PCOD9229307
Probable space group: P 2/C
;
_chemical_formula_sum "Si O2"
_cell_formula_units_Z 24
_cell_length_a 16.833628
_cell_length_b 6.935670
_cell_length_c 23.091271
_cell_angle_alpha 90.000000
_cell_angle_beta 160.419831
_cell_angle_gamma 90.000000
_cell_volume 903.486036
_symmetry_space_group_name_H-M "P 2/C"
_symmetry_group_IT_number 13
_symmetry_cell_setting 'monoclinic'
loop_
_space_group_symop_operation_xyz
x,y,z
-x,y,1/2-z
-x,-y,-z
x,-y,1/2+z
loop_
_atom_site_type_symbol
_atom_site_label
_atom_site_fract_x
_atom_site_fract_y
_atom_site_fract_z
Si Si1 0.124853 0.315640 0.898389
Si Si2 0.788444 0.982924 0.770202
Si Si3 0.472677 0.594865 0.314522
Si Si4 0.691435 0.020858 0.832217
Si Si5 0.316849 0.388471 0.834564
Si Si6 0.063777 0.143749 0.358740
O O1 0.000000 0.365595 0.750000
O O2 0.113881 0.085195 0.891975
O O3 0.943241 0.406461 0.818950
O O4 0.380259 0.398446 0.093023
O O5 0.661817 0.949168 0.745110
O O6 0.646400 0.155997 0.642169
O O7 0.864350 0.834322 0.771891
O O8 0.293825 0.740587 0.158666
O O9 0.349568 0.555059 0.290988
O O10 0.694948 0.742345 0.466493
O O11 0.500000 0.970594 0.750000
O O12 0.949896 0.946945 0.028975
O O13 0.500000 0.500000 0.000000
O O14 0.000000 0.199500 0.250000
#
# Coordination Sequence:
#
# PCOD9229307 Si02
#       6
#     4   4   4   4   4   4
#     4  10  20  38  59  91 141 172 225 289 341 432
#     4   9  20  38  63  99 134 178 240 294 343 420
#     4  11  21  38  68  94 129 192 231 285 362 415
#     4  10  19  38  69  92 131 186 238 294 345 413
#     4  10  20  36  63  95 138 185 219 289 360 422
#     4  10  21  37  63  98 138 175 227 291 356 423
#
# _framework density 26.563775
#
# number of rings (size 3 to 8) (size 9 to 14) (size 15 to 20)
#    0.000    2.000    3.333    0.500    0.000    0.000 
#    0.000   18.333    7.333    5.000    0.000    0.000 
#    0.000    0.000    0.000    0.000    0.000    0.000 
#
# Total GULP energy -133961.103257 kJ/mol
# GULP energy per Si atom -5581.712636 kJ/mol
# Density = 2.650331 g / cm^3
# Si number density = 26.563775 Si / 1000 Ang^3
#
#
#
# Elastic Constant Matrix: (Units=GPa)
#
#
# Indices 1 2 3 4 5 6 
#
# 1 254.1068 21.7859 41.4073 0.0000 19.0396 0.0000
# 2 21.7859 134.5401 26.0907 0.0000 -1.7298 0.0000
# 3 41.4073 26.0907 68.9321 0.0000 3.7900 0.0000
# 4 0.0000 0.0000 0.0000 52.9098 0.0000 5.7314
# 5 19.0396 -1.7298 3.7900 0.0000 51.0171 0.0000
# 6 0.0000 0.0000 0.0000 5.7314 0.0000 24.1130
#
#
#
# Elastic Compliance Matrix: (Units=1/GPa)
#
#
# Indices 1 2 3 4 5 6 
#
# 1 0.004478 -0.000258 -0.002511 0.000000 -0.001494 0.000000
# 2 -0.000258 0.008049 -0.002924 0.000000 0.000586 0.000000
# 3 -0.002511 -0.002924 0.017146 0.000000 -0.000436 0.000000
# 4 0.000000 0.000000 0.000000 0.019400 0.000000 -0.004611
# 5 -0.001494 0.000586 -0.000436 0.000000 0.020211 0.000000
# 6 0.000000 0.000000 0.000000 -0.004611 0.000000 0.042567
#
#
# Mechanical properties :
#
#
# Convention : Reuss Voigt Hill
#
# Bulk Modulus (GPa) = 54.67789 70.68297 62.68043
# Shear Modulus (GPa) = 38.66018 50.16097 44.41058
#
# Velocity S-wave (km/s) = 3.81907 4.35020 4.09326
# Velocity P-wave (km/s) = 6.33051 7.20409 6.78138
#
# Compressibility (1/GPa) = 0.01828893
#
# Stress axis : x y z
#
# Youngs Moduli (GPa) = 223.29153 124.23871 58.32305
#
# Poissons Ratio (x) = 0.03199 0.14643
# Poissons Ratio (y) = 0.05750 0.17054
# Poissons Ratio (z) = 0.56060 0.36328
#
# Static dielectric constant tensor:
#      x y z
#    x 2.103240 0.000000 -0.032370 
#    y 0.000000 2.175170 0.000000 
#    z -0.032370 0.000000 2.262590 
# 
# From -- ./inp_files/87947.got.cif
#   From: 2010.05.17/outbox.cif.g08.bks.cpg/sg13_44_cif.got.tgz:87947.got - 2010.06.03 16:44:36.
