data_PCOD9229056
_publ_section_title
;
Structure prediction by ZEFSAII (Michael W. Deem and Ramdas Pophale) SiO2 
 PCOD9229056
Probable space group: P 2/C
;
_chemical_formula_sum "Si O2"
_cell_formula_units_Z 28
_cell_length_a 15.695494
_cell_length_b 9.284186
_cell_length_c 20.663777
_cell_angle_alpha 90.000000
_cell_angle_beta 154.638734
_cell_angle_gamma 90.000000
_cell_volume 1289.737392
_symmetry_space_group_name_H-M "P 2/C"
_symmetry_group_IT_number 13
_symmetry_cell_setting 'monoclinic'
loop_
_space_group_symop_operation_xyz
x,y,z
-x,y,1/2-z
-x,-y,-z
x,-y,1/2+z
loop_
_atom_site_type_symbol
_atom_site_label
_atom_site_fract_x
_atom_site_fract_y
_atom_site_fract_z
Si Si1 0.408425 0.397618 0.068383
Si Si2 0.411921 0.678189 0.258024
Si Si3 0.963274 0.670985 0.974521
Si Si4 0.018377 0.661544 0.369212
Si Si5 0.721531 0.402947 0.189145
Si Si6 0.381347 0.819545 0.977546
Si Si7 0.289054 0.139005 0.909443
O O1 0.550268 0.503821 0.207937
O O2 0.496914 0.438943 0.058610
O O3 0.379490 0.226040 0.033282
O O4 0.190305 0.422723 0.948344
O O5 0.500000 0.719320 0.250000
O O6 0.183021 0.725057 0.107407
O O7 0.529797 0.754628 0.396435
O O8 0.906081 0.715516 0.008368
O O9 0.000000 0.500000 0.000000
O O10 0.806740 0.689901 0.809302
O O11 0.847573 0.546593 0.268722
O O12 0.911181 0.784325 0.253708
O O13 0.747619 0.302930 0.145441
O O14 0.273177 0.970910 0.913104
O O15 0.557689 0.844950 0.045821
#
# Coordination Sequence:
#
# PCOD9229056 Si02
#       7
#     4   4   4   4   4   4   4
#     4  11  22  36  65  96 126 167 217 263 325 383
#     4  12  22  39  67  98 129 167 215 267 327 388
#     4  10  19  37  59  93 132 165 205 268 324 372
#     4  11  20  37  63  95 134 164 213 272 324 379
#     4  10  21  40  66  97 129 167 218 268 324 389
#     4  10  22  42  68  87 127 175 213 264 322 386
#     4  10  21  41  64  92 125 169 218 262 322 386
#
# _framework density 21.709847
#
# number of rings (size 3 to 8) (size 9 to 14) (size 15 to 20)
#    0.000    1.429    4.286    3.000    0.000    2.286 
#    0.000    9.286    3.143    0.000    0.000    0.000 
#    0.000    0.000    0.000    0.000    0.000    0.000 
#
# Total GULP energy -156005.512666 kJ/mol
# GULP energy per Si atom -5571.625452 kJ/mol
# Density = 2.166043 g / cm^3
# Si number density = 21.709847 Si / 1000 Ang^3
#
#
#
# Elastic Constant Matrix: (Units=GPa)
#
#
# Indices 1 2 3 4 5 6 
#
# 1 97.8095 15.1850 28.9744 0.0000 -2.1048 0.0000
# 2 15.1850 78.5485 19.3512 0.0000 -10.8995 0.0000
# 3 28.9744 19.3512 84.1607 0.0000 -9.3833 0.0000
# 4 0.0000 0.0000 0.0000 16.6115 0.0000 0.9189
# 5 -2.1048 -10.8995 -9.3833 0.0000 48.0736 0.0000
# 6 0.0000 0.0000 0.0000 0.9189 0.0000 19.3188
#
#
#
# Elastic Compliance Matrix: (Units=1/GPa)
#
#
# Indices 1 2 3 4 5 6 
#
# 1 0.011527 -0.001389 -0.003709 0.000000 -0.000534 0.000000
# 2 -0.001389 0.013965 -0.002440 0.000000 0.002629 0.000000
# 3 -0.003709 -0.002440 0.013943 0.000000 0.002006 0.000000
# 4 0.000000 0.000000 0.000000 0.060358 0.000000 -0.002871
# 5 -0.000534 0.002629 0.002006 0.000000 0.021766 0.000000
# 6 0.000000 0.000000 0.000000 -0.002871 0.000000 0.051900
#
#
# Mechanical properties :
#
#
# Convention : Reuss Voigt Hill
#
# Bulk Modulus (GPa) = 41.04893 43.05998 42.05445
# Shear Modulus (GPa) = 25.42542 29.93466 27.68004
#
# Velocity S-wave (km/s) = 3.42592 3.71732 3.57459
# Velocity P-wave (km/s) = 5.88202 6.18886 6.03739
#
# Compressibility (1/GPa) = 0.02436117
#
# Stress axis : x y z
#
# Youngs Moduli (GPa) = 86.75529 71.60559 71.71839
#
# Poissons Ratio (x) = 0.09945 0.26597
# Poissons Ratio (y) = 0.12049 0.17498
# Poissons Ratio (z) = 0.32174 0.17470
#
# Static dielectric constant tensor:
#      x y z
#    x 1.859650 0.000000 -0.012270 
#    y 0.000000 1.789710 0.000000 
#    z -0.012270 0.000000 1.891890 
# 
# From -- ./inp_files/80000.got.cif
#   From: 2010.05.17/outbox.cif.g08.bks.cpg/sg13_40_cif.got.tgz:80000.got - 2010.06.03 16:44:36.
