data_PCOD9229386
_publ_section_title
;
Structure prediction by ZEFSAII (Michael W. Deem and Ramdas Pophale) SiO2 
 PCOD9229386
Probable space group: P 2/C
;
_chemical_formula_sum "Si O2"
_cell_formula_units_Z 30
_cell_length_a 13.745257
_cell_length_b 17.745497
_cell_length_c 10.657539
_cell_angle_alpha 90.000000
_cell_angle_beta 33.494897
_cell_angle_gamma 90.000000
_cell_volume 1434.594014
_symmetry_space_group_name_H-M "P 2/C"
_symmetry_group_IT_number 13
_symmetry_cell_setting 'monoclinic'
loop_
_space_group_symop_operation_xyz
x,y,z
-x,y,1/2-z
-x,-y,-z
x,-y,1/2+z
loop_
_atom_site_type_symbol
_atom_site_label
_atom_site_fract_x
_atom_site_fract_y
_atom_site_fract_z
Si Si1 0.803153 0.787148 0.938381
Si Si2 0.500000 0.444162 0.750000
Si Si3 0.867009 0.475189 0.288411
Si Si4 0.734093 0.752615 0.720863
Si Si5 0.382398 0.677675 0.175679
Si Si6 0.009689 0.366136 0.950791
Si Si7 0.635874 0.071618 0.721618
Si Si8 0.403742 0.902707 0.719670
O O1 0.762969 0.777478 0.835201
O O2 0.000000 0.758412 0.750000
O O3 0.666945 0.739082 0.166200
O O4 0.784757 0.870835 0.015783
O O5 0.670172 0.492215 0.538121
O O6 0.554374 0.394132 0.811731
O O7 0.000000 0.448261 0.250000
O O8 0.867303 0.400758 0.202243
O O9 0.945888 0.554484 0.161333
O O10 0.718254 0.830015 0.662501
O O11 0.897758 0.699479 0.506441
O O12 0.546253 0.708686 0.918398
O O13 0.197794 0.661702 0.302467
O O14 0.500000 0.073160 0.750000
O O15 0.688426 0.984705 0.686053
O O16 0.538671 0.097633 0.954872
O O17 0.500000 0.898527 0.750000
#
# Coordination Sequence:
#
# PCOD9229386 Si02
#       8
#     4   2   4   4   4   4   4   4
#     4  12  21  35  67 102 130 165 231 300 334 384
#     4  12  22  36  68  94 124 166 222 280 344 402
#     4  11  24  43  63  91 131 169 216 277 344 413
#     4  12  22  41  67  98 131 176 224 286 340 403
#     4  12  21  36  64  99 127 160 222 289 334 394
#     4  11  25  41  64  95 129 170 217 280 346 404
#     4  10  19  39  68  99 129 178 236 278 326 401
#     4  10  22  39  67  97 141 181 219 277 347 411
#
# _framework density 20.911840999999999
#
# number of rings (size 3 to 8) (size 9 to 14) (size 15 to 20)
#    0.000    0.800    8.000    0.000    0.000    1.600 
#    2.400    0.667    5.867    0.000    0.000    0.000 
#    0.000    0.000    0.000    0.000    0.000    0.000 
#
# Total GULP energy -167381.710880 kJ/mol
# GULP energy per Si atom -5579.390363 kJ/mol
# Density = 2.086424 g / cm^3
# Si number density = 20.911841 Si / 1000 Ang^3
#
#
#
# Elastic Constant Matrix: (Units=GPa)
#
#
# Indices 1 2 3 4 5 6 
#
# 1 49.9672 22.1820 27.3614 0.0000 -5.5023 0.0000
# 2 22.1820 112.0965 20.4367 0.0000 -3.5686 0.0000
# 3 27.3614 20.4367 71.3833 0.0000 -25.3819 0.0000
# 4 0.0000 0.0000 0.0000 -16.4964 0.0000 -44.5311
# 5 -5.5023 -3.5686 -25.3819 0.0000 28.2176 0.0000
# 6 0.0000 0.0000 0.0000 -44.5311 0.0000 -9.2114
#
#
#
# Elastic Compliance Matrix: (Units=1/GPa)
#
#
# Indices 1 2 3 4 5 6 
#
# 1 0.027164 -0.003484 -0.011303 0.000000 -0.005311 0.000000
# 2 -0.003484 0.009922 -0.001912 0.000000 -0.001145 0.000000
# 3 -0.011303 -0.001912 0.026493 0.000000 0.021384 0.000000
# 4 0.000000 0.000000 0.000000 0.005031 0.000000 -0.024320
# 5 -0.005311 -0.001145 0.021384 0.000000 0.053494 0.000000
# 6 0.000000 0.000000 0.000000 -0.024320 0.000000 0.009009
#
#
# Mechanical properties :
#
#
# Convention : Reuss Voigt Hill
#
# Bulk Modulus (GPa) = 33.13380 41.48966 37.31173
# Shear Modulus (GPa) = 28.64144 11.39975 20.02059
#
# Velocity S-wave (km/s) = 3.70486 2.33734 3.09751
# Velocity P-wave (km/s) = 5.84639 5.21225 5.53840
#
# Compressibility (1/GPa) = 0.03018066
#
# Stress axis : x y z
#
# Youngs Moduli (GPa) = 36.81303 100.78128 37.74628
#
# Poissons Ratio (x) = 0.35109 0.42665
# Poissons Ratio (y) = 0.12825 0.07219
# Poissons Ratio (z) = 0.41611 0.19274
#
# Static dielectric constant tensor:
#      x y z
#    x 1.776980 0.000000 0.066570 
#    y 0.000000 1.763330 0.000000 
#    z 0.066570 0.000000 1.784440 
# 
# From -- ./inp_files/37650.got.cif
#   From: 2010.05.17/outbox.cif.g08.bks.cpg/sg13_19_cif.got.tgz:37650.got - 2010.06.03 16:44:36.
