data_PCOD9229953
_publ_section_title
;
Structure prediction by ZEFSAII (Michael W. Deem and Ramdas Pophale) SiO2 
 PCOD9229953
Probable space group: P 2/C
;
_chemical_formula_sum "Si O2"
_cell_formula_units_Z 20
_cell_length_a 8.130638
_cell_length_b 5.077939
_cell_length_c 28.483232
_cell_angle_alpha 90.000000
_cell_angle_beta 128.614169
_cell_angle_gamma 90.000000
_cell_volume 918.874023
_symmetry_space_group_name_H-M "P 2/C"
_symmetry_group_IT_number 13
_symmetry_cell_setting 'monoclinic'
loop_
_space_group_symop_operation_xyz
x,y,z
-x,y,1/2-z
-x,-y,-z
x,-y,1/2+z
loop_
_atom_site_type_symbol
_atom_site_label
_atom_site_fract_x
_atom_site_fract_y
_atom_site_fract_z
Si Si1 0.243150 0.265170 0.534101
Si Si2 0.261697 0.445705 0.439956
Si Si3 0.900946 0.807564 0.391659
Si Si4 0.618920 0.298838 0.320205
Si Si5 0.518936 0.228096 0.104281
O O1 0.168042 0.278718 0.467029
O O2 0.089238 0.198320 0.549580
O O3 0.339124 0.552334 0.562313
O O4 0.428444 0.051699 0.572059
O O5 0.500000 0.500000 0.500000
O O6 0.287634 0.307056 0.394504
O O7 0.123321 0.707597 0.411952
O O8 0.733601 0.577634 0.348294
O O9 0.796516 0.072947 0.354627
O O10 0.500000 0.292946 0.250000
O O11 0.462609 0.239245 0.336290
#
# Coordination Sequence:
#
# PCOD9229953 Si02
#       5
#     4   4   4   4   4
#     4   9  18  33  52  80 113 147 178 219 274 340
#     4  10  20  35  55  84 121 149 173 225 287 348
#     4  10  21  35  58  86 109 144 194 228 280 352
#     4  10  21  40  60  78 106 148 197 248 281 320
#     4   9  19  33  54  80 108 144 187 224 275 336
#
# _framework density 21.76577
#
# number of rings (size 3 to 8) (size 9 to 14) (size 15 to 20)
#    0.000    2.400    0.000    1.800    0.000    6.400 
#    0.000   13.000    0.000    2.400    0.000    0.000 
#    0.000    0.000    0.000    0.000    0.000    0.000 
#
# Total GULP energy -111787.518926 kJ/mol
# GULP energy per Si atom -5589.375946 kJ/mol
# Density = 2.171623 g / cm^3
# Si number density = 21.765770 Si / 1000 Ang^3
#
#
#
# Elastic Constant Matrix: (Units=GPa)
#
#
# Indices 1 2 3 4 5 6 
#
# 1 109.7942 13.3327 58.6803 0.0000 -17.8295 0.0000
# 2 13.3327 77.2195 41.9719 0.0000 -4.0016 0.0000
# 3 58.6803 41.9719 151.6484 0.0000 -32.9180 0.0000
# 4 0.0000 0.0000 0.0000 24.0655 0.0000 -1.3044
# 5 -17.8295 -4.0016 -32.9180 0.0000 29.6650 0.0000
# 6 0.0000 0.0000 0.0000 -1.3044 0.0000 39.3939
#
#
#
# Elastic Compliance Matrix: (Units=1/GPa)
#
#
# Indices 1 2 3 4 5 6 
#
# 1 0.011643 0.000317 -0.004037 0.000000 0.002561 0.000000
# 2 0.000317 0.015526 -0.005169 0.000000 -0.003451 0.000000
# 3 -0.004037 -0.005169 0.011736 0.000000 0.009899 0.000000
# 4 0.000000 0.000000 0.000000 0.041628 0.000000 0.001378
# 5 0.002561 -0.003451 0.009899 0.000000 0.045768 0.000000
# 6 0.000000 0.000000 0.000000 0.001378 0.000000 0.025430
#
#
# Mechanical properties :
#
#
# Convention : Reuss Voigt Hill
#
# Bulk Modulus (GPa) = 47.33413 62.95913 55.14663
# Shear Modulus (GPa) = 28.32043 33.60336 30.96190
#
# Velocity S-wave (km/s) = 3.61105 3.93346 3.77570
# Velocity P-wave (km/s) = 6.25944 7.04401 6.66328
#
# Compressibility (1/GPa) = 0.02112641
#
# Stress axis : x y z
#
# Youngs Moduli (GPa) = 85.88890 64.40799 85.21043
#
# Poissons Ratio (x) = -0.02040 0.34400
# Poissons Ratio (y) = -0.02720 0.44043
# Poissons Ratio (z) = 0.34674 0.33291
#
# Static dielectric constant tensor:
#      x y z
#    x 1.880020 0.000000 -0.035870 
#    y 0.000000 1.841210 0.000000 
#    z -0.035870 0.000000 1.750200 
# 
# From -- ./inp_files/74228.got.cif
#   From: 2010.05.17/outbox.cif.g08.bks.cpg/sg13_38_cif.got.tgz:74228.got - 2010.06.03 16:44:36.
