data_PCOD9229137
_publ_section_title
;
Structure prediction by ZEFSAII (Michael W. Deem and Ramdas Pophale) SiO2 
 PCOD9229137
Probable space group: P 2/C
;
_chemical_formula_sum "Si O2"
_cell_formula_units_Z 30
_cell_length_a 14.372805
_cell_length_b 8.563296
_cell_length_c 21.291288
_cell_angle_alpha 90.000000
_cell_angle_beta 32.285710
_cell_angle_gamma 90.000000
_cell_volume 1399.718686
_symmetry_space_group_name_H-M "P 2/C"
_symmetry_group_IT_number 13
_symmetry_cell_setting 'monoclinic'
loop_
_space_group_symop_operation_xyz
x,y,z
-x,y,1/2-z
-x,-y,-z
x,-y,1/2+z
loop_
_atom_site_type_symbol
_atom_site_label
_atom_site_fract_x
_atom_site_fract_y
_atom_site_fract_z
Si Si1 0.996956 0.653574 0.883545
Si Si2 0.000000 0.473588 0.750000
Si Si3 0.101493 0.345344 0.512159
Si Si4 0.619662 0.345615 0.930972
Si Si5 0.788899 0.848360 0.233344
Si Si6 0.357926 0.807850 0.959497
Si Si7 0.721602 0.174838 0.205437
Si Si8 0.070056 0.049855 0.143251
O O1 0.984267 0.572161 0.823048
O O2 0.190058 0.707632 0.793773
O O3 0.914318 0.533104 0.980435
O O4 0.908585 0.819789 0.922449
O O5 0.179629 0.382423 0.662769
O O6 0.216673 0.304725 0.507746
O O7 0.186276 0.240638 0.409380
O O8 0.906224 0.282456 0.633227
O O9 0.636583 0.242638 0.857890
O O10 0.500000 0.500000 0.000000
O O11 0.552904 0.244959 0.027044
O O12 0.751899 0.994044 0.208298
O O13 0.918669 0.929207 0.209638
O O14 0.514885 0.815522 0.821241
O O15 0.251163 0.960268 0.039964
O O16 0.000000 0.111644 0.250000
#
# Coordination Sequence:
#
# PCOD9229137 Si02
#       8
#     4   2   4   4   4   4   4   4
#     4  11  22  38  67  98 127 175 229 284 346 417
#     4  12  20  40  62  96 134 170 214 280 362 406
#     4  11  22  44  68  86 130 183 228 274 342 420
#     4  12  23  38  66 101 138 174 227 294 355 411
#     4  10  22  40  65  92 124 177 223 274 343 413
#     4  11  23  40  65  92 132 177 223 282 354 410
#     4  11  25  42  61  98 130 175 230 284 339 411
#     4  10  19  37  63  94 132 173 218 274 348 427
#
# _framework density 21.432877999999999
#
# number of rings (size 3 to 8) (size 9 to 14) (size 15 to 20)
#    0.000    1.067    4.667    2.800    0.000    1.600 
#    0.000    0.000    0.000    4.800    0.000    0.000 
#    0.000    0.000    0.000    0.000    0.000    0.000 
#
# Total GULP energy -167172.399615 kJ/mol
# GULP energy per Si atom -5572.413321 kJ/mol
# Density = 2.138410 g / cm^3
# Si number density = 21.432878 Si / 1000 Ang^3
#
#
#
# Elastic Constant Matrix: (Units=GPa)
#
#
# Indices 1 2 3 4 5 6 
#
# 1 55.8107 39.5244 26.9591 0.0000 9.1734 0.0000
# 2 39.5244 129.1603 54.4054 0.0000 7.4367 0.0000
# 3 26.9591 54.4054 96.0643 0.0000 14.2421 0.0000
# 4 0.0000 0.0000 0.0000 18.2968 0.0000 19.3493
# 5 9.1734 7.4367 14.2421 0.0000 29.6549 0.0000
# 6 0.0000 0.0000 0.0000 19.3493 0.0000 26.8861
#
#
#
# Elastic Compliance Matrix: (Units=1/GPa)
#
#
# Indices 1 2 3 4 5 6 
#
# 1 0.024254 -0.006012 -0.002706 0.000000 -0.004696 0.000000
# 2 -0.006012 0.011660 -0.005123 0.000000 0.001396 0.000000
# 3 -0.002706 -0.005123 0.014810 0.000000 -0.004991 0.000000
# 4 0.000000 0.000000 0.000000 0.228752 0.000000 -0.164627
# 5 -0.004696 0.001396 -0.004991 0.000000 0.037221 0.000000
# 6 0.000000 0.000000 0.000000 -0.164627 0.000000 0.155672
#
#
# Mechanical properties :
#
#
# Convention : Reuss Voigt Hill
#
# Bulk Modulus (GPa) = 43.39773 58.09032 50.74403
# Shear Modulus (GPa) = 9.84773 25.64400 17.74586
#
# Velocity S-wave (km/s) = 2.14585 3.46277 2.88058
# Velocity P-wave (km/s) = 5.14118 6.56886 5.89837
#
# Compressibility (1/GPa) = 0.02304268
#
# Stress axis : x y z
#
# Youngs Moduli (GPa) = 41.23029 85.76582 67.52001
#
# Poissons Ratio (x) = 0.51562 0.18268
# Poissons Ratio (y) = 0.24788 0.34592
# Poissons Ratio (z) = 0.11155 0.43940
#
# Static dielectric constant tensor:
#      x y z
#    x 1.840360 0.000000 0.019790 
#    y 0.000000 1.828610 0.000000 
#    z 0.019790 0.000000 1.829620 
# 
# From -- ./inp_files/87274.got.cif
#   From: 2010.05.17/outbox.cif.g08.bks.cpg/sg13_44_cif.got.tgz:87274.got - 2010.06.03 16:44:36.
