data_PCOD9229845
_publ_section_title
;
Structure prediction by ZEFSAII (Michael W. Deem and Ramdas Pophale) SiO2 
 PCOD9229845
Probable space group: P 2/C
;
_chemical_formula_sum "Si O2"
_cell_formula_units_Z 24
_cell_length_a 5.490971
_cell_length_b 16.101400
_cell_length_c 14.910623
_cell_angle_alpha 90.000000
_cell_angle_beta 63.999124
_cell_angle_gamma 90.000000
_cell_volume 1184.855877
_symmetry_space_group_name_H-M "P 2/C"
_symmetry_group_IT_number 13
_symmetry_cell_setting 'monoclinic'
loop_
_space_group_symop_operation_xyz
x,y,z
-x,y,1/2-z
-x,-y,-z
x,-y,1/2+z
loop_
_atom_site_type_symbol
_atom_site_label
_atom_site_fract_x
_atom_site_fract_y
_atom_site_fract_z
Si Si1 0.487871 0.726189 0.422821
Si Si2 0.500000 0.539960 0.750000
Si Si3 0.849987 0.599991 0.124008
Si Si4 0.259957 0.898863 0.461379
Si Si5 0.000000 0.271508 0.750000
Si Si6 0.410212 0.414862 0.459497
Si Si7 0.124147 0.971740 0.130488
O O1 0.405006 0.646817 0.376471
O O2 0.274697 0.799450 0.468132
O O3 0.529987 0.675352 0.507265
O O4 0.728429 0.771348 0.327095
O O5 0.243019 0.480475 0.808523
O O6 0.473111 0.583893 0.659174
O O7 0.959032 0.668019 0.173753
O O8 0.083309 0.582649 0.015086
O O9 0.567070 0.936982 0.408689
O O10 0.074586 0.918148 0.403550
O O11 0.139975 0.943046 0.569664
O O12 0.500000 0.500000 0.500000
O O13 0.000000 0.979620 0.250000
#
# Coordination Sequence:
#
# PCOD9229845 Si02
#       7
#     4   2   4   4   2   4   4
#     4  11  23  39  60  94 127 165 211 275 320 385
#     4  12  20  40  60  80 120 174 214 260 328 380
#     4  11  21  39  58  86 120 161 215 270 321 374
#     4  10  24  41  68 100 135 167 220 270 323 404
#     4  10  20  34  58  88 124 156 206 266 334 364
#     4  11  24  40  59  87 125 168 216 272 321 383
#     4  10  22  44  68  98 132 177 210 263 337 400
#
# _framework density 20.255627
#
# number of rings (size 3 to 8) (size 9 to 14) (size 15 to 20)
#    0.000    1.333    3.333    2.000    5.833    1.333 
#    0.000    1.667    0.000    0.000    0.000    0.000 
#    0.000    0.000    0.000    0.000    0.000    0.000 
#
# Total GULP energy -133611.832562 kJ/mol
# GULP energy per Si atom -5567.159690 kJ/mol
# Density = 2.020952 g / cm^3
# Si number density = 20.255627 Si / 1000 Ang^3
#
#
#
# Elastic Constant Matrix: (Units=GPa)
#
#
# Indices 1 2 3 4 5 6 
#
# 1 66.1693 11.8725 34.7985 0.0000 2.1197 0.0000
# 2 11.8725 92.8526 55.0799 0.0000 1.3166 0.0000
# 3 34.7985 55.0799 166.6921 0.0000 12.5518 0.0000
# 4 0.0000 0.0000 0.0000 23.3051 0.0000 -11.0640
# 5 2.1197 1.3166 12.5518 0.0000 28.2169 0.0000
# 6 0.0000 0.0000 0.0000 -11.0640 0.0000 32.5572
#
#
#
# Elastic Compliance Matrix: (Units=1/GPa)
#
#
# Indices 1 2 3 4 5 6 
#
# 1 0.016980 -0.000074 -0.003543 0.000000 0.000304 0.000000
# 2 -0.000074 0.013449 -0.004533 0.000000 0.001395 0.000000
# 3 -0.003543 -0.004533 0.008485 0.000000 -0.003297 0.000000
# 4 0.000000 0.000000 0.000000 0.051164 0.000000 0.017387
# 5 0.000304 0.001395 -0.003297 0.000000 0.036818 0.000000
# 6 0.000000 0.000000 0.000000 0.017387 0.000000 0.036624
#
#
# Mechanical properties :
#
#
# Convention : Reuss Voigt Hill
#
# Bulk Modulus (GPa) = 44.22295 58.80176 51.51236
# Shear Modulus (GPa) = 26.68701 31.74670 29.21685
#
# Velocity S-wave (km/s) = 3.63369 3.96321 3.80202
# Velocity P-wave (km/s) = 6.28369 7.07358 6.69031
#
# Compressibility (1/GPa) = 0.02261269
#
# Stress axis : x y z
#
# Youngs Moduli (GPa) = 58.89425 74.35698 117.85500
#
# Poissons Ratio (x) = 0.00547 0.41759
# Poissons Ratio (y) = 0.00433 0.53429
# Poissons Ratio (z) = 0.20868 0.33710
#
# Static dielectric constant tensor:
#      x y z
#    x 1.854220 0.000000 -0.018870 
#    y 0.000000 1.730340 0.000000 
#    z -0.018870 0.000000 1.752400 
# 
# From -- ./inp_files/43925.got.cif
#   From: 2010.05.17/outbox.cif.g08.bks.cpg/sg13_22_cif.got.tgz:43925.got - 2010.06.03 16:44:36.
