data_PCOD9229172
_publ_section_title
;
Structure prediction by ZEFSAII (Michael W. Deem and Ramdas Pophale) SiO2 
 PCOD9229172
Probable space group: P 2/C
;
_chemical_formula_sum "Si O2"
_cell_formula_units_Z 32
_cell_length_a 14.926750
_cell_length_b 8.076667
_cell_length_c 19.118621
_cell_angle_alpha 90.000000
_cell_angle_beta 145.124421
_cell_angle_gamma 90.000000
_cell_volume 1317.938982
_symmetry_space_group_name_H-M "P 2/C"
_symmetry_group_IT_number 13
_symmetry_cell_setting 'monoclinic'
loop_
_space_group_symop_operation_xyz
x,y,z
-x,y,1/2-z
-x,-y,-z
x,-y,1/2+z
loop_
_atom_site_type_symbol
_atom_site_label
_atom_site_fract_x
_atom_site_fract_y
_atom_site_fract_z
Si Si1 0.860047 0.240084 0.878359
Si Si2 0.443892 0.653106 0.874125
Si Si3 0.666566 0.499956 0.834926
Si Si4 0.919404 0.769286 0.624100
Si Si5 0.069846 0.589201 0.214916
Si Si6 0.670918 0.624657 0.553064
Si Si7 0.744678 0.746899 0.005605
Si Si8 0.842701 0.972393 0.959571
O O1 0.799555 0.376653 0.893716
O O2 0.839458 0.325491 0.790563
O O3 0.776673 0.072692 0.851511
O O4 0.039131 0.171947 0.990571
O O5 0.359812 0.631404 0.745621
O O6 0.347946 0.701980 0.881602
O O7 0.601700 0.760417 0.967484
O O8 0.510498 0.466287 0.931078
O O9 0.500000 0.419528 0.750000
O O10 0.711500 0.590825 0.934550
O O11 0.742047 0.737685 0.538023
O O12 0.932285 0.896537 0.568637
O O13 0.000000 0.821496 0.750000
O O14 0.993199 0.591223 0.650347
O O15 0.199906 0.522567 0.352929
O O16 0.929743 0.721628 0.140848
O O17 0.724518 0.895735 0.938253
#
# Coordination Sequence:
#
# PCOD9229172 Si02
#       8
#     4   4   4   4   4   4   4   4
#     4  10  21  39  61  94 116 158 199 263 300 364
#     4  10  20  38  61  92 120 154 207 259 293 361
#     4  10  21  38  65  91 116 157 210 253 307 350
#     4  10  21  39  59  91 122 162 196 254 309 363
#     4  10  19  37  65  94 111 153 212 258 303 339
#     4  10  20  37  63  91 121 153 209 261 292 358
#     4  10  21  38  62  91 124 157 199 262 306 367
#     4  10  23  39  58  89 134 156 197 248 325 367
#
# _framework density 24.280335999999998
#
# number of rings (size 3 to 8) (size 9 to 14) (size 15 to 20)
#    0.000    2.000    2.500    0.750    1.750    5.500 
#    4.500    2.500    0.000    0.000    0.000    0.000 
#    0.000    0.000    0.000    0.000    0.000    0.000 
#
# Total GULP energy -178229.216216 kJ/mol
# GULP energy per Si atom -5569.663007 kJ/mol
# Density = 2.422507 g / cm^3
# Si number density = 24.280336 Si / 1000 Ang^3
#
#
#
# Elastic Constant Matrix: (Units=GPa)
#
#
# Indices 1 2 3 4 5 6 
#
# 1 140.0386 30.7158 13.5191 0.0000 -3.9897 0.0000
# 2 30.7158 49.7695 4.3092 0.0000 4.5114 0.0000
# 3 13.5191 4.3092 73.3976 0.0000 -8.0413 0.0000
# 4 0.0000 0.0000 0.0000 1.8722 0.0000 -8.6564
# 5 -3.9897 4.5114 -8.0413 0.0000 26.0512 0.0000
# 6 0.0000 0.0000 0.0000 -8.6564 0.0000 48.1272
#
#
#
# Elastic Compliance Matrix: (Units=1/GPa)
#
#
# Indices 1 2 3 4 5 6 
#
# 1 0.008458 -0.005302 -0.001039 0.000000 0.001893 0.000000
# 2 -0.005302 0.023929 -0.001005 0.000000 -0.005266 0.000000
# 3 -0.001039 -0.001005 0.014362 0.000000 0.004448 0.000000
# 4 0.000000 0.000000 0.000000 3.172170 0.000000 0.570562
# 5 0.001893 -0.005266 0.004448 0.000000 0.040961 0.000000
# 6 0.000000 0.000000 0.000000 0.570562 0.000000 0.123402
#
#
# Mechanical properties :
#
#
# Convention : Reuss Voigt Hill
#
# Bulk Modulus (GPa) = 31.19458 40.03266 35.61362
# Shear Modulus (GPa) = 1.46685 29.52091 15.49388
#
# Velocity S-wave (km/s) = 0.77810 3.49067 2.52885
# Velocity P-wave (km/s) = 3.69903 5.72449 4.81937
#
# Compressibility (1/GPa) = 0.03205685
#
# Stress axis : x y z
#
# Youngs Moduli (GPa) = 118.23184 41.79046 69.62721
#
# Poissons Ratio (x) = 0.22155 0.07236
# Poissons Ratio (y) = 0.62681 0.07000
# Poissons Ratio (z) = 0.12287 0.04201
#
# Static dielectric constant tensor:
#      x y z
#    x 2.009110 0.000000 -0.029280 
#    y 0.000000 2.013890 0.000000 
#    z -0.029280 0.000000 2.053620 
# 
# From -- ./inp_files/79844.got.cif
#   From: 2010.05.17/outbox.cif.g08.bks.cpg/sg13_40_cif.got.tgz:79844.got - 2010.06.03 16:44:36.
