data_PCOD9229374
_publ_section_title
;
Structure prediction by ZEFSAII (Michael W. Deem and Ramdas Pophale) SiO2 
 PCOD9229374
Probable space group: P 2/C
;
_chemical_formula_sum "Si O2"
_cell_formula_units_Z 22
_cell_length_a 10.871752
_cell_length_b 11.480569
_cell_length_c 13.790192
_cell_angle_alpha 90.000000
_cell_angle_beta 33.738822
_cell_angle_gamma 90.000000
_cell_volume 955.972503
_symmetry_space_group_name_H-M "P 2/C"
_symmetry_group_IT_number 13
_symmetry_cell_setting 'monoclinic'
loop_
_space_group_symop_operation_xyz
x,y,z
-x,y,1/2-z
-x,-y,-z
x,-y,1/2+z
loop_
_atom_site_type_symbol
_atom_site_label
_atom_site_fract_x
_atom_site_fract_y
_atom_site_fract_z
Si Si1 0.929172 0.410206 0.682433
Si Si2 0.164890 0.153493 0.735471
Si Si3 0.347042 0.556973 0.770470
Si Si4 0.404722 0.811618 0.659781
Si Si5 0.973889 0.912587 0.883394
Si Si6 0.500000 0.014089 0.750000
O O1 0.868968 0.277787 0.696647
O O2 0.728955 0.491870 0.777265
O O3 0.000000 0.423262 0.750000
O O4 0.132822 0.429723 0.477859
O O5 0.423362 0.156382 0.538260
O O6 0.000000 0.157560 0.750000
O O7 0.077819 0.038760 0.845287
O O8 0.500000 0.493549 0.750000
O O9 0.451492 0.683173 0.672409
O O10 0.451766 0.920518 0.697989
O O11 0.144184 0.815715 0.808250
O O12 0.000000 0.909274 0.750000
O O13 0.718313 0.912131 0.081207
#
# Coordination Sequence:
#
# PCOD9229374 Si02
#       6
#     4   4   4   4   4   2
#     4  10  23  41  67  97 132 170 222 282 329 399
#     4  10  19  39  66  93 129 171 219 268 332 396
#     4  11  23  42  67  95 132 173 226 270 338 407
#     4  12  23  39  66  93 129 174 217 270 323 402
#     4  11  24  42  63  96 131 174 220 269 332 392
#     4  12  22  40  64  92 130 174 218 272 322 392
#
# _framework density 23.013214000000001
#
# number of rings (size 3 to 8) (size 9 to 14) (size 15 to 20)
#    0.000    1.091    4.545    4.364    0.000    3.636 
#    0.000    1.818    4.000    0.000    0.000    0.000 
#    0.000    0.000    0.000    0.000    0.000    0.000 
#
# Total GULP energy -122770.773160 kJ/mol
# GULP energy per Si atom -5580.489689 kJ/mol
# Density = 2.296083 g / cm^3
# Si number density = 23.013214 Si / 1000 Ang^3
#
#
#
# Elastic Constant Matrix: (Units=GPa)
#
#
# Indices 1 2 3 4 5 6 
#
# 1 97.5583 30.4457 24.3815 0.0000 -8.0939 0.0000
# 2 30.4457 39.2723 -5.1093 0.0000 -2.6487 0.0000
# 3 24.3815 -5.1093 99.4488 0.0000 -8.5587 0.0000
# 4 0.0000 0.0000 0.0000 25.0626 0.0000 -6.5095
# 5 -8.0939 -2.6487 -8.5587 0.0000 27.5708 0.0000
# 6 0.0000 0.0000 0.0000 -6.5095 0.0000 7.2971
#
#
#
# Elastic Compliance Matrix: (Units=1/GPa)
#
#
# Indices 1 2 3 4 5 6 
#
# 1 0.015298 -0.012272 -0.004209 0.000000 0.002006 0.000000
# 2 -0.012272 0.035715 0.004961 0.000000 0.001369 0.000000
# 3 -0.004209 0.004961 0.011586 0.000000 0.002838 0.000000
# 4 0.000000 0.000000 0.000000 0.051933 0.000000 0.046327
# 5 0.002006 0.001369 0.002838 0.000000 0.037872 0.000000
# 6 0.000000 0.000000 0.000000 0.046327 0.000000 0.178368
#
#
# Mechanical properties :
#
#
# Convention : Reuss Voigt Hill
#
# Bulk Modulus (GPa) = 25.27745 37.30168 31.28957
# Shear Modulus (GPa) = 13.62407 24.42353 19.02380
#
# Velocity S-wave (km/s) = 2.43577 3.26127 2.87827
# Velocity P-wave (km/s) = 4.34952 5.51590 4.96707
#
# Compressibility (1/GPa) = 0.03956095
#
# Stress axis : x y z
#
# Youngs Moduli (GPa) = 65.36669 27.99951 86.30857
#
# Poissons Ratio (x) = 0.34361 0.36323
# Poissons Ratio (y) = 0.80219 -0.42821
# Poissons Ratio (z) = 0.27510 -0.13892
#
# Static dielectric constant tensor:
#      x y z
#    x 2.006920 0.000000 0.009390 
#    y 0.000000 1.840300 0.000000 
#    z 0.009390 0.000000 1.722760 
# 
# From -- ./inp_files/51122.got.cif
#   From: 2010.05.17/outbox.cif.g08.bks.cpg/sg13_26_cif.got.tgz:51122.got - 2010.06.03 16:44:36.
