data_PCOD9229424
_publ_section_title
;
Structure prediction by ZEFSAII (Michael W. Deem and Ramdas Pophale) SiO2 
 PCOD9229424
Probable space group: P 2/C
;
_chemical_formula_sum "Si O2"
_cell_formula_units_Z 22
_cell_length_a 8.587303
_cell_length_b 12.579861
_cell_length_c 11.093887
_cell_angle_alpha 90.000000
_cell_angle_beta 126.983584
_cell_angle_gamma 90.000000
_cell_volume 957.323504
_symmetry_space_group_name_H-M "P 2/C"
_symmetry_group_IT_number 13
_symmetry_cell_setting 'monoclinic'
loop_
_space_group_symop_operation_xyz
x,y,z
-x,y,1/2-z
-x,-y,-z
x,-y,1/2+z
loop_
_atom_site_type_symbol
_atom_site_label
_atom_site_fract_x
_atom_site_fract_y
_atom_site_fract_z
Si Si1 0.345937 0.559256 0.567859
Si Si2 0.291698 0.215926 0.083737
Si Si3 0.500000 0.812231 0.250000
Si Si4 0.764481 0.916703 0.173468
Si Si5 0.647700 0.656068 0.523793
Si Si6 0.195096 0.147422 0.270279
O O1 0.500000 0.538658 0.750000
O O2 0.219770 0.662523 0.543639
O O3 0.462211 0.606108 0.506461
O O4 0.248988 0.448839 0.482774
O O5 0.500000 0.215210 0.250000
O O6 0.162893 0.144970 0.112157
O O7 0.316379 0.160875 0.967623
O O8 0.669054 0.875898 0.255328
O O9 0.598842 0.734995 0.393209
O O10 0.000000 0.911087 0.250000
O O11 0.698354 0.039978 0.138435
O O12 0.739579 0.733665 0.665102
O O13 0.000000 0.137444 0.250000
#
# Coordination Sequence:
#
# PCOD9229424 Si02
#       6
#     4   4   2   4   4   4
#     4  10  19  40  65  94 131 166 225 287 329 396
#     4  11  22  45  69  96 133 177 225 276 337 406
#     4  12  24  40  70 104 128 180 232 272 338 416
#     4  11  28  45  66 102 144 179 223 288 340 399
#     4  11  22  38  67  97 127 174 228 273 335 412
#     4  11  26  43  65  95 137 176 219 277 343 401
#
# _framework density 22.980737000000001
#
# number of rings (size 3 to 8) (size 9 to 14) (size 15 to 20)
#    0.000    1.091    6.364    0.000    6.364    2.909 
#    0.000    1.818    0.000    0.000    0.000    0.000 
#    0.000    0.000    0.000    0.000    0.000    0.000 
#
# Total GULP energy -122551.036235 kJ/mol
# GULP energy per Si atom -5570.501647 kJ/mol
# Density = 2.292843 g / cm^3
# Si number density = 22.980737 Si / 1000 Ang^3
#
#
#
# Elastic Constant Matrix: (Units=GPa)
#
#
# Indices 1 2 3 4 5 6 
#
# 1 105.9825 41.6673 31.3086 0.0000 -31.0048 0.0000
# 2 41.6673 199.7381 39.1153 0.0000 -8.6676 0.0000
# 3 31.3086 39.1153 57.4789 0.0000 -30.3938 0.0000
# 4 0.0000 0.0000 0.0000 6.6536 0.0000 -18.0598
# 5 -31.0048 -8.6676 -30.3938 0.0000 34.6497 0.0000
# 6 0.0000 0.0000 0.0000 -18.0598 0.0000 25.3120
#
#
#
# Elastic Compliance Matrix: (Units=1/GPa)
#
#
# Indices 1 2 3 4 5 6 
#
# 1 0.013821 -0.002483 0.000695 0.000000 0.012356 0.000000
# 2 -0.002483 0.006494 -0.006309 0.000000 -0.006132 0.000000
# 3 0.000695 -0.006309 0.038807 0.000000 0.033084 0.000000
# 4 0.000000 0.000000 0.000000 -0.160468 0.000000 -0.114491
# 5 0.012356 -0.006132 0.033084 0.000000 0.067403 0.000000
# 6 0.000000 0.000000 0.000000 -0.114491 0.000000 -0.042181
#
#
# Mechanical properties :
#
#
# Convention : Reuss Voigt Hill
#
# Bulk Modulus (GPa) = 23.29507 65.26467 44.27987
# Shear Modulus (GPa) = -109.59949 30.06360 -39.76795
#
# Velocity S-wave (km/s) = -6.91342 3.62084 -4.16443
# Velocity P-wave (km/s) = 7.31905 6.77806 1.95275
#
# Compressibility (1/GPa) = 0.04292754
#
# Stress axis : x y z
#
# Youngs Moduli (GPa) = 72.35333 153.98870 25.76872
#
# Poissons Ratio (x) = 0.38237 -0.01791
# Poissons Ratio (y) = 0.17966 0.16257
# Poissons Ratio (z) = -0.05028 0.97151
#
# Static dielectric constant tensor:
#      x y z
#    x 1.999990 0.000000 0.008270 
#    y 0.000000 1.911280 0.000000 
#    z 0.008270 0.000000 1.912060 
# 
# From -- ./inp_files/29540.got.cif
#   From: 2010.05.17/outbox.cif.g08.bks.cpg/sg13_15_cif.got.tgz:29540.got - 2010.06.03 16:44:36.
