data_PCOD9229867
_publ_section_title
;
Structure prediction by ZEFSAII (Michael W. Deem and Ramdas Pophale) SiO2 
 PCOD9229867
Probable space group: P 2/C
;
_chemical_formula_sum "Si O2"
_cell_formula_units_Z 32
_cell_length_a 9.662330
_cell_length_b 9.833703
_cell_length_c 26.204927
_cell_angle_alpha 90.000000
_cell_angle_beta 33.403238
_cell_angle_gamma 90.000000
_cell_volume 1370.759475
_symmetry_space_group_name_H-M "P 2/C"
_symmetry_group_IT_number 13
_symmetry_cell_setting 'monoclinic'
loop_
_space_group_symop_operation_xyz
x,y,z
-x,y,1/2-z
-x,-y,-z
x,-y,1/2+z
loop_
_atom_site_type_symbol
_atom_site_label
_atom_site_fract_x
_atom_site_fract_y
_atom_site_fract_z
Si Si1 0.901922 0.645680 0.593080
Si Si2 0.475275 0.691343 0.547794
Si Si3 0.979752 0.157863 0.351583
Si Si4 0.244956 0.601611 0.135170
Si Si5 0.581730 0.670333 0.820652
Si Si6 0.221909 0.878246 0.310160
Si Si7 0.383837 0.637692 0.193306
Si Si8 0.906345 0.652059 0.080462
O O1 0.001188 0.750049 0.603491
O O2 0.612306 0.677010 0.666327
O O3 0.970030 0.490449 0.588059
O O4 0.012247 0.656107 0.502713
O O5 0.687992 0.676573 0.438596
O O6 0.298727 0.554963 0.603663
O O7 0.558947 0.688768 0.581494
O O8 0.290589 0.815389 0.590517
O O9 0.198820 0.220636 0.248767
O O10 0.069490 0.008394 0.338842
O O11 0.453183 0.651264 0.112398
O O12 0.000000 0.621479 0.250000
O O13 0.704971 0.520059 0.778158
O O14 0.500000 0.910682 0.250000
O O15 0.242650 0.770115 0.257233
O O16 0.067547 0.793632 0.399511
O O17 0.608678 0.634004 0.163843
#
# Coordination Sequence:
#
# PCOD9229867 Si02
#       8
#     4   4   4   4   4   4   4   4
#     4  10  20  34  60  91 120 157 211 272 322 371
#     4  10  22  38  61  93 126 161 204 257 319 378
#     4  12  22  37  59  87 124 168 213 261 317 379
#     4  10  20  37  64  93 120 157 208 261 315 379
#     4  10  20  37  61  89 122 162 212 266 319 374
#     4  10  21  36  58  88 127 171 215 263 323 387
#     4   9  18  36  59  84 116 158 207 262 317 372
#     4   9  19  35  56  88 123 158 208 269 322 375
#
# _framework density 23.344721
#
# number of rings (size 3 to 8) (size 9 to 14) (size 15 to 20)
#    0.000    2.000    0.000    4.500    0.000    6.500 
#    0.000    2.500    0.000    2.250    0.000    0.000 
#    0.000    0.000    0.000    0.000    0.000    0.000 
#
# Total GULP energy -178327.207953 kJ/mol
# GULP energy per Si atom -5572.725249 kJ/mol
# Density = 2.329159 g / cm^3
# Si number density = 23.344721 Si / 1000 Ang^3
#
#
#
# Elastic Constant Matrix: (Units=GPa)
#
#
# Indices 1 2 3 4 5 6 
#
# 1 82.1381 22.3166 37.6400 0.0000 16.3302 0.0000
# 2 22.3166 141.7275 41.0229 0.0000 9.2566 0.0000
# 3 37.6400 41.0229 122.5723 0.0000 26.7933 0.0000
# 4 0.0000 0.0000 0.0000 -64.6397 0.0000 -42.9047
# 5 16.3302 9.2566 26.7933 0.0000 40.8644 0.0000
# 6 0.0000 0.0000 0.0000 -42.9047 0.0000 14.8801
#
#
#
# Elastic Compliance Matrix: (Units=1/GPa)
#
#
# Indices 1 2 3 4 5 6 
#
# 1 0.014711 -0.001109 -0.003404 0.000000 -0.003396 0.000000
# 2 -0.001109 0.007896 -0.002344 0.000000 0.000191 0.000000
# 3 -0.003404 -0.002344 0.011177 0.000000 -0.005437 0.000000
# 4 0.000000 0.000000 0.000000 -0.005309 0.000000 -0.015309
# 5 -0.003396 0.000191 -0.005437 0.000000 0.029350 0.000000
# 6 0.000000 0.000000 0.000000 -0.015309 0.000000 0.023064
#
#
# Mechanical properties :
#
#
# Convention : Reuss Voigt Hill
#
# Bulk Modulus (GPa) = 49.82681 60.93297 55.37989
# Shear Modulus (GPa) = 49.36196 14.58486 31.97341
#
# Velocity S-wave (km/s) = 4.60334 2.50223 3.70485
# Velocity P-wave (km/s) = 7.04589 5.87420 6.48656
#
# Compressibility (1/GPa) = 0.02006952
#
# Stress axis : x y z
#
# Youngs Moduli (GPa) = 67.97635 126.63947 89.47188
#
# Poissons Ratio (x) = 0.14049 0.30456
# Poissons Ratio (y) = 0.07541 0.20972
# Poissons Ratio (z) = 0.23139 0.29684
#
# Static dielectric constant tensor:
#      x y z
#    x 2.126790 0.000000 -0.203660 
#    y 0.000000 1.844740 0.000000 
#    z -0.203660 0.000000 2.093070 
# 
# From -- ./inp_files/96682.got.cif
#   From: 2010.05.17/outbox.cif.g08.bks.cpg/sg13_49_cif.got.tgz:96682.got - 2010.06.03 16:44:36.
