data_PCOD9229632
_publ_section_title
;
Structure prediction by ZEFSAII (Michael W. Deem and Ramdas Pophale) SiO2 
 PCOD9229632
Probable space group: P 2/C
;
_chemical_formula_sum "Si O2"
_cell_formula_units_Z 18
_cell_length_a 7.900996
_cell_length_b 20.475674
_cell_length_c 5.453720
_cell_angle_alpha 90.000000
_cell_angle_beta 60.318724
_cell_angle_gamma 90.000000
_cell_volume 766.530410
_symmetry_space_group_name_H-M "P 2/C"
_symmetry_group_IT_number 13
_symmetry_cell_setting 'monoclinic'
loop_
_space_group_symop_operation_xyz
x,y,z
-x,y,1/2-z
-x,-y,-z
x,-y,1/2+z
loop_
_atom_site_type_symbol
_atom_site_label
_atom_site_fract_x
_atom_site_fract_y
_atom_site_fract_z
Si Si1 0.299951 0.227664 0.157760
Si Si2 0.775320 0.024378 0.876157
Si Si3 0.264337 0.174809 0.682811
Si Si4 0.230960 0.459925 0.599372
Si Si5 0.500000 0.652443 0.750000
O O1 0.190552 0.201960 0.476081
O O2 0.373891 0.300559 0.163763
O O3 0.202692 0.214684 0.967662
O O4 0.501933 0.186596 0.998508
O O5 0.774341 0.098306 0.780457
O O6 0.000000 0.002894 0.750000
O O7 0.691810 0.981622 0.712066
O O8 0.273739 0.500472 0.318375
O O9 0.354992 0.394115 0.501806
O O10 0.000000 0.446089 0.750000
#
# Coordination Sequence:
#
# PCOD9229632 Si02
#       5
#     4   4   4   4   2
#     4   9  20  33  52  76 102 140 184 226 277 341
#     4  10  20  33  52  75 100 137 181 225 283 353
#     4   9  17  35  50  71 107 132 171 233 277 324
#     4  10  22  38  59  91 126 157 195 242 291 345
#     4  10  20  38  64  86 118 160 200 242 288 344
#
# _framework density 23.482436
#
# number of rings (size 3 to 8) (size 9 to 14) (size 15 to 20)
#    0.000    2.667    0.000    2.000    0.000    7.111 
#    0.000   17.778    0.000    5.333    0.000    0.000 
#    0.000    0.000    0.000    0.000    0.000    0.000 
#
# Total GULP energy -100585.852401 kJ/mol
# GULP energy per Si atom -5588.102911 kJ/mol
# Density = 2.342899 g / cm^3
# Si number density = 23.482436 Si / 1000 Ang^3
#
#
#
# Elastic Constant Matrix: (Units=GPa)
#
#
# Indices 1 2 3 4 5 6 
#
# 1 101.4326 31.6002 44.4727 0.0000 18.5371 0.0000
# 2 31.6002 145.8021 59.6798 0.0000 20.8347 0.0000
# 3 44.4727 59.6798 174.9917 0.0000 53.7754 0.0000
# 4 0.0000 0.0000 0.0000 27.4045 0.0000 -15.6980
# 5 18.5371 20.8347 53.7754 0.0000 41.2526 0.0000
# 6 0.0000 0.0000 0.0000 -15.6980 0.0000 -250.9965
#
#
#
# Elastic Compliance Matrix: (Units=1/GPa)
#
#
# Indices 1 2 3 4 5 6 
#
# 1 0.011476 -0.001461 -0.001769 0.000000 -0.002113 0.000000
# 2 -0.001461 0.008173 -0.002251 0.000000 -0.000537 0.000000
# 3 -0.001769 -0.002251 0.010574 0.000000 -0.011852 0.000000
# 4 0.000000 0.000000 0.000000 0.035228 0.000000 -0.002203
# 5 -0.002113 -0.000537 -0.011852 0.000000 0.040911 0.000000
# 6 0.000000 0.000000 0.000000 -0.002203 0.000000 -0.003846
#
#
# Mechanical properties :
#
#
# Convention : Reuss Voigt Hill
#
# Bulk Modulus (GPa) = 51.91901 77.08129 64.50015
# Shear Modulus (GPa) = 41.70167 -17.36962 12.16602
#
# Velocity S-wave (km/s) = 4.21867 -2.72267 2.27863
# Velocity P-wave (km/s) = 6.77402 4.79713 5.86940
#
# Compressibility (1/GPa) = 0.01926077
#
# Stress axis : x y z
#
# Youngs Moduli (GPa) = 87.14101 122.34702 94.57136
#
# Poissons Ratio (x) = 0.17878 0.16728
# Poissons Ratio (y) = 0.12733 0.21290
# Poissons Ratio (z) = 0.15413 0.27542
#
# Static dielectric constant tensor:
#      x y z
#    x 1.879290 0.000000 -0.043590 
#    y 0.000000 1.802510 0.000000 
#    z -0.043590 0.000000 2.106250 
# 
# From -- ./inp_files/1477.got.cif
#   From: 2010.05.17/outbox.cif.g08.bks.cpg/sg13_1_cif.got.tgz:1477.got - 2010.06.03 16:44:36.
