data_PCOD9229082
_publ_section_title
;
Structure prediction by ZEFSAII (Michael W. Deem and Ramdas Pophale) SiO2 
 PCOD9229082
Probable space group: P 2/C
;
_chemical_formula_sum "Si O2"
_cell_formula_units_Z 20
_cell_length_a 9.434571
_cell_length_b 5.317852
_cell_length_c 16.091186
_cell_angle_alpha 90.000000
_cell_angle_beta 99.775250
_cell_angle_gamma 90.000000
_cell_volume 795.600157
_symmetry_space_group_name_H-M "P 2/C"
_symmetry_group_IT_number 13
_symmetry_cell_setting 'monoclinic'
loop_
_space_group_symop_operation_xyz
x,y,z
-x,y,1/2-z
-x,-y,-z
x,-y,1/2+z
loop_
_atom_site_type_symbol
_atom_site_label
_atom_site_fract_x
_atom_site_fract_y
_atom_site_fract_z
Si Si1 0.934489 0.476929 0.360797
Si Si2 0.779356 0.737614 0.597815
Si Si3 0.498451 0.040939 0.150386
Si Si4 0.151174 0.236280 0.973060
Si Si5 0.382661 0.465077 0.665060
O O1 0.899527 0.326774 0.442332
O O2 0.776924 0.544680 0.311500
O O3 0.070567 0.320340 0.338565
O O4 0.012678 0.732352 0.397774
O O5 0.654746 0.866864 0.638418
O O6 0.749060 0.462176 0.555256
O O7 0.803202 0.950369 0.530464
O O8 0.500000 0.013776 0.250000
O O9 0.396528 0.273203 0.117491
O O10 0.432988 0.774686 0.116871
O O11 0.500000 0.486568 0.750000
#
# Coordination Sequence:
#
# PCOD9229082 Si02
#       5
#     4   4   4   4   4
#     4   9  21  36  65  84 121 155 200 245 298 359
#     4  10  19  37  61  87 118 152 204 241 296 361
#     4  10  22  40  59  80 124 158 197 246 300 358
#     4   9  20  34  63  89 118 149 205 244 298 351
#     4  10  22  39  60  82 120 160 197 245 310 350
#
# _framework density 25.138255000000001
#
# number of rings (size 3 to 8) (size 9 to 14) (size 15 to 20)
#    1.200    1.200    0.000    1.800    2.800    0.000 
#    0.000   10.000    0.000    0.000    0.000    0.000 
#    0.000    0.000    0.000    0.000    0.000    0.000 
#
# Total GULP energy -111400.184797 kJ/mol
# GULP energy per Si atom -5570.009240 kJ/mol
# Density = 2.508104 g / cm^3
# Si number density = 25.138255 Si / 1000 Ang^3
#
#
#
# Elastic Constant Matrix: (Units=GPa)
#
#
# Indices 1 2 3 4 5 6 
#
# 1 141.0941 27.2118 5.1389 0.0000 3.0821 0.0000
# 2 27.2118 155.0148 0.1383 0.0000 6.0849 0.0000
# 3 5.1389 0.1383 28.1970 0.0000 12.7917 0.0000
# 4 0.0000 0.0000 0.0000 13.5968 0.0000 -10.5248
# 5 3.0821 6.0849 12.7917 0.0000 43.9093 0.0000
# 6 0.0000 0.0000 0.0000 -10.5248 0.0000 32.9908
#
#
#
# Elastic Compliance Matrix: (Units=1/GPa)
#
#
# Indices 1 2 3 4 5 6 
#
# 1 0.007386 -0.001298 -0.001367 0.000000 0.000060 0.000000
# 2 -0.001298 0.006719 0.000674 0.000000 -0.001036 0.000000
# 3 -0.001367 0.000674 0.041147 0.000000 -0.011985 0.000000
# 4 0.000000 0.000000 0.000000 0.097664 0.000000 0.031157
# 5 0.000060 -0.001036 -0.011985 0.000000 0.026405 0.000000
# 6 0.000000 0.000000 0.000000 0.031157 0.000000 0.040251
#
#
# Mechanical properties :
#
#
# Convention : Reuss Voigt Hill
#
# Bulk Modulus (GPa) = 19.50427 43.25375 31.37901
# Shear Modulus (GPa) = 20.77751 37.55385 29.16568
#
# Velocity S-wave (km/s) = 2.87806 3.86928 3.40988
# Velocity P-wave (km/s) = 4.33820 6.09963 5.29271
#
# Compressibility (1/GPa) = 0.05127081
#
# Stress axis : x y z
#
# Youngs Moduli (GPa) = 135.38703 148.83430 24.30288
#
# Poissons Ratio (x) = 0.19315 0.03322
# Poissons Ratio (y) = 0.17569 -0.01637
# Poissons Ratio (z) = 0.18505 -0.10026
#
# Static dielectric constant tensor:
#      x y z
#    x 3.027870 0.000000 1.807240 
#    y 0.000000 2.030870 0.000000 
#    z 1.807240 0.000000 5.443980 
# 
# From -- ./inp_files/74580.got.cif
#   From: 2010.05.17/outbox.cif.g08.bks.cpg/sg13_38_cif.got.tgz:74580.got - 2010.06.03 16:44:36.
