data_PCOD9229230
_publ_section_title
;
Structure prediction by ZEFSAII (Michael W. Deem and Ramdas Pophale) SiO2 
 PCOD9229230
Probable space group: P 2/C
;
_chemical_formula_sum "Si O2"
_cell_formula_units_Z 30
_cell_length_a 19.106077
_cell_length_b 9.434029
_cell_length_c 8.178189
_cell_angle_alpha 90.000000
_cell_angle_beta 82.340663
_cell_angle_gamma 90.000000
_cell_volume 1460.944531
_symmetry_space_group_name_H-M "P 2/C"
_symmetry_group_IT_number 13
_symmetry_cell_setting 'monoclinic'
loop_
_space_group_symop_operation_xyz
x,y,z
-x,y,1/2-z
-x,-y,-z
x,-y,1/2+z
loop_
_atom_site_type_symbol
_atom_site_label
_atom_site_fract_x
_atom_site_fract_y
_atom_site_fract_z
Si Si1 0.946294 0.564833 0.645804
Si Si2 0.690335 0.914409 0.073598
Si Si3 0.261132 0.650028 0.573083
Si Si4 0.500000 0.647807 0.750000
Si Si5 0.847307 0.602521 0.404459
Si Si6 0.713013 0.793855 0.419605
Si Si7 0.651579 0.443027 0.141545
Si Si8 0.471459 0.849511 0.445570
O O1 0.885926 0.642363 0.561356
O O2 0.906128 0.437595 0.752957
O O3 0.000000 0.645391 0.750000
O O4 0.000000 0.500000 0.500000
O O5 0.692392 0.869540 0.260140
O O6 0.612913 0.873578 0.031917
O O7 0.746066 0.815171 0.959267
O O8 0.707183 0.079683 0.051369
O O9 0.194737 0.547427 0.564478
O O10 0.318786 0.592308 0.425226
O O11 0.295477 0.616672 0.737213
O O12 0.428802 0.557038 0.781151
O O13 0.492230 0.739876 0.584637
O O14 0.789210 0.719021 0.379356
O O15 0.661389 0.666772 0.488772
O O16 0.500000 0.820611 0.250000
O O17 0.500000 0.000000 0.500000
#
# Coordination Sequence:
#
# PCOD9229230 Si02
#       8
#     4   4   4   2   4   4   4   4
#     4   9  18  33  61  99 131 157 194 234 282 363
#     4  12  23  41  58  89 113 159 210 271 318 381
#     4  11  22  39  62  85 123 159 206 263 312 380
#     4  12  24  42  60  82 122 166 218 280 352 410
#     4  10  19  38  61  94 126 162 194 245 309 353
#     4  11  24  38  62  87 124 156 210 268 315 380
#     4  11  23  41  58  86 115 161 209 268 335 391
#     4  12  24  39  61  84 116 163 217 280 346 405
#
# _framework density 20.534659000000001
#
# number of rings (size 3 to 8) (size 9 to 14) (size 15 to 20)
#    0.000    1.067    2.000    7.200    0.000    0.533 
#    1.200    0.000    0.000    0.000    0.000   58.800 
#    0.000    0.000    0.000    0.000    0.000    0.000 
#
# Total GULP energy -167588.922766 kJ/mol
# GULP energy per Si atom -5586.297426 kJ/mol
# Density = 2.048792 g / cm^3
# Si number density = 20.534659 Si / 1000 Ang^3
#
#
#
# Elastic Constant Matrix: (Units=GPa)
#
#
# Indices 1 2 3 4 5 6 
#
# 1 111.1591 12.5647 22.3552 0.0000 0.5541 0.0000
# 2 12.5647 62.6251 4.4739 0.0000 -11.5485 0.0000
# 3 22.3552 4.4739 90.4197 0.0000 3.3806 0.0000
# 4 0.0000 0.0000 0.0000 27.6658 0.0000 1.8545
# 5 0.5541 -11.5485 3.3806 0.0000 38.2857 0.0000
# 6 0.0000 0.0000 0.0000 1.8545 0.0000 9.9899
#
#
#
# Elastic Compliance Matrix: (Units=1/GPa)
#
#
# Indices 1 2 3 4 5 6 
#
# 1 0.009668 -0.001870 -0.002279 0.000000 -0.000503 0.000000
# 2 -0.001870 0.017366 -0.000596 0.000000 0.005318 0.000000
# 3 -0.002279 -0.000596 0.011697 0.000000 -0.001180 0.000000
# 4 0.000000 0.000000 0.000000 0.036601 0.000000 -0.006795
# 5 -0.000503 0.005318 -0.001180 0.000000 0.027835 0.000000
# 6 0.000000 0.000000 0.000000 -0.006795 0.000000 0.101362
#
#
# Mechanical properties :
#
#
# Convention : Reuss Voigt Hill
#
# Bulk Modulus (GPa) = 34.19724 38.11016 36.15370
# Shear Modulus (GPa) = 22.34472 30.17561 26.26017
#
# Velocity S-wave (km/s) = 3.30229 3.83756 3.57994
# Velocity P-wave (km/s) = 5.58835 6.18345 5.89342
#
# Compressibility (1/GPa) = 0.02924212
#
# Stress axis : x y z
#
# Youngs Moduli (GPa) = 103.43083 57.58243 85.49496
#
# Poissons Ratio (x) = 0.10766 0.19485
# Poissons Ratio (y) = 0.19338 0.05094
# Poissons Ratio (z) = 0.23573 0.03431
#
# Static dielectric constant tensor:
#      x y z
#    x 1.776560 0.000000 0.044110 
#    y 0.000000 1.693560 0.000000 
#    z 0.044110 0.000000 1.861490 
# 
# From -- ./inp_files/22759.got.cif
#   From: 2010.05.17/outbox.cif.g08.bks.cpg/sg13_12_cif.got.tgz:22759.got - 2010.06.03 16:44:36.
