data_PCOD9229379
_publ_section_title
;
Structure prediction by ZEFSAII (Michael W. Deem and Ramdas Pophale) SiO2 
 PCOD9229379
Probable space group: P 2/C
;
_chemical_formula_sum "Si O2"
_cell_formula_units_Z 28
_cell_length_a 14.291309
_cell_length_b 8.838061
_cell_length_c 20.345747
_cell_angle_alpha 90.000000
_cell_angle_beta 152.351738
_cell_angle_gamma 90.000000
_cell_volume 1192.505138
_symmetry_space_group_name_H-M "P 2/C"
_symmetry_group_IT_number 13
_symmetry_cell_setting 'monoclinic'
loop_
_space_group_symop_operation_xyz
x,y,z
-x,y,1/2-z
-x,-y,-z
x,-y,1/2+z
loop_
_atom_site_type_symbol
_atom_site_label
_atom_site_fract_x
_atom_site_fract_y
_atom_site_fract_z
Si Si1 0.314782 0.831118 0.255166
Si Si2 0.816748 0.178892 0.964665
Si Si3 0.371874 0.628556 0.886435
Si Si4 0.845113 0.824111 0.997352
Si Si5 0.157111 0.627904 0.621003
Si Si6 0.400569 0.900718 0.534159
Si Si7 0.722013 0.780983 0.556043
O O1 0.483220 0.746586 0.401301
O O2 0.089864 0.815623 0.143922
O O3 0.414483 0.000724 0.318799
O O4 0.315890 0.772239 0.180747
O O5 0.785820 0.233535 0.019676
O O6 0.034658 0.233914 0.077835
O O7 0.799652 0.998444 0.952338
O O8 0.292732 0.575948 0.765801
O O9 0.499450 0.780246 0.950686
O O10 0.206037 0.682445 0.837894
O O11 0.500000 0.500000 0.000000
O O12 0.755057 0.703607 0.889977
O O13 0.739381 0.810626 0.001871
O O14 0.000000 0.500000 0.500000
O O15 0.267216 0.038501 0.421277
#
# Coordination Sequence:
#
# PCOD9229379 Si02
#       7
#     4   4   4   4   4   4   4
#     4   9  18  35  68  98 131 152 218 275 336 378
#     4  10  19  39  67  98 121 166 217 276 333 392
#     4  12  26  43  62  91 139 186 214 270 337 400
#     4  10  20  39  71 101 124 171 224 287 329 387
#     4  11  26  42  65  95 136 175 227 277 326 396
#     4   9  21  41  67 102 130 172 223 275 338 403
#     4   9  22  38  67  92 128 168 211 273 338 392
#
# _framework density 23.479982
#
# number of rings (size 3 to 8) (size 9 to 14) (size 15 to 20)
#    0.857    1.143    0.000    4.286    4.000    3.429 
#    0.000    0.714    0.000    0.000    0.000    0.000 
#    0.000    0.000    0.000    0.000    0.000    0.000 
#
# Total GULP energy -156040.984414 kJ/mol
# GULP energy per Si atom -5572.892300 kJ/mol
# Density = 2.342654 g / cm^3
# Si number density = 23.479982 Si / 1000 Ang^3
#
#
#
# Elastic Constant Matrix: (Units=GPa)
#
#
# Indices 1 2 3 4 5 6 
#
# 1 136.7624 43.1653 28.3576 0.0000 -3.1882 0.0000
# 2 43.1653 57.2702 12.5947 0.0000 -25.6781 0.0000
# 3 28.3576 12.5947 90.8873 0.0000 -16.4822 0.0000
# 4 0.0000 0.0000 0.0000 23.8990 0.0000 -16.4235
# 5 -3.1882 -25.6781 -16.4822 0.0000 23.1368 0.0000
# 6 0.0000 0.0000 0.0000 -16.4235 0.0000 20.3261
#
#
#
# Elastic Compliance Matrix: (Units=1/GPa)
#
#
# Indices 1 2 3 4 5 6 
#
# 1 0.014929 -0.021847 -0.006493 0.000000 -0.026815 0.000000
# 2 -0.021847 0.067230 0.012041 0.000000 0.080181 0.000000
# 3 -0.006493 0.012041 0.015642 0.000000 0.023612 0.000000
# 4 0.000000 0.000000 0.000000 0.094084 0.000000 0.076020
# 5 -0.026815 0.080181 0.023612 0.000000 0.145335 0.000000
# 6 0.000000 0.000000 0.000000 0.076020 0.000000 0.110622
#
#
# Mechanical properties :
#
#
# Convention : Reuss Voigt Hill
#
# Bulk Modulus (GPa) = 15.33696 50.35056 32.84376
# Shear Modulus (GPa) = 9.95672 26.85921 18.40797
#
# Velocity S-wave (km/s) = 2.06149 3.38586 2.80301
# Velocity P-wave (km/s) = 3.49463 6.06432 4.94916
#
# Compressibility (1/GPa) = 0.06520197
#
# Stress axis : x y z
#
# Youngs Moduli (GPa) = 66.98578 14.87432 63.93063
#
# Poissons Ratio (x) = 0.32496 0.41512
# Poissons Ratio (y) = 1.46342 -0.76977
# Poissons Ratio (z) = 0.43496 -0.17910
#
# Static dielectric constant tensor:
#      x y z
#    x 1.922260 0.000000 -0.023820 
#    y 0.000000 1.960140 0.000000 
#    z -0.023820 0.000000 2.034620 
# 
# From -- ./inp_files/80005.got.cif
#   From: 2010.05.17/outbox.cif.g08.bks.cpg/sg13_41_cif.got.tgz:80005.got - 2010.06.03 16:44:36.
