data_PCOD9229139
_publ_section_title
;
Structure prediction by ZEFSAII (Michael W. Deem and Ramdas Pophale) SiO2 
 PCOD9229139
Probable space group: P 2/C
;
_chemical_formula_sum "Si O2"
_cell_formula_units_Z 26
_cell_length_a 5.648589
_cell_length_b 13.227388
_cell_length_c 17.953112
_cell_angle_alpha 90.000000
_cell_angle_beta 122.061646
_cell_angle_gamma 90.000000
_cell_volume 1136.794493
_symmetry_space_group_name_H-M "P 2/C"
_symmetry_group_IT_number 13
_symmetry_cell_setting 'monoclinic'
loop_
_space_group_symop_operation_xyz
x,y,z
-x,y,1/2-z
-x,-y,-z
x,-y,1/2+z
loop_
_atom_site_type_symbol
_atom_site_label
_atom_site_fract_x
_atom_site_fract_y
_atom_site_fract_z
Si Si1 0.842492 0.261218 0.107801
Si Si2 0.175013 0.953384 0.100316
Si Si3 0.664397 0.588188 0.982697
Si Si4 0.838519 0.720468 0.434809
Si Si5 0.513546 0.541918 0.340647
Si Si6 0.313694 0.969327 0.895164
Si Si7 0.000000 0.403685 0.250000
O O1 0.554490 0.322436 0.066936
O O2 0.766179 0.148464 0.119514
O O3 0.061186 0.324931 0.193550
O O4 0.920984 0.263298 0.034505
O O5 0.189650 0.832289 0.100446
O O6 0.485437 0.997997 0.139188
O O7 0.986250 0.979543 0.140189
O O8 0.000000 0.000000 0.000000
O O9 0.740308 0.531989 0.917595
O O10 0.500000 0.500000 0.000000
O O11 0.928969 0.646079 0.061594
O O12 0.559768 0.653380 0.380774
O O13 0.500000 0.547506 0.250000
O O14 0.236729 0.480739 0.314403
O O15 0.500000 0.000000 0.000000
#
# Coordination Sequence:
#
# PCOD9229139 Si02
#       7
#     4   4   4   4   4   4   2
#     4  11  22  39  67  94 127 174 219 271 338 397
#     4  10  20  36  63 100 129 159 215 279 331 390
#     4  11  23  37  62  96 122 167 226 277 321 404
#     4  12  23  37  69  94 125 174 220 272 336 401
#     4  11  25  41  60  89 136 166 217 272 330 392
#     4  10  19  37  63  98 129 159 212 279 331 393
#     4  10  26  44  60  92 132 178 210 274 332 400
#
# _framework density 22.871328999999999
#
# number of rings (size 3 to 8) (size 9 to 14) (size 15 to 20)
#    0.000    1.231    4.615    3.231    4.308    0.000 
#    0.000    0.000    3.385    0.000    0.000    0.000 
#    0.000    0.000    0.000    0.000    0.000    0.000 
#
# Total GULP energy -144994.671653 kJ/mol
# GULP energy per Si atom -5576.718140 kJ/mol
# Density = 2.281927 g / cm^3
# Si number density = 22.871329 Si / 1000 Ang^3
#
#
#
# Elastic Constant Matrix: (Units=GPa)
#
#
# Indices 1 2 3 4 5 6 
#
# 1 128.4418 70.2114 15.3760 0.0000 0.5046 0.0000
# 2 70.2114 242.7708 30.0079 0.0000 11.4254 0.0000
# 3 15.3760 30.0079 53.7770 0.0000 2.3086 0.0000
# 4 0.0000 0.0000 0.0000 12.8663 0.0000 -0.0802
# 5 0.5046 11.4254 2.3086 0.0000 26.1883 0.0000
# 6 0.0000 0.0000 0.0000 -0.0802 0.0000 37.3029
#
#
#
# Elastic Compliance Matrix: (Units=1/GPa)
#
#
# Indices 1 2 3 4 5 6 
#
# 1 0.009354 -0.002598 -0.001270 0.000000 0.001065 0.000000
# 2 -0.002598 0.005225 -0.002085 0.000000 -0.002046 0.000000
# 3 -0.001270 -0.002085 0.020158 0.000000 -0.000843 0.000000
# 4 0.000000 0.000000 0.000000 0.077724 0.000000 0.000167
# 5 0.001065 -0.002046 -0.000843 0.000000 0.039131 0.000000
# 6 0.000000 0.000000 0.000000 0.000167 0.000000 0.026808
#
#
# Mechanical properties :
#
#
# Convention : Reuss Voigt Hill
#
# Bulk Modulus (GPa) = 43.80233 72.90890 58.35561
# Shear Modulus (GPa) = 25.26331 35.89779 30.58055
#
# Velocity S-wave (km/s) = 3.32713 3.96606 3.66056
# Velocity P-wave (km/s) = 5.82692 7.27461 6.59063
#
# Compressibility (1/GPa) = 0.02282984
#
# Stress axis : x y z
#
# Youngs Moduli (GPa) = 106.90766 191.40570 49.60830
#
# Poissons Ratio (x) = 0.49734 0.06302
# Poissons Ratio (y) = 0.27778 0.10341
# Poissons Ratio (z) = 0.13581 0.39900
#
# Static dielectric constant tensor:
#      x y z
#    x 1.924390 0.000000 -0.009760 
#    y 0.000000 1.797790 0.000000 
#    z -0.009760 0.000000 2.026230 
# 
# From -- ./inp_files/69929.got.cif
#   From: 2010.05.17/outbox.cif.g08.bks.cpg/sg13_35_cif.got.tgz:69929.got - 2010.06.03 16:44:36.
