data_PCOD9229221
_publ_section_title
;
Structure prediction by ZEFSAII (Michael W. Deem and Ramdas Pophale) SiO2 
 PCOD9229221
Probable space group: P 2/C
;
_chemical_formula_sum "Si O2"
_cell_formula_units_Z 30
_cell_length_a 11.747340
_cell_length_b 9.002315
_cell_length_c 29.573055
_cell_angle_alpha 90.000000
_cell_angle_beta 152.591129
_cell_angle_gamma 90.000000
_cell_volume 1439.680236
_symmetry_space_group_name_H-M "P 2/C"
_symmetry_group_IT_number 13
_symmetry_cell_setting 'monoclinic'
loop_
_space_group_symop_operation_xyz
x,y,z
-x,y,1/2-z
-x,-y,-z
x,-y,1/2+z
loop_
_atom_site_type_symbol
_atom_site_label
_atom_site_fract_x
_atom_site_fract_y
_atom_site_fract_z
Si Si1 0.712340 0.839649 0.290520
Si Si2 0.915566 0.577104 0.082384
Si Si3 0.845463 0.596882 0.909846
Si Si4 0.957691 0.322255 0.159507
Si Si5 0.000000 0.106610 0.250000
Si Si6 0.024244 0.875627 0.923890
Si Si7 0.507851 0.335296 0.365629
Si Si8 0.536169 0.010957 0.638027
O O1 0.500000 0.781936 0.250000
O O2 0.934004 0.727402 0.355559
O O3 0.581615 0.893646 0.198743
O O4 0.844788 0.982777 0.359884
O O5 0.115602 0.485227 0.123357
O O6 0.837692 0.470711 0.096448
O O7 0.685102 0.604896 0.967632
O O8 0.587260 0.609660 0.844044
O O9 0.950426 0.761335 0.937539
O O10 0.000000 0.500000 0.000000
O O11 0.860128 0.215375 0.164809
O O12 0.223688 0.373786 0.272054
O O13 0.000241 0.210842 0.132260
O O14 0.206459 0.008575 0.298107
O O15 0.308304 0.922307 0.030041
O O16 0.533944 0.157795 0.374332
#
# Coordination Sequence:
#
# PCOD9229221 Si02
#       8
#     4   4   4   4   2   4   4   4
#     4  12  25  37  63 102 136 174 212 267 324 398
#     4  10  23  38  60  95 132 169 216 263 326 390
#     4   9  21  35  58  92 129 178 208 245 320 397
#     4  10  23  42  65  91 126 172 226 267 328 389
#     4  10  22  48  70  92 124 178 220 286 332 376
#     4  11  22  40  64  94 132 173 220 265 330 391
#     4  10  19  38  61  87 134 170 209 264 316 395
#     4  11  24  42  67  97 129 166 227 279 323 390
#
# _framework density 20.837961
#
# number of rings (size 3 to 8) (size 9 to 14) (size 15 to 20)
#    0.000    1.600    4.000    0.800    5.600    4.800 
#    0.000    3.333    0.000    0.000    0.000    0.000 
#    0.000    0.000    0.000    0.000    0.000    0.000 
#
# Total GULP energy -167376.315913 kJ/mol
# GULP energy per Si atom -5579.210530 kJ/mol
# Density = 2.079053 g / cm^3
# Si number density = 20.837961 Si / 1000 Ang^3
#
#
#
# Elastic Constant Matrix: (Units=GPa)
#
#
# Indices 1 2 3 4 5 6 
#
# 1 58.2760 -19.0022 12.3761 0.0000 -3.1720 0.0000
# 2 -19.0022 39.8950 14.7501 0.0000 -5.0599 0.0000
# 3 12.3761 14.7501 114.2060 0.0000 -7.9015 0.0000
# 4 0.0000 0.0000 0.0000 23.6600 0.0000 -0.6696
# 5 -3.1720 -5.0599 -7.9015 0.0000 21.7114 0.0000
# 6 0.0000 0.0000 0.0000 -0.6696 0.0000 13.1542
#
#
#
# Elastic Compliance Matrix: (Units=1/GPa)
#
#
# Indices 1 2 3 4 5 6 
#
# 1 0.022329 0.012624 -0.003714 0.000000 0.004853 0.000000
# 2 0.012624 0.034005 -0.005215 0.000000 0.007871 0.000000
# 3 -0.003714 -0.005215 0.009961 0.000000 0.001867 0.000000
# 4 0.000000 0.000000 0.000000 0.042326 0.000000 0.002155
# 5 0.004853 0.007871 0.001867 0.000000 0.049282 0.000000
# 6 0.000000 0.000000 0.000000 0.002155 0.000000 0.076131
#
#
# Mechanical properties :
#
#
# Convention : Reuss Voigt Hill
#
# Bulk Modulus (GPa) = 13.57133 25.40278 19.48706
# Shear Modulus (GPa) = 19.90387 25.32199 22.61293
#
# Velocity S-wave (km/s) = 3.09394 3.48973 3.29778
# Velocity P-wave (km/s) = 4.39206 5.33430 4.88595
#
# Compressibility (1/GPa) = 0.07368474
#
# Stress axis : x y z
#
# Youngs Moduli (GPa) = 44.78455 29.40710 100.38748
#
# Poissons Ratio (x) = -0.37124 0.37289
# Poissons Ratio (y) = -0.56537 0.52356
# Poissons Ratio (z) = 0.16635 0.15337
#
# Static dielectric constant tensor:
#      x y z
#    x 1.764830 0.000000 -0.012210 
#    y 0.000000 1.795440 0.000000 
#    z -0.012210 0.000000 1.732100 
# 
# From -- ./inp_files/96633.got.cif
#   From: 2010.05.17/outbox.cif.g08.bks.cpg/sg13_49_cif.got.tgz:96633.got - 2010.06.03 16:44:36.
