data_PCOD9229886
_publ_section_title
;
Structure prediction by ZEFSAII (Michael W. Deem and Ramdas Pophale) SiO2 
 PCOD9229886
Probable space group: P 2/C
;
_chemical_formula_sum "Si O2"
_cell_formula_units_Z 26
_cell_length_a 15.046247
_cell_length_b 9.343115
_cell_length_c 21.668797
_cell_angle_alpha 90.000000
_cell_angle_beta 24.114401
_cell_angle_gamma 90.000000
_cell_volume 1244.544424
_symmetry_space_group_name_H-M "P 2/C"
_symmetry_group_IT_number 13
_symmetry_cell_setting 'monoclinic'
loop_
_space_group_symop_operation_xyz
x,y,z
-x,y,1/2-z
-x,-y,-z
x,-y,1/2+z
loop_
_atom_site_type_symbol
_atom_site_label
_atom_site_fract_x
_atom_site_fract_y
_atom_site_fract_z
Si Si1 0.751847 0.400801 0.793670
Si Si2 0.500000 0.256399 0.750000
Si Si3 0.163499 0.793844 0.566757
Si Si4 0.000000 0.041871 0.750000
Si Si5 0.751661 0.718784 0.743453
Si Si6 0.000000 0.454862 0.250000
Si Si7 0.077495 0.660188 0.440201
Si Si8 0.586191 0.845720 0.465475
O O1 0.698598 0.551827 0.792819
O O2 0.880248 0.452536 0.773422
O O3 0.884892 0.317364 0.655906
O O4 0.563607 0.291646 0.934833
O O5 0.643736 0.188461 0.604229
O O6 0.696754 0.328129 0.664673
O O7 0.932176 0.772693 0.678412
O O8 0.164477 0.651351 0.608648
O O9 0.148881 0.934367 0.616841
O O10 0.157053 0.136374 0.691013
O O11 0.879024 0.744085 0.598725
O O12 0.533736 0.804537 0.895262
O O13 0.000000 0.500000 0.500000
O O14 0.500000 0.000000 0.500000
#
# Coordination Sequence:
#
# PCOD9229886 Si02
#       8
#     4   2   4   2   4   2   4   4
#     4  10  21  38  63  93 124 162 207 254 310 370
#     4  10  20  34  62  88 124 162 216 250 316 368
#     4   9  19  37  61  89 116 165 205 259 302 380
#     4  11  23  40  60  84 130 158 212 254 322 362
#     4   9  19  41  62  90 121 159 208 257 308 369
#     4   9  19  36  62  88 124 158 208 258 312 362
#     4   9  20  38  62  93 125 160 210 260 310 371
#     4  12  24  38  60  91 124 165 202 260 310 370
#
# _framework density 20.891179000000001
#
# number of rings (size 3 to 8) (size 9 to 14) (size 15 to 20)
#    0.000    2.154    1.538    1.846    2.154    2.462 
#    0.000    8.462    0.000    0.000    0.000    0.000 
#    0.000    0.000    0.000    0.000    0.000    0.000 
#
# Total GULP energy -144769.960676 kJ/mol
# GULP energy per Si atom -5568.075411 kJ/mol
# Density = 2.084363 g / cm^3
# Si number density = 20.891179 Si / 1000 Ang^3
#
#
#
# Elastic Constant Matrix: (Units=GPa)
#
#
# Indices 1 2 3 4 5 6 
#
# 1 79.4537 16.7427 38.2448 0.0000 17.9059 0.0000
# 2 16.7427 68.1801 36.4844 0.0000 0.8827 0.0000
# 3 38.2448 36.4844 124.2095 0.0000 29.5462 0.0000
# 4 0.0000 0.0000 0.0000 9.8245 0.0000 1.0920
# 5 17.9059 0.8827 29.5462 0.0000 41.1619 0.0000
# 6 0.0000 0.0000 0.0000 1.0920 0.0000 17.0810
#
#
#
# Elastic Compliance Matrix: (Units=1/GPa)
#
#
# Indices 1 2 3 4 5 6 
#
# 1 0.015531 -0.002098 -0.003099 0.000000 -0.004487 0.000000
# 2 -0.002098 0.018242 -0.005832 0.000000 0.004708 0.000000
# 3 -0.003099 -0.005832 0.012502 0.000000 -0.007501 0.000000
# 4 0.000000 0.000000 0.000000 0.102515 0.000000 -0.006554
# 5 -0.004487 0.004708 -0.007501 0.000000 0.031530 0.000000
# 6 0.000000 0.000000 0.000000 -0.006554 0.000000 0.058964
#
#
# Mechanical properties :
#
#
# Convention : Reuss Voigt Hill
#
# Bulk Modulus (GPa) = 41.29093 50.53189 45.91141
# Shear Modulus (GPa) = 18.55884 25.63822 22.09853
#
# Velocity S-wave (km/s) = 2.98377 3.50698 3.25590
# Velocity P-wave (km/s) = 5.62833 6.37489 6.01321
#
# Compressibility (1/GPa) = 0.02421840
#
# Stress axis : x y z
#
# Youngs Moduli (GPa) = 64.38901 54.81805 79.98407
#
# Poissons Ratio (x) = 0.11499 0.24783
# Poissons Ratio (y) = 0.13506 0.46649
# Poissons Ratio (z) = 0.19951 0.31972
#
# Static dielectric constant tensor:
#      x y z
#    x 1.614660 0.000000 0.010830 
#    y 0.000000 7.373310 0.000000 
#    z 0.010830 0.000000 1.861110 
# 
# From -- ./inp_files/88020.got.cif
#   From: 2010.05.17/outbox.cif.g08.bks.cpg/sg13_45_cif.got.tgz:88020.got - 2010.06.03 16:44:36.
