data_PCOD9229103
_publ_section_title
;
Structure prediction by ZEFSAII (Michael W. Deem and Ramdas Pophale) SiO2 
 PCOD9229103
Probable space group: P 2/C
;
_chemical_formula_sum "Si O2"
_cell_formula_units_Z 24
_cell_length_a 11.149458
_cell_length_b 15.377135
_cell_length_c 16.567887
_cell_angle_alpha 90.000000
_cell_angle_beta 27.200566
_cell_angle_gamma 90.000000
_cell_volume 1298.416143
_symmetry_space_group_name_H-M "P 2/C"
_symmetry_group_IT_number 13
_symmetry_cell_setting 'monoclinic'
loop_
_space_group_symop_operation_xyz
x,y,z
-x,y,1/2-z
-x,-y,-z
x,-y,1/2+z
loop_
_atom_site_type_symbol
_atom_site_label
_atom_site_fract_x
_atom_site_fract_y
_atom_site_fract_z
Si Si1 0.396953 0.451733 0.643076
Si Si2 0.791564 0.101478 0.802960
Si Si3 0.060474 0.441465 0.119877
Si Si4 0.184621 0.906832 0.719409
Si Si5 0.323506 0.739057 0.232680
Si Si6 0.896484 0.252944 0.460027
O O1 0.500000 0.500000 0.500000
O O2 0.627380 0.456622 0.571811
O O3 0.343801 0.348692 0.667817
O O4 0.123696 0.498980 0.824137
O O5 0.813720 0.181921 0.730049
O O6 0.000000 0.109667 0.750000
O O7 0.837590 0.006192 0.736567
O O8 0.490922 0.104651 0.014716
O O9 0.000000 0.460315 0.250000
O O10 0.993400 0.340778 0.145329
O O11 0.000000 0.901710 0.750000
O O12 0.081108 0.830169 0.838498
O O13 0.174100 0.723615 0.406018
O O14 0.620483 0.765125 0.079766
#
# Coordination Sequence:
#
# PCOD9229103 Si02
#       6
#     4   4   4   4   4   4
#     4   9  19  33  54  79 107 142 186 230 274 328
#     4  10  22  36  58  86 115 141 186 245 283 334
#     4   9  18  33  55  81 104 144 186 230 272 334
#     4  10  19  37  62  85 106 150 196 227 278 346
#     4  10  21  37  55  86 116 150 189 234 286 333
#     4  10  20  35  61  81 112 153 194 231 273 348
#
# _framework density 18.484055999999999
#
# number of rings (size 3 to 8) (size 9 to 14) (size 15 to 20)
#    0.000    2.333    1.667    0.500    4.667    3.333 
#    0.000    0.833    0.000    0.000    0.000    0.000 
#    0.000    0.000    0.000    0.000    0.000    0.000 
#
# Total GULP energy -133699.455161 kJ/mol
# GULP energy per Si atom -5570.810632 kJ/mol
# Density = 1.844199 g / cm^3
# Si number density = 18.484056 Si / 1000 Ang^3
#
#
#
# Elastic Constant Matrix: (Units=GPa)
#
#
# Indices 1 2 3 4 5 6 
#
# 1 53.5431 45.1193 23.0895 0.0000 -16.4909 0.0000
# 2 45.1193 112.1867 33.5621 0.0000 -11.1895 0.0000
# 3 23.0895 33.5621 48.4697 0.0000 -19.7257 0.0000
# 4 0.0000 0.0000 0.0000 17.0103 0.0000 -24.6042
# 5 -16.4909 -11.1895 -19.7257 0.0000 27.7252 0.0000
# 6 0.0000 0.0000 0.0000 -24.6042 0.0000 10.6081
#
#
#
# Elastic Compliance Matrix: (Units=1/GPa)
#
#
# Indices 1 2 3 4 5 6 
#
# 1 0.033533 -0.011357 -0.002616 0.000000 0.013501 0.000000
# 2 -0.011357 0.015128 -0.007502 0.000000 -0.005987 0.000000
# 3 -0.002616 -0.007502 0.035480 0.000000 0.020659 0.000000
# 4 0.000000 0.000000 0.000000 -0.024965 0.000000 -0.057903
# 5 0.013501 -0.005987 0.020659 0.000000 0.056381 0.000000
# 6 0.000000 0.000000 0.000000 -0.057903 0.000000 -0.040031
#
#
# Mechanical properties :
#
#
# Convention : Reuss Voigt Hill
#
# Bulk Modulus (GPa) = 24.27648 46.41570 35.34609
# Shear Modulus (GPa) = 37.81992 18.56397 28.19194
#
# Velocity S-wave (km/s) = 4.52827 3.17254 3.90962
# Velocity P-wave (km/s) = 6.36416 6.21174 6.28842
#
# Compressibility (1/GPa) = 0.04119213
#
# Stress axis : x y z
#
# Youngs Moduli (GPa) = 29.82125 66.10049 28.18525
#
# Poissons Ratio (x) = 0.75072 0.07372
# Poissons Ratio (y) = 0.33869 0.21144
# Poissons Ratio (z) = 0.07800 0.49586
#
# Static dielectric constant tensor:
#      x y z
#    x 1.634820 0.000000 -0.021610 
#    y 0.000000 1.639830 0.000000 
#    z -0.021610 0.000000 1.687700 
# 
# From -- ./inp_files/29854.got.cif
#   From: 2010.05.17/outbox.cif.g08.bks.cpg/sg13_15_cif.got.tgz:29854.got - 2010.06.03 16:44:36.
