data_PCOD9229178
_publ_section_title
;
Structure prediction by ZEFSAII (Michael W. Deem and Ramdas Pophale) SiO2 
 PCOD9229178
Probable space group: P 2/C
;
_chemical_formula_sum "Si O2"
_cell_formula_units_Z 32
_cell_length_a 13.442109
_cell_length_b 7.402660
_cell_length_c 24.242908
_cell_angle_alpha 90.000000
_cell_angle_beta 147.991992
_cell_angle_gamma 90.000000
_cell_volume 1278.635510
_symmetry_space_group_name_H-M "P 2/C"
_symmetry_group_IT_number 13
_symmetry_cell_setting 'monoclinic'
loop_
_space_group_symop_operation_xyz
x,y,z
-x,y,1/2-z
-x,-y,-z
x,-y,1/2+z
loop_
_atom_site_type_symbol
_atom_site_label
_atom_site_fract_x
_atom_site_fract_y
_atom_site_fract_z
Si Si1 0.426054 0.566245 0.641209
Si Si2 0.817849 0.763555 0.046528
Si Si3 0.195309 0.772922 0.061444
Si Si4 0.046301 0.466814 0.213832
Si Si5 0.449051 0.594969 0.419680
Si Si6 0.171847 0.606383 0.660324
Si Si7 0.433747 0.935014 0.076783
Si Si8 0.196079 0.836260 0.181727
O O1 0.251646 0.693570 0.545945
O O2 0.344253 0.393992 0.634358
O O3 0.485325 0.498658 0.607101
O O4 0.614428 0.658873 0.752120
O O5 0.879208 0.592670 0.112281
O O6 0.007260 0.876014 0.126132
O O7 0.640119 0.878205 0.982563
O O8 0.274249 0.878759 0.045927
O O9 0.197518 0.888920 0.118213
O O10 0.992411 0.684153 0.954488
O O11 0.223822 0.596464 0.309580
O O12 0.110400 0.341257 0.193703
O O13 0.000000 0.375965 0.250000
O O14 0.500000 0.500000 0.500000
O O15 0.543632 0.789140 0.460264
O O16 0.185326 0.385641 0.670502
O O17 0.626075 0.914895 0.202315
#
# Coordination Sequence:
#
# PCOD9229178 Si02
#       8
#     4   4   4   4   4   4   4   4
#     4  10  20  37  61  97 122 168 216 275 322 386
#     4  11  23  41  63  90 137 174 214 269 338 403
#     4  11  21  38  67  91 127 173 223 277 328 390
#     4  10  19  37  67  90 127 167 204 267 341 386
#     4  10  20  39  67  95 121 165 221 270 329 392
#     4  10  20  36  61 100 122 159 222 277 328 382
#     4  11  24  41  64  93 135 177 213 270 339 407
#     4  11  21  41  65  92 127 175 218 274 338 387
#
# _framework density 25.026679999999999
#
# number of rings (size 3 to 8) (size 9 to 14) (size 15 to 20)
#    0.000    1.500    7.500    1.500    1.750    1.500 
#    0.000    3.750    2.750    0.000    0.000    0.000 
#    0.000    0.000    0.000    0.000    0.000    0.000 
#
# Total GULP energy -178879.064131 kJ/mol
# GULP energy per Si atom -5589.970754 kJ/mol
# Density = 2.496972 g / cm^3
# Si number density = 25.026680 Si / 1000 Ang^3
#
#
#
# Elastic Constant Matrix: (Units=GPa)
#
#
# Indices 1 2 3 4 5 6 
#
# 1 109.1820 -8.8390 34.1082 0.0000 -9.2341 0.0000
# 2 -8.8390 47.0490 26.2086 0.0000 2.5866 0.0000
# 3 34.1082 26.2086 197.6527 0.0000 18.0076 0.0000
# 4 0.0000 0.0000 0.0000 21.2513 0.0000 13.8616
# 5 -9.2341 2.5866 18.0076 0.0000 32.8045 0.0000
# 6 0.0000 0.0000 0.0000 13.8616 0.0000 9.8810
#
#
#
# Elastic Compliance Matrix: (Units=1/GPa)
#
#
# Indices 1 2 3 4 5 6 
#
# 1 0.010598 0.003231 -0.002638 0.000000 0.004176 0.000000
# 2 0.003231 0.023935 -0.003834 0.000000 0.001127 0.000000
# 3 -0.002638 -0.003834 0.006382 0.000000 -0.003944 0.000000
# 4 0.000000 0.000000 0.000000 0.553799 0.000000 -0.776894
# 5 0.004176 0.001127 -0.003944 0.000000 0.033735 0.000000
# 6 0.000000 0.000000 0.000000 -0.776894 0.000000 1.191067
#
#
# Mechanical properties :
#
#
# Convention : Reuss Voigt Hill
#
# Bulk Modulus (GPa) = 29.04168 50.75992 39.90080
# Shear Modulus (GPa) = 2.72113 32.94777 17.83445
#
# Velocity S-wave (km/s) = 1.04386 3.63230 2.67239
# Velocity P-wave (km/s) = 3.61695 6.15775 5.04976
#
# Compressibility (1/GPa) = 0.03443327
#
# Stress axis : x y z
#
# Youngs Moduli (GPa) = 94.35925 41.77961 156.68514
#
# Poissons Ratio (x) = -0.13498 0.41329
# Poissons Ratio (y) = -0.30485 0.60072
# Poissons Ratio (z) = 0.24889 0.16018
#
# Static dielectric constant tensor:
#      x y z
#    x 2.030320 0.000000 -0.003260 
#    y 0.000000 2.113090 0.000000 
#    z -0.003260 0.000000 2.035590 
# 
# From -- ./inp_files/92855.got.cif
#   From: 2010.05.17/outbox.cif.g08.bks.cpg/sg13_47_cif.got.tgz:92855.got - 2010.06.03 16:44:36.
