data_PCOD9229637
_publ_section_title
;
Structure prediction by ZEFSAII (Michael W. Deem and Ramdas Pophale) SiO2 
 PCOD9229637
Probable space group: P 2/C
;
_chemical_formula_sum "Si O2"
_cell_formula_units_Z 26
_cell_length_a 14.837378
_cell_length_b 11.642581
_cell_length_c 8.621474
_cell_angle_alpha 90.000000
_cell_angle_beta 96.021641
_cell_angle_gamma 90.000000
_cell_volume 1481.102206
_symmetry_space_group_name_H-M "P 2/C"
_symmetry_group_IT_number 13
_symmetry_cell_setting 'monoclinic'
loop_
_space_group_symop_operation_xyz
x,y,z
-x,y,1/2-z
-x,-y,-z
x,-y,1/2+z
loop_
_atom_site_type_symbol
_atom_site_label
_atom_site_fract_x
_atom_site_fract_y
_atom_site_fract_z
Si Si1 0.401928 0.340749 0.312634
Si Si2 0.399305 0.435011 0.663485
Si Si3 0.934427 0.055597 0.115720
Si Si4 0.662555 0.872857 0.830392
Si Si5 0.350548 0.214401 0.843937
Si Si6 0.191272 0.066966 0.671677
Si Si7 0.500000 0.952436 0.250000
O O1 0.500000 0.315499 0.250000
O O2 0.405642 0.395293 0.485981
O O3 0.358204 0.440165 0.195707
O O4 0.353999 0.216007 0.312641
O O5 0.500000 0.446556 0.750000
O O6 0.358359 0.335016 0.761338
O O7 0.000000 0.120736 0.250000
O O8 0.883278 0.960746 0.211035
O O9 0.856202 0.110084 0.994637
O O10 0.000000 0.000000 0.000000
O O11 0.578459 0.962693 0.828349
O O12 0.753617 0.947701 0.844174
O O13 0.665049 0.788697 0.976942
O O14 0.267258 0.150390 0.748816
O O15 0.441375 0.136716 0.841018
#
# Coordination Sequence:
#
# PCOD9229637 Si02
#       7
#     4   4   4   4   4   4   2
#     4  11  22  36  53  70  97 141 192 230 264 299
#     4  11  22  36  53  70  97 141 192 230 264 300
#     4   9  18  35  56  76 108 142 170 205 264 336
#     4  11  21  33  50  73 113 140 186 219 258 308
#     4  11  21  33  50  73 113 140 186 219 258 307
#     4  10  20  33  52  83 112 141 170 219 260 315
#     4  10  22  30  50  70 106 152 182 204 270 290
#
# _framework density 17.554493000000001
#
# number of rings (size 3 to 8) (size 9 to 14) (size 15 to 20)
#    0.000    1.538    3.077    4.154    2.154    1.231 
#    0.000    0.000    0.000    0.000    0.000    0.000 
#    0.000   24.615    0.000    0.000    0.000    0.000 
#
# Total GULP energy -144763.061708 kJ/mol
# GULP energy per Si atom -5567.810066 kJ/mol
# Density = 1.751454 g / cm^3
# Si number density = 17.554493 Si / 1000 Ang^3
#
#
#
# Elastic Constant Matrix: (Units=GPa)
#
#
# Indices 1 2 3 4 5 6 
#
# 1 65.2130 20.8994 23.2249 0.0000 -2.0688 0.0000
# 2 20.8994 84.1628 7.7703 0.0000 -1.7136 0.0000
# 3 23.2249 7.7703 67.4482 0.0000 9.8215 0.0000
# 4 0.0000 0.0000 0.0000 14.2083 0.0000 -1.0331
# 5 -2.0688 -1.7136 9.8215 0.0000 22.2401 0.0000
# 6 0.0000 0.0000 0.0000 -1.0331 0.0000 4.2910
#
#
#
# Elastic Compliance Matrix: (Units=1/GPa)
#
#
# Indices 1 2 3 4 5 6 
#
# 1 0.019193 -0.004048 -0.006794 0.000000 0.004474 0.000000
# 2 -0.004048 0.012919 -0.000197 0.000000 0.000706 0.000000
# 3 -0.006794 -0.000197 0.018470 0.000000 -0.008804 0.000000
# 4 0.000000 0.000000 0.000000 0.071636 0.000000 0.017247
# 5 0.004474 0.000706 -0.008804 0.000000 0.049322 0.000000
# 6 0.000000 0.000000 0.000000 0.017247 0.000000 0.237200
#
#
# Mechanical properties :
#
#
# Convention : Reuss Voigt Hill
#
# Bulk Modulus (GPa) = 35.08204 35.62368 35.35286
# Shear Modulus (GPa) = 11.35537 19.14317 15.24927
#
# Velocity S-wave (km/s) = 2.54611 3.30585 2.95054
# Velocity P-wave (km/s) = 5.35459 5.90837 5.63828
#
# Compressibility (1/GPa) = 0.02850462
#
# Stress axis : x y z
#
# Youngs Moduli (GPa) = 52.10195 77.40250 54.14080
#
# Poissons Ratio (x) = 0.31330 0.36784
# Poissons Ratio (y) = 0.21089 0.01069
# Poissons Ratio (z) = 0.35398 0.01528
#
# Static dielectric constant tensor:
#      x y z
#    x 1.621090 0.000000 0.016780 
#    y 0.000000 1.624070 0.000000 
#    z 0.016780 0.000000 1.685200 
# 
# From -- ./inp_files/18535.got.cif
#   From: 2010.05.17/outbox.cif.g08.bks.cpg/sg13_10_cif.got.tgz:18535.got - 2010.06.03 16:44:36.
