data_PCOD9229193
_publ_section_title
;
Structure prediction by ZEFSAII (Michael W. Deem and Ramdas Pophale) SiO2 
 PCOD9229193
Probable space group: P 2/C
;
_chemical_formula_sum "Si O2"
_cell_formula_units_Z 22
_cell_length_a 11.787666
_cell_length_b 11.098988
_cell_length_c 22.269621
_cell_angle_alpha 90.000000
_cell_angle_beta 157.807342
_cell_angle_gamma 90.000000
_cell_volume 1100.516281
_symmetry_space_group_name_H-M "P 2/C"
_symmetry_group_IT_number 13
_symmetry_cell_setting 'monoclinic'
loop_
_space_group_symop_operation_xyz
x,y,z
-x,y,1/2-z
-x,-y,-z
x,-y,1/2+z
loop_
_atom_site_type_symbol
_atom_site_label
_atom_site_fract_x
_atom_site_fract_y
_atom_site_fract_z
Si Si1 0.851393 0.632402 0.939007
Si Si2 0.001132 0.876084 0.678567
Si Si3 0.182255 0.335355 0.490297
Si Si4 0.000000 0.698883 0.250000
Si Si5 0.151541 0.576930 0.201084
Si Si6 0.376920 0.907339 0.490901
O O1 0.500000 0.635304 0.750000
O O2 0.047365 0.708408 0.987788
O O3 0.000000 0.500000 0.000000
O O4 0.930948 0.650542 0.047746
O O5 0.000000 0.851378 0.750000
O O6 0.811736 0.776049 0.551924
O O7 0.350411 0.873418 0.832620
O O8 0.881746 0.010465 0.607911
O O9 0.508733 0.397586 0.654127
O O10 0.951207 0.437876 0.353291
O O11 0.116682 0.620820 0.251836
O O12 0.252236 0.788935 0.398750
O O13 0.500000 0.000000 0.500000
#
# Coordination Sequence:
#
# PCOD9229193 Si02
#       6
#     4   4   4   2   4   4
#     4  10  20  39  61  84 117 164 206 240 291 363
#     4  10  21  36  61  86 119 156 207 245 301 352
#     4  11  23  39  61  91 122 164 197 251 301 361
#     4  12  24  36  62  90 128 162 196 248 310 352
#     4  11  24  38  59  91 130 159 200 242 306 370
#     4  10  19  38  57  85 113 164 205 247 291 357
#
# _framework density 19.990617
#
# number of rings (size 3 to 8) (size 9 to 14) (size 15 to 20)
#    0.000    1.455    2.727    7.091    6.364    0.727 
#    0.000    0.000    0.000    1.091    4.727    0.000 
#    0.000    0.000    0.000    0.000    0.000    0.000 
#
# Total GULP energy -122685.370182 kJ/mol
# GULP energy per Si atom -5576.607736 kJ/mol
# Density = 1.994512 g / cm^3
# Si number density = 19.990617 Si / 1000 Ang^3
#
#
#
# Elastic Constant Matrix: (Units=GPa)
#
#
# Indices 1 2 3 4 5 6 
#
# 1 86.6444 13.1617 17.3118 0.0000 1.1463 0.0000
# 2 13.1617 36.7925 2.2189 0.0000 -13.7534 0.0000
# 3 17.3118 2.2189 121.7015 0.0000 5.8955 0.0000
# 4 0.0000 0.0000 0.0000 29.5673 0.0000 -0.4730
# 5 1.1463 -13.7534 5.8955 0.0000 22.3888 0.0000
# 6 0.0000 0.0000 0.0000 -0.4730 0.0000 -2.2078
#
#
#
# Elastic Compliance Matrix: (Units=1/GPa)
#
#
# Indices 1 2 3 4 5 6 
#
# 1 0.012801 -0.005948 -0.001523 0.000000 -0.003908 0.000000
# 2 -0.005948 0.038402 -0.001025 0.000000 0.024165 0.000000
# 3 -0.001523 -0.001025 0.008588 0.000000 -0.002813 0.000000
# 4 0.000000 0.000000 0.000000 0.033706 0.000000 -0.007221
# 5 -0.003908 0.024165 -0.002813 0.000000 0.060450 0.000000
# 6 0.000000 0.000000 0.000000 -0.007221 0.000000 -0.451393
#
#
# Mechanical properties :
#
#
# Convention : Reuss Voigt Hill
#
# Bulk Modulus (GPa) = 23.36488 34.50257 28.93372
# Shear Modulus (GPa) = -18.78379 24.11274 2.66447
#
# Velocity S-wave (km/s) = -3.06866 3.47681 1.15575
# Velocity P-wave (km/s) = 0.91777 5.78052 4.03560
#
# Compressibility (1/GPa) = 0.04279928
#
# Stress axis : x y z
#
# Youngs Moduli (GPa) = 78.11862 26.04026 116.43563
#
# Poissons Ratio (x) = 0.15490 0.17735
# Poissons Ratio (y) = 0.46468 0.11930
# Poissons Ratio (z) = 0.11899 0.02668
#
# Static dielectric constant tensor:
#      x y z
#    x 1.820960 0.000000 0.053740 
#    y 0.000000 1.713890 0.000000 
#    z 0.053740 0.000000 1.890920 
# 
# From -- ./inp_files/86636.got.cif
#   From: 2010.05.17/outbox.cif.g08.bks.cpg/sg13_44_cif.got.tgz:86636.got - 2010.06.03 16:44:36.
