data_PCOD9229517
_publ_section_title
;
Structure prediction by ZEFSAII (Michael W. Deem and Ramdas Pophale) SiO2 
 PCOD9229517
Probable space group: P 2/C
;
_chemical_formula_sum "Si O2"
_cell_formula_units_Z 24
_cell_length_a 19.042269
_cell_length_b 7.039989
_cell_length_c 9.901497
_cell_angle_alpha 90.000000
_cell_angle_beta 50.538828
_cell_angle_gamma 90.000000
_cell_volume 1024.802170
_symmetry_space_group_name_H-M "P 2/C"
_symmetry_group_IT_number 13
_symmetry_cell_setting 'monoclinic'
loop_
_space_group_symop_operation_xyz
x,y,z
-x,y,1/2-z
-x,-y,-z
x,-y,1/2+z
loop_
_atom_site_type_symbol
_atom_site_label
_atom_site_fract_x
_atom_site_fract_y
_atom_site_fract_z
Si Si1 0.722407 0.735690 0.273558
Si Si2 0.243381 0.557699 0.545954
Si Si3 0.526697 0.242495 0.072167
Si Si4 0.423599 0.309973 0.948173
Si Si5 0.108967 0.960213 0.522550
Si Si6 0.071514 0.793686 0.831114
O O1 0.742589 0.640601 0.394050
O O2 0.622642 0.824079 0.397475
O O3 0.793865 0.892924 0.143811
O O4 0.734537 0.574472 0.140610
O O5 0.321380 0.693948 0.517334
O O6 0.141520 0.630454 0.702964
O O7 0.500000 0.167973 0.250000
O O8 0.551269 0.466534 0.062501
O O9 0.446067 0.222159 0.064928
O O10 0.500000 0.242157 0.750000
O O11 0.102044 0.965600 0.692257
O O12 0.036143 0.794173 0.567913
O O13 0.083710 0.146509 0.470482
#
# Coordination Sequence:
#
# PCOD9229517 Si02
#       6
#     4   4   4   4   4   4
#     4  10  20  32  49  78 106 132 163 210 251 292
#     4  10  20  31  50  78 106 131 166 206 252 292
#     4   9  17  27  44  69 100 133 166 201 240 292
#     4   9  15  27  44  67  98 135 163 198 242 291
#     4   9  19  37  57  73  99 131 170 207 249 300
#     4   9  19  37  56  75  97 133 169 206 249 303
#
# _framework density 23.419153000000001
#
# number of rings (size 3 to 8) (size 9 to 14) (size 15 to 20)
#    0.000    2.667    1.667    0.000    7.000    2.000 
#    0.000    0.000    0.000    2.000    0.000    0.000 
#    0.000    0.000    0.000    0.000    0.000    0.000 
#
# Total GULP energy -133882.051462 kJ/mol
# GULP energy per Si atom -5578.418811 kJ/mol
# Density = 2.336585 g / cm^3
# Si number density = 23.419153 Si / 1000 Ang^3
#
#
#
# Elastic Constant Matrix: (Units=GPa)
#
#
# Indices 1 2 3 4 5 6 
#
# 1 50.7526 3.9198 14.9005 0.0000 -9.9911 0.0000
# 2 3.9198 45.1082 4.1875 0.0000 -5.1372 0.0000
# 3 14.9005 4.1875 77.5128 0.0000 -9.0885 0.0000
# 4 0.0000 0.0000 0.0000 -8.0555 0.0000 -8.7724
# 5 -9.9911 -5.1372 -9.0885 0.0000 44.6624 0.0000
# 6 0.0000 0.0000 0.0000 -8.7724 0.0000 11.3931
#
#
#
# Elastic Compliance Matrix: (Units=1/GPa)
#
#
# Indices 1 2 3 4 5 6 
#
# 1 0.021637 -0.001090 -0.003634 0.000000 0.003975 0.000000
# 2 -0.001090 0.022584 -0.000752 0.000000 0.002201 0.000000
# 3 -0.003634 -0.000752 0.013866 0.000000 0.001922 0.000000
# 4 0.000000 0.000000 0.000000 -0.067522 0.000000 -0.051990
# 5 0.003975 0.002201 0.001922 0.000000 0.023924 0.000000
# 6 0.000000 0.000000 0.000000 -0.051990 0.000000 0.047741
#
#
# Mechanical properties :
#
#
# Convention : Reuss Voigt Hill
#
# Bulk Modulus (GPa) = 21.21649 24.37660 22.79654
# Shear Modulus (GPa) = 56.24596 19.62440 37.93518
#
# Velocity S-wave (km/s) = 4.90604 2.89790 4.02908
# Velocity P-wave (km/s) = 6.41650 4.65065 5.60357
#
# Compressibility (1/GPa) = 0.04713315
#
# Stress axis : x y z
#
# Youngs Moduli (GPa) = 46.21669 44.27892 72.12017
#
# Poissons Ratio (x) = 0.04827 0.26211
# Poissons Ratio (y) = 0.05038 0.05427
# Poissons Ratio (z) = 0.16797 0.03332
#
# Static dielectric constant tensor:
#      x y z
#    x 1.887720 0.000000 0.077950 
#    y 0.000000 1.941050 0.000000 
#    z 0.077950 0.000000 1.316680 
# 
# From -- ./inp_files/18607.got.cif
#   From: 2010.05.17/outbox.cif.g08.bks.cpg/sg13_10_cif.got.tgz:18607.got - 2010.06.03 16:44:36.
