data_PCOD9229556
_publ_section_title
;
Structure prediction by ZEFSAII (Michael W. Deem and Ramdas Pophale) SiO2 
 PCOD9229556
Probable space group: P 2/C
;
_chemical_formula_sum "Si O2"
_cell_formula_units_Z 30
_cell_length_a 9.137960
_cell_length_b 12.949468
_cell_length_c 12.575170
_cell_angle_alpha 90.000000
_cell_angle_beta 117.311925
_cell_angle_gamma 90.000000
_cell_volume 1322.157247
_symmetry_space_group_name_H-M "P 2/C"
_symmetry_group_IT_number 13
_symmetry_cell_setting 'monoclinic'
loop_
_space_group_symop_operation_xyz
x,y,z
-x,y,1/2-z
-x,-y,-z
x,-y,1/2+z
loop_
_atom_site_type_symbol
_atom_site_label
_atom_site_fract_x
_atom_site_fract_y
_atom_site_fract_z
Si Si1 0.801039 0.163735 0.992064
Si Si2 0.858027 0.843861 0.286227
Si Si3 0.753078 0.380876 0.254346
Si Si4 0.478443 0.030589 0.864052
Si Si5 0.769997 0.382299 0.692693
Si Si6 0.388434 0.367183 0.508465
Si Si7 0.837091 0.445392 0.495359
Si Si8 0.000000 0.789450 0.750000
O O1 0.896476 0.143071 0.133014
O O2 0.911861 0.142103 0.926508
O O3 0.634889 0.104286 0.911983
O O4 0.729809 0.278785 0.985202
O O5 0.696842 0.911399 0.203040
O O6 0.811375 0.722378 0.266726
O O7 0.000000 0.865582 0.250000
O O8 0.800229 0.502123 0.248454
O O9 0.740839 0.379470 0.375735
O O10 0.885865 0.292274 0.274249
O O11 0.614121 0.359143 0.120651
O O12 0.500000 0.973709 0.750000
O O13 0.500000 0.000000 0.000000
O O14 0.572660 0.372452 0.610755
O O15 0.865047 0.380776 0.611462
O O16 0.290414 0.468593 0.508605
O O17 0.000000 0.500000 0.500000
#
# Coordination Sequence:
#
# PCOD9229556 Si02
#       8
#     4   4   4   4   4   4   4   2
#     4  10  21  44  68  95 134 179 218 274 336 417
#     4  11  25  41  70 103 136 165 225 275 337 406
#     4  10  20  32  50  78 122 171 229 272 314 364
#     4  10  23  51  79 107 137 173 215 276 353 430
#     4  11  23  35  56  85 122 174 228 282 320 390
#     4  10  21  37  54  80 120 173 230 271 334 387
#     4  11  22  32  50  79 121 173 229 283 328 365
#     4  10  22  38  58  92 136 184 232 258 332 374
#
# _framework density 22.690190999999999
#
# number of rings (size 3 to 8) (size 9 to 14) (size 15 to 20)
#    0.000    1.600    1.333    4.800    6.533    3.200 
#    3.600    1.333    0.000    0.000    0.000    0.000 
#    0.000    0.000    0.000    0.000    0.000    0.000 
#
# Total GULP energy -167110.076234 kJ/mol
# GULP energy per Si atom -5570.335874 kJ/mol
# Density = 2.263855 g / cm^3
# Si number density = 22.690191 Si / 1000 Ang^3
#
#
#
# Elastic Constant Matrix: (Units=GPa)
#
#
# Indices 1 2 3 4 5 6 
#
# 1 96.0785 -7.1236 31.4436 0.0000 5.1192 0.0000
# 2 -7.1236 7.1804 15.0498 0.0000 -4.4593 0.0000
# 3 31.4436 15.0498 144.1925 0.0000 -12.0201 0.0000
# 4 0.0000 0.0000 0.0000 29.8421 0.0000 10.3558
# 5 5.1192 -4.4593 -12.0201 0.0000 40.2196 0.0000
# 6 0.0000 0.0000 0.0000 10.3558 0.0000 29.3532
#
#
#
# Elastic Compliance Matrix: (Units=1/GPa)
#
#
# Indices 1 2 3 4 5 6 
#
# 1 0.014320 0.026169 -0.005911 0.000000 -0.000688 0.000000
# 2 0.026169 0.234820 -0.029046 0.000000 0.014024 0.000000
# 3 -0.005911 -0.029046 0.011332 0.000000 0.000919 0.000000
# 4 0.000000 0.000000 0.000000 0.038185 0.000000 -0.013472
# 5 -0.000688 0.014024 0.000919 0.000000 0.026781 0.000000
# 6 0.000000 0.000000 0.000000 -0.013472 0.000000 0.038821
#
#
# Mechanical properties :
#
#
# Convention : Reuss Voigt Hill
#
# Bulk Modulus (GPa) = 4.11701 36.24344 20.18023
# Shear Modulus (GPa) = 10.80381 33.75510 22.27946
#
# Velocity S-wave (km/s) = 2.18444 3.86119 3.13692
# Velocity P-wave (km/s) = 2.86020 5.99051 4.69399
#
# Compressibility (1/GPa) = 0.24289465
#
# Stress axis : x y z
#
# Youngs Moduli (GPa) = 69.83392 4.25859 88.24185
#
# Poissons Ratio (x) = -0.11144 0.52163
# Poissons Ratio (y) = -1.82750 2.56311
# Poissons Ratio (z) = 0.41281 0.12370
#
# Static dielectric constant tensor:
#      x y z
#    x 1.818410 0.000000 -0.405340 
#    y 0.000000 1.793290 0.000000 
#    z -0.405340 0.000000 -0.220460 
# 
# From -- ./inp_files/30450.got.cif
#   From: 2010.05.17/outbox.cif.g08.bks.cpg/sg13_16_cif.got.tgz:30450.got - 2010.06.03 16:44:36.
