data_PCOD9229179
_publ_section_title
;
Structure prediction by ZEFSAII (Michael W. Deem and Ramdas Pophale) SiO2 
 PCOD9229179
Probable space group: P 2/C
;
_chemical_formula_sum "Si O2"
_cell_formula_units_Z 30
_cell_length_a 13.667882
_cell_length_b 8.965217
_cell_length_c 19.338546
_cell_angle_alpha 90.000000
_cell_angle_beta 136.963847
_cell_angle_gamma 90.000000
_cell_volume 1617.196734
_symmetry_space_group_name_H-M "P 2/C"
_symmetry_group_IT_number 13
_symmetry_cell_setting 'monoclinic'
loop_
_space_group_symop_operation_xyz
x,y,z
-x,y,1/2-z
-x,-y,-z
x,-y,1/2+z
loop_
_atom_site_type_symbol
_atom_site_label
_atom_site_fract_x
_atom_site_fract_y
_atom_site_fract_z
Si Si1 0.238302 0.587739 0.473321
Si Si2 0.000000 0.525443 0.750000
Si Si3 0.631760 0.214483 0.769221
Si Si4 0.380812 0.849694 0.473007
Si Si5 0.244696 0.366600 0.276266
Si Si6 0.171418 0.486590 0.591387
Si Si7 0.336546 0.026320 0.325445
Si Si8 0.490059 0.394922 0.921508
O O1 0.094526 0.565580 0.354343
O O2 0.297149 0.749894 0.484285
O O3 0.223243 0.561948 0.547023
O O4 0.354124 0.465458 0.507281
O O5 0.887847 0.613656 0.739963
O O6 0.500000 0.166644 0.750000
O O7 0.755200 0.320974 0.865930
O O8 0.553891 0.318066 0.672563
O O9 0.691249 0.075407 0.755623
O O10 0.493033 0.954064 0.570931
O O11 0.463433 0.731052 0.465665
O O12 0.286052 0.943641 0.369696
O O13 0.214004 0.428522 0.183671
O O14 0.281670 0.193320 0.290640
O O15 0.374979 0.471341 0.370167
O O16 0.000000 0.500000 0.500000
#
# Coordination Sequence:
#
# PCOD9229179 Si02
#       8
#     4   2   4   4   4   4   4   4
#     4  12  21  37  65  96 119 163 215 269 309 365
#     4  12  24  36  66  94 124 164 216 262 316 364
#     4  10  21  39  63  91 123 168 207 262 314 379
#     4  10  20  37  60  95 126 160 198 271 314 368
#     4  11  22  41  64  96 125 168 210 269 310 380
#     4  11  24  42  63  92 130 165 219 267 318 372
#     4  10  22  37  60  93 137 157 202 258 328 377
#     4  10  19  37  67  91 118 153 225 268 303 351
#
# _framework density 18.550619000000001
#
# number of rings (size 3 to 8) (size 9 to 14) (size 15 to 20)
#    0.000    1.333    5.333    1.200    0.000    1.067 
#    0.000    2.667    0.000    0.000    0.000    0.000 
#    0.000    0.000    0.000    0.000    0.000    0.000 
#
# Total GULP energy -167255.607035 kJ/mol
# GULP energy per Si atom -5575.186901 kJ/mol
# Density = 1.850840 g / cm^3
# Si number density = 18.550619 Si / 1000 Ang^3
#
#
#
# Elastic Constant Matrix: (Units=GPa)
#
#
# Indices 1 2 3 4 5 6 
#
# 1 109.7283 35.9981 27.3280 0.0000 -17.2521 0.0000
# 2 35.9981 106.7795 23.9206 0.0000 -6.1087 0.0000
# 3 27.3280 23.9206 68.1928 0.0000 -6.4415 0.0000
# 4 0.0000 0.0000 0.0000 18.4625 0.0000 -9.5992
# 5 -17.2521 -6.1087 -6.4415 0.0000 33.8524 0.0000
# 6 0.0000 0.0000 0.0000 -9.5992 0.0000 26.5333
#
#
#
# Elastic Compliance Matrix: (Units=1/GPa)
#
#
# Indices 1 2 3 4 5 6 
#
# 1 0.011619 -0.002932 -0.003176 0.000000 0.004788 0.000000
# 2 -0.002932 0.010950 -0.002669 0.000000 -0.000026 0.000000
# 3 -0.003176 -0.002669 0.016980 0.000000 0.001131 0.000000
# 4 0.000000 0.000000 0.000000 0.066713 0.000000 0.024135
# 5 0.004788 -0.000026 0.001131 0.000000 0.032191 0.000000
# 6 0.000000 0.000000 0.000000 0.024135 0.000000 0.046420
#
#
# Mechanical properties :
#
#
# Convention : Reuss Voigt Hill
#
# Bulk Modulus (GPa) = 45.46105 51.02154 48.24130
# Shear Modulus (GPa) = 23.83726 28.93322 26.38524
#
# Velocity S-wave (km/s) = 3.58856 3.95358 3.77548
# Velocity P-wave (km/s) = 6.45988 6.95735 6.71322
#
# Compressibility (1/GPa) = 0.02199685
#
# Stress axis : x y z
#
# Youngs Moduli (GPa) = 86.06664 91.32615 58.89349
#
# Poissons Ratio (x) = 0.26774 0.18702
# Poissons Ratio (y) = 0.25232 0.15716
# Poissons Ratio (z) = 0.27331 0.24371
#
# Static dielectric constant tensor:
#      x y z
#    x 1.683620 0.000000 -0.041390 
#    y 0.000000 1.636590 0.000000 
#    z -0.041390 0.000000 1.699230 
# 
# From -- ./inp_files/79670.got.cif
#   From: 2010.05.17/outbox.cif.g08.bks.cpg/sg13_40_cif.got.tgz:79670.got - 2010.06.03 16:44:36.
