data_PCOD9229622
_publ_section_title
;
Structure prediction by ZEFSAII (Michael W. Deem and Ramdas Pophale) SiO2 
 PCOD9229622
Probable space group: P 2/C
;
_chemical_formula_sum "Si O2"
_cell_formula_units_Z 18
_cell_length_a 6.930426
_cell_length_b 19.506134
_cell_length_c 5.287867
_cell_angle_alpha 90.000000
_cell_angle_beta 103.867930
_cell_angle_gamma 90.000000
_cell_volume 694.007472
_symmetry_space_group_name_H-M "P 2/C"
_symmetry_group_IT_number 13
_symmetry_cell_setting 'monoclinic'
loop_
_space_group_symop_operation_xyz
x,y,z
-x,y,1/2-z
-x,-y,-z
x,-y,1/2+z
loop_
_atom_site_type_symbol
_atom_site_label
_atom_site_fract_x
_atom_site_fract_y
_atom_site_fract_z
Si Si1 0.785692 0.545540 0.609783
Si Si2 0.771933 0.973841 0.256575
Si Si3 0.500000 0.351299 0.250000
Si Si4 0.265794 0.829304 0.971101
Si Si5 0.715674 0.774991 0.029953
O O1 0.772786 0.512096 0.328609
O O2 0.612655 0.600040 0.591277
O O3 0.000000 0.577556 0.750000
O O4 0.758762 0.902563 0.403509
O O5 0.000000 0.988885 0.250000
O O6 0.686887 0.025228 0.444387
O O7 0.337423 0.300942 0.076109
O O8 0.192569 0.776838 0.163605
O O9 0.498762 0.810969 0.002151
O O10 0.182945 0.817963 0.663781
#
# Coordination Sequence:
#
# PCOD9229622 Si02
#       5
#     4   4   2   4   4
#     4  10  22  38  58  88 121 152 191 235 281 336
#     4  10  20  33  51  73  99 137 181 224 279 346
#     4  10  20  38  62  84 116 156 192 236 282 332
#     4   9  17  35  49  71 105 130 167 226 271 316
#     4   9  20  33  53  76 102 137 179 220 272 335
#
# _framework density 25.936319999999998
#
# number of rings (size 3 to 8) (size 9 to 14) (size 15 to 20)
#    0.000    2.667    0.000    2.000    0.000    7.111 
#    0.000   17.778    0.000    0.000    0.000    0.000 
#    0.000    0.000    0.000    0.000    0.000    0.000 
#
# Total GULP energy -100565.853696 kJ/mol
# GULP energy per Si atom -5586.991872 kJ/mol
# Density = 2.587729 g / cm^3
# Si number density = 25.936320 Si / 1000 Ang^3
#
#
#
# Elastic Constant Matrix: (Units=GPa)
#
#
# Indices 1 2 3 4 5 6 
#
# 1 81.8063 15.0800 39.5594 0.0000 -17.1548 0.0000
# 2 15.0800 42.2403 1.2391 0.0000 -5.5304 0.0000
# 3 39.5594 1.2391 211.0228 0.0000 -24.0695 0.0000
# 4 0.0000 0.0000 0.0000 -5.8346 0.0000 2.6708
# 5 -17.1548 -5.5304 -24.0695 0.0000 51.9380 0.0000
# 6 0.0000 0.0000 0.0000 2.6708 0.0000 20.2096
#
#
#
# Elastic Compliance Matrix: (Units=1/GPa)
#
#
# Indices 1 2 3 4 5 6 
#
# 1 0.014973 -0.004841 -0.002400 0.000000 0.003318 0.000000
# 2 -0.004841 0.025579 0.000935 0.000000 0.001558 0.000000
# 3 -0.002400 0.000935 0.005389 0.000000 0.001804 0.000000
# 4 0.000000 0.000000 0.000000 -0.161614 0.000000 0.021358
# 5 0.003318 0.001558 0.001804 0.000000 0.021352 0.000000
# 6 0.000000 0.000000 0.000000 0.021358 0.000000 0.046659
#
#
# Mechanical properties :
#
#
# Convention : Reuss Voigt Hill
#
# Bulk Modulus (GPa) = 30.00365 49.64740 39.82553
# Shear Modulus (GPa) = -208.83908 31.87533 -88.48188
#
# Velocity S-wave (km/s) = -8.98302 3.50949 -5.84715
# Velocity P-wave (km/s) = 9.79794 5.96704 5.49518
#
# Compressibility (1/GPa) = 0.03332928
#
# Stress axis : x y z
#
# Youngs Moduli (GPa) = 66.78871 39.09492 185.56150
#
# Poissons Ratio (x) = 0.18924 0.44535
# Poissons Ratio (y) = 0.32329 -0.17349
# Poissons Ratio (z) = 0.16029 -0.03655
#
# Static dielectric constant tensor:
#      x y z
#    x 2.558720 0.000000 0.458100 
#    y 0.000000 2.026090 0.000000 
#    z 0.458100 0.000000 2.455020 
# 
# From -- ./inp_files/1609.got.cif
#   From: 2010.05.17/outbox.cif.g08.bks.cpg/sg13_1_cif.got.tgz:1609.got - 2010.06.03 16:44:36.
