data_PCOD9229761
_publ_section_title
;
Structure prediction by ZEFSAII (Michael W. Deem and Ramdas Pophale) SiO2 
 PCOD9229761
Probable space group: P 2/C
;
_chemical_formula_sum "Si O2"
_cell_formula_units_Z 18
_cell_length_a 10.103536
_cell_length_b 9.767900
_cell_length_c 8.814983
_cell_angle_alpha 90.000000
_cell_angle_beta 95.305605
_cell_angle_gamma 90.000000
_cell_volume 866.226396
_symmetry_space_group_name_H-M "P 2/C"
_symmetry_group_IT_number 13
_symmetry_cell_setting 'monoclinic'
loop_
_space_group_symop_operation_xyz
x,y,z
-x,y,1/2-z
-x,-y,-z
x,-y,1/2+z
loop_
_atom_site_type_symbol
_atom_site_label
_atom_site_fract_x
_atom_site_fract_y
_atom_site_fract_z
Si Si1 0.251539 0.314776 0.962943
Si Si2 0.014109 0.345796 0.432947
Si Si3 0.500000 0.043929 0.250000
Si Si4 0.466965 0.812767 0.020240
Si Si5 0.273595 0.395686 0.617634
O O1 0.374195 0.210191 0.978015
O O2 0.242616 0.372989 0.790752
O O3 0.280461 0.445141 0.074536
O O4 0.107532 0.263509 0.003893
O O5 0.161399 0.315197 0.507994
O O6 0.000000 0.346165 0.250000
O O7 0.000000 0.500000 0.500000
O O8 0.416542 0.142991 0.349670
O O9 0.431739 0.937013 0.128676
O O10 0.409604 0.675401 0.083243
#
# Coordination Sequence:
#
# PCOD9229761 Si02
#       5
#     4   4   2   4   4
#     4  11  21  36  59  91 120 149 184 235 291 346
#     4  10  20  34  54  85 120 155 181 223 291 353
#     4  10  24  42  58  82 112 158 194 242 280 332
#     4  11  23  40  63  84 114 148 200 237 285 335
#     4  11  21  36  59  91 120 149 184 235 291 346
#
# _framework density 20.779785
#
# number of rings (size 3 to 8) (size 9 to 14) (size 15 to 20)
#    0.000    1.333    2.222    6.667    6.222    0.000 
#    0.000    0.000    0.000    8.000    0.000    0.000 
#    0.000    0.000    0.000    0.000    0.000    0.000 
#
# Total GULP energy -100359.991663 kJ/mol
# GULP energy per Si atom -5575.555092 kJ/mol
# Density = 2.073249 g / cm^3
# Si number density = 20.779785 Si / 1000 Ang^3
#
#
#
# Elastic Constant Matrix: (Units=GPa)
#
#
# Indices 1 2 3 4 5 6 
#
# 1 88.0280 5.4346 9.0753 0.0000 -4.5490 0.0000
# 2 5.4346 40.2047 12.3664 0.0000 -0.0485 0.0000
# 3 9.0753 12.3664 151.3285 0.0000 -10.1968 0.0000
# 4 0.0000 0.0000 0.0000 25.3829 0.0000 -4.6237
# 5 -4.5490 -0.0485 -10.1968 0.0000 24.7352 0.0000
# 6 0.0000 0.0000 0.0000 -4.6237 0.0000 3.8301
#
#
#
# Elastic Compliance Matrix: (Units=1/GPa)
#
#
# Indices 1 2 3 4 5 6 
#
# 1 0.011595 -0.001427 -0.000448 0.000000 0.001945 0.000000
# 2 -0.001427 0.025706 -0.002087 0.000000 -0.001073 0.000000
# 3 -0.000448 -0.002087 0.006994 0.000000 0.002797 0.000000
# 4 0.000000 0.000000 0.000000 0.050502 0.000000 0.060966
# 5 0.001945 -0.001073 0.002797 0.000000 0.041937 0.000000
# 6 0.000000 0.000000 0.000000 0.060966 0.000000 0.334691
#
#
# Mechanical properties :
#
#
# Convention : Reuss Voigt Hill
#
# Bulk Modulus (GPa) = 27.49473 37.03488 32.26480
# Shear Modulus (GPa) = 10.17350 27.63531 18.90440
#
# Velocity S-wave (km/s) = 2.21506 3.65075 3.01948
# Velocity P-wave (km/s) = 4.44997 5.96925 5.26470
#
# Compressibility (1/GPa) = 0.03637061
#
# Stress axis : x y z
#
# Youngs Moduli (GPa) = 86.24557 38.90084 142.97938
#
# Poissons Ratio (x) = 0.05552 0.06401
# Poissons Ratio (y) = 0.12310 0.29845
# Poissons Ratio (z) = 0.03861 0.08120
#
# Static dielectric constant tensor:
#      x y z
#    x 1.870350 0.000000 0.018580 
#    y 0.000000 1.726100 0.000000 
#    z 0.018580 0.000000 1.788990 
# 
# From -- ./inp_files/11311.got.cif
#   From: 2010.05.17/outbox.cif.g08.bks.cpg/sg13_6_cif.got.tgz:11311.got - 2010.06.03 16:44:36.
