data_PCOD9229353
_publ_section_title
;
Structure prediction by ZEFSAII (Michael W. Deem and Ramdas Pophale) SiO2 
 PCOD9229353
Probable space group: P 2/C
;
_chemical_formula_sum "Si O2"
_cell_formula_units_Z 24
_cell_length_a 9.117423
_cell_length_b 7.545878
_cell_length_c 21.231648
_cell_angle_alpha 90.000000
_cell_angle_beta 142.514694
_cell_angle_gamma 90.000000
_cell_volume 888.929926
_symmetry_space_group_name_H-M "P 2/C"
_symmetry_group_IT_number 13
_symmetry_cell_setting 'monoclinic'
loop_
_space_group_symop_operation_xyz
x,y,z
-x,y,1/2-z
-x,-y,-z
x,-y,1/2+z
loop_
_atom_site_type_symbol
_atom_site_label
_atom_site_fract_x
_atom_site_fract_y
_atom_site_fract_z
Si Si1 0.551365 0.899782 0.659601
Si Si2 0.858672 0.026664 0.379479
Si Si3 0.015758 0.301595 0.653924
Si Si4 0.595861 0.449707 0.221126
Si Si5 0.180013 0.353648 0.530168
Si Si6 0.601248 0.228985 0.601214
O O1 0.356038 0.977223 0.642549
O O2 0.789289 0.914337 0.784530
O O3 0.547749 0.021062 0.596660
O O4 0.536330 0.688575 0.645502
O O5 0.957174 0.831158 0.395658
O O6 0.970455 0.823894 0.533342
O O7 0.128184 0.493727 0.676652
O O8 0.203487 0.260929 0.775330
O O9 0.751617 0.279764 0.591466
O O10 0.500000 0.349029 0.250000
O O11 0.411135 0.614478 0.155374
O O12 0.358550 0.341473 0.528907
O O13 0.000000 0.500000 0.500000
#
# Coordination Sequence:
#
# PCOD9229353 Si02
#       6
#     4   4   4   4   4   4
#     4  10  19  39  64  92 124 162 214 258 318 379
#     4  10  20  37  62  93 125 158 213 266 311 375
#     4   9  21  39  61  87 125 169 214 253 316 386
#     4  11  21  39  67  93 123 165 217 264 315 371
#     4  11  21  38  63  95 132 160 214 270 310 370
#     4   9  21  39  60  89 125 170 210 254 319 383
#
# _framework density 26.998752
#
# number of rings (size 3 to 8) (size 9 to 14) (size 15 to 20)
#    0.000    2.000    3.333    0.000    7.000    1.333 
#    0.000   13.333    0.000    3.000    0.000    0.000 
#    0.000    0.000    0.000    0.000    0.000    0.000 
#
# Total GULP energy -133728.563783 kJ/mol
# GULP energy per Si atom -5572.023491 kJ/mol
# Density = 2.693730 g / cm^3
# Si number density = 26.998752 Si / 1000 Ang^3
#
#
#
# Elastic Constant Matrix: (Units=GPa)
#
#
# Indices 1 2 3 4 5 6 
#
# 1 179.4759 94.6832 53.3237 0.0000 46.4289 0.0000
# 2 94.6832 187.0324 48.1770 0.0000 17.6479 0.0000
# 3 53.3237 48.1770 102.9845 0.0000 12.6125 0.0000
# 4 0.0000 0.0000 0.0000 50.7504 0.0000 0.0534
# 5 46.4289 17.6479 12.6125 0.0000 45.8029 0.0000
# 6 0.0000 0.0000 0.0000 0.0534 0.0000 20.2817
#
#
#
# Elastic Compliance Matrix: (Units=1/GPa)
#
#
# Indices 1 2 3 4 5 6 
#
# 1 0.010614 -0.003890 -0.002630 0.000000 -0.008535 0.000000
# 2 -0.003890 0.007622 -0.001733 0.000000 0.001484 0.000000
# 3 -0.002630 -0.001733 0.011875 0.000000 0.000064 0.000000
# 4 0.000000 0.000000 0.000000 0.019704 0.000000 -0.000052
# 5 -0.008535 0.001484 0.000064 0.000000 0.029895 0.000000
# 6 0.000000 0.000000 0.000000 -0.000052 0.000000 0.049306
#
#
# Mechanical properties :
#
#
# Convention : Reuss Voigt Hill
#
# Bulk Modulus (GPa) = 73.50979 95.76228 84.63603
# Shear Modulus (GPa) = 33.32027 41.58758 37.45392
#
# Velocity S-wave (km/s) = 3.51685 3.92899 3.72862
# Velocity P-wave (km/s) = 6.61643 7.49191 7.06774
#
# Compressibility (1/GPa) = 0.01360363
#
# Stress axis : x y z
#
# Youngs Moduli (GPa) = 94.21924 131.19107 84.20928
#
# Poissons Ratio (x) = 0.51034 0.22150
# Poissons Ratio (y) = 0.36652 0.14596
# Poissons Ratio (z) = 0.24783 0.22740
#
# Static dielectric constant tensor:
#      x y z
#    x 2.177250 0.000000 -0.066700 
#    y 0.000000 2.421380 0.000000 
#    z -0.066700 0.000000 2.229860 
# 
# From -- ./inp_files/91053.got.cif
#   From: 2010.05.17/outbox.cif.g08.bks.cpg/sg13_46_cif.got.tgz:91053.got - 2010.06.03 16:44:36.
