data_PCOD9229450
_publ_section_title
;
Structure prediction by ZEFSAII (Michael W. Deem and Ramdas Pophale) SiO2 
 PCOD9229450
Probable space group: P 2/C
;
_chemical_formula_sum "Si O2"
_cell_formula_units_Z 28
_cell_length_a 6.320148
_cell_length_b 14.082764
_cell_length_c 14.888862
_cell_angle_alpha 90.000000
_cell_angle_beta 118.957397
_cell_angle_gamma 90.000000
_cell_volume 1159.510689
_symmetry_space_group_name_H-M "P 2/C"
_symmetry_group_IT_number 13
_symmetry_cell_setting 'monoclinic'
loop_
_space_group_symop_operation_xyz
x,y,z
-x,y,1/2-z
-x,-y,-z
x,-y,1/2+z
loop_
_atom_site_type_symbol
_atom_site_label
_atom_site_fract_x
_atom_site_fract_y
_atom_site_fract_z
Si Si1 0.735830 0.334288 0.347767
Si Si2 0.716598 0.773814 0.017505
Si Si3 0.248460 0.854707 0.847214
Si Si4 0.311740 0.397035 0.860233
Si Si5 0.000000 0.455070 0.250000
Si Si6 0.500000 0.022621 0.250000
Si Si7 0.016359 0.968062 0.401993
Si Si8 0.275371 0.495272 0.534119
O O1 0.500000 0.292380 0.250000
O O2 0.826278 0.262027 0.443904
O O3 0.621263 0.417691 0.386636
O O4 0.921917 0.380500 0.314519
O O5 0.426958 0.786265 0.939907
O O6 0.767928 0.697264 0.106728
O O7 0.831047 0.872453 0.071714
O O8 0.000000 0.815126 0.750000
O O9 0.432679 0.906728 0.816877
O O10 0.143811 0.943847 0.880180
O O11 0.599664 0.398346 0.910642
O O12 0.186918 0.456194 0.756674
O O13 0.285282 0.481181 0.930437
O O14 0.740377 0.960512 0.311961
O O15 0.000000 0.000000 0.500000
O O16 0.000000 0.500000 0.500000
#
# Coordination Sequence:
#
# PCOD9229450 Si02
#       8
#     4   4   4   4   2   2   4   4
#     4  11  24  41  67  97 134 175 233 293 335 421
#     4  11  25  45  65 107 142 176 242 286 343 420
#     4  10  23  46  72 100 142 183 226 293 358 419
#     4  10  23  40  65  94 130 178 225 283 332 420
#     4  12  22  46  68  92 138 186 226 284 368 386
#     4  10  22  44  76 102 130 198 228 276 362 436
#     4  11  23  46  75 100 147 193 226 289 364 426
#     4  10  19  41  63  86 127 175 218 267 360 397
#
# _framework density 24.148119000000001
#
# number of rings (size 3 to 8) (size 9 to 14) (size 15 to 20)
#    0.000    1.429    4.286    0.429    1.000    0.000 
#   15.429    0.000    1.571    0.000    0.000    0.000 
#    0.000    0.000    0.000    0.000    0.000    0.000 
#
# Total GULP energy -155940.085567 kJ/mol
# GULP energy per Si atom -5569.288770 kJ/mol
# Density = 2.409316 g / cm^3
# Si number density = 24.148119 Si / 1000 Ang^3
#
#
#
# Elastic Constant Matrix: (Units=GPa)
#
#
# Indices 1 2 3 4 5 6 
#
# 1 90.8608 32.9529 20.8207 0.0000 -5.4136 0.0000
# 2 32.9529 134.4555 44.1654 0.0000 5.4342 0.0000
# 3 20.8207 44.1654 58.7319 0.0000 8.9326 0.0000
# 4 0.0000 0.0000 0.0000 37.3289 0.0000 -3.1826
# 5 -5.4136 5.4342 8.9326 0.0000 45.1208 0.0000
# 6 0.0000 0.0000 0.0000 -3.1826 0.0000 12.2353
#
#
#
# Elastic Compliance Matrix: (Units=1/GPa)
#
#
# Indices 1 2 3 4 5 6 
#
# 1 0.012670 -0.002134 -0.003255 0.000000 0.002422 0.000000
# 2 -0.002134 0.010240 -0.006926 0.000000 -0.000118 0.000000
# 3 -0.003255 -0.006926 0.024045 0.000000 -0.004317 0.000000
# 4 0.000000 0.000000 0.000000 0.027396 0.000000 0.007126
# 5 0.002422 -0.000118 -0.004317 0.000000 0.023322 0.000000
# 6 0.000000 0.000000 0.000000 0.007126 0.000000 0.083584
#
#
# Mechanical properties :
#
#
# Convention : Reuss Voigt Hill
#
# Bulk Modulus (GPa) = 44.79233 53.32513 49.05873
# Shear Modulus (GPa) = 23.43782 31.34427 27.39104
#
# Velocity S-wave (km/s) = 3.11880 3.60669 3.37158
# Velocity P-wave (km/s) = 5.61770 6.28289 5.95958
#
# Compressibility (1/GPa) = 0.02232525
#
# Stress axis : x y z
#
# Youngs Moduli (GPa) = 78.92698 97.65455 41.58812
#
# Poissons Ratio (x) = 0.20838 0.13538
# Poissons Ratio (y) = 0.16841 0.28804
# Poissons Ratio (z) = 0.25693 0.67636
#
# Static dielectric constant tensor:
#      x y z
#    x 1.804170 0.000000 -0.547590 
#    y 0.000000 1.947550 0.000000 
#    z -0.547590 0.000000 0.494070 
# 
# From -- ./inp_files/61708.got.cif
#   From: 2010.05.17/outbox.cif.g08.bks.cpg/sg13_31_cif.got.tgz:61708.got - 2010.06.03 16:44:36.
