data_PCOD9229625
_publ_section_title
;
Structure prediction by ZEFSAII (Michael W. Deem and Ramdas Pophale) SiO2 
 PCOD9229625
Probable space group: P 2/C
;
_chemical_formula_sum "Si O2"
_cell_formula_units_Z 24
_cell_length_a 21.765843
_cell_length_b 12.079993
_cell_length_c 21.341684
_cell_angle_alpha 90.000000
_cell_angle_beta 167.042531
_cell_angle_gamma 90.000000
_cell_volume 1258.230316
_symmetry_space_group_name_H-M "P 2/C"
_symmetry_group_IT_number 13
_symmetry_cell_setting 'monoclinic'
loop_
_space_group_symop_operation_xyz
x,y,z
-x,y,1/2-z
-x,-y,-z
x,-y,1/2+z
loop_
_atom_site_type_symbol
_atom_site_label
_atom_site_fract_x
_atom_site_fract_y
_atom_site_fract_z
Si Si1 0.758192 0.120649 0.205139
Si Si2 0.560966 0.810838 0.740090
Si Si3 0.050530 0.655949 0.229978
Si Si4 0.722398 0.482745 0.300981
Si Si5 0.245914 0.021290 0.167827
Si Si6 0.236533 0.376958 0.287264
O O1 0.834410 0.101279 0.354103
O O2 0.759947 0.249418 0.191339
O O3 0.970225 0.045168 0.376423
O O4 0.453908 0.073256 0.897177
O O5 0.500000 0.849304 0.750000
O O6 0.356338 0.705587 0.523523
O O7 0.581318 0.907430 0.709986
O O8 0.868057 0.765654 0.046073
O O9 0.000000 0.610022 0.250000
O O10 0.900217 0.576420 0.031291
O O11 0.668915 0.397369 0.190774
O O12 0.927863 0.578387 0.481663
O O13 0.435868 0.545733 0.027684
#
# Coordination Sequence:
#
# PCOD9229625 Si02
#       6
#     4   4   4   4   4   4
#     4  10  20  33  51  76 105 137 171 210 260 314
#     4  10  20  34  54  79 105 135 173 220 269 314
#     4  10  20  34  54  79 105 135 173 220 269 314
#     4  10  20  33  52  76 104 137 170 213 263 312
#     4  10  20  33  52  76 104 137 170 213 263 312
#     4  10  20  33  51  76 105 137 171 210 260 314
#
# _framework density 19.074408999999999
#
# number of rings (size 3 to 8) (size 9 to 14) (size 15 to 20)
#    0.000    2.000    0.000    4.000    0.000    5.333 
#    0.000    0.000    0.000    4.000    0.000    0.000 
#    0.000    0.000    0.000    0.000    0.000    0.000 
#
# Total GULP energy -133675.677063 kJ/mol
# GULP energy per Si atom -5569.819878 kJ/mol
# Density = 1.903099 g / cm^3
# Si number density = 19.074409 Si / 1000 Ang^3
#
#
#
# Elastic Constant Matrix: (Units=GPa)
#
#
# Indices 1 2 3 4 5 6 
#
# 1 59.0064 29.8170 3.7674 0.0000 -12.7048 0.0000
# 2 29.8170 68.2831 10.6529 0.0000 -0.0715 0.0000
# 3 3.7674 10.6529 94.4262 0.0000 5.4629 0.0000
# 4 0.0000 0.0000 0.0000 23.9931 0.0000 -4.1303
# 5 -12.7048 -0.0715 5.4629 0.0000 24.3106 0.0000
# 6 0.0000 0.0000 0.0000 -4.1303 0.0000 14.9922
#
#
#
# Elastic Compliance Matrix: (Units=1/GPa)
#
#
# Indices 1 2 3 4 5 6 
#
# 1 0.025421 -0.011001 -0.000547 0.000000 0.013376 0.000000
# 2 -0.011001 0.019673 -0.001470 0.000000 -0.005361 0.000000
# 3 -0.000547 -0.001470 0.010937 0.000000 -0.002748 0.000000
# 4 0.000000 0.000000 0.000000 0.043754 0.000000 0.012054
# 5 0.013376 -0.005361 -0.002748 0.000000 0.048726 0.000000
# 6 0.000000 0.000000 0.000000 0.012054 0.000000 0.070022
#
#
# Mechanical properties :
#
#
# Convention : Reuss Voigt Hill
#
# Bulk Modulus (GPa) = 33.34033 34.46560 33.90296
# Shear Modulus (GPa) = 19.64111 24.49109 22.06610
#
# Velocity S-wave (km/s) = 3.21239 3.58715 3.40493
# Velocity P-wave (km/s) = 5.59252 5.93844 5.76808
#
# Compressibility (1/GPa) = 0.02999371
#
# Stress axis : x y z
#
# Youngs Moduli (GPa) = 39.33691 50.83208 91.43316
#
# Poissons Ratio (x) = 0.55922 0.05001
# Poissons Ratio (y) = 0.43276 0.13444
# Poissons Ratio (z) = 0.02152 0.07474
#
# Static dielectric constant tensor:
#      x y z
#    x 1.784960 0.000000 -0.009020 
#    y 0.000000 1.661430 0.000000 
#    z -0.009020 0.000000 1.679240 
# 
# From -- ./inp_files/89124.got.cif
#   From: 2010.05.17/outbox.cif.g08.bks.cpg/sg13_45_cif.got.tgz:89124.got - 2010.06.03 16:44:36.
