data_PCOD9229610
_publ_section_title
;
Structure prediction by ZEFSAII (Michael W. Deem and Ramdas Pophale) SiO2 
 PCOD9229610
Probable space group: P 2/C
;
_chemical_formula_sum "Si O2"
_cell_formula_units_Z 18
_cell_length_a 6.894399
_cell_length_b 19.902566
_cell_length_c 5.523308
_cell_angle_alpha 90.000000
_cell_angle_beta 101.344353
_cell_angle_gamma 90.000000
_cell_volume 743.080418
_symmetry_space_group_name_H-M "P 2/C"
_symmetry_group_IT_number 13
_symmetry_cell_setting 'monoclinic'
loop_
_space_group_symop_operation_xyz
x,y,z
-x,y,1/2-z
-x,-y,-z
x,-y,1/2+z
loop_
_atom_site_type_symbol
_atom_site_label
_atom_site_fract_x
_atom_site_fract_y
_atom_site_fract_z
Si Si1 0.262412 0.320420 0.932733
Si Si2 0.500000 0.146165 0.250000
Si Si3 0.300748 0.267551 0.443695
Si Si4 0.724074 0.972855 0.023139
Si Si5 0.774993 0.523846 0.170689
O O1 0.201289 0.279943 0.676634
O O2 0.213461 0.397996 0.892074
O O3 0.194542 0.289608 0.170974
O O4 0.501096 0.313261 0.999084
O O5 0.390062 0.193539 0.417589
O O6 0.327070 0.102163 0.080379
O O7 0.809864 0.014306 0.813653
O O8 0.500000 0.000000 0.000000
O O9 0.687146 0.513957 0.416661
O O10 0.000000 0.496260 0.250000
#
# Coordination Sequence:
#
# PCOD9229610 Si02
#       5
#     4   2   4   4   4
#     4   9  17  31  41  60  82  97 131 162 188 237
#     4   8  14  24  36  52  74 106 144 156 180 230
#     4   9  18  27  42  58  81 112 130 155 192 232
#     4   8  14  20  30  48  72 100 135 166 185 206
#     4  10  20  33  49  63  76  99 128 162 202 242
#
# _framework density 24.223488
#
# number of rings (size 3 to 8) (size 9 to 14) (size 15 to 20)
#    0.000    3.556    0.000    1.333    0.000   14.222 
#    0.000   13.333    0.000    0.000    0.000    0.000 
#    0.000    0.000    0.000    0.000    0.000 1060.000 
#
# Total GULP energy -100376.022144 kJ/mol
# GULP energy per Si atom -5576.445675 kJ/mol
# Density = 2.416835 g / cm^3
# Si number density = 24.223488 Si / 1000 Ang^3
#
#
#
# Elastic Constant Matrix: (Units=GPa)
#
#
# Indices 1 2 3 4 5 6 
#
# 1 66.5661 -10.2409 35.1537 0.0000 -3.5145 0.0000
# 2 -10.2409 122.3815 64.3263 0.0000 -2.3458 0.0000
# 3 35.1537 64.3263 292.2861 0.0000 -7.9114 0.0000
# 4 0.0000 0.0000 0.0000 91.4737 0.0000 -34.3377
# 5 -3.5145 -2.3458 -7.9114 0.0000 46.0630 0.0000
# 6 0.0000 0.0000 0.0000 -34.3377 0.0000 -23.0006
#
#
#
# Elastic Compliance Matrix: (Units=1/GPa)
#
#
# Indices 1 2 3 4 5 6 
#
# 1 0.016893 0.002812 -0.002624 0.000000 0.000981 0.000000
# 2 0.002812 0.009709 -0.002467 0.000000 0.000285 0.000000
# 3 -0.002624 -0.002467 0.004291 0.000000 0.000411 0.000000
# 4 0.000000 0.000000 0.000000 0.007006 0.000000 -0.010459
# 5 0.000981 0.000285 0.000411 0.000000 0.021869 0.000000
# 6 0.000000 0.000000 0.000000 -0.010459 0.000000 -0.027863
#
#
# Mechanical properties :
#
#
# Convention : Reuss Voigt Hill
#
# Bulk Modulus (GPa) = 37.97451 73.30134 55.63792
# Shear Modulus (GPa) = 110.51729 49.04020 79.77875
#
# Velocity S-wave (km/s) = 6.76188 4.50431 5.74508
# Velocity P-wave (km/s) = 8.75642 7.57482 8.18696
#
# Compressibility (1/GPa) = 0.02633346
#
# Stress axis : x y z
#
# Youngs Moduli (GPa) = 59.19712 103.00065 233.04695
#
# Poissons Ratio (x) = -0.28960 0.61150
# Poissons Ratio (y) = -0.16644 0.57495
# Poissons Ratio (z) = 0.15533 0.25411
#
# Static dielectric constant tensor:
#      x y z
#    x 0.739130 0.000000 0.551010 
#    y 0.000000 1.914920 0.000000 
#    z 0.551010 0.000000 1.673930 
# 
# From -- ./inp_files/1608.got.cif
#   From: 2010.05.17/outbox.cif.g08.bks.cpg/sg13_1_cif.got.tgz:1608.got - 2010.06.03 16:44:36.
