data_PCOD9229633
_publ_section_title
;
Structure prediction by ZEFSAII (Michael W. Deem and Ramdas Pophale) SiO2 
 PCOD9229633
Probable space group: P 2/C
;
_chemical_formula_sum "Si O2"
_cell_formula_units_Z 24
_cell_length_a 23.504023
_cell_length_b 14.368802
_cell_length_c 5.144257
_cell_angle_alpha 90.000000
_cell_angle_beta 123.540131
_cell_angle_gamma 90.000000
_cell_volume 1448.073214
_symmetry_space_group_name_H-M "P 2/C"
_symmetry_group_IT_number 13
_symmetry_cell_setting 'monoclinic'
loop_
_space_group_symop_operation_xyz
x,y,z
-x,y,1/2-z
-x,-y,-z
x,-y,1/2+z
loop_
_atom_site_type_symbol
_atom_site_label
_atom_site_fract_x
_atom_site_fract_y
_atom_site_fract_z
Si Si1 0.649567 0.939236 0.195337
Si Si2 0.500000 0.436979 0.750000
Si Si3 0.326200 0.739521 0.113381
Si Si4 0.411227 0.722603 0.835984
Si Si5 0.070724 0.438338 0.862206
Si Si6 0.500000 0.857237 0.750000
Si Si7 0.775676 0.567002 0.686617
O O1 0.690770 0.842453 0.321810
O O2 0.663550 0.008592 0.464298
O O3 0.567956 0.913567 0.996531
O O4 0.500000 0.500000 0.500000
O O5 0.436666 0.369294 0.543856
O O6 0.376738 0.702904 0.469912
O O7 0.360491 0.763481 0.921866
O O8 0.271951 0.657651 0.936044
O O9 0.473270 0.790302 0.913191
O O10 0.068752 0.475100 0.562085
O O11 0.000000 0.385867 0.750000
O O12 0.145512 0.397984 0.102627
O O13 0.765208 0.501524 0.407152
#
# Coordination Sequence:
#
# PCOD9229633 Si02
#       7
#     4   2   4   4   4   2   4
#     4  11  22  35  53  74  92 117 153 198 257 307
#     4  12  23  34  47  64  84 116 162 200 232 274
#     4  11  23  37  51  71 100 125 157 201 238 293
#     4  11  23  37  50  66  91 122 154 203 253 286
#     4   8  14  26  45  71 101 129 159 195 228 264
#     4  10  21  38  55  70  88 112 150 200 262 320
#     4  10  20  33  52  75 101 137 169 190 229 283
#
# _framework density 16.573746
#
# number of rings (size 3 to 8) (size 9 to 14) (size 15 to 20)
#    0.000    1.667    0.000    7.000    0.000    6.667 
#    0.000    0.000    0.000    0.000    0.000    0.000 
#    0.000    1.333    0.000    0.000    0.000    4.667 
#
# Total GULP energy -133750.800459 kJ/mol
# GULP energy per Si atom -5572.950019 kJ/mol
# Density = 1.653602 g / cm^3
# Si number density = 16.573746 Si / 1000 Ang^3
#
#
#
# Elastic Constant Matrix: (Units=GPa)
#
#
# Indices 1 2 3 4 5 6 
#
# 1 50.4543 19.9059 33.3098 0.0000 -13.2472 0.0000
# 2 19.9059 82.2678 30.8215 0.0000 -2.1594 0.0000
# 3 33.3098 30.8215 90.3537 0.0000 -19.1850 0.0000
# 4 0.0000 0.0000 0.0000 12.9161 0.0000 -7.5990
# 5 -13.2472 -2.1594 -19.1850 0.0000 31.7743 0.0000
# 6 0.0000 0.0000 0.0000 -7.5990 0.0000 16.1141
#
#
#
# Elastic Compliance Matrix: (Units=1/GPa)
#
#
# Indices 1 2 3 4 5 6 
#
# 1 0.028151 -0.003772 -0.007633 0.000000 0.006872 0.000000
# 2 -0.003772 0.014578 -0.004251 0.000000 -0.003148 0.000000
# 3 -0.007633 -0.004251 0.016741 0.000000 0.006637 0.000000
# 4 0.000000 0.000000 0.000000 0.107151 0.000000 0.050529
# 5 0.006872 -0.003148 0.006637 0.000000 0.038130 0.000000
# 6 0.000000 0.000000 0.000000 0.050529 0.000000 0.085886
#
#
# Mechanical properties :
#
#
# Convention : Reuss Voigt Hill
#
# Bulk Modulus (GPa) = 35.51171 43.46114 39.48642
# Shear Modulus (GPa) = 15.09053 21.43013 18.26033
#
# Velocity S-wave (km/s) = 3.02074 3.59976 3.32288
# Velocity P-wave (km/s) = 5.79995 6.59981 6.21277
#
# Compressibility (1/GPa) = 0.02815973
#
# Stress axis : x y z
#
# Youngs Moduli (GPa) = 35.52244 68.59653 59.73460
#
# Poissons Ratio (x) = 0.25873 0.45592
# Poissons Ratio (y) = 0.13398 0.25393
# Poissons Ratio (z) = 0.27113 0.29160
#
# Static dielectric constant tensor:
#      x y z
#    x 1.626720 0.000000 -0.011900 
#    y 0.000000 1.593780 0.000000 
#    z -0.011900 0.000000 1.608960 
# 
# From -- ./inp_files/7880.got.cif
#   From: 2010.05.17/outbox.cif.g08.bks.cpg/sg13_4_cif.got.tgz:7880.got - 2010.06.03 16:44:36.
