data_PCOD9229749
_publ_section_title
;
Structure prediction by ZEFSAII (Michael W. Deem and Ramdas Pophale) SiO2 
 PCOD9229749
Probable space group: P 2/C
;
_chemical_formula_sum "Si O2"
_cell_formula_units_Z 26
_cell_length_a 9.877483
_cell_length_b 4.973541
_cell_length_c 29.132428
_cell_angle_alpha 90.000000
_cell_angle_beta 67.299800
_cell_angle_gamma 90.000000
_cell_volume 1320.299161
_symmetry_space_group_name_H-M "P 2/C"
_symmetry_group_IT_number 13
_symmetry_cell_setting 'monoclinic'
loop_
_space_group_symop_operation_xyz
x,y,z
-x,y,1/2-z
-x,-y,-z
x,-y,1/2+z
loop_
_atom_site_type_symbol
_atom_site_label
_atom_site_fract_x
_atom_site_fract_y
_atom_site_fract_z
Si Si1 0.470931 0.096799 0.198529
Si Si2 0.004860 0.024228 0.836735
Si Si3 0.781390 0.070507 0.115064
Si Si4 0.957824 0.424249 0.556837
Si Si5 0.848457 0.475737 0.384474
Si Si6 0.000000 0.659509 0.750000
Si Si7 0.696538 0.597853 0.314352
O O1 0.500000 0.064515 0.250000
O O2 0.345814 0.895820 0.195763
O O3 0.609826 0.043105 0.146615
O O4 0.420184 0.398685 0.193685
O O5 0.880195 0.843280 0.879212
O O6 0.154623 0.980741 0.842944
O O7 0.009314 0.868340 0.789891
O O8 0.969113 0.336747 0.842709
O O9 0.841476 0.358981 0.091614
O O10 0.870726 0.856246 0.072511
O O11 0.000000 0.500000 0.500000
O O12 0.105551 0.435365 0.569703
O O13 0.712344 0.545420 0.367986
O O14 0.147230 0.487257 0.726943
#
# Coordination Sequence:
#
# PCOD9229749 Si02
#       7
#     4   4   4   4   4   2   4
#     4  12  25  39  56  82 120 164 196 219 272 347
#     4   9  18  31  52  77 107 142 176 229 281 320
#     4  10  21  37  56  84 119 147 185 236 282 340
#     4  10  20  38  66  90 109 141 188 245 298 337
#     4   9  19  34  53  82 109 135 178 233 287 328
#     4  10  20  34  54  80 108 144 198 238 274 324
#     4  11  23  36  55  79 113 155 194 238 280 324
#
# _framework density 19.692506000000002
#
# number of rings (size 3 to 8) (size 9 to 14) (size 15 to 20)
#    0.000    1.846    0.000    4.615    0.000   11.692 
#    0.000    0.000    0.000    5.538    0.000    0.000 
#    0.000    0.000    0.000    0.000    0.000    0.000 
#
# Total GULP energy -144738.459224 kJ/mol
# GULP energy per Si atom -5566.863816 kJ/mol
# Density = 1.964769 g / cm^3
# Si number density = 19.692506 Si / 1000 Ang^3
#
#
#
# Elastic Constant Matrix: (Units=GPa)
#
#
# Indices 1 2 3 4 5 6 
#
# 1 62.5613 -6.4047 28.2595 0.0000 11.2045 0.0000
# 2 -6.4047 68.3895 -10.6297 0.0000 -1.8863 0.0000
# 3 28.2595 -10.6297 46.9411 0.0000 9.7193 0.0000
# 4 0.0000 0.0000 0.0000 7.0388 0.0000 11.5862
# 5 11.2045 -1.8863 9.7193 0.0000 28.0248 0.0000
# 6 0.0000 0.0000 0.0000 11.5862 0.0000 27.6018
#
#
#
# Elastic Compliance Matrix: (Units=1/GPa)
#
#
# Indices 1 2 3 4 5 6 
#
# 1 0.022499 0.000024 -0.012581 0.000000 -0.004631 0.000000
# 2 0.000024 0.015156 0.003457 0.000000 -0.000188 0.000000
# 3 -0.012581 0.003457 0.030780 0.000000 -0.005412 0.000000
# 4 0.000000 0.000000 0.000000 0.459697 0.000000 -0.192964
# 5 -0.004631 -0.000188 -0.005412 0.000000 0.039398 0.000000
# 6 0.000000 0.000000 0.000000 -0.192964 0.000000 0.117229
#
#
# Mechanical properties :
#
#
# Convention : Reuss Voigt Hill
#
# Bulk Modulus (GPa) = 19.90610 22.26023 21.08316
# Shear Modulus (GPa) = 6.94729 23.64419 15.29574
#
# Velocity S-wave (km/s) = 1.88030 3.46883 2.79001
# Velocity P-wave (km/s) = 3.85285 5.23184 4.59438
#
# Compressibility (1/GPa) = 0.05023587
#
# Stress axis : x y z
#
# Youngs Moduli (GPa) = 44.44672 65.97853 32.48815
#
# Poissons Ratio (x) = -0.00158 0.40872
# Poissons Ratio (y) = -0.00106 -0.11230
# Poissons Ratio (z) = 0.55916 -0.22807
#
# Static dielectric constant tensor:
#      x y z
#    x 1.773060 0.000000 0.057050 
#    y 0.000000 1.730560 0.000000 
#    z 0.057050 0.000000 1.721660 
# 
# From -- ./inp_files/95415.got.cif
#   From: 2010.05.17/outbox.cif.g08.bks.cpg/sg13_48_cif.got.tgz:95415.got - 2010.06.03 16:44:36.
