data_PCOD9229891
_publ_section_title
;
Structure prediction by ZEFSAII (Michael W. Deem and Ramdas Pophale) SiO2 
 PCOD9229891
Probable space group: P 2/C
;
_chemical_formula_sum "Si O2"
_cell_formula_units_Z 26
_cell_length_a 8.636466
_cell_length_b 9.948988
_cell_length_c 19.444833
_cell_angle_alpha 90.000000
_cell_angle_beta 54.910347
_cell_angle_gamma 90.000000
_cell_volume 1367.121418
_symmetry_space_group_name_H-M "P 2/C"
_symmetry_group_IT_number 13
_symmetry_cell_setting 'monoclinic'
loop_
_space_group_symop_operation_xyz
x,y,z
-x,y,1/2-z
-x,-y,-z
x,-y,1/2+z
loop_
_atom_site_type_symbol
_atom_site_label
_atom_site_fract_x
_atom_site_fract_y
_atom_site_fract_z
Si Si1 0.597960 0.630189 0.385501
Si Si2 0.000000 0.502401 0.750000
Si Si3 0.635431 0.360057 0.037129
Si Si4 0.942939 0.369470 0.117725
Si Si5 0.616169 0.149608 0.650601
Si Si6 0.642695 0.154745 0.150239
Si Si7 0.910620 0.639631 0.060822
O O1 0.809542 0.588034 0.306029
O O2 0.471344 0.495144 0.411841
O O3 0.596596 0.661815 0.466921
O O4 0.507195 0.755496 0.368309
O O5 0.005480 0.594836 0.817533
O O6 0.570060 0.243638 0.105295
O O7 0.864608 0.358878 0.983502
O O8 0.822470 0.235725 0.135413
O O9 0.837333 0.505274 0.117266
O O10 0.107648 0.359315 0.017836
O O11 0.500000 0.141317 0.750000
O O12 0.807477 0.231556 0.615000
O O13 0.667761 0.997317 0.617544
O O14 0.500000 0.153148 0.250000
#
# Coordination Sequence:
#
# PCOD9229891 Si02
#       7
#     4   2   4   4   4   4   4
#     4  11  23  38  63  98 121 161 201 264 314 360
#     4  12  22  36  64 100 130 156 210 270 312 370
#     4  10  22  40  66  92 127 155 207 261 313 366
#     4  10  20  34  63  87 121 158 199 258 309 358
#     4  11  24  39  63  87 125 166 211 251 305 372
#     4  10  22  41  60  87 123 166 210 248 304 374
#     4  10  20  40  63  94 120 161 209 259 305 376
#
# _framework density 19.018063000000001
#
# number of rings (size 3 to 8) (size 9 to 14) (size 15 to 20)
#    0.000    1.538    1.538    4.615    2.154    4.308 
#    0.000    0.000   10.154    0.923    0.000    0.000 
#    0.000    0.000    0.000    0.000    0.000    0.000 
#
# Total GULP energy -144883.253287 kJ/mol
# GULP energy per Si atom -5572.432819 kJ/mol
# Density = 1.897478 g / cm^3
# Si number density = 19.018063 Si / 1000 Ang^3
#
#
#
# Elastic Constant Matrix: (Units=GPa)
#
#
# Indices 1 2 3 4 5 6 
#
# 1 93.7938 60.7238 39.6594 0.0000 7.1014 0.0000
# 2 60.7238 176.3905 51.1137 0.0000 -0.2770 0.0000
# 3 39.6594 51.1137 73.0536 0.0000 4.3531 0.0000
# 4 0.0000 0.0000 0.0000 28.9411 0.0000 9.4173
# 5 7.1014 -0.2770 4.3531 0.0000 44.4186 0.0000
# 6 0.0000 0.0000 0.0000 9.4173 0.0000 -19.6017
#
#
#
# Elastic Compliance Matrix: (Units=1/GPa)
#
#
# Indices 1 2 3 4 5 6 
#
# 1 0.015664 -0.003719 -0.005785 0.000000 -0.001961 0.000000
# 2 -0.003719 0.008007 -0.003643 0.000000 0.001002 0.000000
# 3 -0.005785 -0.003643 0.019437 0.000000 -0.001003 0.000000
# 4 0.000000 0.000000 0.000000 0.029881 0.000000 0.014356
# 5 -0.001961 0.001002 -0.001003 0.000000 0.022931 0.000000
# 6 0.000000 0.000000 0.000000 0.014356 0.000000 -0.044119
#
#
# Mechanical properties :
#
#
# Convention : Reuss Voigt Hill
#
# Bulk Modulus (GPa) = 59.47055 71.80353 65.63704
# Shear Modulus (GPa) = 59.73726 23.53434 41.63580
#
# Velocity S-wave (km/s) = 5.61061 3.52159 4.68405
# Velocity P-wave (km/s) = 8.56215 7.37380 7.99010
#
# Compressibility (1/GPa) = 0.01681504
#
# Stress axis : x y z
#
# Youngs Moduli (GPa) = 63.84061 124.89429 51.44735
#
# Poissons Ratio (x) = 0.46452 0.29760
# Poissons Ratio (y) = 0.23744 0.18741
# Poissons Ratio (z) = 0.36929 0.45495
#
# Static dielectric constant tensor:
#      x y z
#    x 1.722590 0.000000 -0.008270 
#    y 0.000000 1.681200 0.000000 
#    z -0.008270 0.000000 1.686230 
# 
# From -- ./inp_files/75945.got.cif
#   From: 2010.05.17/outbox.cif.g08.bks.cpg/sg13_38_cif.got.tgz:75945.got - 2010.06.03 16:44:36.
