data_PCOD9229213
_publ_section_title
;
Structure prediction by ZEFSAII (Michael W. Deem and Ramdas Pophale) SiO2 
 PCOD9229213
Probable space group: P 2/C
;
_chemical_formula_sum "Si O2"
_cell_formula_units_Z 28
_cell_length_a 26.631842
_cell_length_b 9.442599
_cell_length_c 8.507743
_cell_angle_alpha 90.000000
_cell_angle_beta 40.144795
_cell_angle_gamma 90.000000
_cell_volume 1379.365132
_symmetry_space_group_name_H-M "P 2/C"
_symmetry_group_IT_number 13
_symmetry_cell_setting 'monoclinic'
loop_
_space_group_symop_operation_xyz
x,y,z
-x,y,1/2-z
-x,-y,-z
x,-y,1/2+z
loop_
_atom_site_type_symbol
_atom_site_label
_atom_site_fract_x
_atom_site_fract_y
_atom_site_fract_z
Si Si1 0.977397 0.153908 0.989094
Si Si2 0.343553 0.369133 0.035518
Si Si3 0.242381 0.876752 0.831710
Si Si4 0.805890 0.441954 0.600294
Si Si5 0.208228 0.170361 0.049517
Si Si6 0.114512 0.681439 0.285630
Si Si7 0.443943 0.418669 0.512821
O O1 0.000000 0.166339 0.750000
O O2 0.026707 0.268592 0.969792
O O3 0.885691 0.168809 0.231411
O O4 0.000000 0.000000 0.000000
O O5 0.388979 0.334447 0.765336
O O6 0.314273 0.228067 0.194680
O O7 0.266930 0.461207 0.174167
O O8 0.394126 0.466891 0.031884
O O9 0.229418 0.854255 0.678587
O O10 0.167855 0.812627 0.100475
O O11 0.245702 0.041211 0.863707
O O12 0.771035 0.321725 0.571190
O O13 0.864397 0.548366 0.373892
O O14 0.853357 0.364196 0.623015
O O15 0.500000 0.500000 0.500000
O O16 0.500000 0.343973 0.250000
#
# Coordination Sequence:
#
# PCOD9229213 Si02
#       7
#     4   4   4   4   4   4   4
#     4  12  25  42  62  80 114 163 215 270 337 376
#     4  10  19  38  60  92 128 160 196 251 306 363
#     4  11  22  38  61  86 119 162 214 256 310 373
#     4  11  24  39  62  89 124 159 209 269 321 371
#     4  12  23  40  59  86 117 162 218 266 316 385
#     4  11  23  41  59  85 117 159 209 272 325 381
#     4   9  18  33  61  99 131 158 191 236 297 368
#
# _framework density 20.299194
#
# number of rings (size 3 to 8) (size 9 to 14) (size 15 to 20)
#    0.000    1.143    2.857    5.143    2.000    0.571 
#    0.000    0.000    0.000    0.000    0.000   63.000 
#    0.000    0.000    0.000    0.000    0.000    0.000 
#
# Total GULP energy -156442.308204 kJ/mol
# GULP energy per Si atom -5587.225293 kJ/mol
# Density = 2.025299 g / cm^3
# Si number density = 20.299194 Si / 1000 Ang^3
#
#
#
# Elastic Constant Matrix: (Units=GPa)
#
#
# Indices 1 2 3 4 5 6 
#
# 1 106.5659 14.5116 6.2012 0.0000 7.7562 0.0000
# 2 14.5116 95.2982 21.5219 0.0000 -4.4427 0.0000
# 3 6.2012 21.5219 74.7379 0.0000 0.1892 0.0000
# 4 0.0000 0.0000 0.0000 19.2144 0.0000 9.8381
# 5 7.7562 -4.4427 0.1892 0.0000 24.5954 0.0000
# 6 0.0000 0.0000 0.0000 9.8381 0.0000 21.0329
#
#
#
# Elastic Compliance Matrix: (Units=1/GPa)
#
#
# Indices 1 2 3 4 5 6 
#
# 1 0.009867 -0.001581 -0.000355 0.000000 -0.003394 0.000000
# 2 -0.001581 0.011581 -0.003210 0.000000 0.002615 0.000000
# 3 -0.000355 -0.003210 0.014335 0.000000 -0.000578 0.000000
# 4 0.000000 0.000000 0.000000 0.068434 0.000000 -0.032010
# 5 -0.003394 0.002615 -0.000578 0.000000 0.042205 0.000000
# 6 0.000000 0.000000 0.000000 -0.032010 0.000000 0.062517
#
#
# Mechanical properties :
#
#
# Convention : Reuss Voigt Hill
#
# Bulk Modulus (GPa) = 39.22877 40.11905 39.67391
# Shear Modulus (GPa) = 21.95599 28.59304 25.27452
#
# Velocity S-wave (km/s) = 3.29237 3.75718 3.53242
# Velocity P-wave (km/s) = 5.81551 6.21519 6.01867
#
# Compressibility (1/GPa) = 0.02549150
#
# Stress axis : x y z
#
# Youngs Moduli (GPa) = 101.34998 86.34838 69.75697
#
# Poissons Ratio (x) = 0.13648 0.02476
# Poissons Ratio (y) = 0.16019 0.22395
# Poissons Ratio (z) = 0.03597 0.27721
#
# Static dielectric constant tensor:
#      x y z
#    x 1.744140 0.000000 -0.001780 
#    y 0.000000 1.734340 0.000000 
#    z -0.001780 0.000000 1.772020 
# 
# From -- ./inp_files/24534.got.cif
#   From: 2010.05.17/outbox.cif.g08.bks.cpg/sg13_13_cif.got.tgz:24534.got - 2010.06.03 16:44:36.
