data_PCOD9229957
_publ_section_title
;
Structure prediction by ZEFSAII (Michael W. Deem and Ramdas Pophale) SiO2 
 PCOD9229957
Probable space group: P 2/C
;
_chemical_formula_sum "Si O2"
_cell_formula_units_Z 30
_cell_length_a 23.043659
_cell_length_b 12.038180
_cell_length_c 13.328014
_cell_angle_alpha 90.000000
_cell_angle_beta 25.700900
_cell_angle_gamma 90.000000
_cell_volume 1603.394303
_symmetry_space_group_name_H-M "P 2/C"
_symmetry_group_IT_number 13
_symmetry_cell_setting 'monoclinic'
loop_
_space_group_symop_operation_xyz
x,y,z
-x,y,1/2-z
-x,-y,-z
x,-y,1/2+z
loop_
_atom_site_type_symbol
_atom_site_label
_atom_site_fract_x
_atom_site_fract_y
_atom_site_fract_z
Si Si1 0.000000 0.003227 0.250000
Si Si2 0.133515 0.303998 0.767895
Si Si3 0.632831 0.112814 0.601035
Si Si4 0.126328 0.814234 0.914196
Si Si5 0.739960 0.846550 0.146078
Si Si6 0.161461 0.376338 0.508212
Si Si7 0.142656 0.388406 0.971754
Si Si8 0.356625 0.132486 0.486428
O O1 0.875750 0.082574 0.413757
O O2 0.943481 0.920291 0.423777
O O3 0.190371 0.363061 0.580380
O O4 0.121088 0.378555 0.886046
O O5 0.233799 0.205349 0.640415
O O6 0.990714 0.253494 0.959264
O O7 0.500000 0.151654 0.750000
O O8 0.762447 0.151769 0.338077
O O9 0.647177 0.148397 0.693447
O O10 0.633768 0.979371 0.592462
O O11 0.192229 0.733826 0.895989
O O12 0.778273 0.719971 0.113761
O O13 0.671008 0.894695 0.353807
O O14 0.211074 0.493871 0.389560
O O15 0.000000 0.381592 0.750000
O O16 0.000000 0.383942 0.250000
O O17 0.500000 0.191485 0.250000
#
# Coordination Sequence:
#
# PCOD9229957 Si02
#       8
#     2   4   4   4   4   4   4   4
#     4  12  20  36  60  94 120 152 188 252 294 352
#     4  10  20  36  60  85 113 156 195 246 293 349
#     4  11  25  38  58  87 123 163 193 239 300 355
#     4  11  21  37  59  91 119 154 198 240 294 353
#     4  11  23  38  59  88 124 151 196 251 294 353
#     4   9  20  35  56  86 117 152 195 244 293 349
#     4  10  20  35  55  87 118 150 195 245 304 340
#     4  10  23  39  58  86 118 161 195 235 298 362
#
# _framework density 18.710307
#
# number of rings (size 3 to 8) (size 9 to 14) (size 15 to 20)
#    0.000    1.600    4.000    1.600    1.867   10.133 
#    0.000    0.000    0.000   11.200    0.000    0.000 
#    0.000    0.000    0.000    0.000    0.000    0.000 
#
# Total GULP energy -167410.348971 kJ/mol
# GULP energy per Si atom -5580.344966 kJ/mol
# Density = 1.866772 g / cm^3
# Si number density = 18.710307 Si / 1000 Ang^3
#
#
#
# Elastic Constant Matrix: (Units=GPa)
#
#
# Indices 1 2 3 4 5 6 
#
# 1 149.4933 34.6698 33.6240 0.0000 19.5538 0.0000
# 2 34.6698 69.4944 6.9720 0.0000 8.2018 0.0000
# 3 33.6240 6.9720 57.5262 0.0000 1.9489 0.0000
# 4 0.0000 0.0000 0.0000 -1.6348 0.0000 11.0943
# 5 19.5538 8.2018 1.9489 0.0000 24.3139 0.0000
# 6 0.0000 0.0000 0.0000 11.0943 0.0000 16.4069
#
#
#
# Elastic Compliance Matrix: (Units=1/GPa)
#
#
# Indices 1 2 3 4 5 6 
#
# 1 0.009369 -0.003483 -0.004852 0.000000 -0.005971 0.000000
# 2 -0.003483 0.016439 0.000137 0.000000 -0.002755 0.000000
# 3 -0.004852 0.000137 0.020127 0.000000 0.002243 0.000000
# 4 0.000000 0.000000 0.000000 -0.109448 0.000000 0.074009
# 5 -0.005971 -0.002755 0.002243 0.000000 0.046681 0.000000
# 6 0.000000 0.000000 0.000000 0.074009 0.000000 0.010905
#
#
# Mechanical properties :
#
#
# Convention : Reuss Voigt Hill
#
# Bulk Modulus (GPa) = 33.85383 47.44949 40.65166
# Shear Modulus (GPa) = 246.13118 21.23377 133.68247
#
# Velocity S-wave (km/s) = 11.48190 3.37244 8.46190
# Velocity P-wave (km/s) = 13.92522 6.37021 10.82800
#
# Compressibility (1/GPa) = 0.02953875
#
# Stress axis : x y z
#
# Youngs Moduli (GPa) = 106.73155 60.83241 49.68502
#
# Poissons Ratio (x) = 0.21186 0.24107
# Poissons Ratio (y) = 0.37172 -0.00679
# Poissons Ratio (z) = 0.51786 -0.00831
#
# Static dielectric constant tensor:
#      x y z
#    x 1.655030 0.000000 0.008550 
#    y 0.000000 1.682550 0.000000 
#    z 0.008550 0.000000 1.641690 
# 
# From -- ./inp_files/40878.got.cif
#   From: 2010.05.17/outbox.cif.g08.bks.cpg/sg13_21_cif.got.tgz:40878.got - 2010.06.03 16:44:36.
