data_PCOD9229236
_publ_section_title
;
Structure prediction by ZEFSAII (Michael W. Deem and Ramdas Pophale) SiO2 
 PCOD9229236
Probable space group: P 2/C
;
_chemical_formula_sum "Si O2"
_cell_formula_units_Z 22
_cell_length_a 22.200647
_cell_length_b 9.869383
_cell_length_c 13.016963
_cell_angle_alpha 90.000000
_cell_angle_beta 23.987949
_cell_angle_gamma 90.000000
_cell_volume 1159.507020
_symmetry_space_group_name_H-M "P 2/C"
_symmetry_group_IT_number 13
_symmetry_cell_setting 'monoclinic'
loop_
_space_group_symop_operation_xyz
x,y,z
-x,y,1/2-z
-x,-y,-z
x,-y,1/2+z
loop_
_atom_site_type_symbol
_atom_site_label
_atom_site_fract_x
_atom_site_fract_y
_atom_site_fract_z
Si Si1 0.280644 0.519099 0.932834
Si Si2 0.159568 0.052377 0.557044
Si Si3 0.731007 0.716718 0.740186
Si Si4 0.119042 0.754280 0.655585
Si Si5 0.500000 0.593256 0.250000
Si Si6 0.963977 0.715817 0.115426
O O1 0.303603 0.613581 0.798423
O O2 0.418351 0.499356 0.793303
O O3 0.230922 0.370348 0.975445
O O4 0.145659 0.588644 0.205920
O O5 0.266332 0.133153 0.312996
O O6 0.127449 0.153399 0.701893
O O7 0.000000 0.040345 0.750000
O O8 0.199189 0.900042 0.525022
O O9 0.897979 0.693122 0.522149
O O10 0.619959 0.686102 0.005230
O O11 0.000000 0.742317 0.750000
O O12 0.031033 0.742986 0.899831
#
# Coordination Sequence:
#
# PCOD9229236 Si02
#       6
#     4   4   4   4   2   4
#     4  11  23  37  60  88 116 154 195 249 284 349
#     4   8  18  35  59  87 114 147 185 249 293 344
#     4  10  21  41  60  84 118 154 196 237 298 347
#     4  11  20  32  59  94 115 140 194 249 291 338
#     4  12  24  38  60  82 122 166 196 230 296 352
#     4  10  19  38  62  86 118 148 194 243 302 337
#
# _framework density 18.973579999999998
#
# number of rings (size 3 to 8) (size 9 to 14) (size 15 to 20)
#    0.000    1.818    1.818    4.364    2.545    0.000 
#    0.000    0.909    0.000    5.455    0.000    0.000 
#    0.000    0.000    0.000    0.000    0.000    0.000 
#
# Total GULP energy -122832.437007 kJ/mol
# GULP energy per Si atom -5583.292591 kJ/mol
# Density = 1.893039 g / cm^3
# Si number density = 18.973580 Si / 1000 Ang^3
#
#
#
# Elastic Constant Matrix: (Units=GPa)
#
#
# Indices 1 2 3 4 5 6 
#
# 1 96.2411 27.5516 14.5516 0.0000 -4.8652 0.0000
# 2 27.5516 137.3260 21.8636 0.0000 -8.5093 0.0000
# 3 14.5516 21.8636 48.5260 0.0000 0.0870 0.0000
# 4 0.0000 0.0000 0.0000 4.2345 0.0000 7.5304
# 5 -4.8652 -8.5093 0.0870 0.0000 32.7334 0.0000
# 6 0.0000 0.0000 0.0000 7.5304 0.0000 131.2070
#
#
#
# Elastic Compliance Matrix: (Units=1/GPa)
#
#
# Indices 1 2 3 4 5 6 
#
# 1 0.011358 -0.001788 -0.002603 0.000000 0.001230 0.000000
# 2 -0.001788 0.008266 -0.003191 0.000000 0.001892 0.000000
# 3 -0.002603 -0.003191 0.022828 0.000000 -0.001277 0.000000
# 4 0.000000 0.000000 0.000000 0.262996 0.000000 -0.015094
# 5 0.001230 0.001892 -0.001277 0.000000 0.031228 0.000000
# 6 0.000000 0.000000 0.000000 -0.015094 0.000000 0.008488
#
#
# Mechanical properties :
#
#
# Convention : Reuss Voigt Hill
#
# Bulk Modulus (GPa) = 36.64616 45.55854 41.10235
# Shear Modulus (GPa) = 13.53457 48.17675 30.85566
#
# Velocity S-wave (km/s) = 2.67374 5.04446 4.03705
# Velocity P-wave (km/s) = 5.37476 7.61528 6.59092
#
# Compressibility (1/GPa) = 0.02728799
#
# Stress axis : x y z
#
# Youngs Moduli (GPa) = 88.04228 120.97712 43.80559
#
# Poissons Ratio (x) = 0.21633 0.11400
# Poissons Ratio (y) = 0.15744 0.13980
# Poissons Ratio (z) = 0.22913 0.38609
#
# Static dielectric constant tensor:
#      x y z
#    x 1.667630 0.000000 0.007230 
#    y 0.000000 1.668190 0.000000 
#    z 0.007230 0.000000 1.654820 
# 
# From -- ./inp_files/58641.got.cif
#   From: 2010.05.17/outbox.cif.g08.bks.cpg/sg13_30_cif.got.tgz:58641.got - 2010.06.03 16:44:36.
