data_PCOD9229582
_publ_section_title
;
Structure prediction by ZEFSAII (Michael W. Deem and Ramdas Pophale) SiO2 
 PCOD9229582
Probable space group: P 2/C
;
_chemical_formula_sum "Si O2"
_cell_formula_units_Z 30
_cell_length_a 17.054240
_cell_length_b 16.574401
_cell_length_c 5.866246
_cell_angle_alpha 90.000000
_cell_angle_beta 121.132259
_cell_angle_gamma 90.000000
_cell_volume 1419.358608
_symmetry_space_group_name_H-M "P 2/C"
_symmetry_group_IT_number 13
_symmetry_cell_setting 'monoclinic'
loop_
_space_group_symop_operation_xyz
x,y,z
-x,y,1/2-z
-x,-y,-z
x,-y,1/2+z
loop_
_atom_site_type_symbol
_atom_site_label
_atom_site_fract_x
_atom_site_fract_y
_atom_site_fract_z
Si Si1 0.784409 0.029744 0.486450
Si Si2 0.667865 0.790192 0.235617
Si Si3 0.991417 0.171838 0.991107
Si Si4 0.590176 0.078470 0.266712
Si Si5 0.191596 0.196088 0.192313
Si Si6 0.500000 0.189339 0.750000
Si Si7 0.181707 0.298958 0.800013
Si Si8 0.031921 0.407397 0.547349
O O1 0.673629 0.020776 0.325114
O O2 0.805004 0.124281 0.486565
O O3 0.818484 0.005873 0.792578
O O4 0.737582 0.833468 0.513731
O O5 0.577134 0.762145 0.229679
O O6 0.734882 0.722910 0.236706
O O7 0.632744 0.854889 0.001258
O O8 0.000000 0.130414 0.750000
O O9 0.907544 0.236828 0.862339
O O10 0.091751 0.212787 0.140384
O O11 0.000000 0.126661 0.250000
O O12 0.500000 0.041241 0.250000
O O13 0.554399 0.131154 0.003022
O O14 0.219346 0.277168 0.106631
O O15 0.139230 0.386516 0.710318
O O16 0.000000 0.374567 0.750000
O O17 0.000000 0.500000 0.500000
O O18 0.000000 0.375364 0.250000
#
# Coordination Sequence:
#
# PCOD9229582 Si02
#       8
#     4   4   4   4   4   2   4   4
#     4  12  26  40  58  81 113 154 205 267 336 395
#     4  11  19  35  60  86 120 154 209 259 327 371
#     4  10  20  32  55  86 110 140 197 254 289 352
#     4  10  22  38  57  81 112 152 200 268 334 396
#     4  11  22  38  57  85 116 155 210 265 316 380
#     4  10  20  36  58  82 120 152 192 276 332 374
#     4  11  21  34  63  91 117 167 213 252 299 376
#     4  10  22  39  59  94 145 178 197 244 301 358
#
# _framework density 21.136308
#
# number of rings (size 3 to 8) (size 9 to 14) (size 15 to 20)
#    0.000    1.333    4.000    2.400    3.733    0.533 
#    0.000    0.000    0.000   10.400    0.000    0.000 
#    0.000    4.267    0.000    0.800    0.000    0.000 
#
# Total GULP energy -167108.293207 kJ/mol
# GULP energy per Si atom -5570.276440 kJ/mol
# Density = 2.108820 g / cm^3
# Si number density = 21.136308 Si / 1000 Ang^3
#
#
#
# Elastic Constant Matrix: (Units=GPa)
#
#
# Indices 1 2 3 4 5 6 
#
# 1 135.2101 23.3815 34.3123 0.0000 -9.2960 0.0000
# 2 23.3815 60.5623 29.1374 0.0000 0.6385 0.0000
# 3 34.3123 29.1374 146.3257 0.0000 -24.1466 0.0000
# 4 0.0000 0.0000 0.0000 18.0534 0.0000 7.8428
# 5 -9.2960 0.6385 -24.1466 0.0000 44.5729 0.0000
# 6 0.0000 0.0000 0.0000 7.8428 0.0000 27.8307
#
#
#
# Elastic Compliance Matrix: (Units=1/GPa)
#
#
# Indices 1 2 3 4 5 6 
#
# 1 0.008233 -0.002596 -0.001234 0.000000 0.001085 0.000000
# 2 -0.002596 0.019327 -0.003706 0.000000 -0.002826 0.000000
# 3 -0.001234 -0.003706 0.008596 0.000000 0.004453 0.000000
# 4 0.000000 0.000000 0.000000 0.063118 0.000000 -0.017787
# 5 0.001085 -0.002826 0.004453 0.000000 0.025114 0.000000
# 6 0.000000 0.000000 0.000000 -0.017787 0.000000 0.040944
#
#
# Mechanical properties :
#
#
# Convention : Reuss Voigt Hill
#
# Bulk Modulus (GPa) = 47.43181 57.30669 52.36925
# Shear Modulus (GPa) = 26.67620 35.10921 30.89270
#
# Velocity S-wave (km/s) = 3.55646 4.08006 3.82723
# Velocity P-wave (km/s) = 6.27329 7.02621 6.66040
#
# Compressibility (1/GPa) = 0.02108290
#
# Stress axis : x y z
#
# Youngs Moduli (GPa) = 121.46675 51.74100 116.32930
#
# Poissons Ratio (x) = 0.13432 0.14360
# Poissons Ratio (y) = 0.31532 0.43113
# Poissons Ratio (z) = 0.14995 0.19176
#
# Static dielectric constant tensor:
#      x y z
#    x 1.850020 0.000000 -0.050700 
#    y 0.000000 1.759200 0.000000 
#    z -0.050700 0.000000 1.945600 
# 
# From -- ./inp_files/6430.got.cif
#   From: 2010.05.17/outbox.cif.g08.bks.cpg/sg13_4_cif.got.tgz:6430.got - 2010.06.03 16:44:36.
