data_PCOD9229370
_publ_section_title
;
Structure prediction by ZEFSAII (Michael W. Deem and Ramdas Pophale) SiO2 
 PCOD9229370
Probable space group: P 2/C
;
_chemical_formula_sum "Si O2"
_cell_formula_units_Z 22
_cell_length_a 11.472769
_cell_length_b 10.915659
_cell_length_c 11.477586
_cell_angle_alpha 90.000000
_cell_angle_beta 143.466753
_cell_angle_gamma 90.000000
_cell_volume 855.651123
_symmetry_space_group_name_H-M "P 2/C"
_symmetry_group_IT_number 13
_symmetry_cell_setting 'monoclinic'
loop_
_space_group_symop_operation_xyz
x,y,z
-x,y,1/2-z
-x,-y,-z
x,-y,1/2+z
loop_
_atom_site_type_symbol
_atom_site_label
_atom_site_fract_x
_atom_site_fract_y
_atom_site_fract_z
Si Si1 0.187199 0.663583 0.127073
Si Si2 0.500000 0.500000 0.000000
Si Si3 0.500000 0.558351 0.750000
Si Si4 0.500000 0.159791 0.750000
Si Si5 0.208123 0.768130 0.583751
Si Si6 0.000000 0.343828 0.250000
Si Si7 0.000000 0.076926 0.750000
Si Si8 0.758375 0.881540 0.660156
O O1 0.303092 0.580670 0.310878
O O2 0.338881 0.759104 0.190038
O O3 0.089992 0.593712 0.937226
O O4 0.009070 0.733008 0.046604
O O5 0.566131 0.484162 0.915426
O O6 0.338130 0.648489 0.674462
O O7 0.396544 0.085801 0.563426
O O8 0.305466 0.852385 0.761138
O O9 0.173095 0.839185 0.436689
O O10 0.844307 0.248541 0.182769
O O11 0.075967 0.985049 0.711274
#
# Coordination Sequence:
#
# PCOD9229370 Si02
#       8
#     4   2   2   2   4   2   2   4
#     4  10  21  41  70 100 139 186 236 304 371 436
#     4  12  26  46  72 104 138 180 244 298 366 454
#     4  12  29  49  72 106 142 188 242 309 375 438
#     4  10  19  39  66 100 136 180 240 301 361 418
#     4  11  24  46  68  97 146 188 230 297 370 424
#     4   7  16  36  63  96 132 180 231 288 352 407
#     4  11  22  40  65 100 140 186 241 286 346 437
#     4   9  19  36  65  98 133 183 237 282 340 425
#
# _framework density 25.711414999999999
#
# number of rings (size 3 to 8) (size 9 to 14) (size 15 to 20)
#    0.000    1.818    0.000    4.364    0.000    4.364 
#    0.000    5.455    0.000    0.000    0.000    0.000 
#    0.000    0.000    0.000    0.000    0.000    0.000 
#
# Total GULP energy -122582.611495 kJ/mol
# GULP energy per Si atom -5571.936886 kJ/mol
# Density = 2.565289 g / cm^3
# Si number density = 25.711415 Si / 1000 Ang^3
#
#
#
# Elastic Constant Matrix: (Units=GPa)
#
#
# Indices 1 2 3 4 5 6 
#
# 1 102.7775 8.1024 -5.5659 0.0000 10.3018 0.0000
# 2 8.1024 53.5729 6.2876 0.0000 15.9359 0.0000
# 3 -5.5659 6.2876 95.2497 0.0000 -22.2339 0.0000
# 4 0.0000 0.0000 0.0000 -54.4241 0.0000 49.7274
# 5 10.3018 15.9359 -22.2339 0.0000 57.6037 0.0000
# 6 0.0000 0.0000 0.0000 49.7274 0.0000 10.6307
#
#
#
# Elastic Compliance Matrix: (Units=1/GPa)
#
#
# Indices 1 2 3 4 5 6 
#
# 1 0.009973 -0.001154 0.000348 0.000000 -0.001330 0.000000
# 2 -0.001154 0.021240 -0.003069 0.000000 -0.006854 0.000000
# 3 0.000348 -0.003069 0.011985 0.000000 0.005413 0.000000
# 4 0.000000 0.000000 0.000000 -0.003484 0.000000 0.016297
# 5 -0.001330 -0.006854 0.005413 0.000000 0.021583 0.000000
# 6 0.000000 0.000000 0.000000 0.016297 0.000000 0.017836
#
#
# Mechanical properties :
#
#
# Convention : Reuss Voigt Hill
#
# Bulk Modulus (GPa) = 28.20981 29.91648 29.06314
# Shear Modulus (GPa) = 50.65921 18.94714 34.80317
#
# Velocity S-wave (km/s) = 4.44362 2.71756 3.68313
# Velocity P-wave (km/s) = 6.10927 4.63763 5.42360
#
# Compressibility (1/GPa) = 0.03544866
#
# Stress axis : x y z
#
# Youngs Moduli (GPa) = 100.27204 47.08140 83.43598
#
# Poissons Ratio (x) = 0.05431 -0.02908
# Poissons Ratio (y) = 0.11568 0.25611
# Poissons Ratio (z) = -0.03494 0.14452
#
# Static dielectric constant tensor:
#      x y z
#    x 2.018300 0.000000 0.032620 
#    y 0.000000 1.259180 0.000000 
#    z 0.032620 0.000000 2.135400 
# 
# From -- ./inp_files/34087.got.cif
#   From: 2010.05.17/outbox.cif.g08.bks.cpg/sg13_18_cif.got.tgz:34087.got - 2010.06.03 16:44:36.
