data_PCOD9229187
_publ_section_title
;
Structure prediction by ZEFSAII (Michael W. Deem and Ramdas Pophale) SiO2 
 PCOD9229187
Probable space group: P 2/C
;
_chemical_formula_sum "Si O2"
_cell_formula_units_Z 24
_cell_length_a 25.382057
_cell_length_b 11.575492
_cell_length_c 22.245184
_cell_angle_alpha 90.000000
_cell_angle_beta 169.532578
_cell_angle_gamma 90.000000
_cell_volume 1187.410402
_symmetry_space_group_name_H-M "P 2/C"
_symmetry_group_IT_number 13
_symmetry_cell_setting 'monoclinic'
loop_
_space_group_symop_operation_xyz
x,y,z
-x,y,1/2-z
-x,-y,-z
x,-y,1/2+z
loop_
_atom_site_type_symbol
_atom_site_label
_atom_site_fract_x
_atom_site_fract_y
_atom_site_fract_z
Si Si1 0.371320 0.400664 0.896944
Si Si2 0.742974 0.598871 0.644058
Si Si3 0.500000 0.660118 0.250000
Si Si4 0.177744 0.032084 0.758607
Si Si5 0.000000 0.810241 0.750000
Si Si6 0.371849 0.157963 0.317025
Si Si7 0.547441 0.835501 0.151215
O O1 0.302284 0.471677 0.879752
O O2 0.065466 0.361177 0.524994
O O3 0.500000 0.500000 0.000000
O O4 0.592577 0.295380 0.149799
O O5 0.676918 0.593353 0.499603
O O6 0.533698 0.699633 0.435888
O O7 0.738477 0.736011 0.483643
O O8 0.952308 0.106019 0.544660
O O9 0.445615 0.105628 0.033045
O O10 0.000000 0.000000 0.500000
O O11 0.313623 0.908504 0.928230
O O12 0.848725 0.866533 0.521776
O O13 0.516915 0.132152 0.546199
#
# Coordination Sequence:
#
# PCOD9229187 Si02
#       7
#     4   4   2   4   2   4   4
#     4  11  21  35  57  88 118 159 194 254 297 343
#     4  10  22  36  57  86 125 152 198 246 309 359
#     4  10  22  38  54  88 120 158 190 244 304 376
#     4  10  21  33  55  81 113 150 182 238 286 345
#     4  10  22  34  58  84 120 154 188 234 308 364
#     4  11  21  35  54  83 117 149 195 232 296 348
#     4  10  19  38  55  87 119 148 189 242 301 360
#
# _framework density 20.212052
#
# number of rings (size 3 to 8) (size 9 to 14) (size 15 to 20)
#    0.000    1.667    1.667    5.000    4.667    5.333 
#    0.000    0.000    0.000    0.000    4.333    1.167 
#    0.000    0.000    0.000    0.000    0.000    0.000 
#
# Total GULP energy -133774.926693 kJ/mol
# GULP energy per Si atom -5573.955279 kJ/mol
# Density = 2.016605 g / cm^3
# Si number density = 20.212052 Si / 1000 Ang^3
#
#
#
# Elastic Constant Matrix: (Units=GPa)
#
#
# Indices 1 2 3 4 5 6 
#
# 1 72.1912 13.0591 28.9220 0.0000 3.1655 0.0000
# 2 13.0591 96.1887 30.5686 0.0000 11.2358 0.0000
# 3 28.9220 30.5686 95.5341 0.0000 10.2822 0.0000
# 4 0.0000 0.0000 0.0000 36.7944 0.0000 9.6244
# 5 3.1655 11.2358 10.2822 0.0000 43.9011 0.0000
# 6 0.0000 0.0000 0.0000 9.6244 0.0000 22.0048
#
#
#
# Elastic Compliance Matrix: (Units=1/GPa)
#
#
# Indices 1 2 3 4 5 6 
#
# 1 0.015806 -0.000706 -0.004571 0.000000 0.000112 0.000000
# 2 -0.000706 0.011806 -0.003328 0.000000 -0.002191 0.000000
# 3 -0.004571 -0.003328 0.013120 0.000000 -0.001892 0.000000
# 4 0.000000 0.000000 0.000000 0.030689 0.000000 -0.013423
# 5 0.000112 -0.002191 -0.001892 0.000000 0.023774 0.000000
# 6 0.000000 0.000000 0.000000 -0.013423 0.000000 0.051315
#
#
# Mechanical properties :
#
#
# Convention : Reuss Voigt Hill
#
# Bulk Modulus (GPa) = 42.51521 45.44595 43.98058
# Shear Modulus (GPa) = 29.14403 33.29767 31.22085
#
# Velocity S-wave (km/s) = 3.80137 4.06324 3.93449
# Velocity P-wave (km/s) = 6.35197 6.67433 6.51514
#
# Compressibility (1/GPa) = 0.02352099
#
# Stress axis : x y z
#
# Youngs Moduli (GPa) = 63.26571 84.70510 76.22071
#
# Poissons Ratio (x) = 0.05982 0.34842
# Poissons Ratio (y) = 0.04468 0.25365
# Poissons Ratio (z) = 0.28920 0.28189
#
# Static dielectric constant tensor:
#      x y z
#    x 1.805140 0.000000 0.055970 
#    y 0.000000 1.789420 0.000000 
#    z 0.055970 0.000000 1.830150 
# 
# From -- ./inp_files/89548.got.cif
#   From: 2010.05.17/outbox.cif.g08.bks.cpg/sg13_45_cif.got.tgz:89548.got - 2010.06.03 16:44:36.
