data_PCOD9229945
_publ_section_title
;
Structure prediction by ZEFSAII (Michael W. Deem and Ramdas Pophale) SiO2 
 PCOD9229945
Probable space group: P 2/C
;
_chemical_formula_sum "Si O2"
_cell_formula_units_Z 26
_cell_length_a 18.070264
_cell_length_b 9.706040
_cell_length_c 9.677464
_cell_angle_alpha 90.000000
_cell_angle_beta 136.204242
_cell_angle_gamma 90.000000
_cell_volume 1174.709678
_symmetry_space_group_name_H-M "P 2/C"
_symmetry_group_IT_number 13
_symmetry_cell_setting 'monoclinic'
loop_
_space_group_symop_operation_xyz
x,y,z
-x,y,1/2-z
-x,-y,-z
x,-y,1/2+z
loop_
_atom_site_type_symbol
_atom_site_label
_atom_site_fract_x
_atom_site_fract_y
_atom_site_fract_z
Si Si1 0.643066 0.447477 0.558768
Si Si2 0.399418 0.647802 0.777132
Si Si3 0.687556 0.767875 0.328149
Si Si4 0.658532 0.083504 0.196414
Si Si5 0.500000 0.818301 0.250000
Si Si6 0.906862 0.889028 0.028148
Si Si7 0.910949 0.830158 0.715922
O O1 0.644788 0.593812 0.636095
O O2 0.666622 0.429626 0.430540
O O3 0.520953 0.397052 0.417963
O O4 0.708971 0.334422 0.731726
O O5 0.393323 0.812354 0.762615
O O6 0.579076 0.729020 0.261947
O O7 0.793552 0.766519 0.562122
O O8 0.663940 0.924420 0.246756
O O9 0.779884 0.142072 0.351682
O O10 0.582902 0.098404 0.959364
O O11 0.000000 0.819475 0.250000
O O12 0.898855 0.038080 0.095360
O O13 0.940410 0.873077 0.912191
O O14 0.000000 0.745615 0.750000
#
# Coordination Sequence:
#
# PCOD9229945 Si02
#       7
#     4   4   4   4   2   4   4
#     4  10  23  38  57  82 118 161 204 243 294 359
#     4  10  23  38  57  82 118 161 204 243 294 359
#     4  11  24  36  60  88 122 162 196 246 302 357
#     4  11  24  36  60  88 122 162 196 246 302 357
#     4  12  22  36  56  88 132 152 200 236 318 356
#     4  10  20  35  55  82 114 155 201 248 294 347
#     4  10  20  35  55  82 114 155 201 248 294 347
#
# _framework density 22.133127000000002
#
# number of rings (size 3 to 8) (size 9 to 14) (size 15 to 20)
#    0.000    1.538    3.077    2.308    4.308    2.462 
#    0.000    0.000    0.000    0.923    0.000    4.308 
#    0.000    0.000    0.000    0.000    0.000    0.000 
#
# Total GULP energy -144813.475228 kJ/mol
# GULP energy per Si atom -5569.749047 kJ/mol
# Density = 2.208275 g / cm^3
# Si number density = 22.133127 Si / 1000 Ang^3
#
#
#
# Elastic Constant Matrix: (Units=GPa)
#
#
# Indices 1 2 3 4 5 6 
#
# 1 91.5708 -3.6905 51.6204 0.0000 3.0402 0.0000
# 2 -3.6905 63.5928 18.6411 0.0000 -1.8531 0.0000
# 3 51.6204 18.6411 165.8373 0.0000 -3.8357 0.0000
# 4 0.0000 0.0000 0.0000 13.5316 0.0000 -3.4188
# 5 3.0402 -1.8531 -3.8357 0.0000 49.0067 0.0000
# 6 0.0000 0.0000 0.0000 -3.4188 0.0000 5.2360
#
#
#
# Elastic Compliance Matrix: (Units=1/GPa)
#
#
# Indices 1 2 3 4 5 6 
#
# 1 0.013567 0.002069 -0.004481 0.000000 -0.001114 0.000000
# 2 0.002069 0.016587 -0.002501 0.000000 0.000303 0.000000
# 3 -0.004481 -0.002501 0.007724 0.000000 0.000788 0.000000
# 4 0.000000 0.000000 0.000000 0.088501 0.000000 0.057786
# 5 -0.001114 0.000303 0.000788 0.000000 0.020548 0.000000
# 6 0.000000 0.000000 0.000000 0.057786 0.000000 0.228718
#
#
# Mechanical properties :
#
#
# Convention : Reuss Voigt Hill
#
# Bulk Modulus (GPa) = 35.65036 50.46032 43.05534
# Shear Modulus (GPa) = 12.66387 30.51685 21.59036
#
# Velocity S-wave (km/s) = 2.39460 3.71723 3.12665
# Velocity P-wave (km/s) = 4.87726 6.42431 5.70348
#
# Compressibility (1/GPa) = 0.02805021
#
# Stress axis : x y z
#
# Youngs Moduli (GPa) = 73.70777 60.28758 129.46144
#
# Poissons Ratio (x) = -0.12471 0.58016
# Poissons Ratio (y) = -0.15246 0.32383
# Poissons Ratio (z) = 0.33031 0.15080
#
# Static dielectric constant tensor:
#      x y z
#    x 1.908640 0.000000 0.008080 
#    y 0.000000 1.846790 0.000000 
#    z 0.008080 0.000000 1.924970 
# 
# From -- ./inp_files/23396.got.cif
#   From: 2010.05.17/outbox.cif.g08.bks.cpg/sg13_12_cif.got.tgz:23396.got - 2010.06.03 16:44:36.
