data_PCOD9229220
_publ_section_title
;
Structure prediction by ZEFSAII (Michael W. Deem and Ramdas Pophale) SiO2 
 PCOD9229220
Probable space group: P 2/C
;
_chemical_formula_sum "Si O2"
_cell_formula_units_Z 24
_cell_length_a 11.413731
_cell_length_b 8.538042
_cell_length_c 18.969830
_cell_angle_alpha 90.000000
_cell_angle_beta 135.817170
_cell_angle_gamma 90.000000
_cell_volume 1288.401216
_symmetry_space_group_name_H-M "P 2/C"
_symmetry_group_IT_number 13
_symmetry_cell_setting 'monoclinic'
loop_
_space_group_symop_operation_xyz
x,y,z
-x,y,1/2-z
-x,-y,-z
x,-y,1/2+z
loop_
_atom_site_type_symbol
_atom_site_label
_atom_site_fract_x
_atom_site_fract_y
_atom_site_fract_z
Si Si1 0.004991 0.908743 0.575764
Si Si2 0.638530 0.740366 0.751116
Si Si3 0.659280 0.219007 0.903517
Si Si4 0.897944 0.840213 0.275037
Si Si5 0.550025 0.974263 0.603056
Si Si6 0.669170 0.627164 0.255017
O O1 0.184632 0.825421 0.658955
O O2 0.849688 0.787614 0.513280
O O3 0.993781 0.044332 0.629408
O O4 0.000000 0.000000 0.500000
O O5 0.500000 0.784234 0.750000
O O6 0.576228 0.801268 0.647340
O O7 0.668705 0.555197 0.770839
O O8 0.510038 0.338748 0.860581
O O9 0.673767 0.259715 0.826391
O O10 0.579401 0.058091 0.898457
O O11 0.830442 0.682941 0.281880
O O12 0.000000 0.804598 0.250000
O O13 0.727593 0.937073 0.186948
O O14 0.500000 0.000000 0.500000
#
# Coordination Sequence:
#
# PCOD9229220 Si02
#       6
#     4   4   4   4   4   4
#     4  11  21  35  61  93 115 157 216 256 297 367
#     4  11  23  39  64  93 126 164 208 260 314 375
#     4  10  19  38  61  86 126 159 206 260 303 369
#     4  10  21  38  60  87 124 161 205 258 308 367
#     4  10  22  39  64  88 120 166 214 257 309 367
#     4  10  21  40  59  89 129 164 198 259 322 370
#
# _framework density 18.627737
#
# number of rings (size 3 to 8) (size 9 to 14) (size 15 to 20)
#    0.000    1.667    3.333    2.000    7.000    0.667 
#    0.000    8.333    0.000    0.000    0.000    0.000 
#    0.000    0.000    0.000    0.000    0.000    0.000 
#
# Total GULP energy -133611.782616 kJ/mol
# GULP energy per Si atom -5567.157609 kJ/mol
# Density = 1.858534 g / cm^3
# Si number density = 18.627737 Si / 1000 Ang^3
#
#
#
# Elastic Constant Matrix: (Units=GPa)
#
#
# Indices 1 2 3 4 5 6 
#
# 1 136.4613 44.7286 37.2856 0.0000 2.0090 0.0000
# 2 44.7286 76.0580 39.1725 0.0000 -5.3693 0.0000
# 3 37.2856 39.1725 98.7417 0.0000 -2.6330 0.0000
# 4 0.0000 0.0000 0.0000 17.1330 0.0000 3.9458
# 5 2.0090 -5.3693 -2.6330 0.0000 36.0971 0.0000
# 6 0.0000 0.0000 0.0000 3.9458 0.0000 11.2837
#
#
#
# Elastic Compliance Matrix: (Units=1/GPa)
#
#
# Indices 1 2 3 4 5 6 
#
# 1 0.009360 -0.004727 -0.001695 0.000000 -0.001348 0.000000
# 2 -0.004727 0.019054 -0.005703 0.000000 0.002681 0.000000
# 3 -0.001695 -0.005703 0.013035 0.000000 0.000197 0.000000
# 4 0.000000 0.000000 0.000000 0.063479 0.000000 -0.022198
# 5 -0.001348 0.002681 0.000197 0.000000 0.028191 0.000000
# 6 0.000000 0.000000 0.000000 -0.022198 0.000000 0.096386
#
#
# Mechanical properties :
#
#
# Convention : Reuss Voigt Hill
#
# Bulk Modulus (GPa) = 58.13916 61.51494 59.82705
# Shear Modulus (GPa) = 19.26866 25.57439 22.42153
#
# Velocity S-wave (km/s) = 3.21971 3.70931 3.47315
# Velocity P-wave (km/s) = 6.71572 7.17219 6.94770
#
# Compressibility (1/GPa) = 0.01720011
#
# Stress axis : x y z
#
# Youngs Moduli (GPa) = 106.83253 52.48257 76.71527
#
# Poissons Ratio (x) = 0.24807 0.13006
# Poissons Ratio (y) = 0.50497 0.43748
# Poissons Ratio (z) = 0.18112 0.29929
#
# Static dielectric constant tensor:
#      x y z
#    x 1.667410 0.000000 -0.049720 
#    y 0.000000 1.638570 0.000000 
#    z -0.049720 0.000000 2.096450 
# 
# From -- ./inp_files/78145.got.cif
#   From: 2010.05.17/outbox.cif.g08.bks.cpg/sg13_40_cif.got.tgz:78145.got - 2010.06.03 16:44:36.
