data_PCOD9229448
_publ_section_title
;
Structure prediction by ZEFSAII (Michael W. Deem and Ramdas Pophale) SiO2 
 PCOD9229448
Probable space group: P 2/C
;
_chemical_formula_sum "Si O2"
_cell_formula_units_Z 22
_cell_length_a 14.706498
_cell_length_b 6.538700
_cell_length_c 13.187637
_cell_angle_alpha 90.000000
_cell_angle_beta 125.368140
_cell_angle_gamma 90.000000
_cell_volume 1034.105595
_symmetry_space_group_name_H-M "P 2/C"
_symmetry_group_IT_number 13
_symmetry_cell_setting 'monoclinic'
loop_
_space_group_symop_operation_xyz
x,y,z
-x,y,1/2-z
-x,-y,-z
x,-y,1/2+z
loop_
_atom_site_type_symbol
_atom_site_label
_atom_site_fract_x
_atom_site_fract_y
_atom_site_fract_z
Si Si1 0.591390 0.608779 0.413411
Si Si2 0.198525 0.676986 0.491298
Si Si3 0.312633 0.010600 0.430960
Si Si4 0.000000 0.445050 0.250000
Si Si5 0.632659 0.616861 0.150238
Si Si6 0.172823 0.321191 0.204259
O O1 0.692111 0.472254 0.432411
O O2 0.621278 0.847265 0.446249
O O3 0.455962 0.591366 0.314901
O O4 0.601881 0.528064 0.536689
O O5 0.159976 0.732923 0.578858
O O6 0.100163 0.568229 0.366786
O O7 0.233469 0.872756 0.449249
O O8 0.247385 0.156599 0.311741
O O9 0.375528 0.845278 0.400633
O O10 0.939825 0.330896 0.303932
O O11 0.758313 0.538191 0.253293
#
# Coordination Sequence:
#
# PCOD9229448 Si02
#       6
#     4   4   4   2   4   4
#     4   9  18  37  64  93 130 165 200 254 313 373
#     4  11  24  42  66  94 126 168 212 259 315 375
#     4  10  19  41  62 100 130 159 211 258 316 376
#     4  12  22  50  62  86 126 168 214 264 316 370
#     4   9  18  37  64  93 130 165 200 254 313 373
#     4  11  24  42  66  94 126 168 212 259 315 375
#
# _framework density 21.274422000000001
#
# number of rings (size 3 to 8) (size 9 to 14) (size 15 to 20)
#    0.000    1.818    5.455    1.091    0.000    4.364 
#    0.000    1.818    0.000    0.000    0.000    0.000 
#    0.000    0.000    0.000    0.000    0.000    0.000 
#
# Total GULP energy -122500.538952 kJ/mol
# GULP energy per Si atom -5568.206316 kJ/mol
# Density = 2.122600 g / cm^3
# Si number density = 21.274422 Si / 1000 Ang^3
#
#
#
# Elastic Constant Matrix: (Units=GPa)
#
#
# Indices 1 2 3 4 5 6 
#
# 1 152.9943 19.2981 15.8211 0.0000 -20.8064 0.0000
# 2 19.2981 83.0543 -0.0954 0.0000 8.6584 0.0000
# 3 15.8211 -0.0954 51.0122 0.0000 6.8513 0.0000
# 4 0.0000 0.0000 0.0000 17.0576 0.0000 -17.2488
# 5 -20.8064 8.6584 6.8513 0.0000 33.2197 0.0000
# 6 0.0000 0.0000 0.0000 -17.2488 0.0000 13.6538
#
#
#
# Elastic Compliance Matrix: (Units=1/GPa)
#
#
# Indices 1 2 3 4 5 6 
#
# 1 0.008080 -0.002551 -0.003373 0.000000 0.006421 0.000000
# 2 -0.002551 0.013193 0.001535 0.000000 -0.005353 0.000000
# 3 -0.003373 0.001535 0.021588 0.000000 -0.006965 0.000000
# 4 0.000000 0.000000 0.000000 -0.211300 0.000000 -0.266933
# 5 0.006421 -0.005353 -0.006965 0.000000 0.036956 0.000000
# 6 0.000000 0.000000 0.000000 -0.266933 0.000000 -0.263974
#
#
# Mechanical properties :
#
#
# Convention : Reuss Voigt Hill
#
# Bulk Modulus (GPa) = 29.34102 39.67872 34.50987
# Shear Modulus (GPa) = -13.32201 29.58870 8.13334
#
# Velocity S-wave (km/s) = -2.50511 3.73340 1.95739
# Velocity P-wave (km/s) = 2.33542 6.10539 4.62223
#
# Compressibility (1/GPa) = 0.03408198
#
# Stress axis : x y z
#
# Youngs Moduli (GPa) = 123.76247 75.79915 46.32287
#
# Poissons Ratio (x) = 0.19334 0.15625
# Poissons Ratio (y) = 0.31568 -0.07109
# Poissons Ratio (z) = 0.41747 -0.11633
#
# Static dielectric constant tensor:
#      x y z
#    x 1.823310 0.000000 0.030850 
#    y 0.000000 1.774060 0.000000 
#    z 0.030850 0.000000 1.838360 
# 
# From -- ./inp_files/52077.got.cif
#   From: 2010.05.17/outbox.cif.g08.bks.cpg/sg13_27_cif.got.tgz:52077.got - 2010.06.03 16:44:36.
