data_PCOD9229422
_publ_section_title
;
Structure prediction by ZEFSAII (Michael W. Deem and Ramdas Pophale) SiO2 
 PCOD9229422
Probable space group: P 2/C
;
_chemical_formula_sum "Si O2"
_cell_formula_units_Z 26
_cell_length_a 7.825914
_cell_length_b 14.725716
_cell_length_c 15.592855
_cell_angle_alpha 90.000000
_cell_angle_beta 145.893176
_cell_angle_gamma 90.000000
_cell_volume 1007.620097
_symmetry_space_group_name_H-M "P 2/C"
_symmetry_group_IT_number 13
_symmetry_cell_setting 'monoclinic'
loop_
_space_group_symop_operation_xyz
x,y,z
-x,y,1/2-z
-x,-y,-z
x,-y,1/2+z
loop_
_atom_site_type_symbol
_atom_site_label
_atom_site_fract_x
_atom_site_fract_y
_atom_site_fract_z
Si Si1 0.000000 0.967984 0.750000
Si Si2 0.167077 0.612605 0.493846
Si Si3 0.118591 0.700679 0.657514
Si Si4 0.646920 0.790257 0.000927
Si Si5 0.658419 0.147629 0.965247
Si Si6 0.437317 0.030239 0.131030
Si Si7 0.820288 0.480996 0.253723
O O1 0.272531 0.006595 0.804934
O O2 0.175262 0.905592 0.888812
O O3 0.212451 0.652465 0.607663
O O4 0.140582 0.704461 0.427159
O O5 0.473152 0.553305 0.599760
O O6 0.881061 0.547618 0.358521
O O7 0.349496 0.755268 0.818572
O O8 0.997855 0.613730 0.658002
O O9 0.862669 0.769460 0.522251
O O10 0.604906 0.807340 0.085043
O O11 0.714580 0.889948 0.988089
O O12 0.701964 0.068980 0.911774
O O13 0.500000 0.071054 0.250000
O O14 0.000000 0.526919 0.250000
#
# Coordination Sequence:
#
# PCOD9229422 Si02
#       7
#     2   4   4   4   4   4   4
#     4  10  20  40  64  90 126 172 226 280 330 392
#     4  11  24  41  69 101 130 174 228 288 342 417
#     4  11  20  39  67  95 123 169 224 277 332 411
#     4  10  19  40  65  94 124 174 229 276 333 413
#     4  11  21  39  65  95 128 172 224 285 324 399
#     4  11  23  40  64  97 137 177 232 279 345 406
#     4  11  23  42  69  96 132 175 224 282 350 412
#
# _framework density 25.803377000000001
#
# number of rings (size 3 to 8) (size 9 to 14) (size 15 to 20)
#    0.000    1.231    3.077    7.385    0.000    0.615 
#    2.769    3.077    1.692    0.000    0.000    0.000 
#    0.000    0.000    0.000    0.000    0.000    0.000 
#
# Total GULP energy -144788.752326 kJ/mol
# GULP energy per Si atom -5568.798166 kJ/mol
# Density = 2.574465 g / cm^3
# Si number density = 25.803377 Si / 1000 Ang^3
#
#
#
# Elastic Constant Matrix: (Units=GPa)
#
#
# Indices 1 2 3 4 5 6 
#
# 1 65.8764 19.4312 10.6530 0.0000 -14.5441 0.0000
# 2 19.4312 163.0333 27.5410 0.0000 5.0158 0.0000
# 3 10.6530 27.5410 48.0595 0.0000 -8.3975 0.0000
# 4 0.0000 0.0000 0.0000 -40.3086 0.0000 -78.2207
# 5 -14.5441 5.0158 -8.3975 0.0000 20.8257 0.0000
# 6 0.0000 0.0000 0.0000 -78.2207 0.0000 -15.5311
#
#
#
# Elastic Compliance Matrix: (Units=1/GPa)
#
#
# Indices 1 2 3 4 5 6 
#
# 1 0.019062 -0.002648 -0.000291 0.000000 0.013833 0.000000
# 2 -0.002648 0.007397 -0.004611 0.000000 -0.005491 0.000000
# 3 -0.000291 -0.004611 0.025468 0.000000 0.011177 0.000000
# 4 0.000000 0.000000 0.000000 0.002828 0.000000 -0.014242
# 5 0.013833 -0.005491 0.011177 0.000000 0.063508 0.000000
# 6 0.000000 0.000000 0.000000 -0.014242 0.000000 0.007339
#
#
# Mechanical properties :
#
#
# Convention : Reuss Voigt Hill
#
# Bulk Modulus (GPa) = 27.15459 43.57993 35.36726
# Shear Modulus (GPa) = 32.68454 7.62013 20.15233
#
# Velocity S-wave (km/s) = 3.56290 1.72034 2.79766
# Velocity P-wave (km/s) = 5.24139 4.56859 4.91651
#
# Compressibility (1/GPa) = 0.03682619
#
# Stress axis : x y z
#
# Youngs Moduli (GPa) = 52.45986 135.18458 39.26571
#
# Poissons Ratio (x) = 0.35803 0.01141
# Poissons Ratio (y) = 0.13894 0.18107
# Poissons Ratio (z) = 0.01524 0.62339
#
# Static dielectric constant tensor:
#      x y z
#    x 1.820930 0.000000 0.547620 
#    y 0.000000 2.104930 0.000000 
#    z 0.547620 0.000000 1.736850 
# 
# From -- ./inp_files/47938.got.cif
#   From: 2010.05.17/outbox.cif.g08.bks.cpg/sg13_24_cif.got.tgz:47938.got - 2010.06.03 16:44:36.
