data_PCOD9229975
_publ_section_title
;
Structure prediction by ZEFSAII (Michael W. Deem and Ramdas Pophale) SiO2 
 PCOD9229975
Probable space group: P 2/C
;
_chemical_formula_sum "Si O2"
_cell_formula_units_Z 16
_cell_length_a 8.392296
_cell_length_b 7.543130
_cell_length_c 12.053899
_cell_angle_alpha 90.000000
_cell_angle_beta 53.774526
_cell_angle_gamma 90.000000
_cell_volume 615.560471
_symmetry_space_group_name_H-M "P 2/C"
_symmetry_group_IT_number 13
_symmetry_cell_setting 'monoclinic'
loop_
_space_group_symop_operation_xyz
x,y,z
-x,y,1/2-z
-x,-y,-z
x,-y,1/2+z
loop_
_atom_site_type_symbol
_atom_site_label
_atom_site_fract_x
_atom_site_fract_y
_atom_site_fract_z
Si Si1 0.342902 0.472411 0.404457
Si Si2 0.648219 0.251503 0.430479
Si Si3 0.042050 0.814132 0.043283
Si Si4 0.727440 0.106025 0.823715
O O1 0.500000 0.540977 0.250000
O O2 0.498261 0.360617 0.416018
O O3 0.245418 0.614298 0.529632
O O4 0.169379 0.340883 0.434400
O O5 0.504393 0.141970 0.572982
O O6 0.756356 0.107014 0.310094
O O7 0.170373 0.848414 0.101691
O O8 0.828868 0.778137 0.186436
O O9 0.000000 0.000000 0.000000
#
# Coordination Sequence:
#
# PCOD9229975 Si02
#       4
#     4   4   4   4
#     4  10  20  35  57  87 119 151 191 242 297 350
#     4   9  19  37  58  79 111 155 199 241 287 349
#     4  10  20  35  56  84 116 152 194 240 293 355
#     4   9  19  37  57  79 111 155 200 239 289 349
#
# _framework density 25.992573
#
# number of rings (size 3 to 8) (size 9 to 14) (size 15 to 20)
#    0.000    2.500    0.000    1.500    0.000    2.000 
#    0.000   22.500    0.000    0.000    0.000    0.000 
#    0.000    0.000    0.000    0.000    0.000    0.000 
#
# Total GULP energy -89199.984371 kJ/mol
# GULP energy per Si atom -5574.999023 kJ/mol
# Density = 2.593341 g / cm^3
# Si number density = 25.992573 Si / 1000 Ang^3
#
#
#
# Elastic Constant Matrix: (Units=GPa)
#
#
# Indices 1 2 3 4 5 6 
#
# 1 76.6819 31.8672 27.8294 0.0000 -12.2949 0.0000
# 2 31.8672 83.5402 25.6614 0.0000 -9.6875 0.0000
# 3 27.8294 25.6614 78.2476 0.0000 -14.5148 0.0000
# 4 0.0000 0.0000 0.0000 29.1453 0.0000 -7.5987
# 5 -12.2949 -9.6875 -14.5148 0.0000 23.0085 0.0000
# 6 0.0000 0.0000 0.0000 -7.5987 0.0000 50.9306
#
#
#
# Elastic Compliance Matrix: (Units=1/GPa)
#
#
# Indices 1 2 3 4 5 6 
#
# 1 0.017150 -0.004874 -0.003604 0.000000 0.004839 0.000000
# 2 -0.004874 0.014912 -0.002803 0.000000 0.001905 0.000000
# 3 -0.003604 -0.002803 0.016314 0.000000 0.007186 0.000000
# 4 0.000000 0.000000 0.000000 0.035700 0.000000 0.005326
# 5 0.004839 0.001905 0.007186 0.000000 0.051383 0.000000
# 6 0.000000 0.000000 0.000000 0.005326 0.000000 0.020429
#
#
# Mechanical properties :
#
#
# Convention : Reuss Voigt Hill
#
# Bulk Modulus (GPa) = 38.73899 45.46508 42.10203
# Shear Modulus (GPa) = 26.73028 30.82432 28.77730
#
# Velocity S-wave (km/s) = 3.21032 3.44741 3.33097
# Velocity P-wave (km/s) = 5.35516 5.77717 5.57016
#
# Compressibility (1/GPa) = 0.02581379
#
# Stress axis : x y z
#
# Youngs Moduli (GPa) = 58.30883 67.06195 61.29763
#
# Poissons Ratio (x) = 0.32686 0.22089
# Poissons Ratio (y) = 0.28420 0.17184
# Poissons Ratio (z) = 0.21012 0.18800
#
# Static dielectric constant tensor:
#      x y z
#    x 2.017810 0.000000 -0.006660 
#    y 0.000000 2.285930 0.000000 
#    z -0.006660 0.000000 2.126800 
# 
# From -- ./inp_files/27317.got.cif
#   From: 2010.05.17/outbox.cif.g08.bks.cpg/sg13_14_cif.got.tgz:27317.got - 2010.06.03 16:44:36.
