data_PCOD9229857
_publ_section_title
;
Structure prediction by ZEFSAII (Michael W. Deem and Ramdas Pophale) SiO2 
 PCOD9229857
Probable space group: P 2/C
;
_chemical_formula_sum "Si O2"
_cell_formula_units_Z 22
_cell_length_a 14.912561
_cell_length_b 7.873480
_cell_length_c 18.785475
_cell_angle_alpha 90.000000
_cell_angle_beta 151.617683
_cell_angle_gamma 90.000000
_cell_volume 1048.472662
_symmetry_space_group_name_H-M "P 2/C"
_symmetry_group_IT_number 13
_symmetry_cell_setting 'monoclinic'
loop_
_space_group_symop_operation_xyz
x,y,z
-x,y,1/2-z
-x,-y,-z
x,-y,1/2+z
loop_
_atom_site_type_symbol
_atom_site_label
_atom_site_fract_x
_atom_site_fract_y
_atom_site_fract_z
Si Si1 0.602973 0.754787 0.888069
Si Si2 0.863128 0.257943 0.051835
Si Si3 0.500000 0.570467 0.250000
Si Si4 0.251698 0.633095 0.868992
Si Si5 0.377280 0.243009 0.941738
Si Si6 0.987779 0.117418 0.655510
O O1 0.500000 0.845031 0.750000
O O2 0.513429 0.566020 0.823859
O O3 0.583401 0.833310 0.952216
O O4 0.826221 0.744048 0.026953
O O5 0.799236 0.298366 0.088415
O O6 0.068815 0.343791 0.191149
O O7 0.903219 0.059409 0.070669
O O8 0.691711 0.323941 0.884171
O O9 0.302273 0.434437 0.904420
O O10 0.430401 0.738794 0.966283
O O11 0.201181 0.151699 0.781162
O O12 0.000000 0.110834 0.750000
#
# Coordination Sequence:
#
# PCOD9229857 Si02
#       6
#     4   4   2   4   4   4
#     4   9  19  35  55  85 108 155 185 223 286 342
#     4  11  21  37  55  87 114 153 183 238 288 338
#     4  10  20  34  60  78 116 152 192 224 274 352
#     4  10  20  37  59  85 113 144 203 234 278 325
#     4  10  20  36  61  87 108 149 193 245 270 335
#     4  10  20  35  58  85 111 147 189 232 290 330
#
# _framework density 20.982904999999999
#
# number of rings (size 3 to 8) (size 9 to 14) (size 15 to 20)
#    0.545    1.455    3.636    1.091    6.364    0.727 
#    0.000    2.727    0.000    2.182    0.000    0.000 
#    0.000    0.000    0.000    0.000    0.000    0.000 
#
# Total GULP energy -122629.604214 kJ/mol
# GULP energy per Si atom -5574.072919 kJ/mol
# Density = 2.093515 g / cm^3
# Si number density = 20.982905 Si / 1000 Ang^3
#
#
#
# Elastic Constant Matrix: (Units=GPa)
#
#
# Indices 1 2 3 4 5 6 
#
# 1 26.9256 11.9394 30.2550 0.0000 18.5714 0.0000
# 2 11.9394 54.5994 51.6034 0.0000 2.6687 0.0000
# 3 30.2550 51.6034 177.5410 0.0000 10.9699 0.0000
# 4 0.0000 0.0000 0.0000 30.8870 0.0000 -7.3302
# 5 18.5714 2.6687 10.9699 0.0000 30.9204 0.0000
# 6 0.0000 0.0000 0.0000 -7.3302 0.0000 6.7547
#
#
#
# Elastic Compliance Matrix: (Units=1/GPa)
#
#
# Indices 1 2 3 4 5 6 
#
# 1 0.081644 -0.007079 -0.009062 0.000000 -0.045211 0.000000
# 2 -0.007079 0.025872 -0.006582 0.000000 0.004354 0.000000
# 3 -0.009062 -0.006582 0.008914 0.000000 0.002849 0.000000
# 4 0.000000 0.000000 0.000000 0.043607 0.000000 0.047322
# 5 -0.045211 0.004354 0.002849 0.000000 0.058109 0.000000
# 6 0.000000 0.000000 0.000000 0.047322 0.000000 0.199399
#
#
# Mechanical properties :
#
#
# Convention : Reuss Voigt Hill
#
# Bulk Modulus (GPa) = 14.08781 49.62906 31.85844
# Shear Modulus (GPa) = 10.27427 24.73028 17.50227
#
# Velocity S-wave (km/s) = 2.21520 3.43679 2.89125
# Velocity P-wave (km/s) = 3.64299 6.28110 5.13437
#
# Compressibility (1/GPa) = 0.07098333
#
# Stress axis : x y z
#
# Youngs Moduli (GPa) = 12.24826 38.65239 112.18266
#
# Poissons Ratio (x) = 0.27361 1.01662
# Poissons Ratio (y) = 0.08670 0.73844
# Poissons Ratio (z) = 0.11100 0.25443
#
# Static dielectric constant tensor:
#      x y z
#    x 1.753180 0.000000 -0.015660 
#    y 0.000000 1.824960 0.000000 
#    z -0.015660 0.000000 1.807540 
# 
# From -- ./inp_files/87949.got.cif
#   From: 2010.05.17/outbox.cif.g08.bks.cpg/sg13_44_cif.got.tgz:87949.got - 2010.06.03 16:44:36.
