data_PCOD9229742
_publ_section_title
;
Structure prediction by ZEFSAII (Michael W. Deem and Ramdas Pophale) SiO2 
 PCOD9229742
Probable space group: P 2/C
;
_chemical_formula_sum "Si O2"
_cell_formula_units_Z 24
_cell_length_a 14.093424
_cell_length_b 14.708484
_cell_length_c 8.570330
_cell_angle_alpha 90.000000
_cell_angle_beta 31.487481
_cell_angle_gamma 90.000000
_cell_volume 927.923532
_symmetry_space_group_name_H-M "P 2/C"
_symmetry_group_IT_number 13
_symmetry_cell_setting 'monoclinic'
loop_
_space_group_symop_operation_xyz
x,y,z
-x,y,1/2-z
-x,-y,-z
x,-y,1/2+z
loop_
_atom_site_type_symbol
_atom_site_label
_atom_site_fract_x
_atom_site_fract_y
_atom_site_fract_z
Si Si1 0.707543 0.297207 0.019516
Si Si2 0.703298 0.480554 0.908431
Si Si3 0.782314 0.134102 0.089925
Si Si4 0.199888 0.812385 0.409095
Si Si5 0.779104 0.983691 0.301329
Si Si6 0.204910 0.369530 0.022689
O O1 0.500000 0.300504 0.250000
O O2 0.777050 0.399600 0.917246
O O3 0.715752 0.236352 0.160701
O O4 0.811991 0.239217 0.741524
O O5 0.500000 0.498051 0.250000
O O6 0.797421 0.575933 0.812587
O O7 0.706414 0.435265 0.733664
O O8 0.714830 0.066973 0.046312
O O9 0.000000 0.136682 0.750000
O O10 0.722659 0.084606 0.331445
O O11 0.274670 0.910843 0.258291
O O12 0.282387 0.732795 0.402460
O O13 0.000000 0.833284 0.750000
O O14 0.000000 0.000000 0.000000
O O15 0.000000 0.360510 0.250000
#
# Coordination Sequence:
#
# PCOD9229742 Si02
#       6
#     4   4   4   4   4   4
#     4   9  19  34  51  73 103 136 169 209 256 302
#     4  10  20  36  55  74 102 140 173 205 255 314
#     4   9  17  30  50  76 100 132 171 210 248 300
#     4   9  17  31  51  72  99 134 167 202 251 300
#     4   9  16  29  51  76 101 132 171 208 248 302
#     4  10  20  34  54  79 104 132 170 218 257 294
#
# _framework density 25.864197999999998
#
# number of rings (size 3 to 8) (size 9 to 14) (size 15 to 20)
#    0.000    2.667    0.000    2.500    0.000    0.667 
#    0.000   11.667    0.000    1.000    0.000    2.333 
#    0.000    0.000    0.000    0.000    0.000    0.000 
#
# Total GULP energy -133901.057679 kJ/mol
# GULP energy per Si atom -5579.210737 kJ/mol
# Density = 2.580533 g / cm^3
# Si number density = 25.864198 Si / 1000 Ang^3
#
#
#
# Elastic Constant Matrix: (Units=GPa)
#
#
# Indices 1 2 3 4 5 6 
#
# 1 38.0844 45.5259 5.8605 0.0000 6.6760 0.0000
# 2 45.5259 167.1395 -15.2040 0.0000 11.3902 0.0000
# 3 5.8605 -15.2040 74.4981 0.0000 -8.6790 0.0000
# 4 0.0000 0.0000 0.0000 23.8357 0.0000 17.3321
# 5 6.6760 11.3902 -8.6790 0.0000 16.1108 0.0000
# 6 0.0000 0.0000 0.0000 17.3321 0.0000 46.6866
#
#
#
# Elastic Compliance Matrix: (Units=1/GPa)
#
#
# Indices 1 2 3 4 5 6 
#
# 1 0.043768 -0.011651 -0.007441 0.000000 -0.013908 0.000000
# 2 -0.011651 0.009434 0.002803 0.000000 -0.000332 0.000000
# 3 -0.007441 0.002803 0.015694 0.000000 0.009556 0.000000
# 4 0.000000 0.000000 0.000000 0.057467 0.000000 -0.021334
# 5 -0.013908 -0.000332 0.009556 0.000000 0.073216 0.000000
# 6 0.000000 0.000000 0.000000 -0.021334 0.000000 0.029340
#
#
# Mechanical properties :
#
#
# Convention : Reuss Voigt Hill
#
# Bulk Modulus (GPa) = 27.53407 39.12077 33.32742
# Shear Modulus (GPa) = 18.27476 33.56258 25.91867
#
# Velocity S-wave (km/s) = 2.66101 3.60619 3.16904
# Velocity P-wave (km/s) = 4.48443 5.70068 5.12874
#
# Compressibility (1/GPa) = 0.03631864
#
# Stress axis : x y z
#
# Youngs Moduli (GPa) = 22.84793 105.99877 63.71913
#
# Poissons Ratio (x) = 1.23495 0.47414
# Poissons Ratio (y) = 0.26619 -0.17862
# Poissons Ratio (z) = 0.17001 -0.29714
#
# Static dielectric constant tensor:
#      x y z
#    x 2.141170 0.000000 0.019070 
#    y 0.000000 2.069610 0.000000 
#    z 0.019070 0.000000 2.079000 
# 
# From -- ./inp_files/19462.got.cif
#   From: 2010.05.17/outbox.cif.g08.bks.cpg/sg13_10_cif.got.tgz:19462.got - 2010.06.03 16:44:36.
