data_PCOD9229151
_publ_section_title
;
Structure prediction by ZEFSAII (Michael W. Deem and Ramdas Pophale) SiO2 
 PCOD9229151
Probable space group: P 2/C
;
_chemical_formula_sum "Si O2"
_cell_formula_units_Z 30
_cell_length_a 16.011364
_cell_length_b 12.146943
_cell_length_c 7.786555
_cell_angle_alpha 90.000000
_cell_angle_beta 62.858808
_cell_angle_gamma 90.000000
_cell_volume 1347.642190
_symmetry_space_group_name_H-M "P 2/C"
_symmetry_group_IT_number 13
_symmetry_cell_setting 'monoclinic'
loop_
_space_group_symop_operation_xyz
x,y,z
-x,y,1/2-z
-x,-y,-z
x,-y,1/2+z
loop_
_atom_site_type_symbol
_atom_site_label
_atom_site_fract_x
_atom_site_fract_y
_atom_site_fract_z
Si Si1 0.500000 0.205319 0.250000
Si Si2 0.874889 0.402987 0.606934
Si Si3 0.365409 0.372976 0.311647
Si Si4 0.394534 0.970983 0.045132
Si Si5 0.094068 0.222930 0.202943
Si Si6 0.142079 0.645108 0.980045
Si Si7 0.347612 0.616469 0.231983
Si Si8 0.306346 0.161863 0.930282
O O1 0.443257 0.287119 0.174333
O O2 0.416833 0.123461 0.385548
O O3 0.916535 0.325141 0.421770
O O4 0.897622 0.531443 0.563319
O O5 0.884283 0.359001 0.793249
O O6 0.764280 0.402218 0.666506
O O7 0.256869 0.352297 0.359077
O O8 0.389714 0.499589 0.247364
O O9 0.369614 0.359037 0.513814
O O10 0.330084 0.910325 0.241566
O O11 0.500000 0.000000 0.000000
O O12 0.349012 0.085315 0.035607
O O13 0.103246 0.260640 0.392276
O O14 0.000000 0.154571 0.250000
O O15 0.195573 0.174795 0.059787
O O16 0.357181 0.720665 0.348954
#
# Coordination Sequence:
#
# PCOD9229151 Si02
#       8
#     2   4   4   4   4   4   4   4
#     4  12  24  40  64 104 138 168 242 292 338 448
#     4   9  18  36  61  94 139 187 249 281 338 426
#     4  10  22  37  61  98 144 185 226 274 354 432
#     4  12  25  47  73 101 127 176 242 304 355 412
#     4  11  25  42  66 103 142 186 242 297 360 435
#     4  10  19  37  64  93 139 202 231 288 354 415
#     4   9  20  38  61  95 140 186 221 271 351 433
#     4  11  25  48  72 100 139 179 234 307 352 416
#
# _framework density 22.261101
#
# number of rings (size 3 to 8) (size 9 to 14) (size 15 to 20)
#    0.000    1.600    4.000    0.000    7.467    1.600 
#    2.400    0.667    0.000    0.000    0.000    0.000 
#    0.000    0.000    0.000    0.000    0.000    0.000 
#
# Total GULP energy -167410.337454 kJ/mol
# GULP energy per Si atom -5580.344582 kJ/mol
# Density = 2.221043 g / cm^3
# Si number density = 22.261101 Si / 1000 Ang^3
#
#
#
# Elastic Constant Matrix: (Units=GPa)
#
#
# Indices 1 2 3 4 5 6 
#
# 1 125.1233 54.2993 34.1641 0.0000 -9.2983 0.0000
# 2 54.2993 104.3032 14.4734 0.0000 6.2528 0.0000
# 3 34.1641 14.4734 68.6568 0.0000 7.9910 0.0000
# 4 0.0000 0.0000 0.0000 27.9671 0.0000 8.4893
# 5 -9.2983 6.2528 7.9910 0.0000 26.6989 0.0000
# 6 0.0000 0.0000 0.0000 8.4893 0.0000 27.6402
#
#
#
# Elastic Compliance Matrix: (Units=1/GPa)
#
#
# Indices 1 2 3 4 5 6 
#
# 1 0.012997 -0.006399 -0.006030 0.000000 0.007830 0.000000
# 2 -0.006399 0.013106 0.001075 0.000000 -0.005620 0.000000
# 3 -0.006030 0.001075 0.018248 0.000000 -0.007814 0.000000
# 4 0.000000 0.000000 0.000000 0.039433 0.000000 -0.012111
# 5 0.007830 -0.005620 -0.007814 0.000000 0.043836 0.000000
# 6 0.000000 0.000000 0.000000 -0.012111 0.000000 0.039899
#
#
# Mechanical properties :
#
#
# Convention : Reuss Voigt Hill
#
# Bulk Modulus (GPa) = 46.19991 55.99520 51.09756
# Shear Modulus (GPa) = 25.32384 29.47101 27.39742
#
# Velocity S-wave (km/s) = 3.37647 3.64246 3.51198
# Velocity P-wave (km/s) = 5.99995 6.54969 6.28084
#
# Compressibility (1/GPa) = 0.02164506
#
# Stress axis : x y z
#
# Youngs Moduli (GPa) = 76.93871 76.29885 54.79909
#
# Poissons Ratio (x) = 0.48823 0.33044
# Poissons Ratio (y) = 0.49233 -0.05893
# Poissons Ratio (z) = 0.46394 -0.08205
#
# Static dielectric constant tensor:
#      x y z
#    x 1.868100 0.000000 -0.028690 
#    y 0.000000 1.855730 0.000000 
#    z -0.028690 0.000000 1.921590 
# 
# From -- ./inp_files/21731.got.cif
#   From: 2010.05.17/outbox.cif.g08.bks.cpg/sg13_11_cif.got.tgz:21731.got - 2010.06.03 16:44:36.
