data_PCOD9229061
_publ_section_title
;
Structure prediction by ZEFSAII (Michael W. Deem and Ramdas Pophale) SiO2 
 PCOD9229061
Probable space group: P 2/C
;
_chemical_formula_sum "Si O2"
_cell_formula_units_Z 32
_cell_length_a 9.582278
_cell_length_b 12.109768
_cell_length_c 24.126105
_cell_angle_alpha 90.000000
_cell_angle_beta 152.006241
_cell_angle_gamma 90.000000
_cell_volume 1314.050672
_symmetry_space_group_name_H-M "P 2/C"
_symmetry_group_IT_number 13
_symmetry_cell_setting 'monoclinic'
loop_
_space_group_symop_operation_xyz
x,y,z
-x,y,1/2-z
-x,-y,-z
x,-y,1/2+z
loop_
_atom_site_type_symbol
_atom_site_label
_atom_site_fract_x
_atom_site_fract_y
_atom_site_fract_z
Si Si1 0.788935 0.781902 0.223389
Si Si2 0.270955 0.331158 0.970264
Si Si3 0.521602 0.989439 0.191739
Si Si4 0.321715 0.689932 0.980901
Si Si5 0.123870 0.070866 0.370504
Si Si6 0.810874 0.640518 0.879219
Si Si7 0.799724 0.607503 0.385278
Si Si8 0.401469 0.094786 0.050807
O O1 0.610458 0.872311 0.195872
O O2 0.570254 0.696852 0.115874
O O3 0.000000 0.835010 0.250000
O O4 0.017664 0.716933 0.341371
O O5 0.541046 0.366695 0.025691
O O6 0.080097 0.407945 0.942401
O O7 0.377674 0.225850 0.043281
O O8 0.500000 0.985312 0.250000
O O9 0.280123 0.039093 0.064507
O O10 0.776759 0.077303 0.262503
O O11 0.270777 0.819069 0.947729
O O12 0.017223 0.642899 0.897237
O O13 0.280410 0.064819 0.365674
O O14 0.204015 0.960778 0.432995
O O15 0.500000 0.695647 0.750000
O O16 0.716412 0.519339 0.869501
O O17 0.048045 0.675594 0.010861
O O18 0.500000 0.654655 0.250000
#
# Coordination Sequence:
#
# PCOD9229061 Si02
#       8
#     4   4   4   4   4   4   4   4
#     4  10  19  37  60  85 117 157 206 257 314 365
#     4  10  21  37  63  93 116 156 215 265 304 357
#     4  12  24  34  51  82 119 158 205 256 301 357
#     4  10  21  37  64  91 118 160 209 259 309 367
#     4  10  20  37  57  75 111 160 199 241 298 359
#     4  10  23  43  66  92 129 170 202 246 325 397
#     4  10  22  43  68  94 127 166 202 253 324 387
#     4  10  20  38  56  76 112 159 200 242 298 359
#
# _framework density 24.352181999999999
#
# number of rings (size 3 to 8) (size 9 to 14) (size 15 to 20)
#    0.000    1.750    2.500    1.875    0.000    5.000 
#    0.000    1.875    0.000    4.500    0.000    0.000 
#    0.000    0.000    0.000    0.000    0.000    0.000 
#
# Total GULP energy -178273.186487 kJ/mol
# GULP energy per Si atom -5571.037078 kJ/mol
# Density = 2.429675 g / cm^3
# Si number density = 24.352182 Si / 1000 Ang^3
#
#
#
# Elastic Constant Matrix: (Units=GPa)
#
#
# Indices 1 2 3 4 5 6 
#
# 1 183.4508 10.2901 42.0403 0.0000 -5.1973 0.0000
# 2 10.2901 39.6222 -2.8617 0.0000 -0.1370 0.0000
# 3 42.0403 -2.8617 75.3212 0.0000 5.7915 0.0000
# 4 0.0000 0.0000 0.0000 10.4496 0.0000 6.6227
# 5 -5.1973 -0.1370 5.7915 0.0000 36.6927 0.0000
# 6 0.0000 0.0000 0.0000 6.6227 0.0000 19.2396
#
#
#
# Elastic Compliance Matrix: (Units=1/GPa)
#
#
# Indices 1 2 3 4 5 6 
#
# 1 0.006475 -0.001951 -0.003804 0.000000 0.001510 0.000000
# 2 -0.001951 0.025896 0.002112 0.000000 -0.000513 0.000000
# 3 -0.003804 0.002112 0.015712 0.000000 -0.003011 0.000000
# 4 0.000000 0.000000 0.000000 0.122401 0.000000 -0.042133
# 5 0.001510 -0.000513 -0.003011 0.000000 0.027941 0.000000
# 6 0.000000 0.000000 0.000000 -0.042133 0.000000 0.066479
#
#
# Mechanical properties :
#
#
# Convention : Reuss Voigt Hill
#
# Bulk Modulus (GPa) = 24.51198 44.14797 34.32998
# Shear Modulus (GPa) = 17.49542 29.87141 23.68341
#
# Velocity S-wave (km/s) = 2.68327 3.50614 3.12194
# Velocity P-wave (km/s) = 4.43705 5.87869 5.20800
#
# Compressibility (1/GPa) = 0.04079637
#
# Stress axis : x y z
#
# Youngs Moduli (GPa) = 154.43777 38.61615 63.64722
#
# Poissons Ratio (x) = 0.07535 0.24213
# Poissons Ratio (y) = 0.30133 -0.13445
# Poissons Ratio (z) = 0.58753 -0.08157
#
# Static dielectric constant tensor:
#      x y z
#    x 2.020240 0.000000 0.068310 
#    y 0.000000 1.910420 0.000000 
#    z 0.068310 0.000000 2.628140 
# 
# From -- ./inp_files/85340.got.cif
#   From: 2010.05.17/outbox.cif.g08.bks.cpg/sg13_43_cif.got.tgz:85340.got - 2010.06.03 16:44:36.
