data_PCOD9229439
_publ_section_title
;
Structure prediction by ZEFSAII (Michael W. Deem and Ramdas Pophale) SiO2 
 PCOD9229439
Probable space group: P 2/C
;
_chemical_formula_sum "Si O2"
_cell_formula_units_Z 28
_cell_length_a 9.063620
_cell_length_b 14.130897
_cell_length_c 19.587486
_cell_angle_alpha 90.000000
_cell_angle_beta 146.240645
_cell_angle_gamma 90.000000
_cell_volume 1394.104062
_symmetry_space_group_name_H-M "P 2/C"
_symmetry_group_IT_number 13
_symmetry_cell_setting 'monoclinic'
loop_
_space_group_symop_operation_xyz
x,y,z
-x,y,1/2-z
-x,-y,-z
x,-y,1/2+z
loop_
_atom_site_type_symbol
_atom_site_label
_atom_site_fract_x
_atom_site_fract_y
_atom_site_fract_z
Si Si1 0.050259 0.829263 0.352215
Si Si2 0.388218 0.693198 0.279914
Si Si3 0.821944 0.759286 0.553814
Si Si4 0.490520 0.673079 0.543319
Si Si5 0.191153 0.966812 0.890330
Si Si6 0.015488 0.467754 0.832538
Si Si7 0.276125 0.367213 0.218830
O O1 0.815964 0.779874 0.303278
O O2 0.000000 0.821089 0.250000
O O3 0.311313 0.768167 0.469266
O O4 0.069856 0.939042 0.377322
O O5 0.500000 0.663407 0.250000
O O6 0.617601 0.729014 0.417269
O O7 0.215837 0.610553 0.248128
O O8 0.730449 0.697177 0.584491
O O9 0.808388 0.869048 0.568461
O O10 0.110778 0.727265 0.640643
O O11 0.588609 0.649640 0.656174
O O12 0.293429 0.587043 0.447544
O O13 0.000000 0.951343 0.750000
O O14 0.500000 0.000000 0.000000
O O15 0.938176 0.548136 0.856655
O O16 0.000000 0.506375 0.750000
O O17 0.500000 0.388612 0.250000
#
# Coordination Sequence:
#
# PCOD9229439 Si02
#       7
#     4   4   4   4   4   4   4
#     4  10  19  40  68  99 127 164 220 273 318 385
#     4  11  23  41  67  97 131 173 213 266 332 392
#     4  12  23  43  67  98 129 168 222 272 328 387
#     4  11  21  42  69  92 128 165 217 276 317 382
#     4  11  21  38  71 103 132 169 224 286 331 384
#     4  11  23  44  72  93 121 167 224 273 319 387
#     4  12  30  42  59  96 138 175 210 264 334 392
#
# _framework density 20.084584
#
# number of rings (size 3 to 8) (size 9 to 14) (size 15 to 20)
#    0.000    0.857    4.286    4.286    6.000    1.714 
#    0.000    1.429    0.000    0.000    0.000    0.000 
#    0.000    0.000    0.000    0.000    0.000    0.000 
#
# Total GULP energy -156426.446971 kJ/mol
# GULP energy per Si atom -5586.658820 kJ/mol
# Density = 2.003887 g / cm^3
# Si number density = 20.084584 Si / 1000 Ang^3
#
#
#
# Elastic Constant Matrix: (Units=GPa)
#
#
# Indices 1 2 3 4 5 6 
#
# 1 73.5511 26.2075 -7.6196 0.0000 15.1256 0.0000
# 2 26.2075 122.4134 17.9458 0.0000 8.5111 0.0000
# 3 -7.6196 17.9458 55.7552 0.0000 1.6261 0.0000
# 4 0.0000 0.0000 0.0000 -7.0247 0.0000 12.2339
# 5 15.1256 8.5111 1.6261 0.0000 25.4406 0.0000
# 6 0.0000 0.0000 0.0000 12.2339 0.0000 13.0601
#
#
#
# Elastic Compliance Matrix: (Units=1/GPa)
#
#
# Indices 1 2 3 4 5 6 
#
# 1 0.017165 -0.003585 0.003769 0.000000 -0.009247 0.000000
# 2 -0.003585 0.009511 -0.003527 0.000000 -0.000825 0.000000
# 3 0.003769 -0.003527 0.019653 0.000000 -0.002317 0.000000
# 4 0.000000 0.000000 0.000000 -0.054099 0.000000 0.050677
# 5 -0.009247 -0.000825 -0.002317 0.000000 0.045229 0.000000
# 6 0.000000 0.000000 0.000000 0.050677 0.000000 0.029098
#
#
# Mechanical properties :
#
#
# Convention : Reuss Voigt Hill
#
# Bulk Modulus (GPa) = 25.22378 36.08745 30.65561
# Shear Modulus (GPa) = 57.83154 20.64096 39.23625
#
# Velocity S-wave (km/s) = 5.37182 3.20926 4.42469
# Velocity P-wave (km/s) = 7.14572 5.63375 6.43430
#
# Compressibility (1/GPa) = 0.03964514
#
# Stress axis : x y z
#
# Youngs Moduli (GPa) = 58.25670 105.14246 50.88154
#
# Poissons Ratio (x) = 0.37689 -0.19179
# Poissons Ratio (y) = 0.20883 0.17946
# Poissons Ratio (z) = -0.21959 0.37084
#
# Static dielectric constant tensor:
#      x y z
#    x 1.679470 0.000000 0.052870 
#    y 0.000000 1.727460 0.000000 
#    z 0.052870 0.000000 1.724340 
# 
# From -- ./inp_files/76749.got.cif
#   From: 2010.05.17/outbox.cif.g08.bks.cpg/sg13_39_cif.got.tgz:76749.got - 2010.06.03 16:44:36.
