data_PCOD9229883
_publ_section_title
;
Structure prediction by ZEFSAII (Michael W. Deem and Ramdas Pophale) SiO2 
 PCOD9229883
Probable space group: P 2/C
;
_chemical_formula_sum "Si O2"
_cell_formula_units_Z 24
_cell_length_a 12.370761
_cell_length_b 7.113951
_cell_length_c 26.587357
_cell_angle_alpha 90.000000
_cell_angle_beta 27.573652
_cell_angle_gamma 90.000000
_cell_volume 1083.075680
_symmetry_space_group_name_H-M "P 2/C"
_symmetry_group_IT_number 13
_symmetry_cell_setting 'monoclinic'
loop_
_space_group_symop_operation_xyz
x,y,z
-x,y,1/2-z
-x,-y,-z
x,-y,1/2+z
loop_
_atom_site_type_symbol
_atom_site_label
_atom_site_fract_x
_atom_site_fract_y
_atom_site_fract_z
Si Si1 0.166260 0.817786 0.931192
Si Si2 0.831338 0.324326 0.775450
Si Si3 0.948377 0.263058 0.219180
Si Si4 0.604786 0.097234 0.507712
Si Si5 0.294310 0.880752 0.776935
Si Si6 0.952465 0.794487 0.415324
O O1 0.176768 0.748732 0.868919
O O2 0.431720 0.880211 0.830386
O O3 0.109484 0.702159 0.005414
O O4 0.000000 0.000000 0.000000
O O5 0.813971 0.547742 0.790973
O O6 0.596074 0.204321 0.877961
O O7 0.000000 0.255134 0.750000
O O8 0.969438 0.318560 0.665743
O O9 0.781086 0.171815 0.247623
O O10 0.000000 0.158247 0.250000
O O11 0.202351 0.253896 0.088001
O O12 0.500000 0.000000 0.500000
O O13 0.749271 0.939864 0.480102
O O14 0.183244 0.083172 0.831277
#
# Coordination Sequence:
#
# PCOD9229883 Si02
#       6
#     4   4   4   4   4   4
#     4   9  18  34  59  89 115 155 208 264 313 359
#     4  11  23  39  56  91 129 165 211 256 320 381
#     4  10  25  39  60  89 131 167 204 254 324 378
#     4  11  23  38  63  90 126 165 213 256 308 377
#     4   9  19  36  58  86 122 160 208 258 311 370
#     4  10  20  34  61  89 119 161 211 262 309 369
#
# _framework density 22.159115
#
# number of rings (size 3 to 8) (size 9 to 14) (size 15 to 20)
#    0.000    2.000    1.667    1.000    7.000    4.000 
#    0.000    0.833    0.000   18.000    0.000    0.000 
#    0.000    0.000    0.000    0.000    0.000    0.000 
#
# Total GULP energy -133615.172851 kJ/mol
# GULP energy per Si atom -5567.298869 kJ/mol
# Density = 2.210868 g / cm^3
# Si number density = 22.159115 Si / 1000 Ang^3
#
#
#
# Elastic Constant Matrix: (Units=GPa)
#
#
# Indices 1 2 3 4 5 6 
#
# 1 108.1620 -0.1546 46.7255 0.0000 30.1917 0.0000
# 2 -0.1546 41.2732 14.8649 0.0000 -3.5816 0.0000
# 3 46.7255 14.8649 106.6976 0.0000 2.1775 0.0000
# 4 0.0000 0.0000 0.0000 24.5059 0.0000 4.8157
# 5 30.1917 -3.5816 2.1775 0.0000 44.5905 0.0000
# 6 0.0000 0.0000 0.0000 4.8157 0.0000 -67.3577
#
#
#
# Elastic Compliance Matrix: (Units=1/GPa)
#
#
# Indices 1 2 3 4 5 6 
#
# 1 0.014690 0.001555 -0.006456 0.000000 -0.009506 0.000000
# 2 0.001555 0.025896 -0.004314 0.000000 0.001238 0.000000
# 3 -0.006456 -0.004314 0.012731 0.000000 0.003403 0.000000
# 4 0.000000 0.000000 0.000000 0.040241 0.000000 0.002877
# 5 -0.009506 0.001238 0.003403 0.000000 0.028796 0.000000
# 6 0.000000 0.000000 0.000000 0.002877 0.000000 -0.014640
#
#
# Mechanical properties :
#
#
# Convention : Reuss Voigt Hill
#
# Bulk Modulus (GPa) = 28.66360 42.11161 35.38760
# Shear Modulus (GPa) = 36.29184 13.32755 24.80970
#
# Velocity S-wave (km/s) = 4.05134 2.45510 3.34970
# Velocity P-wave (km/s) = 5.90322 5.20405 5.56463
#
# Compressibility (1/GPa) = 0.03488746
#
# Stress axis : x y z
#
# Youngs Moduli (GPa) = 68.07352 38.61637 78.54845
#
# Poissons Ratio (x) = -0.06006 0.50709
# Poissons Ratio (y) = -0.10587 0.33886
# Poissons Ratio (z) = 0.43947 0.16659
#
# Static dielectric constant tensor:
#      x y z
#    x 1.898780 0.000000 0.087450 
#    y 0.000000 1.852240 0.000000 
#    z 0.087450 0.000000 1.886260 
# 
# From -- ./inp_files/86273.got.cif
#   From: 2010.05.17/outbox.cif.g08.bks.cpg/sg13_44_cif.got.tgz:86273.got - 2010.06.03 16:44:36.
