data_PCOD9229257
_publ_section_title
;
Structure prediction by ZEFSAII (Michael W. Deem and Ramdas Pophale) SiO2 
 PCOD9229257
Probable space group: P 2/C
;
_chemical_formula_sum "Si O2"
_cell_formula_units_Z 26
_cell_length_a 12.246451
_cell_length_b 7.777745
_cell_length_c 14.711930
_cell_angle_alpha 90.000000
_cell_angle_beta 57.404601
_cell_angle_gamma 90.000000
_cell_volume 1180.595901
_symmetry_space_group_name_H-M "P 2/C"
_symmetry_group_IT_number 13
_symmetry_cell_setting 'monoclinic'
loop_
_space_group_symop_operation_xyz
x,y,z
-x,y,1/2-z
-x,-y,-z
x,-y,1/2+z
loop_
_atom_site_type_symbol
_atom_site_label
_atom_site_fract_x
_atom_site_fract_y
_atom_site_fract_z
Si Si1 0.502363 0.580111 0.397559
Si Si2 0.385890 0.053457 0.982188
Si Si3 0.500000 0.660065 0.750000
Si Si4 0.868976 0.083082 0.838638
Si Si5 0.031325 0.196981 0.514838
Si Si6 0.709834 0.109029 0.162088
Si Si7 0.771989 0.267571 0.710425
O O1 0.500000 0.500000 0.500000
O O2 0.427054 0.759599 0.430684
O O3 0.434254 0.454632 0.356480
O O4 0.646246 0.616912 0.289608
O O5 0.351034 0.933616 0.910824
O O6 0.250283 0.044551 0.096295
O O7 0.500000 0.000000 0.000000
O O8 0.398137 0.777263 0.742850
O O9 0.000000 0.988426 0.750000
O O10 0.905789 0.179042 0.914296
O O11 0.833163 0.225269 0.780814
O O12 0.158690 0.222802 0.396317
O O13 0.896328 0.301855 0.586925
O O14 0.000000 0.000000 0.500000
O O15 0.725743 0.921380 0.197578
#
# Coordination Sequence:
#
# PCOD9229257 Si02
#       7
#     4   4   2   4   4   4   4
#     4  12  26  38  57  88 131 164 201 254 312 367
#     4  11  20  38  63  87 115 157 211 253 297 362
#     4  12  26  40  56  90 130 164 200 252 318 372
#     4   9  18  32  62  92 112 143 203 258 293 347
#     4   8  17  34  61  95 114 146 204 263 301 351
#     4  10  21  38  66  89 116 160 210 259 307 367
#     4  10  19  38  63  89 117 158 210 251 305 364
#
# _framework density 22.022776
#
# number of rings (size 3 to 8) (size 9 to 14) (size 15 to 20)
#    0.000    1.846    1.538    2.769    4.308    0.000 
#    0.000    0.769    3.385    0.000    0.000    0.000 
#    0.000    0.000    0.000    0.000    0.000    0.000 
#
# Total GULP energy -144764.845369 kJ/mol
# GULP energy per Si atom -5567.878668 kJ/mol
# Density = 2.197265 g / cm^3
# Si number density = 22.022776 Si / 1000 Ang^3
#
#
#
# Elastic Constant Matrix: (Units=GPa)
#
#
# Indices 1 2 3 4 5 6 
#
# 1 38.1462 2.9548 -1.5695 0.0000 -21.8488 0.0000
# 2 2.9548 42.9283 5.7943 0.0000 -16.5795 0.0000
# 3 -1.5695 5.7943 58.7461 0.0000 -32.3974 0.0000
# 4 0.0000 0.0000 0.0000 37.6949 0.0000 -2.4498
# 5 -21.8488 -16.5795 -32.3974 0.0000 63.7402 0.0000
# 6 0.0000 0.0000 0.0000 -2.4498 0.0000 11.3012
#
#
#
# Elastic Compliance Matrix: (Units=1/GPa)
#
#
# Indices 1 2 3 4 5 6 
#
# 1 0.037685 0.003447 0.011512 0.000000 0.019666 0.000000
# 2 0.003447 0.026322 0.002672 0.000000 0.009387 0.000000
# 3 0.011512 0.002672 0.027270 0.000000 0.018502 0.000000
# 4 0.000000 0.000000 0.000000 0.026908 0.000000 0.005833
# 5 0.019666 0.009387 0.018502 0.000000 0.034275 0.000000
# 6 0.000000 0.000000 0.000000 0.005833 0.000000 0.089750
#
#
# Mechanical properties :
#
#
# Convention : Reuss Voigt Hill
#
# Bulk Modulus (GPa) = 7.90256 17.13108 12.51682
# Shear Modulus (GPa) = 20.07010 31.39001 25.73006
#
# Velocity S-wave (km/s) = 3.02211 3.77947 3.42180
# Velocity P-wave (km/s) = 3.97161 5.18088 4.61601
#
# Compressibility (1/GPa) = 0.12654121
#
# Stress axis : x y z
#
# Youngs Moduli (GPa) = 26.53543 37.99117 36.67063
#
# Poissons Ratio (x) = -0.13097 -0.42216
# Poissons Ratio (y) = -0.09148 -0.09800
# Poissons Ratio (z) = -0.30548 -0.10153
#
# Static dielectric constant tensor:
#      x y z
#    x 1.868220 0.000000 -0.036850 
#    y 0.000000 1.732740 0.000000 
#    z -0.036850 0.000000 1.949200 
# 
# From -- ./inp_files/49927.got.cif
#   From: 2010.05.17/outbox.cif.g08.bks.cpg/sg13_25_cif.got.tgz:49927.got - 2010.06.03 16:44:36.
