data_PCOD9229431
_publ_section_title
;
Structure prediction by ZEFSAII (Michael W. Deem and Ramdas Pophale) SiO2 
 PCOD9229431
Probable space group: P 2/C
;
_chemical_formula_sum "Si O2"
_cell_formula_units_Z 28
_cell_length_a 7.925836
_cell_length_b 6.956779
_cell_length_c 23.821485
_cell_angle_alpha 90.000000
_cell_angle_beta 74.619976
_cell_angle_gamma 90.000000
_cell_volume 1266.437644
_symmetry_space_group_name_H-M "P 2/C"
_symmetry_group_IT_number 13
_symmetry_cell_setting 'monoclinic'
loop_
_space_group_symop_operation_xyz
x,y,z
-x,y,1/2-z
-x,-y,-z
x,-y,1/2+z
loop_
_atom_site_type_symbol
_atom_site_label
_atom_site_fract_x
_atom_site_fract_y
_atom_site_fract_z
Si Si1 0.436684 0.677730 0.392156
Si Si2 0.187968 0.642991 0.956673
Si Si3 0.868949 0.198435 0.220282
Si Si4 0.885076 0.280716 0.407208
Si Si5 0.368134 0.928878 0.850490
Si Si6 0.344018 0.366036 0.168982
Si Si7 0.326304 0.099138 0.542812
O O1 0.304260 0.549277 0.440680
O O2 0.341337 0.855128 0.371974
O O3 0.515407 0.533797 0.338887
O O4 0.590373 0.780770 0.413694
O O5 0.989553 0.625906 0.950069
O O6 0.270129 0.793298 0.903994
O O7 0.225909 0.753539 0.010862
O O8 0.793028 0.362517 0.268193
O O9 0.000000 0.083830 0.250000
O O10 0.982283 0.264598 0.157119
O O11 0.709054 0.094998 0.204504
O O12 0.727699 0.386300 0.388419
O O13 0.806915 0.073155 0.430603
O O14 0.563292 0.842428 0.836053
O O15 0.500000 0.000000 0.500000
#
# Coordination Sequence:
#
# PCOD9229431 Si02
#       7
#     4   4   4   4   4   4   4
#     4  11  22  40  67  98 128 172 230 266 319 411
#     4  10  22  39  63  96 138 170 212 275 332 384
#     4   9  20  39  68  86 125 174 206 266 343 371
#     4  10  21  41  64  92 135 173 208 276 336 389
#     4  10  19  40  66  94 129 170 219 270 323 406
#     4  10  20  41  65  92 127 172 219 273 325 394
#     4  12  21  41  68  96 132 178 223 265 333 403
#
# _framework density 22.109259000000002
#
# number of rings (size 3 to 8) (size 9 to 14) (size 15 to 20)
#    0.000    1.714    2.857    2.143    0.000    0.000 
#    5.143   10.000    6.286    0.000    0.000    0.000 
#    0.000    0.000    0.000    0.000    0.000    0.000 
#
# Total GULP energy -156143.006744 kJ/mol
# GULP energy per Si atom -5576.535955 kJ/mol
# Density = 2.205894 g / cm^3
# Si number density = 22.109259 Si / 1000 Ang^3
#
#
#
# Elastic Constant Matrix: (Units=GPa)
#
#
# Indices 1 2 3 4 5 6 
#
# 1 73.8827 6.9219 9.7344 0.0000 22.1045 0.0000
# 2 6.9219 89.7653 5.5117 0.0000 -3.4644 0.0000
# 3 9.7344 5.5117 61.2776 0.0000 10.7474 0.0000
# 4 0.0000 0.0000 0.0000 15.1576 0.0000 7.4449
# 5 22.1045 -3.4644 10.7474 0.0000 57.0348 0.0000
# 6 0.0000 0.0000 0.0000 7.4449 0.0000 25.1803
#
#
#
# Elastic Compliance Matrix: (Units=1/GPa)
#
#
# Indices 1 2 3 4 5 6 
#
# 1 0.015594 -0.001348 -0.001325 0.000000 -0.005876 0.000000
# 2 -0.001348 0.011363 -0.001056 0.000000 0.001411 0.000000
# 3 -0.001325 -0.001056 0.017111 0.000000 -0.002775 0.000000
# 4 0.000000 0.000000 0.000000 0.077182 0.000000 -0.022820
# 5 -0.005876 0.001411 -0.002775 0.000000 0.020419 0.000000
# 6 0.000000 0.000000 0.000000 -0.022820 0.000000 0.046461
#
#
# Mechanical properties :
#
#
# Convention : Reuss Voigt Hill
#
# Bulk Modulus (GPa) = 27.31427 29.91795 28.61611
# Shear Modulus (GPa) = 24.06265 32.99171 28.52718
#
# Velocity S-wave (km/s) = 3.30260 3.86711 3.59595
# Velocity P-wave (km/s) = 5.18882 5.78797 5.49657
#
# Compressibility (1/GPa) = 0.03661090
#
# Stress axis : x y z
#
# Youngs Moduli (GPa) = 64.12815 88.00196 58.44078
#
# Poissons Ratio (x) = 0.11861 0.07746
# Poissons Ratio (y) = 0.08643 0.06169
# Poissons Ratio (z) = 0.08500 0.09289
#
# Static dielectric constant tensor:
#      x y z
#    x 1.991970 0.000000 -0.015850 
#    y 0.000000 1.789260 0.000000 
#    z -0.015850 0.000000 1.853380 
# 
# From -- ./inp_files/90806.got.cif
#   From: 2010.05.17/outbox.cif.g08.bks.cpg/sg13_46_cif.got.tgz:90806.got - 2010.06.03 16:44:36.
