data_PCOD9229592
_publ_section_title
;
Structure prediction by ZEFSAII (Michael W. Deem and Ramdas Pophale) SiO2 
 PCOD9229592
Probable space group: P 2/C
;
_chemical_formula_sum "Si O2"
_cell_formula_units_Z 30
_cell_length_a 11.319525
_cell_length_b 15.679212
_cell_length_c 13.794138
_cell_angle_alpha 90.000000
_cell_angle_beta 34.242211
_cell_angle_gamma 90.000000
_cell_volume 1377.584251
_symmetry_space_group_name_H-M "P 2/C"
_symmetry_group_IT_number 13
_symmetry_cell_setting 'monoclinic'
loop_
_space_group_symop_operation_xyz
x,y,z
-x,y,1/2-z
-x,-y,-z
x,-y,1/2+z
loop_
_atom_site_type_symbol
_atom_site_label
_atom_site_fract_x
_atom_site_fract_y
_atom_site_fract_z
Si Si1 0.000000 0.111732 0.750000
Si Si2 0.864017 0.125015 0.138510
Si Si3 0.660078 0.767084 0.401557
Si Si4 0.581296 0.917337 0.004197
Si Si5 0.798409 0.580625 0.316039
Si Si6 0.602857 0.473883 0.279983
Si Si7 0.789397 0.004424 0.545528
Si Si8 0.331130 0.714454 0.781591
O O1 0.198449 0.172737 0.626814
O O2 0.042444 0.050326 0.631352
O O3 0.776054 0.117562 0.307239
O O4 0.856507 0.218520 0.097775
O O5 0.086439 0.079454 0.985615
O O6 0.714005 0.065645 0.173529
O O7 0.573876 0.836320 0.384128
O O8 0.786546 0.680719 0.295278
O O9 0.458312 0.732576 0.596667
O O10 0.644026 0.951661 0.065716
O O11 0.500000 0.000000 0.000000
O O12 0.756577 0.528739 0.244376
O O13 0.598191 0.553988 0.518521
O O14 0.000000 0.566034 0.250000
O O15 0.500000 0.510666 0.250000
O O16 0.718208 0.384973 0.174045
O O17 0.500000 0.735380 0.750000
#
# Coordination Sequence:
#
# PCOD9229592 Si02
#       8
#     2   4   4   4   4   4   4   4
#     4  12  18  34  50  78 106 146 190 232 274 324
#     4  10  21  34  53  78 108 146 190 234 281 330
#     4  10  20  32  57  79 110 148 191 235 282 342
#     4  11  20  35  53  77 106 150 189 230 283 334
#     4  10  20  38  64  91 119 155 195 247 304 360
#     4   9  20  39  63  91 121 151 195 246 303 367
#     4  11  21  34  53  78 113 149 189 242 278 330
#     4   9  18  34  55  83 106 144 192 234 278 343
#
# _framework density 21.777252000000001
#
# number of rings (size 3 to 8) (size 9 to 14) (size 15 to 20)
#    0.000    1.867    3.333    0.800    1.867    0.533 
#    0.000    5.333    8.800    0.000    0.000    0.000 
#    0.000    0.000    0.000    0.000    0.000    0.000 
#
# Total GULP energy -167333.197051 kJ/mol
# GULP energy per Si atom -5577.773235 kJ/mol
# Density = 2.172769 g / cm^3
# Si number density = 21.777252 Si / 1000 Ang^3
#
#
#
# Elastic Constant Matrix: (Units=GPa)
#
#
# Indices 1 2 3 4 5 6 
#
# 1 163.1563 83.4024 8.4601 0.0000 5.7968 0.0000
# 2 83.4024 129.6809 12.1046 0.0000 -10.6803 0.0000
# 3 8.4601 12.1046 35.3749 0.0000 12.5659 0.0000
# 4 0.0000 0.0000 0.0000 21.5434 0.0000 1.2660
# 5 5.7968 -10.6803 12.5659 0.0000 29.8227 0.0000
# 6 0.0000 0.0000 0.0000 1.2660 0.0000 26.0289
#
#
#
# Elastic Compliance Matrix: (Units=1/GPa)
#
#
# Indices 1 2 3 4 5 6 
#
# 1 0.009710 -0.006837 0.001831 0.000000 -0.005108 0.000000
# 2 -0.006837 0.013383 -0.006020 0.000000 0.008658 0.000000
# 3 0.001831 -0.006020 0.036201 0.000000 -0.017765 0.000000
# 4 0.000000 0.000000 0.000000 0.046551 0.000000 -0.002264
# 5 -0.005108 0.008658 -0.017765 0.000000 0.045111 0.000000
# 6 0.000000 0.000000 0.000000 -0.002264 0.000000 0.038529
#
#
# Mechanical properties :
#
#
# Convention : Reuss Voigt Hill
#
# Bulk Modulus (GPa) = 26.84988 59.57182 43.21085
# Shear Modulus (GPa) = 22.32634 30.42866 26.37750
#
# Velocity S-wave (km/s) = 3.20537 3.74206 3.48406
# Velocity P-wave (km/s) = 5.10444 6.78860 6.00585
#
# Compressibility (1/GPa) = 0.03724411
#
# Stress axis : x y z
#
# Youngs Moduli (GPa) = 102.98254 74.72075 27.62335
#
# Poissons Ratio (x) = 0.51084 -0.05059
# Poissons Ratio (y) = 0.70406 0.16629
# Poissons Ratio (z) = -0.18860 0.44982
#
# Static dielectric constant tensor:
#      x y z
#    x 1.830390 0.000000 -0.038680 
#    y 0.000000 1.798220 0.000000 
#    z -0.038680 0.000000 1.921820 
# 
# From -- ./inp_files/51339.got.cif
#   From: 2010.05.17/outbox.cif.g08.bks.cpg/sg13_26_cif.got.tgz:51339.got - 2010.06.03 16:44:36.
