data_PCOD9229223
_publ_section_title
;
Structure prediction by ZEFSAII (Michael W. Deem and Ramdas Pophale) SiO2 
 PCOD9229223
Probable space group: P 2/C
;
_chemical_formula_sum "Si O2"
_cell_formula_units_Z 32
_cell_length_a 14.985832
_cell_length_b 18.390555
_cell_length_c 11.713674
_cell_angle_alpha 90.000000
_cell_angle_beta 151.112748
_cell_angle_gamma 90.000000
_cell_volume 1559.533490
_symmetry_space_group_name_H-M "P 2/C"
_symmetry_group_IT_number 13
_symmetry_cell_setting 'monoclinic'
loop_
_space_group_symop_operation_xyz
x,y,z
-x,y,1/2-z
-x,-y,-z
x,-y,1/2+z
loop_
_atom_site_type_symbol
_atom_site_label
_atom_site_fract_x
_atom_site_fract_y
_atom_site_fract_z
Si Si1 0.817822 0.424619 0.593897
Si Si2 0.789984 0.030055 0.265410
Si Si3 0.778073 0.802469 0.497718
Si Si4 0.761881 0.204348 0.231812
Si Si5 0.226090 0.027786 0.507128
Si Si6 0.906837 0.739878 0.260018
Si Si7 0.533185 0.568207 0.958761
Si Si8 0.403649 0.734947 0.426433
O O1 0.885410 0.345817 0.712902
O O2 0.658780 0.415901 0.321732
O O3 0.701655 0.457348 0.566713
O O4 0.000000 0.463275 0.750000
O O5 0.789696 0.117643 0.262919
O O6 0.710870 0.005354 0.051555
O O7 0.711476 0.007400 0.302265
O O8 0.000000 0.000000 0.500000
O O9 0.709167 0.775077 0.543436
O O10 0.725798 0.887186 0.427552
O O11 0.702965 0.761129 0.304973
O O12 0.000000 0.799433 0.750000
O O13 0.950027 0.242431 0.480055
O O14 0.605390 0.230544 0.143169
O O15 0.000000 0.021074 0.250000
O O16 0.706707 0.761120 0.084473
O O17 0.000000 0.772875 0.250000
O O18 0.500000 0.500000 0.000000
O O19 0.586261 0.647435 0.065415
#
# Coordination Sequence:
#
# PCOD9229223 Si02
#       8
#     4   4   4   4   4   4   4   4
#     4   9  19  40  65  89 122 167 206 247 321 384
#     4   9  18  33  56  86 120 169 207 256 321 382
#     4  10  19  38  61  88 125 166 207 261 321 374
#     4  11  22  38  61  95 125 164 212 267 318 376
#     4   8  16  31  55  78 118 161 203 250 313 376
#     4  10  21  37  64  90 121 164 205 259 318 373
#     4  10  22  41  63  91 129 162 204 263 322 374
#     4  11  22  39  65  92 122 163 214 260 316 392
#
# _framework density 20.518954999999998
#
# number of rings (size 3 to 8) (size 9 to 14) (size 15 to 20)
#    0.000    2.250    1.250    2.625    0.000    3.500 
#    4.500    1.250    0.000    0.000    0.000    0.000 
#    0.000    0.000    0.000    0.000    0.000    0.000 
#
# Total GULP energy -178361.075510 kJ/mol
# GULP energy per Si atom -5573.783610 kJ/mol
# Density = 2.047225 g / cm^3
# Si number density = 20.518955 Si / 1000 Ang^3
#
#
#
# Elastic Constant Matrix: (Units=GPa)
#
#
# Indices 1 2 3 4 5 6 
#
# 1 158.9029 46.9903 48.8952 0.0000 -3.9128 0.0000
# 2 46.9903 56.9636 34.5508 0.0000 -9.7157 0.0000
# 3 48.8952 34.5508 53.7872 0.0000 -1.0653 0.0000
# 4 0.0000 0.0000 0.0000 -80.2835 0.0000 -0.2321
# 5 -3.9128 -9.7157 -1.0653 0.0000 47.5803 0.0000
# 6 0.0000 0.0000 0.0000 -0.2321 0.0000 -2.9103
#
#
#
# Elastic Compliance Matrix: (Units=1/GPa)
#
#
# Indices 1 2 3 4 5 6 
#
# 1 0.009307 -0.004230 -0.005748 0.000000 -0.000227 0.000000
# 2 -0.004230 0.032176 -0.016707 0.000000 0.005848 0.000000
# 3 -0.005748 -0.016707 0.034487 0.000000 -0.003112 0.000000
# 4 0.000000 0.000000 0.000000 -0.012459 0.000000 0.000994
# 5 -0.000227 0.005848 -0.003112 0.000000 0.022123 0.000000
# 6 0.000000 0.000000 0.000000 0.000994 0.000000 -0.343691
#
#
# Mechanical properties :
#
#
# Convention : Reuss Voigt Hill
#
# Bulk Modulus (GPa) = 44.24828 58.94736 51.59782
# Shear Modulus (GPa) = -25.36100 2.15847 -11.60127
#
# Velocity S-wave (km/s) = -3.51946 1.02675 -2.38038
# Velocity P-wave (km/s) = 2.25741 5.49511 4.20072
#
# Compressibility (1/GPa) = 0.02259975
#
# Stress axis : x y z
#
# Youngs Moduli (GPa) = 107.44475 31.07954 28.99615
#
# Poissons Ratio (x) = 0.13147 0.16667
# Poissons Ratio (y) = 0.45449 0.48444
# Poissons Ratio (z) = 0.61759 0.51925
#
# Static dielectric constant tensor:
#      x y z
#    x 1.830150 0.000000 0.019650 
#    y 0.000000 1.673560 0.000000 
#    z 0.019650 0.000000 1.721400 
# 
# From -- ./inp_files/37717.got.cif
#   From: 2010.05.17/outbox.cif.g08.bks.cpg/sg13_19_cif.got.tgz:37717.got - 2010.06.03 16:44:36.
