data_PCOD9229898
_publ_section_title
;
Structure prediction by ZEFSAII (Michael W. Deem and Ramdas Pophale) SiO2 
 PCOD9229898
Probable space group: P 2/C
;
_chemical_formula_sum "Si O2"
_cell_formula_units_Z 22
_cell_length_a 24.347960
_cell_length_b 4.930110
_cell_length_c 23.635717
_cell_angle_alpha 90.000000
_cell_angle_beta 160.120053
_cell_angle_gamma 90.000000
_cell_volume 964.786700
_symmetry_space_group_name_H-M "P 2/C"
_symmetry_group_IT_number 13
_symmetry_cell_setting 'monoclinic'
loop_
_space_group_symop_operation_xyz
x,y,z
-x,y,1/2-z
-x,-y,-z
x,-y,1/2+z
loop_
_atom_site_type_symbol
_atom_site_label
_atom_site_fract_x
_atom_site_fract_y
_atom_site_fract_z
Si Si1 0.854608 0.969540 0.283083
Si Si2 0.641722 0.818955 0.665262
Si Si3 0.825351 0.782058 0.427997
Si Si4 0.470168 0.845478 0.287205
Si Si5 0.427041 0.364446 0.047680
Si Si6 0.000000 0.500000 0.500000
O O1 0.920116 0.770097 0.394440
O O2 0.775040 0.219567 0.244020
O O3 0.728289 0.795059 0.125499
O O4 0.001744 0.085632 0.389885
O O5 0.542806 0.595152 0.604712
O O6 0.500000 0.000000 0.500000
O O7 0.724207 0.008234 0.791802
O O8 0.706450 0.734989 0.365130
O O9 0.879952 0.536316 0.440909
O O10 0.500000 0.824759 0.250000
O O11 0.591936 0.651222 0.440485
O O12 0.493770 0.153131 0.331397
#
# Coordination Sequence:
#
# PCOD9229898 Si02
#       6
#     4   4   4   4   4   2
#     4  10  21  38  60  97 137 171 208 264 334 404
#     4   8  16  35  56  92 128 164 204 252 317 392
#     4  10  22  35  62  91 129 169 215 261 331 385
#     4  11  25  46  70  89 124 174 232 277 328 385
#     4  10  23  42  67  95 127 170 223 271 324 394
#     4  10  20  34  64  92 138 166 204 254 338 398
#
# _framework density 22.802966999999999
#
# number of rings (size 3 to 8) (size 9 to 14) (size 15 to 20)
#    0.000    2.182    0.000    2.727   10.182    0.000 
#    3.273    6.364    0.000    0.000    0.000    0.000 
#    0.000    0.000    0.000    0.000    0.000    0.000 
#
# Total GULP energy -122602.539122 kJ/mol
# GULP energy per Si atom -5572.842687 kJ/mol
# Density = 2.275107 g / cm^3
# Si number density = 22.802967 Si / 1000 Ang^3
#
#
#
# Elastic Constant Matrix: (Units=GPa)
#
#
# Indices 1 2 3 4 5 6 
#
# 1 158.6954 24.7638 48.9921 0.0000 26.0801 0.0000
# 2 24.7638 99.2043 7.6368 0.0000 0.3473 0.0000
# 3 48.9921 7.6368 99.9796 0.0000 22.9657 0.0000
# 4 0.0000 0.0000 0.0000 26.6692 0.0000 0.0691
# 5 26.0801 0.3473 22.9657 0.0000 28.5057 0.0000
# 6 0.0000 0.0000 0.0000 0.0691 0.0000 30.0426
#
#
#
# Elastic Compliance Matrix: (Units=1/GPa)
#
#
# Indices 1 2 3 4 5 6 
#
# 1 0.008309 -0.001848 -0.002687 0.000000 -0.005415 0.000000
# 2 -0.001848 0.010560 -0.000319 0.000000 0.001819 0.000000
# 3 -0.002687 -0.000319 0.013225 0.000000 -0.008193 0.000000
# 4 0.000000 0.000000 0.000000 0.037497 0.000000 -0.000086
# 5 -0.005415 0.001819 -0.008193 0.000000 0.046613 0.000000
# 6 0.000000 0.000000 0.000000 -0.000086 0.000000 0.033286
#
#
# Mechanical properties :
#
#
# Convention : Reuss Voigt Hill
#
# Bulk Modulus (GPa) = 44.67028 57.85166 51.26097
# Shear Modulus (GPa) = 30.00129 35.47592 32.73861
#
# Velocity S-wave (km/s) = 3.63116 3.94859 3.79320
# Velocity P-wave (km/s) = 6.10021 6.79807 6.45858
#
# Compressibility (1/GPa) = 0.02238625
#
# Stress axis : x y z
#
# Youngs Moduli (GPa) = 120.34950 94.69895 75.61569
#
# Poissons Ratio (x) = 0.17504 0.20315
# Poissons Ratio (y) = 0.22245 0.02410
# Poissons Ratio (z) = 0.32333 0.03018
#
# Static dielectric constant tensor:
#      x y z
#    x 1.801900 0.000000 0.013680 
#    y 0.000000 1.654700 0.000000 
#    z 0.013680 0.000000 1.831440 
# 
# From -- ./inp_files/88813.got.cif
#   From: 2010.05.17/outbox.cif.g08.bks.cpg/sg13_45_cif.got.tgz:88813.got - 2010.06.03 16:44:36.
