data_PCOD9229320
_publ_section_title
;
Structure prediction by ZEFSAII (Michael W. Deem and Ramdas Pophale) SiO2 
 PCOD9229320
Probable space group: P 2/C
;
_chemical_formula_sum "Si O2"
_cell_formula_units_Z 30
_cell_length_a 9.902052
_cell_length_b 5.003253
_cell_length_c 30.794889
_cell_angle_alpha 90.000000
_cell_angle_beta 103.742481
_cell_angle_gamma 90.000000
_cell_volume 1481.980370
_symmetry_space_group_name_H-M "P 2/C"
_symmetry_group_IT_number 13
_symmetry_cell_setting 'monoclinic'
loop_
_space_group_symop_operation_xyz
x,y,z
-x,y,1/2-z
-x,-y,-z
x,-y,1/2+z
loop_
_atom_site_type_symbol
_atom_site_label
_atom_site_fract_x
_atom_site_fract_y
_atom_site_fract_z
Si Si1 0.967312 0.101399 0.669299
Si Si2 0.500000 0.778270 0.250000
Si Si3 0.029126 0.750371 0.532561
Si Si4 0.121657 0.400012 0.390987
Si Si5 0.259254 0.276419 0.670094
Si Si6 0.692069 0.829930 0.189827
Si Si7 0.712443 0.241420 0.388088
Si Si8 0.395837 0.673731 0.869339
O O1 0.922272 0.302312 0.626654
O O2 0.859003 0.153427 0.700041
O O3 0.128097 0.173976 0.687912
O O4 0.941193 0.802026 0.650253
O O5 0.609741 0.638942 0.290428
O O6 0.607964 0.922317 0.225870
O O7 0.183751 0.782472 0.563880
O O8 0.000000 0.500000 0.500000
O O9 0.933331 0.705288 0.567607
O O10 0.000000 0.000000 0.500000
O O11 0.288651 0.390377 0.399529
O O12 0.223959 0.530663 0.638211
O O13 0.296791 0.031010 0.640727
O O14 0.647174 0.531691 0.172495
O O15 0.639501 0.027493 0.148385
O O16 0.559209 0.338248 0.389714
#
# Coordination Sequence:
#
# PCOD9229320 Si02
#       8
#     4   2   4   4   4   4   4   4
#     4  10  19  39  59  86 115 167 204 239 296 365
#     4  12  24  38  58  98 126 158 204 268 290 342
#     4  12  24  39  63  97 121 150 200 256 304 356
#     4  10  20  38  65  85 120 155 201 245 295 367
#     4  12  23  37  63  87 125 164 205 243 305 352
#     4  10  22  35  60  86 123 155 206 254 293 343
#     4  12  22  42  62  90 120 167 197 242 305 379
#     4  10  20  40  61  87 114 167 202 234 301 369
#
# _framework density 20.243181
#
# number of rings (size 3 to 8) (size 9 to 14) (size 15 to 20)
#    0.000    1.067    5.333    1.600    0.000    2.667 
#    0.000    1.333    0.000    6.400    0.000    0.000 
#    0.000    0.000    0.000    0.000    0.000    0.000 
#
# Total GULP energy -167395.257645 kJ/mol
# GULP energy per Si atom -5579.841922 kJ/mol
# Density = 2.019711 g / cm^3
# Si number density = 20.243181 Si / 1000 Ang^3
#
#
#
# Elastic Constant Matrix: (Units=GPa)
#
#
# Indices 1 2 3 4 5 6 
#
# 1 164.7742 -7.6147 30.9897 0.0000 4.9894 0.0000
# 2 -7.6147 88.4161 7.5285 0.0000 8.1378 0.0000
# 3 30.9897 7.5285 68.8628 0.0000 12.6725 0.0000
# 4 0.0000 0.0000 0.0000 -8.1896 0.0000 0.8053
# 5 4.9894 8.1378 12.6725 0.0000 37.9702 0.0000
# 6 0.0000 0.0000 0.0000 0.8053 0.0000 23.2389
#
#
#
# Elastic Compliance Matrix: (Units=1/GPa)
#
#
# Indices 1 2 3 4 5 6 
#
# 1 0.006691 0.000842 -0.003099 0.000000 -0.000026 0.000000
# 2 0.000842 0.011692 -0.001253 0.000000 -0.002198 0.000000
# 3 -0.003099 -0.001253 0.016971 0.000000 -0.004988 0.000000
# 4 0.000000 0.000000 0.000000 -0.121692 0.000000 0.004217
# 5 -0.000026 -0.002198 -0.004988 0.000000 0.028476 0.000000
# 6 0.000000 0.000000 0.000000 0.004217 0.000000 0.042885
#
#
# Mechanical properties :
#
#
# Convention : Reuss Voigt Hill
#
# Bulk Modulus (GPa) = 35.29048 42.65112 38.97080
# Shear Modulus (GPa) = 3363.25467 30.01388 1696.63428
#
# Velocity S-wave (km/s) = 40.80481 3.85472 28.98182
# Velocity P-wave (km/s) = 47.30238 6.39741 33.75235
#
# Compressibility (1/GPa) = 0.02833626
#
# Stress axis : x y z
#
# Youngs Moduli (GPa) = 149.44564 85.53058 58.92395
#
# Poissons Ratio (x) = -0.07206 0.18258
# Poissons Ratio (y) = -0.12591 0.07382
# Poissons Ratio (z) = 0.46308 0.10715
#
# Static dielectric constant tensor:
#      x y z
#    x 1.753460 0.000000 -0.013370 
#    y 0.000000 1.696570 0.000000 
#    z -0.013370 0.000000 1.708870 
# 
# From -- ./inp_files/95688.got.cif
#   From: 2010.05.17/outbox.cif.g08.bks.cpg/sg13_48_cif.got.tgz:95688.got - 2010.06.03 16:44:36.
