data_PCOD9229552
_publ_section_title
;
Structure prediction by ZEFSAII (Michael W. Deem and Ramdas Pophale) SiO2 
 PCOD9229552
Probable space group: P 2/C
;
_chemical_formula_sum "Si O2"
_cell_formula_units_Z 26
_cell_length_a 17.568352
_cell_length_b 13.442541
_cell_length_c 7.599537
_cell_angle_alpha 90.000000
_cell_angle_beta 53.994674
_cell_angle_gamma 90.000000
_cell_volume 1451.870359
_symmetry_space_group_name_H-M "P 2/C"
_symmetry_group_IT_number 13
_symmetry_cell_setting 'monoclinic'
loop_
_space_group_symop_operation_xyz
x,y,z
-x,y,1/2-z
-x,-y,-z
x,-y,1/2+z
loop_
_atom_site_type_symbol
_atom_site_label
_atom_site_fract_x
_atom_site_fract_y
_atom_site_fract_z
Si Si1 0.000000 0.752682 0.250000
Si Si2 0.393070 0.630568 0.691698
Si Si3 0.315075 0.119032 0.670881
Si Si4 0.043847 0.898216 0.872969
Si Si5 0.500000 0.800385 0.750000
Si Si6 0.784094 0.745718 0.486946
Si Si7 0.500000 0.456672 0.750000
Si Si8 0.742819 0.898393 0.865059
O O1 0.976366 0.818676 0.451026
O O2 0.893926 0.712073 0.348366
O O3 0.448880 0.726767 0.683793
O O4 0.286087 0.652768 0.889469
O O5 0.435936 0.532442 0.724448
O O6 0.424173 0.611966 0.450817
O O7 0.418893 0.138427 0.454818
O O8 0.245342 0.191925 0.650432
O O9 0.291340 0.003626 0.665314
O O10 0.312350 0.136692 0.885244
O O11 0.153329 0.916361 0.699981
O O12 0.000000 0.866810 0.750000
O O13 0.000000 0.000000 0.000000
O O14 0.756546 0.819981 0.687157
#
# Coordination Sequence:
#
# PCOD9229552 Si02
#       8
#     2   4   4   4   2   4   2   4
#     4  10  20  32  50  70 106 140 172 216 262 300
#     4   9  19  37  58  85 103 126 167 212 272 323
#     4  11  21  36  47  71 108 146 190 226 250 298
#     4  11  19  28  46  68  93 135 189 233 257 280
#     4   9  22  36  51  76 108 140 173 218 266 307
#     4  10  21  36  52  80 107 142 180 219 259 306
#     4   9  18  36  65  84 102 124 159 216 272 333
#     4  11  21  32  48  71 104 149 189 219 255 294
#
# _framework density 17.907934999999998
#
# number of rings (size 3 to 8) (size 9 to 14) (size 15 to 20)
#    0.000    1.846    2.308    2.769    2.154    0.615 
#    0.000    0.000    0.000    0.923    0.000    0.000 
#    0.000    0.000    0.000    0.000    0.000    0.000 
#
# Total GULP energy -144792.432933 kJ/mol
# GULP energy per Si atom -5568.939728 kJ/mol
# Density = 1.786718 g / cm^3
# Si number density = 17.907935 Si / 1000 Ang^3
#
#
#
# Elastic Constant Matrix: (Units=GPa)
#
#
# Indices 1 2 3 4 5 6 
#
# 1 50.1615 3.8566 17.3452 0.0000 -15.3494 0.0000
# 2 3.8566 35.9448 23.8362 0.0000 -10.2962 0.0000
# 3 17.3452 23.8362 84.1050 0.0000 -13.4503 0.0000
# 4 0.0000 0.0000 0.0000 1.1006 0.0000 -6.5668
# 5 -15.3494 -10.2962 -13.4503 0.0000 47.4639 0.0000
# 6 0.0000 0.0000 0.0000 -6.5668 0.0000 60.4610
#
#
#
# Elastic Compliance Matrix: (Units=1/GPa)
#
#
# Indices 1 2 3 4 5 6 
#
# 1 0.023362 0.002363 -0.004397 0.000000 0.006822 0.000000
# 2 0.002363 0.035623 -0.009663 0.000000 0.005753 0.000000
# 3 -0.004397 -0.009663 0.015683 0.000000 0.000926 0.000000
# 4 0.000000 0.000000 0.000000 2.581234 0.000000 0.280352
# 5 0.006822 0.005753 0.000926 0.000000 0.024785 0.000000
# 6 0.000000 0.000000 0.000000 0.280352 0.000000 0.046989
#
#
# Mechanical properties :
#
#
# Convention : Reuss Voigt Hill
#
# Bulk Modulus (GPa) = 19.50285 28.92079 24.21182
# Shear Modulus (GPa) = 1.80625 30.14998 15.97812
#
# Velocity S-wave (km/s) = 1.00540 4.10763 2.99027
# Velocity P-wave (km/s) = 3.50172 6.21946 5.04696
#
# Compressibility (1/GPa) = 0.05127456
#
# Stress axis : x y z
#
# Youngs Moduli (GPa) = 42.80508 28.07181 63.76156
#
# Poissons Ratio (x) = -0.06634 0.28034
# Poissons Ratio (y) = -0.10115 0.61614
# Poissons Ratio (z) = 0.18820 0.27126
#
# Static dielectric constant tensor:
#      x y z
#    x 1.705520 0.000000 0.005490 
#    y 0.000000 1.543470 0.000000 
#    z 0.005490 0.000000 1.636600 
# 
# From -- ./inp_files/23328.got.cif
#   From: 2010.05.17/outbox.cif.g08.bks.cpg/sg13_12_cif.got.tgz:23328.got - 2010.06.03 16:44:36.
