data_PCOD9229008
_publ_section_title
;
Structure prediction by ZEFSAII (Michael W. Deem and Ramdas Pophale) SiO2 
 PCOD9229008
Probable space group: P 2/C
;
_chemical_formula_sum "Si O2"
_cell_formula_units_Z 16
_cell_length_a 5.303140
_cell_length_b 9.376557
_cell_length_c 18.433816
_cell_angle_alpha 90.000000
_cell_angle_beta 121.666969
_cell_angle_gamma 90.000000
_cell_volume 780.152354
_symmetry_space_group_name_H-M "P 2/C"
_symmetry_group_IT_number 13
_symmetry_cell_setting 'monoclinic'
loop_
_space_group_symop_operation_xyz
x,y,z
-x,y,1/2-z
-x,-y,-z
x,-y,1/2+z
loop_
_atom_site_type_symbol
_atom_site_label
_atom_site_fract_x
_atom_site_fract_y
_atom_site_fract_z
Si Si1 0.064898 0.126363 0.568896
Si Si2 0.628229 0.967235 0.100635
Si Si3 0.347539 0.256802 0.304901
Si Si4 0.711667 0.412251 0.477556
O O1 0.412888 0.148601 0.605703
O O2 0.967375 0.071730 0.633353
O O3 0.854880 0.262758 0.526423
O O4 0.000000 0.000000 0.500000
O O5 0.618024 0.106890 0.148001
O O6 0.500000 0.000000 0.000000
O O7 0.500000 0.247651 0.250000
O O8 0.517739 0.372565 0.378596
O O9 0.000000 0.289716 0.250000
O O10 0.500000 0.500000 0.500000
O O11 0.000000 0.500000 0.500000
#
# Coordination Sequence:
#
# PCOD9229008 Si02
#       4
#     4   4   4   4
#     4  10  19  36  67  93 129 156 232 274 310 387
#     4  10  19  36  67  93 129 163 222 268 325 396
#     4  12  25  41  67 103 139 171 223 292 348 397
#     4  12  25  41  67 103 127 187 239 271 333 425
#
# _framework density 20.508814000000001
#
# number of rings (size 3 to 8) (size 9 to 14) (size 15 to 20)
#    0.000    1.000    5.000    4.500    7.000    0.000 
#    0.000    0.000    0.000   30.000    0.000    0.000 
#    0.000    0.000    0.000    0.000    0.000    0.000 
#
# Total GULP energy -89225.818917 kJ/mol
# GULP energy per Si atom -5576.613682 kJ/mol
# Density = 2.046213 g / cm^3
# Si number density = 20.508814 Si / 1000 Ang^3
#
#
#
# Elastic Constant Matrix: (Units=GPa)
#
#
# Indices 1 2 3 4 5 6 
#
# 1 262.7761 70.9556 74.1007 0.0000 -23.5475 0.0000
# 2 70.9556 112.5387 47.1496 0.0000 -12.1629 0.0000
# 3 74.1007 47.1496 103.1858 0.0000 -11.0818 0.0000
# 4 0.0000 0.0000 0.0000 -62.9691 0.0000 41.9484
# 5 -23.5475 -12.1629 -11.0818 0.0000 40.1408 0.0000
# 6 0.0000 0.0000 0.0000 41.9484 0.0000 29.9639
#
#
#
# Elastic Compliance Matrix: (Units=1/GPa)
#
#
# Indices 1 2 3 4 5 6 
#
# 1 0.005256 -0.002007 -0.002671 0.000000 0.001738 0.000000
# 2 -0.002007 0.011915 -0.003856 0.000000 0.001368 0.000000
# 3 -0.002671 -0.003856 0.013477 0.000000 0.000985 0.000000
# 4 0.000000 0.000000 0.000000 -0.008217 0.000000 0.011504
# 5 0.001738 0.001368 0.000985 0.000000 0.026618 0.000000
# 6 0.000000 0.000000 0.000000 0.011504 0.000000 0.017268
#
#
# Mechanical properties :
#
#
# Convention : Reuss Voigt Hill
#
# Bulk Modulus (GPa) = 73.63751 95.87917 84.75834
# Shear Modulus (GPa) = 56.87441 20.51346 38.69393
#
# Velocity S-wave (km/s) = 5.27180 3.16607 4.34833
# Velocity P-wave (km/s) = 8.54629 7.75996 8.16260
#
# Compressibility (1/GPa) = 0.01358004
#
# Stress axis : x y z
#
# Youngs Moduli (GPa) = 190.24166 83.92925 74.20016
#
# Poissons Ratio (x) = 0.16847 0.19818
# Poissons Ratio (y) = 0.38188 0.28611
# Poissons Ratio (z) = 0.50812 0.32362
#
# Static dielectric constant tensor:
#      x y z
#    x 1.867870 0.000000 0.067560 
#    y 0.000000 1.798490 0.000000 
#    z 0.067560 0.000000 1.754900 
# 
# From -- ./inp_files/60191.got.cif
#   From: 2010.05.17/outbox.cif.g08.bks.cpg/sg13_31_cif.got.tgz:60191.got - 2010.06.03 16:44:36.
