data_PCOD9229533
_publ_section_title
;
Structure prediction by ZEFSAII (Michael W. Deem and Ramdas Pophale) SiO2 
 PCOD9229533
Probable space group: P 2/C
;
_chemical_formula_sum "Si O2"
_cell_formula_units_Z 32
_cell_length_a 16.420474
_cell_length_b 22.633169
_cell_length_c 16.756720
_cell_angle_alpha 90.000000
_cell_angle_beta 162.746790
_cell_angle_gamma 90.000000
_cell_volume 1847.072790
_symmetry_space_group_name_H-M "P 2/C"
_symmetry_group_IT_number 13
_symmetry_cell_setting 'monoclinic'
loop_
_space_group_symop_operation_xyz
x,y,z
-x,y,1/2-z
-x,-y,-z
x,-y,1/2+z
loop_
_atom_site_type_symbol
_atom_site_label
_atom_site_fract_x
_atom_site_fract_y
_atom_site_fract_z
Si Si1 0.005958 0.692117 0.160509
Si Si2 0.707196 0.491656 0.509981
Si Si3 0.228491 0.462634 0.261363
Si Si4 0.008370 0.168739 0.663379
Si Si5 0.460839 0.623747 0.862817
Si Si6 0.036412 0.944804 0.595076
Si Si7 0.558844 0.105690 0.149192
Si Si8 0.482754 0.027610 0.639231
O O1 0.048692 0.761700 0.188116
O O2 0.252920 0.655592 0.351708
O O3 0.000000 0.681504 0.250000
O O4 0.723185 0.668041 0.860398
O O5 0.793536 0.534579 0.663790
O O6 0.542482 0.434961 0.389560
O O7 0.000000 0.471063 0.750000
O O8 0.500000 0.517993 0.250000
O O9 0.500000 0.500000 0.500000
O O10 0.286052 0.399855 0.274448
O O11 0.000000 0.500000 0.000000
O O12 0.000000 0.156643 0.750000
O O13 0.717638 0.149503 0.356254
O O14 0.252153 0.130442 0.851520
O O15 0.242841 0.901203 0.741916
O O16 0.722668 0.932014 0.324660
O O17 0.196148 0.960763 0.826166
O O18 0.000000 0.000000 0.500000
O O19 0.543695 0.040940 0.174853
O O20 0.500000 0.035039 0.750000
#
# Coordination Sequence:
#
# PCOD9229533 Si02
#       8
#     4   4   4   4   4   4   4   4
#     4  11  22  33  48  70  97 128 168 206 233 271
#     4  11  20  31  49  73  99 129 164 197 237 295
#     4  10  20  32  47  70  98 128 161 198 236 288
#     4  11  22  34  48  71  98 129 171 211 237 276
#     4  11  20  33  49  67  97 134 162 192 242 286
#     4  10  20  33  49  73 101 132 167 203 241 296
#     4  11  20  34  51  68  99 137 165 195 246 291
#     4  11  20  32  51  76 103 133 166 200 242 299
#
# _framework density 17.32471
#
# number of rings (size 3 to 8) (size 9 to 14) (size 15 to 20)
#    0.000    1.250    0.000   11.250    0.000    2.000 
#    0.000    0.000    0.000    0.000    0.000    0.000 
#    0.000   35.000    0.000    0.000    0.000    0.000 
#
# Total GULP energy -178499.599975 kJ/mol
# GULP energy per Si atom -5578.112499 kJ/mol
# Density = 1.728528 g / cm^3
# Si number density = 17.324710 Si / 1000 Ang^3
#
#
#
# Elastic Constant Matrix: (Units=GPa)
#
#
# Indices 1 2 3 4 5 6 
#
# 1 59.3463 19.4166 14.9327 0.0000 -3.8162 0.0000
# 2 19.4166 38.3886 -3.2190 0.0000 2.0113 0.0000
# 3 14.9327 -3.2190 100.1956 0.0000 -3.0726 0.0000
# 4 0.0000 0.0000 0.0000 7.4257 0.0000 -6.8816
# 5 -3.8162 2.0113 -3.0726 0.0000 34.3052 0.0000
# 6 0.0000 0.0000 0.0000 -6.8816 0.0000 7.7655
#
#
#
# Elastic Compliance Matrix: (Units=1/GPa)
#
#
# Indices 1 2 3 4 5 6 
#
# 1 0.021633 -0.011380 -0.003505 0.000000 0.002760 0.000000
# 2 -0.011380 0.032180 0.002640 0.000000 -0.002916 0.000000
# 3 -0.003505 0.002640 0.010600 0.000000 0.000405 0.000000
# 4 0.000000 0.000000 0.000000 0.753411 0.000000 0.667659
# 5 0.002760 -0.002916 0.000405 0.000000 0.029664 0.000000
# 6 0.000000 0.000000 0.000000 0.667659 0.000000 0.720442
#
#
# Mechanical properties :
#
#
# Convention : Reuss Voigt Hill
#
# Bulk Modulus (GPa) = 25.04820 28.91011 26.97916
# Shear Modulus (GPa) = 3.11385 21.01927 12.06656
#
# Velocity S-wave (km/s) = 1.34211 3.48696 2.64198
# Velocity P-wave (km/s) = 4.10988 5.73893 4.99131
#
# Compressibility (1/GPa) = 0.03992303
#
# Stress axis : x y z
#
# Youngs Moduli (GPa) = 46.22572 31.07555 94.33871
#
# Poissons Ratio (x) = 0.35365 0.33066
# Poissons Ratio (y) = 0.52606 -0.24910
# Poissons Ratio (z) = 0.16202 -0.08205
#
# Static dielectric constant tensor:
#      x y z
#    x 1.673410 0.000000 0.002620 
#    y 0.000000 1.573570 0.000000 
#    z 0.002620 0.000000 1.570490 
# 
# From -- ./inp_files/53995.got.cif
#   From: 2010.05.17/outbox.cif.g08.bks.cpg/sg13_27_cif.got.tgz:53995.got - 2010.06.03 16:44:36.
