data_PCOD9229372
_publ_section_title
;
Structure prediction by ZEFSAII (Michael W. Deem and Ramdas Pophale) SiO2 
 PCOD9229372
Probable space group: P 2/C
;
_chemical_formula_sum "Si O2"
_cell_formula_units_Z 28
_cell_length_a 7.556433
_cell_length_b 10.683575
_cell_length_c 15.262468
_cell_angle_alpha 90.000000
_cell_angle_beta 113.873374
_cell_angle_gamma 90.000000
_cell_volume 1126.715924
_symmetry_space_group_name_H-M "P 2/C"
_symmetry_group_IT_number 13
_symmetry_cell_setting 'monoclinic'
loop_
_space_group_symop_operation_xyz
x,y,z
-x,y,1/2-z
-x,-y,-z
x,-y,1/2+z
loop_
_atom_site_type_symbol
_atom_site_label
_atom_site_fract_x
_atom_site_fract_y
_atom_site_fract_z
Si Si1 0.144911 0.826785 0.652780
Si Si2 0.296746 0.795981 0.870730
Si Si3 0.702715 0.574949 0.498181
Si Si4 0.337797 0.011286 0.062529
Si Si5 0.916747 0.667269 0.024638
Si Si6 0.485584 0.755204 0.350505
Si Si7 0.893357 0.126532 0.645449
O O1 0.260261 0.781577 0.760075
O O2 0.229448 0.956635 0.632258
O O3 0.182441 0.741485 0.575201
O O4 0.918715 0.826260 0.633274
O O5 0.466516 0.903028 0.908468
O O6 0.339357 0.664294 0.927201
O O7 0.761739 0.432473 0.529568
O O8 0.541811 0.618396 0.396596
O O9 0.897152 0.613092 0.485837
O O10 0.381358 0.863772 0.077428
O O11 0.201155 0.049562 0.953964
O O12 0.997410 0.761576 0.114209
O O13 0.500000 0.763683 0.250000
O O14 0.278650 0.799909 0.341187
O O15 0.000000 0.063509 0.750000
#
# Coordination Sequence:
#
# PCOD9229372 Si02
#       7
#     4   4   4   4   4   4   4
#     4   9  20  39  67 103 137 179 230 290 346 427
#     4  10  19  39  66 104 136 178 234 281 358 411
#     4  10  21  42  67  94 137 179 225 284 348 413
#     4  11  23  46  70  98 145 184 231 294 346 421
#     4   9  21  44  66  95 136 176 226 288 346 418
#     4  12  25  44  67 102 143 183 229 284 354 427
#     4  11  24  46  69  99 135 182 237 288 352 415
#
# _framework density 24.850981999999998
#
# number of rings (size 3 to 8) (size 9 to 14) (size 15 to 20)
#    0.000    1.714    1.429    2.571    0.000    0.571 
#   18.000    4.286    0.000    0.000    0.000    0.000 
#    0.000    0.000    0.000    0.000    0.000    0.000 
#
# Total GULP energy -156448.896446 kJ/mol
# GULP energy per Si atom -5587.460587 kJ/mol
# Density = 2.479442 g / cm^3
# Si number density = 24.850982 Si / 1000 Ang^3
#
#
#
# Elastic Constant Matrix: (Units=GPa)
#
#
# Indices 1 2 3 4 5 6 
#
# 1 81.7543 39.7541 25.5820 0.0000 -11.5000 0.0000
# 2 39.7541 70.7752 37.5770 0.0000 -4.0436 0.0000
# 3 25.5820 37.5770 175.4444 0.0000 -17.0469 0.0000
# 4 0.0000 0.0000 0.0000 19.1630 0.0000 -2.7826
# 5 -11.5000 -4.0436 -17.0469 0.0000 43.0980 0.0000
# 6 0.0000 0.0000 0.0000 -2.7826 0.0000 44.1079
#
#
#
# Elastic Compliance Matrix: (Units=1/GPa)
#
#
# Indices 1 2 3 4 5 6 
#
# 1 0.017413 -0.009492 -0.000147 0.000000 0.003698 0.000000
# 2 -0.009492 0.021117 -0.003320 0.000000 -0.001865 0.000000
# 3 -0.000147 -0.003320 0.006654 0.000000 0.002281 0.000000
# 4 0.000000 0.000000 0.000000 0.052666 0.000000 0.003322
# 5 0.003698 -0.001865 0.002281 0.000000 0.024917 0.000000
# 6 0.000000 0.000000 0.000000 0.003322 0.000000 0.022881
#
#
# Mechanical properties :
#
#
# Convention : Reuss Voigt Hill
#
# Bulk Modulus (GPa) = 51.90221 59.31110 55.60666
# Shear Modulus (GPa) = 28.09169 36.27783 32.18476
#
# Velocity S-wave (km/s) = 3.36580 3.82490 3.60267
# Velocity P-wave (km/s) = 6.00296 6.58976 6.30319
#
# Compressibility (1/GPa) = 0.01926700
#
# Stress axis : x y z
#
# Youngs Moduli (GPa) = 57.42711 47.35538 150.28646
#
# Poissons Ratio (x) = 0.44949 0.02207
# Poissons Ratio (y) = 0.54509 0.49895
# Poissons Ratio (z) = 0.00843 0.15722
#
# Static dielectric constant tensor:
#      x y z
#    x 2.005130 0.000000 0.024570 
#    y 0.000000 2.119600 0.000000 
#    z 0.024570 0.000000 1.958620 
# 
# From -- ./inp_files/47329.got.cif
#   From: 2010.05.17/outbox.cif.g08.bks.cpg/sg13_24_cif.got.tgz:47329.got - 2010.06.03 16:44:36.
