data_PCOD9229040
_publ_section_title
;
Structure prediction by ZEFSAII (Michael W. Deem and Ramdas Pophale) SiO2 
 PCOD9229040
Probable space group: P 2/C
;
_chemical_formula_sum "Si O2"
_cell_formula_units_Z 28
_cell_length_a 13.490496
_cell_length_b 7.656686
_cell_length_c 13.885287
_cell_angle_alpha 90.000000
_cell_angle_beta 125.084079
_cell_angle_gamma 90.000000
_cell_volume 1173.656990
_symmetry_space_group_name_H-M "P 2/C"
_symmetry_group_IT_number 13
_symmetry_cell_setting 'monoclinic'
loop_
_space_group_symop_operation_xyz
x,y,z
-x,y,1/2-z
-x,-y,-z
x,-y,1/2+z
loop_
_atom_site_type_symbol
_atom_site_label
_atom_site_fract_x
_atom_site_fract_y
_atom_site_fract_z
Si Si1 0.663281 0.314630 0.435341
Si Si2 0.507095 0.291815 0.524923
Si Si3 0.171167 0.088393 0.091515
Si Si4 0.072335 0.717911 0.031200
Si Si5 0.320592 0.561898 0.231616
Si Si6 0.744452 0.769379 0.672793
Si Si7 0.891677 0.509695 0.634717
O O1 0.569053 0.238384 0.458821
O O2 0.712033 0.160160 0.396707
O O3 0.637046 0.480745 0.348645
O O4 0.774643 0.390478 0.559408
O O5 0.500000 0.500000 0.500000
O O6 0.590541 0.299169 0.667048
O O7 0.376630 0.198801 0.457830
O O8 0.201262 0.089728 0.222822
O O9 0.127426 0.903814 0.028959
O O10 0.061033 0.224195 0.009629
O O11 0.185377 0.641233 0.153269
O O12 0.058444 0.580271 0.937997
O O13 0.302118 0.387685 0.284264
O O14 0.848403 0.682720 0.667104
O O15 0.000000 0.417645 0.750000
#
# Coordination Sequence:
#
# PCOD9229040 Si02
#       7
#     4   4   4   4   4   4   4
#     4  10  21  35  62  88 115 150 196 238 290 343
#     4  10  19  37  58  90 117 148 193 240 292 339
#     4  10  22  39  57  82 117 159 185 239 289 351
#     4  10  22  40  56  82 121 153 194 230 299 345
#     4   9  20  35  61  86 113 150 189 242 279 348
#     4  10  20  37  61  84 116 148 191 238 292 339
#     4  11  20  35  60  90 113 148 189 246 290 349
#
# _framework density 23.857056
#
# number of rings (size 3 to 8) (size 9 to 14) (size 15 to 20)
#    0.000    2.000    4.286    0.000    2.000    6.857 
#    2.571    1.429    3.143    0.000    0.000    0.000 
#    0.000    0.000    0.000    0.000    0.000    0.000 
#
# Total GULP energy -156249.037282 kJ/mol
# GULP energy per Si atom -5580.322760 kJ/mol
# Density = 2.380276 g / cm^3
# Si number density = 23.857056 Si / 1000 Ang^3
#
#
#
# Elastic Constant Matrix: (Units=GPa)
#
#
# Indices 1 2 3 4 5 6 
#
# 1 43.0606 -12.6172 14.1258 0.0000 16.4414 0.0000
# 2 -12.6172 51.4245 -1.0358 0.0000 2.1587 0.0000
# 3 14.1258 -1.0358 129.6593 0.0000 25.7112 0.0000
# 4 0.0000 0.0000 0.0000 12.0817 0.0000 3.9214
# 5 16.4414 2.1587 25.7112 0.0000 32.8652 0.0000
# 6 0.0000 0.0000 0.0000 3.9214 0.0000 10.3899
#
#
#
# Elastic Compliance Matrix: (Units=1/GPa)
#
#
# Indices 1 2 3 4 5 6 
#
# 1 0.032077 0.008559 -0.000157 0.000000 -0.016487 0.000000
# 2 0.008559 0.021809 0.000444 0.000000 -0.006062 0.000000
# 3 -0.000157 0.000444 0.009142 0.000000 -0.007102 0.000000
# 4 0.000000 0.000000 0.000000 0.094324 0.000000 -0.035600
# 5 -0.016487 -0.006062 -0.007102 0.000000 0.044629 0.000000
# 6 0.000000 0.000000 0.000000 -0.035600 0.000000 0.109684
#
#
# Mechanical properties :
#
#
# Convention : Reuss Voigt Hill
#
# Bulk Modulus (GPa) = 12.38848 25.01002 18.69925
# Shear Modulus (GPa) = 15.58212 25.97880 20.78046
#
# Velocity S-wave (km/s) = 2.55844 3.30348 2.95454
# Velocity P-wave (km/s) = 3.73250 5.00567 4.41522
#
# Compressibility (1/GPa) = 0.08072018
#
# Stress axis : x y z
#
# Youngs Moduli (GPa) = 31.17452 45.85183 109.39081
#
# Poissons Ratio (x) = -0.39246 0.01718
# Poissons Ratio (y) = -0.26683 -0.04854
# Poissons Ratio (z) = 0.00490 -0.02035
#
# Static dielectric constant tensor:
#      x y z
#    x 1.977920 0.000000 -0.025280 
#    y 0.000000 1.890130 0.000000 
#    z -0.025280 0.000000 2.061670 
# 
# From -- ./inp_files/53110.got.cif
#   From: 2010.05.17/outbox.cif.g08.bks.cpg/sg13_27_cif.got.tgz:53110.got - 2010.06.03 16:44:36.
