data_PCOD9229224
_publ_section_title
;
Structure prediction by ZEFSAII (Michael W. Deem and Ramdas Pophale) SiO2 
 PCOD9229224
Probable space group: P 2/C
;
_chemical_formula_sum "Si O2"
_cell_formula_units_Z 26
_cell_length_a 18.950914
_cell_length_b 5.359632
_cell_length_c 15.013341
_cell_angle_alpha 90.000000
_cell_angle_beta 134.584987
_cell_angle_gamma 90.000000
_cell_volume 1086.051828
_symmetry_space_group_name_H-M "P 2/C"
_symmetry_group_IT_number 13
_symmetry_cell_setting 'monoclinic'
loop_
_space_group_symop_operation_xyz
x,y,z
-x,y,1/2-z
-x,-y,-z
x,-y,1/2+z
loop_
_atom_site_type_symbol
_atom_site_label
_atom_site_fract_x
_atom_site_fract_y
_atom_site_fract_z
Si Si1 0.109916 0.049421 0.636593
Si Si2 0.549112 0.194180 0.472529
Si Si3 0.386454 0.378902 0.795814
Si Si4 0.176329 0.441787 0.119201
Si Si5 0.109442 0.315534 0.883235
Si Si6 0.500000 0.950170 0.250000
Si Si7 0.884288 0.181905 0.165890
O O1 0.180901 0.840017 0.656924
O O2 0.139780 0.334735 0.649071
O O3 0.117404 0.964606 0.744046
O O4 0.000000 0.000000 0.500000
O O5 0.631508 0.290478 0.616041
O O6 0.470681 0.412513 0.383161
O O7 0.500000 0.000000 0.500000
O O8 0.565347 0.088995 0.386376
O O9 0.282457 0.488258 0.674186
O O10 0.427747 0.200258 0.753917
O O11 0.098399 0.434627 0.970302
O O12 0.155681 0.038304 0.933612
O O13 0.000000 0.268556 0.750000
O O14 0.162232 0.542081 0.877086
O O15 0.000000 0.234724 0.250000
#
# Coordination Sequence:
#
# PCOD9229224 Si02
#       7
#     4   4   4   4   4   2   4
#     4  12  24  43  67  94 135 191 235 286 366 416
#     4   9  20  42  73  95 144 188 223 287 372 448
#     4  10  23  43  68 109 141 185 239 299 359 438
#     4  12  26  42  70 102 139 183 243 301 341 430
#     4  10  19  38  61  88 128 173 219 281 342 391
#     4  10  20  42  76 102 136 196 226 288 378 454
#     4  10  20  38  60  84 118 166 227 275 332 406
#
# _framework density 23.939923
#
# number of rings (size 3 to 8) (size 9 to 14) (size 15 to 20)
#    0.000    1.538    0.000    6.462    4.308    0.000 
#    2.769    6.154    0.000    0.000    0.000    0.000 
#    0.000    0.000    0.000    0.000    0.000    0.000 
#
# Total GULP energy -144750.564215 kJ/mol
# GULP energy per Si atom -5567.329393 kJ/mol
# Density = 2.388544 g / cm^3
# Si number density = 23.939923 Si / 1000 Ang^3
#
#
#
# Elastic Constant Matrix: (Units=GPa)
#
#
# Indices 1 2 3 4 5 6 
#
# 1 60.8493 6.8409 46.2380 0.0000 -20.8046 0.0000
# 2 6.8409 115.3666 27.0437 0.0000 -13.7213 0.0000
# 3 46.2380 27.0437 82.8834 0.0000 -30.5174 0.0000
# 4 0.0000 0.0000 0.0000 28.9968 0.0000 -22.9198
# 5 -20.8046 -13.7213 -30.5174 0.0000 39.8309 0.0000
# 6 0.0000 0.0000 0.0000 -22.9198 0.0000 28.6465
#
#
#
# Elastic Compliance Matrix: (Units=1/GPa)
#
#
# Indices 1 2 3 4 5 6 
#
# 1 0.029556 0.002437 -0.015727 0.000000 0.004228 0.000000
# 2 0.002437 0.009631 -0.003916 0.000000 0.001590 0.000000
# 3 -0.015727 -0.003916 0.025902 0.000000 0.010282 0.000000
# 4 0.000000 0.000000 0.000000 0.093818 0.000000 0.075063
# 5 0.004228 0.001590 0.010282 0.000000 0.035740 0.000000
# 6 0.000000 0.000000 0.000000 0.075063 0.000000 0.094966
#
#
# Mechanical properties :
#
#
# Convention : Reuss Voigt Hill
#
# Bulk Modulus (GPa) = 32.59857 46.59384 39.59621
# Shear Modulus (GPa) = 14.95882 31.42663 23.19273
#
# Velocity S-wave (km/s) = 2.50241 3.62709 3.11591
# Velocity P-wave (km/s) = 4.68997 6.08655 5.43332
#
# Compressibility (1/GPa) = 0.03067619
#
# Stress axis : x y z
#
# Youngs Moduli (GPa) = 33.83406 103.83488 38.60661
#
# Poissons Ratio (x) = -0.25303 0.60716
# Poissons Ratio (y) = -0.08245 0.15120
# Poissons Ratio (z) = 0.53210 0.40666
#
# Static dielectric constant tensor:
#      x y z
#    x 2.545860 0.000000 -0.066800 
#    y 0.000000 2.227150 0.000000 
#    z -0.066800 0.000000 2.059000 
# 
# From -- ./inp_files/56596.got.cif
#   From: 2010.05.17/outbox.cif.g08.bks.cpg/sg13_29_cif.got.tgz:56596.got - 2010.06.03 16:44:36.
