data_PCOD9229159
_publ_section_title
;
Structure prediction by ZEFSAII (Michael W. Deem and Ramdas Pophale) SiO2 
 PCOD9229159
Probable space group: P 2/C
;
_chemical_formula_sum "Si O2"
_cell_formula_units_Z 28
_cell_length_a 16.614737
_cell_length_b 7.174029
_cell_length_c 20.916849
_cell_angle_alpha 90.000000
_cell_angle_beta 24.969932
_cell_angle_gamma 90.000000
_cell_volume 1052.475577
_symmetry_space_group_name_H-M "P 2/C"
_symmetry_group_IT_number 13
_symmetry_cell_setting 'monoclinic'
loop_
_space_group_symop_operation_xyz
x,y,z
-x,y,1/2-z
-x,-y,-z
x,-y,1/2+z
loop_
_atom_site_type_symbol
_atom_site_label
_atom_site_fract_x
_atom_site_fract_y
_atom_site_fract_z
Si Si1 0.453339 0.884843 0.685710
Si Si2 0.230705 0.765127 0.590426
Si Si3 0.806306 0.146246 0.246274
Si Si4 0.251050 0.138073 0.937425
Si Si5 0.158492 0.410812 0.805317
Si Si6 0.732499 0.488509 0.142059
Si Si7 0.785784 0.329362 0.877408
O O1 0.313655 0.930949 0.725816
O O2 0.406409 0.681157 0.751307
O O3 0.647577 0.812389 0.511369
O O4 0.365186 0.016180 0.805068
O O5 0.283261 0.862907 0.618888
O O6 0.307531 0.865762 0.471771
O O7 0.273595 0.544615 0.565016
O O8 0.000000 0.773379 0.750000
O O9 0.817351 0.369387 0.226497
O O10 0.027741 0.086310 0.090186
O O11 0.280084 0.356955 0.902794
O O12 0.271397 0.388976 0.789768
O O13 0.211882 0.308254 0.701614
O O14 0.938236 0.390211 0.983263
O O15 0.000000 0.306095 0.750000
#
# Coordination Sequence:
#
# PCOD9229159 Si02
#       7
#     4   4   4   4   4   4   4
#     4  11  22  35  67 108 135 175 233 284 344 414
#     4   8  16  34  64  95 137 194 232 273 348 416
#     4   8  16  32  61 103 144 180 225 283 340 412
#     4  10  19  37  65 101 141 181 225 277 348 420
#     4   8  16  33  60  94 134 182 222 266 346 412
#     4   9  18  35  62  98 136 172 218 282 339 405
#     4  10  20  38  65  97 135 184 235 287 346 411
#
# _framework density 26.603943999999998
#
# number of rings (size 3 to 8) (size 9 to 14) (size 15 to 20)
#    0.000    2.857    0.000    3.857    0.000    5.143 
#    0.000    3.571    0.000   43.714    0.000    3.000 
#    0.000    0.000    0.000    1.286    0.000    0.000 
#
# Total GULP energy -156648.822229 kJ/mol
# GULP energy per Si atom -5594.600794 kJ/mol
# Density = 2.654339 g / cm^3
# Si number density = 26.603944 Si / 1000 Ang^3
#
#
#
# Elastic Constant Matrix: (Units=GPa)
#
#
# Indices 1 2 3 4 5 6 
#
# 1 150.5217 10.7526 56.8249 0.0000 54.1834 0.0000
# 2 10.7526 77.3641 40.5155 0.0000 35.5414 0.0000
# 3 56.8249 40.5155 161.3209 0.0000 33.4021 0.0000
# 4 0.0000 0.0000 0.0000 0.8462 0.0000 51.9282
# 5 54.1834 35.5414 33.4021 0.0000 44.7033 0.0000
# 6 0.0000 0.0000 0.0000 51.9282 0.0000 18.8650
#
#
#
# Elastic Compliance Matrix: (Units=1/GPa)
#
#
# Indices 1 2 3 4 5 6 
#
# 1 0.017051 0.012159 -0.003288 0.000000 -0.027878 0.000000
# 2 0.012159 0.029645 -0.004492 0.000000 -0.034951 0.000000
# 3 -0.003288 -0.004492 0.008187 0.000000 0.001439 0.000000
# 4 0.000000 0.000000 0.000000 -0.007038 0.000000 0.019372
# 5 -0.027878 -0.034951 0.001439 0.000000 0.082872 0.000000
# 6 0.000000 0.000000 0.000000 0.019372 0.000000 -0.000316
#
#
# Mechanical properties :
#
#
# Convention : Reuss Voigt Hill
#
# Bulk Modulus (GPa) = 15.71269 67.26587 41.48928
# Shear Modulus (GPa) = 35.00002 31.62383 33.31192
#
# Velocity S-wave (km/s) = 3.63105 3.45148 3.54240
# Velocity P-wave (km/s) = 4.84751 6.42049 5.68863
#
# Compressibility (1/GPa) = 0.06364281
#
# Stress axis : x y z
#
# Youngs Moduli (GPa) = 58.64590 33.73287 122.14312
#
# Poissons Ratio (x) = -0.41017 0.40159
# Poissons Ratio (y) = -0.71309 0.54862
# Poissons Ratio (z) = 0.19282 0.15151
#
# Static dielectric constant tensor:
#      x y z
#    x 2.451620 0.000000 -0.340890 
#    y 0.000000 2.098820 0.000000 
#    z -0.340890 0.000000 2.412740 
# 
# From -- ./inp_files/88456.got.cif
#   From: 2010.05.17/outbox.cif.g08.bks.cpg/sg13_45_cif.got.tgz:88456.got - 2010.06.03 16:44:36.
