data_PCOD9229030
_publ_section_title
;
Structure prediction by ZEFSAII (Michael W. Deem and Ramdas Pophale) SiO2 
 PCOD9229030
Probable space group: P 2/C
;
_chemical_formula_sum "Si O2"
_cell_formula_units_Z 18
_cell_length_a 21.779715
_cell_length_b 8.425593
_cell_length_c 15.488840
_cell_angle_alpha 90.000000
_cell_angle_beta 20.654765
_cell_angle_gamma 90.000000
_cell_volume 1002.585907
_symmetry_space_group_name_H-M "P 2/C"
_symmetry_group_IT_number 13
_symmetry_cell_setting 'monoclinic'
loop_
_space_group_symop_operation_xyz
x,y,z
-x,y,1/2-z
-x,-y,-z
x,-y,1/2+z
loop_
_atom_site_type_symbol
_atom_site_label
_atom_site_fract_x
_atom_site_fract_y
_atom_site_fract_z
Si Si1 0.795120 0.620441 0.691126
Si Si2 0.500000 0.117046 0.250000
Si Si3 0.513000 0.810862 0.332129
Si Si4 0.203425 0.575098 0.484439
Si Si5 0.198948 0.369142 0.661999
O O1 0.758918 0.531994 0.648718
O O2 0.775777 0.486853 0.790677
O O3 0.995192 0.678117 0.429328
O O4 0.660609 0.759158 0.889931
O O5 0.333276 0.225318 0.487245
O O6 0.531351 0.997750 0.289465
O O7 0.500000 0.746404 0.250000
O O8 0.672973 0.726564 0.168752
O O9 0.231045 0.467683 0.532504
O O10 0.000000 0.621089 0.750000
#
# Coordination Sequence:
#
# PCOD9229030 Si02
#       5
#     4   2   4   4   4
#     4  10  20  35  64  83 110 151 203 240 278 330
#     4  10  22  36  60  80 126 158 176 234 302 350
#     4  10  20  37  56  83 117 156 183 230 292 343
#     4  10  20  37  62  87 111 148 201 244 276 328
#     4  10  19  37  57  88 113 150 192 241 284 338
#
# _framework density 17.953574
#
# number of rings (size 3 to 8) (size 9 to 14) (size 15 to 20)
#    0.667    1.333    2.222    2.000    0.000    0.889 
#    0.000    7.778    0.000    0.000    0.000    0.000 
#    0.000    0.000    0.000    0.000    0.000    0.000 
#
# Total GULP energy -100370.997999 kJ/mol
# GULP energy per Si atom -5576.166556 kJ/mol
# Density = 1.791271 g / cm^3
# Si number density = 17.953574 Si / 1000 Ang^3
#
#
#
# Elastic Constant Matrix: (Units=GPa)
#
#
# Indices 1 2 3 4 5 6 
#
# 1 74.4552 21.1066 39.2211 0.0000 22.5959 0.0000
# 2 21.1066 95.5234 85.1920 0.0000 -6.9189 0.0000
# 3 39.2211 85.1920 115.8350 0.0000 2.4915 0.0000
# 4 0.0000 0.0000 0.0000 2.6992 0.0000 3.1343
# 5 22.5959 -6.9189 2.4915 0.0000 20.0540 0.0000
# 6 0.0000 0.0000 0.0000 3.1343 0.0000 9.4302
#
#
#
# Elastic Compliance Matrix: (Units=1/GPa)
#
#
# Indices 1 2 3 4 5 6 
#
# 1 0.026732 -0.001638 -0.007206 0.000000 -0.029790 0.000000
# 2 -0.001638 0.034537 -0.025209 0.000000 0.016893 0.000000
# 3 -0.007206 -0.025209 0.029705 0.000000 -0.004269 0.000000
# 4 0.000000 0.000000 0.000000 0.603307 0.000000 -0.200517
# 5 -0.029790 0.016893 -0.004269 0.000000 0.089790 0.000000
# 6 0.000000 0.000000 0.000000 -0.200517 0.000000 0.172687
#
#
# Mechanical properties :
#
#
# Convention : Reuss Voigt Hill
#
# Bulk Modulus (GPa) = 43.72965 64.09480 53.91222
# Shear Modulus (GPa) = 4.84268 15.78960 10.31614
#
# Velocity S-wave (km/s) = 1.64414 2.96880 2.39968
# Velocity P-wave (km/s) = 5.29284 6.89416 6.14588
#
# Compressibility (1/GPa) = 0.02286778
#
# Stress axis : x y z
#
# Youngs Moduli (GPa) = 37.40852 28.95453 33.66413
#
# Poissons Ratio (x) = 0.04742 0.24259
# Poissons Ratio (y) = 0.06126 0.84865
# Poissons Ratio (z) = 0.26957 0.72993
#
# Static dielectric constant tensor:
#      x y z
#    x 1.617430 0.000000 -0.006330 
#    y 0.000000 1.582640 0.000000 
#    z -0.006330 0.000000 1.620180 
# 
# From -- ./inp_files/57006.got.cif
#   From: 2010.05.17/outbox.cif.g08.bks.cpg/sg13_29_cif.got.tgz:57006.got - 2010.06.03 16:44:36.
