data_PCOD9229808
_publ_section_title
;
Structure prediction by ZEFSAII (Michael W. Deem and Ramdas Pophale) SiO2 
 PCOD9229808
Probable space group: P 2/C
;
_chemical_formula_sum "Si O2"
_cell_formula_units_Z 26
_cell_length_a 21.030095
_cell_length_b 15.031238
_cell_length_c 5.063303
_cell_angle_alpha 90.000000
_cell_angle_beta 113.090286
_cell_angle_gamma 90.000000
_cell_volume 1472.328970
_symmetry_space_group_name_H-M "P 2/C"
_symmetry_group_IT_number 13
_symmetry_cell_setting 'monoclinic'
loop_
_space_group_symop_operation_xyz
x,y,z
-x,y,1/2-z
-x,-y,-z
x,-y,1/2+z
loop_
_atom_site_type_symbol
_atom_site_label
_atom_site_fract_x
_atom_site_fract_y
_atom_site_fract_z
Si Si1 0.572023 0.326047 0.241248
Si Si2 0.222585 0.367662 0.696099
Si Si3 0.500000 0.183848 0.750000
Si Si4 0.695901 0.381480 0.169097
Si Si5 0.315621 0.770965 0.198908
Si Si6 0.395006 0.940965 0.370786
Si Si7 0.926433 0.439189 0.071645
O O1 0.500000 0.359934 0.250000
O O2 0.452486 0.248628 0.498589
O O3 0.620323 0.398311 0.168690
O O4 0.621916 0.280964 0.543964
O O5 0.275190 0.412423 0.566838
O O6 0.245227 0.264513 0.714724
O O7 0.143899 0.385566 0.502615
O O8 0.245282 0.398061 0.021344
O O9 0.541325 0.120389 0.617892
O O10 0.689423 0.274837 0.096432
O O11 0.330974 0.874131 0.226515
O O12 0.395834 0.977129 0.668192
O O13 0.925441 0.478627 0.775610
O O14 0.000000 0.607130 0.750000
#
# Coordination Sequence:
#
# PCOD9229808 Si02
#       7
#     4   4   2   4   4   4   4
#     4  11  17  29  48  62  89 125 171 232 263 299
#     4   9  18  33  53  69 102 141 167 191 228 282
#     4  12  20  30  40  58  90 130 168 212 280 338
#     4   9  18  31  48  64  89 131 179 215 241 271
#     4   9  20  33  46  60  91 129 180 217 250 292
#     4  12  24  31  41  59  89 128 173 220 273 314
#     4  10  20  34  56  91 126 143 150 172 220 291
#
# _framework density 17.659099000000001
#
# number of rings (size 3 to 8) (size 9 to 14) (size 15 to 20)
#    0.923    0.923    3.077    2.308    2.154    0.000 
#    0.000    0.000    0.000    0.000    0.000    0.000 
#    0.000   66.462    0.000    0.154    0.000    0.000 
#
# Total GULP energy -144776.675593 kJ/mol
# GULP energy per Si atom -5568.333677 kJ/mol
# Density = 1.761891 g / cm^3
# Si number density = 17.659099 Si / 1000 Ang^3
#
#
#
# Elastic Constant Matrix: (Units=GPa)
#
#
# Indices 1 2 3 4 5 6 
#
# 1 97.1536 23.8128 30.7768 0.0000 23.5127 0.0000
# 2 23.8128 33.4536 7.4274 0.0000 15.8625 0.0000
# 3 30.7768 7.4274 87.9205 0.0000 4.7610 0.0000
# 4 0.0000 0.0000 0.0000 -7.0956 0.0000 20.1168
# 5 23.5127 15.8625 4.7610 0.0000 35.5314 0.0000
# 6 0.0000 0.0000 0.0000 20.1168 0.0000 -4.5836
#
#
#
# Elastic Compliance Matrix: (Units=1/GPa)
#
#
# Indices 1 2 3 4 5 6 
#
# 1 0.014782 -0.006604 -0.004277 0.000000 -0.006260 0.000000
# 2 -0.006604 0.041338 -0.000421 0.000000 -0.014028 0.000000
# 3 -0.004277 -0.000421 0.012836 0.000000 0.001298 0.000000
# 4 0.000000 0.000000 0.000000 0.012316 0.000000 0.054054
# 5 -0.006260 -0.014028 0.001298 0.000000 0.038376 0.000000
# 6 0.000000 0.000000 0.000000 0.054054 0.000000 0.019066
#
#
# Mechanical properties :
#
#
# Convention : Reuss Voigt Hill
#
# Bulk Modulus (GPa) = 21.57398 38.06241 29.81820
# Shear Modulus (GPa) = 28.28553 15.20450 21.74502
#
# Velocity S-wave (km/s) = 4.00653 2.93747 3.51291
# Velocity P-wave (km/s) = 5.80056 5.75376 5.77721
#
# Compressibility (1/GPa) = 0.04635213
#
# Stress axis : x y z
#
# Youngs Moduli (GPa) = 67.65104 24.19080 77.90291
#
# Poissons Ratio (x) = 0.15975 0.33323
# Poissons Ratio (y) = 0.44675 0.03279
# Poissons Ratio (z) = 0.28938 0.01018
#
# Static dielectric constant tensor:
#      x y z
#    x 1.674580 0.000000 -0.037960 
#    y 0.000000 1.638960 0.000000 
#    z -0.037960 0.000000 1.645500 
# 
# From -- ./inp_files/7077.got.cif
#   From: 2010.05.17/outbox.cif.g08.bks.cpg/sg13_4_cif.got.tgz:7077.got - 2010.06.03 16:44:36.
