data_PCOD9229265
_publ_section_title
;
Structure prediction by ZEFSAII (Michael W. Deem and Ramdas Pophale) SiO2 
 PCOD9229265
Probable space group: P 2/C
;
_chemical_formula_sum "Si O2"
_cell_formula_units_Z 30
_cell_length_a 24.932710
_cell_length_b 8.364174
_cell_length_c 8.087699
_cell_angle_alpha 90.000000
_cell_angle_beta 51.755428
_cell_angle_gamma 90.000000
_cell_volume 1324.631007
_symmetry_space_group_name_H-M "P 2/C"
_symmetry_group_IT_number 13
_symmetry_cell_setting 'monoclinic'
loop_
_space_group_symop_operation_xyz
x,y,z
-x,y,1/2-z
-x,-y,-z
x,-y,1/2+z
loop_
_atom_site_type_symbol
_atom_site_label
_atom_site_fract_x
_atom_site_fract_y
_atom_site_fract_z
Si Si1 0.464974 0.659831 0.494113
Si Si2 0.744180 0.663883 0.314053
Si Si3 0.634926 0.871987 0.323001
Si Si4 0.334400 0.665587 0.531816
Si Si5 0.744109 0.884654 0.607986
Si Si6 0.052675 0.073180 0.527948
Si Si7 0.500000 0.134256 0.250000
Si Si8 0.143841 0.158716 0.073402
O O1 0.500000 0.500000 0.500000
O O2 0.386450 0.637608 0.585004
O O3 0.471666 0.771960 0.642388
O O4 0.500000 0.703652 0.250000
O O5 0.684691 0.775068 0.349953
O O6 0.709331 0.493742 0.410387
O O7 0.764523 0.745122 0.446576
O O8 0.811326 0.690061 0.071897
O O9 0.567812 0.940078 0.540839
O O10 0.676845 0.021669 0.176857
O O11 0.623655 0.739857 0.201821
O O12 0.279320 0.801711 0.679448
O O13 0.802057 0.014744 0.511795
O O14 0.091171 0.923838 0.543955
O O15 0.000000 0.162538 0.750000
O O16 0.106154 0.176514 0.320803
O O17 0.000000 0.000000 0.500000
#
# Coordination Sequence:
#
# PCOD9229265 Si02
#       8
#     4   4   4   4   4   4   2   4
#     4  12  25  42  65  92 129 175 227 292 359 437
#     4  11  23  40  63  93 134 174 225 284 335 407
#     4  11  24  43  66  92 132 175 225 297 358 422
#     4  12  26  43  66 100 128 176 234 288 359 419
#     4  11  24  43  64  95 138 177 228 289 348 413
#     4   9  18  34  64 104 141 174 225 266 310 393
#     4  12  24  44  70  94 128 176 232 298 370 430
#     4  10  19  38  64 100 137 178 219 273 328 378
#
# _framework density 22.647817
#
# number of rings (size 3 to 8) (size 9 to 14) (size 15 to 20)
#    0.000    1.067    3.333    4.000    3.733    0.000 
#    1.200    2.000    0.000    2.400    0.000   18.667 
#    0.000    0.000    0.000    0.000    0.000    0.000 
#
# Total GULP energy -167520.015480 kJ/mol
# GULP energy per Si atom -5584.000516 kJ/mol
# Density = 2.259627 g / cm^3
# Si number density = 22.647817 Si / 1000 Ang^3
#
#
#
# Elastic Constant Matrix: (Units=GPa)
#
#
# Indices 1 2 3 4 5 6 
#
# 1 102.3874 19.0838 30.7591 0.0000 -3.9523 0.0000
# 2 19.0838 82.1738 40.4679 0.0000 -2.6764 0.0000
# 3 30.7591 40.4679 173.9638 0.0000 -10.9046 0.0000
# 4 0.0000 0.0000 0.0000 21.5633 0.0000 2.2623
# 5 -3.9523 -2.6764 -10.9046 0.0000 39.2105 0.0000
# 6 0.0000 0.0000 0.0000 2.2623 0.0000 20.7215
#
#
#
# Elastic Compliance Matrix: (Units=1/GPa)
#
#
# Indices 1 2 3 4 5 6 
#
# 1 0.010539 -0.001727 -0.001427 0.000000 0.000547 0.000000
# 2 -0.001727 0.014027 -0.002960 0.000000 -0.000040 0.000000
# 3 -0.001427 -0.002960 0.006786 0.000000 0.001541 0.000000
# 4 0.000000 0.000000 0.000000 0.046912 0.000000 -0.005122
# 5 0.000547 -0.000040 0.001541 0.000000 0.025984 0.000000
# 6 0.000000 0.000000 0.000000 -0.005122 0.000000 0.048818
#
#
# Mechanical properties :
#
#
# Convention : Reuss Voigt Hill
#
# Bulk Modulus (GPa) = 52.29335 59.90516 56.09926
# Shear Modulus (GPa) = 29.12576 34.17999 31.65287
#
# Velocity S-wave (km/s) = 3.59002 3.88905 3.74252
# Velocity P-wave (km/s) = 6.35013 6.83187 6.59540
#
# Compressibility (1/GPa) = 0.01912289
#
# Stress axis : x y z
#
# Youngs Moduli (GPa) = 94.88922 71.29201 147.36412
#
# Poissons Ratio (x) = 0.12310 0.21034
# Poissons Ratio (y) = 0.16384 0.43622
# Poissons Ratio (z) = 0.13544 0.21103
#
# Static dielectric constant tensor:
#      x y z
#    x 1.867340 0.000000 0.018410 
#    y 0.000000 1.830850 0.000000 
#    z 0.018410 0.000000 1.991720 
# 
# From -- ./inp_files/24440.got.cif
#   From: 2010.05.17/outbox.cif.g08.bks.cpg/sg13_13_cif.got.tgz:24440.got - 2010.06.03 16:44:36.
