data_PCOD9229296
_publ_section_title
;
Structure prediction by ZEFSAII (Michael W. Deem and Ramdas Pophale) SiO2 
 PCOD9229296
Probable space group: P 2/C
;
_chemical_formula_sum "Si O2"
_cell_formula_units_Z 28
_cell_length_a 5.759178
_cell_length_b 13.849203
_cell_length_c 18.183283
_cell_angle_alpha 90.000000
_cell_angle_beta 128.371717
_cell_angle_gamma 90.000000
_cell_volume 1137.034474
_symmetry_space_group_name_H-M "P 2/C"
_symmetry_group_IT_number 13
_symmetry_cell_setting 'monoclinic'
loop_
_space_group_symop_operation_xyz
x,y,z
-x,y,1/2-z
-x,-y,-z
x,-y,1/2+z
loop_
_atom_site_type_symbol
_atom_site_label
_atom_site_fract_x
_atom_site_fract_y
_atom_site_fract_z
Si Si1 0.086143 0.564356 0.438216
Si Si2 0.781173 0.880583 0.395807
Si Si3 0.838063 0.269965 0.795804
Si Si4 0.436695 0.051765 0.066245
Si Si5 0.142785 0.701367 0.999522
Si Si6 0.477561 0.763285 0.832317
Si Si7 0.274331 0.395290 0.383166
O O1 0.052128 0.478418 0.371055
O O2 0.404589 0.559598 0.538963
O O3 0.055562 0.663403 0.386387
O O4 0.863100 0.597852 0.459912
O O5 0.825545 0.839451 0.323253
O O6 0.688464 0.784955 0.423662
O O7 0.101954 0.911093 0.488529
O O8 0.569759 0.968412 0.373219
O O9 0.500000 0.306941 0.750000
O O10 0.000000 0.273756 0.750000
O O11 0.610963 0.143266 0.135584
O O12 0.500000 0.000000 0.000000
O O13 0.256143 0.688089 0.940459
O O14 0.804219 0.733509 0.923590
O O15 0.500000 0.785961 0.750000
O O16 0.293597 0.664245 0.810983
#
# Coordination Sequence:
#
# PCOD9229296 Si02
#       7
#     4   4   4   4   4   4   4
#     4   9  21  38  62  96 119 164 233 273 322 410
#     4   9  21  38  62  92 122 168 228 271 339 407
#     4  11  26  44  64  98 145 183 220 285 359 417
#     4  10  20  38  66  93 122 173 230 286 333 413
#     4   9  18  36  62  85 117 163 214 277 323 400
#     4  10  22  38  54  91 131 167 215 278 349 407
#     4  10  19  38  67  86 120 171 221 272 335 395
#
# _framework density 24.625464999999998
#
# number of rings (size 3 to 8) (size 9 to 14) (size 15 to 20)
#    0.000    2.286    0.000    2.143    6.000    1.143 
#    2.571    0.000    0.000    0.000    0.000    0.000 
#    0.000    0.000    0.000    0.000    0.000    0.000 
#
# Total GULP energy -155918.071971 kJ/mol
# GULP energy per Si atom -5568.502570 kJ/mol
# Density = 2.456942 g / cm^3
# Si number density = 24.625465 Si / 1000 Ang^3
#
#
#
# Elastic Constant Matrix: (Units=GPa)
#
#
# Indices 1 2 3 4 5 6 
#
# 1 79.2645 55.8091 24.9954 0.0000 -25.9796 0.0000
# 2 55.8091 119.0091 13.9174 0.0000 -2.7113 0.0000
# 3 24.9954 13.9174 47.5521 0.0000 -10.1418 0.0000
# 4 0.0000 0.0000 0.0000 23.7789 0.0000 -18.5829
# 5 -25.9796 -2.7113 -10.1418 0.0000 39.4557 0.0000
# 6 0.0000 0.0000 0.0000 -18.5829 0.0000 41.4920
#
#
#
# Elastic Compliance Matrix: (Units=1/GPa)
#
#
# Indices 1 2 3 4 5 6 
#
# 1 0.029315 -0.012405 -0.008299 0.000000 0.016317 0.000000
# 2 -0.012405 0.013950 0.000952 0.000000 -0.006965 0.000000
# 3 -0.008299 0.000952 0.025351 0.000000 0.001118 0.000000
# 4 0.000000 0.000000 0.000000 0.064699 0.000000 0.028976
# 5 0.016317 -0.006965 0.001118 0.000000 0.035897 0.000000
# 6 0.000000 0.000000 0.000000 0.028976 0.000000 0.037079
#
#
# Mechanical properties :
#
#
# Convention : Reuss Voigt Hill
#
# Bulk Modulus (GPa) = 34.34789 48.36329 41.35559
# Shear Modulus (GPa) = 19.56960 31.01892 25.29426
#
# Velocity S-wave (km/s) = 2.82208 3.55297 3.20841
# Velocity P-wave (km/s) = 4.95956 6.04266 5.52770
#
# Compressibility (1/GPa) = 0.02911387
#
# Stress axis : x y z
#
# Youngs Moduli (GPa) = 34.11208 71.68454 39.44579
#
# Poissons Ratio (x) = 0.88925 0.32734
# Poissons Ratio (y) = 0.42316 -0.03757
# Poissons Ratio (z) = 0.28308 -0.06827
#
# Static dielectric constant tensor:
#      x y z
#    x 2.011880 0.000000 -0.044490 
#    y 0.000000 2.015370 0.000000 
#    z -0.044490 0.000000 2.027570 
# 
# From -- ./inp_files/61687.got.cif
#   From: 2010.05.17/outbox.cif.g08.bks.cpg/sg13_31_cif.got.tgz:61687.got - 2010.06.03 16:44:36.
