data_PCOD9229799
_publ_section_title
;
Structure prediction by ZEFSAII (Michael W. Deem and Ramdas Pophale) SiO2 
 PCOD9229799
Probable space group: P 2/C
;
_chemical_formula_sum "Si O2"
_cell_formula_units_Z 18
_cell_length_a 7.790904
_cell_length_b 19.186274
_cell_length_c 5.088690
_cell_angle_alpha 90.000000
_cell_angle_beta 63.504103
_cell_angle_gamma 90.000000
_cell_volume 680.755530
_symmetry_space_group_name_H-M "P 2/C"
_symmetry_group_IT_number 13
_symmetry_cell_setting 'monoclinic'
loop_
_space_group_symop_operation_xyz
x,y,z
-x,y,1/2-z
-x,-y,-z
x,-y,1/2+z
loop_
_atom_site_type_symbol
_atom_site_label
_atom_site_fract_x
_atom_site_fract_y
_atom_site_fract_z
Si Si1 0.719845 0.316861 0.501933
Si Si2 0.235133 0.038688 0.610186
Si Si3 0.500000 0.617047 0.750000
Si Si4 0.877564 0.170651 0.574173
Si Si5 0.220305 0.454260 0.762987
O O1 0.500000 0.310817 0.750000
O O2 0.680182 0.337998 0.225842
O O3 0.804265 0.242014 0.500005
O O4 0.833742 0.379579 0.570046
O O5 0.273463 0.114181 0.711446
O O6 0.000000 0.038459 0.750000
O O7 0.299264 0.019492 0.275099
O O8 0.561890 0.568182 0.469215
O O9 0.000000 0.188624 0.750000
O O10 0.000000 0.137192 0.250000
O O11 0.173141 0.513373 0.008829
#
# Coordination Sequence:
#
# PCOD9229799 Si02
#       5
#     4   4   2   4   4
#     4  10  24  38  60  87 121 154 193 240 297 346
#     4   9  16  32  57  87 113 141 189 243 281 322
#     4  10  20  34  56  86 114 146 194 250 288 338
#     4  11  24  39  62  89 120 156 192 236 290 348
#     4  11  20  33  56  85 111 142 195 254 290 325
#
# _framework density 26.441212
#
# number of rings (size 3 to 8) (size 9 to 14) (size 15 to 20)
#    0.000    1.778    2.222    4.000    7.778    0.000 
#    0.000    0.000    0.000    5.333    0.000    0.000 
#    0.000    0.000    0.000    0.000    0.000    0.000 
#
# Total GULP energy -100430.365595 kJ/mol
# GULP energy per Si atom -5579.464755 kJ/mol
# Density = 2.638103 g / cm^3
# Si number density = 26.441212 Si / 1000 Ang^3
#
#
#
# Elastic Constant Matrix: (Units=GPa)
#
#
# Indices 1 2 3 4 5 6 
#
# 1 76.0363 39.4447 36.2583 0.0000 25.6478 0.0000
# 2 39.4447 207.2456 43.8781 0.0000 37.9008 0.0000
# 3 36.2583 43.8781 169.7559 0.0000 37.2038 0.0000
# 4 0.0000 0.0000 0.0000 59.3449 0.0000 32.7533
# 5 25.6478 37.9008 37.2038 0.0000 53.6694 0.0000
# 6 0.0000 0.0000 0.0000 32.7533 0.0000 42.1514
#
#
#
# Elastic Compliance Matrix: (Units=1/GPa)
#
#
# Indices 1 2 3 4 5 6 
#
# 1 0.016844 -0.001802 -0.001942 0.000000 -0.005431 0.000000
# 2 -0.001802 0.005800 -0.000478 0.000000 -0.002904 0.000000
# 3 -0.001942 -0.000478 0.007254 0.000000 -0.003763 0.000000
# 4 0.000000 0.000000 0.000000 0.029504 0.000000 -0.022925
# 5 -0.005431 -0.002904 -0.003763 0.000000 0.025887 0.000000
# 6 0.000000 0.000000 0.000000 -0.022925 0.000000 0.041538
#
#
# Mechanical properties :
#
#
# Convention : Reuss Voigt Hill
#
# Bulk Modulus (GPa) = 46.60807 76.91110 61.75958
# Shear Modulus (GPa) = 35.10707 53.26359 44.18533
#
# Velocity S-wave (km/s) = 3.64777 4.49309 4.09232
# Velocity P-wave (km/s) = 5.95037 7.48785 6.76295
#
# Compressibility (1/GPa) = 0.02145551
#
# Stress axis : x y z
#
# Youngs Moduli (GPa) = 59.36782 172.40376 137.85913
#
# Poissons Ratio (x) = 0.31059 0.26769
# Poissons Ratio (y) = 0.10695 0.06591
# Poissons Ratio (z) = 0.11528 0.08242
#
# Static dielectric constant tensor:
#      x y z
#    x 2.395740 0.000000 0.019850 
#    y 0.000000 2.066810 0.000000 
#    z 0.019850 0.000000 2.199750 
# 
# From -- ./inp_files/1545.got.cif
#   From: 2010.05.17/outbox.cif.g08.bks.cpg/sg13_1_cif.got.tgz:1545.got - 2010.06.03 16:44:36.
