data_PCOD9229351
_publ_section_title
;
Structure prediction by ZEFSAII (Michael W. Deem and Ramdas Pophale) SiO2 
 PCOD9229351
Probable space group: P 2/C
;
_chemical_formula_sum "Si O2"
_cell_formula_units_Z 32
_cell_length_a 21.310925
_cell_length_b 10.490925
_cell_length_c 21.895720
_cell_angle_alpha 90.000000
_cell_angle_beta 161.375432
_cell_angle_gamma 90.000000
_cell_volume 1563.376400
_symmetry_space_group_name_H-M "P 2/C"
_symmetry_group_IT_number 13
_symmetry_cell_setting 'monoclinic'
loop_
_space_group_symop_operation_xyz
x,y,z
-x,y,1/2-z
-x,-y,-z
x,-y,1/2+z
loop_
_atom_site_type_symbol
_atom_site_label
_atom_site_fract_x
_atom_site_fract_y
_atom_site_fract_z
Si Si1 0.710012 0.560561 0.261898
Si Si2 0.801664 0.721958 0.895674
Si Si3 0.269139 0.562592 0.846751
Si Si4 0.025842 0.224218 0.066235
Si Si5 0.631380 0.819156 0.986518
Si Si6 0.055753 0.389602 0.731998
Si Si7 0.703278 0.969871 0.460956
Si Si8 0.922894 0.968966 0.780093
O O1 0.781619 0.424389 0.353254
O O2 0.721513 0.543346 0.198778
O O3 0.841729 0.679867 0.402045
O O4 0.484790 0.575332 0.072776
O O5 0.936327 0.795176 0.970638
O O6 0.592717 0.792848 0.703219
O O7 0.899905 0.698277 0.051998
O O8 0.210714 0.693249 0.760730
O O9 0.102325 0.520020 0.739827
O O10 0.023633 0.106507 0.109781
O O11 0.644915 0.892782 0.934897
O O12 0.739293 0.685356 0.082451
O O13 0.774872 0.913143 0.157861
O O14 0.000000 0.408404 0.750000
O O15 0.500000 0.909879 0.250000
O O16 0.798780 0.902507 0.609372
O O17 0.870236 0.992743 0.564079
#
# Coordination Sequence:
#
# PCOD9229351 Si02
#       8
#     4   4   4   4   4   4   4   4
#     4  10  19  39  64  87 124 163 214 250 317 396
#     4  11  22  37  63  94 123 170 206 260 328 376
#     4  10  20  38  62  90 117 170 206 257 321 375
#     4  11  21  40  64  88 129 166 213 259 319 394
#     4  10  23  38  62  90 123 161 215 262 317 390
#     4  12  23  37  59  91 127 159 209 267 318 377
#     4   9  20  42  64  84 113 168 214 249 324 388
#     4   9  22  39  60  91 118 163 214 260 318 380
#
# _framework density 20.468520999999999
#
# number of rings (size 3 to 8) (size 9 to 14) (size 15 to 20)
#    0.750    1.000    3.750    1.500    3.500    1.500 
#    2.250    0.625    0.000    0.000    0.000    0.000 
#    0.000    0.000    0.000    0.000    0.000    0.000 
#
# Total GULP energy -178247.730356 kJ/mol
# GULP energy per Si atom -5570.241574 kJ/mol
# Density = 2.042193 g / cm^3
# Si number density = 20.468521 Si / 1000 Ang^3
#
#
#
# Elastic Constant Matrix: (Units=GPa)
#
#
# Indices 1 2 3 4 5 6 
#
# 1 117.4196 32.0677 48.8338 0.0000 1.4408 0.0000
# 2 32.0677 31.9272 21.1350 0.0000 7.9254 0.0000
# 3 48.8338 21.1350 118.9303 0.0000 11.4938 0.0000
# 4 0.0000 0.0000 0.0000 21.3638 0.0000 -2.7971
# 5 1.4408 7.9254 11.4938 0.0000 23.7289 0.0000
# 6 0.0000 0.0000 0.0000 -2.7971 0.0000 23.2115
#
#
#
# Elastic Compliance Matrix: (Units=1/GPa)
#
#
# Indices 1 2 3 4 5 6 
#
# 1 0.013363 -0.012160 -0.003819 0.000000 0.005100 0.000000
# 2 -0.012160 0.048601 -0.002252 0.000000 -0.014403 0.000000
# 3 -0.003819 -0.002252 0.010786 0.000000 -0.004241 0.000000
# 4 0.000000 0.000000 0.000000 0.047558 0.000000 0.005731
# 5 0.005100 -0.014403 -0.004241 0.000000 0.048698 0.000000
# 6 0.000000 0.000000 0.000000 0.005731 0.000000 0.043773
#
#
# Mechanical properties :
#
#
# Convention : Reuss Voigt Hill
#
# Bulk Modulus (GPa) = 27.55662 52.48333 40.01998
# Shear Modulus (GPa) = 19.13243 24.74354 21.93799
#
# Velocity S-wave (km/s) = 3.06064 3.48064 3.27737
# Velocity P-wave (km/s) = 5.09727 6.46914 5.82374
#
# Compressibility (1/GPa) = 0.03628892
#
# Stress axis : x y z
#
# Youngs Moduli (GPa) = 74.83342 20.57588 92.70947
#
# Poissons Ratio (x) = 0.25020 0.35405
# Poissons Ratio (y) = 0.90995 0.20877
# Poissons Ratio (z) = 0.28578 0.04633
#
# Static dielectric constant tensor:
#      x y z
#    x 1.748980 0.000000 -0.045010 
#    y 0.000000 1.745550 0.000000 
#    z -0.045010 0.000000 1.785580 
# 
# From -- ./inp_files/81829.got.cif
#   From: 2010.05.17/outbox.cif.g08.bks.cpg/sg13_41_cif.got.tgz:81829.got - 2010.06.03 16:44:36.
