data_PCOD9229425
_publ_section_title
;
Structure prediction by ZEFSAII (Michael W. Deem and Ramdas Pophale) SiO2 
 PCOD9229425
Probable space group: P 2/C
;
_chemical_formula_sum "Si O2"
_cell_formula_units_Z 20
_cell_length_a 7.873592
_cell_length_b 8.939264
_cell_length_c 17.731194
_cell_angle_alpha 90.000000
_cell_angle_beta 129.361722
_cell_angle_gamma 90.000000
_cell_volume 964.896200
_symmetry_space_group_name_H-M "P 2/C"
_symmetry_group_IT_number 13
_symmetry_cell_setting 'monoclinic'
loop_
_space_group_symop_operation_xyz
x,y,z
-x,y,1/2-z
-x,-y,-z
x,-y,1/2+z
loop_
_atom_site_type_symbol
_atom_site_label
_atom_site_fract_x
_atom_site_fract_y
_atom_site_fract_z
Si Si1 0.709624 0.390450 0.564591
Si Si2 0.500000 0.726871 0.750000
Si Si3 0.054530 0.624633 0.676792
Si Si4 0.573265 0.886987 0.923182
Si Si5 0.000000 0.798277 0.250000
Si Si6 0.133005 0.048876 0.391135
O O1 0.500000 0.500000 0.500000
O O2 0.647057 0.256668 0.492133
O O3 0.914464 0.494424 0.598854
O O4 0.796102 0.308194 0.666384
O O5 0.308538 0.622889 0.728835
O O6 0.571678 0.835281 0.837658
O O7 0.000000 0.612573 0.750000
O O8 0.980864 0.792239 0.635467
O O9 0.333908 0.934674 0.887090
O O10 0.748992 0.010246 0.997335
O O11 0.015998 0.913815 0.183611
#
# Coordination Sequence:
#
# PCOD9229425 Si02
#       6
#     4   2   4   4   2   4
#     4  11  21  38  64  97 128 175 219 264 331 388
#     4  12  24  40  64  96 132 170 220 270 326 384
#     4  12  22  41  67  93 130 173 214 269 330 391
#     4  10  22  38  65  95 128 169 217 273 323 391
#     4  10  20  32  66  98 126 166 226 262 318 394
#     4  10  19  40  65  96 126 170 219 267 325 394
#
# _framework density 20.727616999999999
#
# number of rings (size 3 to 8) (size 9 to 14) (size 15 to 20)
#    0.000    1.200    6.000    0.000    0.000    1.600 
#    0.000    0.000    0.000    7.200    0.000    0.000 
#    0.000    0.000    0.000    0.000    0.000    0.000 
#
# Total GULP energy -111548.928774 kJ/mol
# GULP energy per Si atom -5577.446439 kJ/mol
# Density = 2.068044 g / cm^3
# Si number density = 20.727617 Si / 1000 Ang^3
#
#
#
# Elastic Constant Matrix: (Units=GPa)
#
#
# Indices 1 2 3 4 5 6 
#
# 1 91.2789 20.9266 40.3981 0.0000 10.7387 0.0000
# 2 20.9266 109.4632 36.5938 0.0000 17.2147 0.0000
# 3 40.3981 36.5938 134.0174 0.0000 0.8272 0.0000
# 4 0.0000 0.0000 0.0000 23.6722 0.0000 10.5571
# 5 10.7387 17.2147 0.8272 0.0000 22.7097 0.0000
# 6 0.0000 0.0000 0.0000 10.5571 0.0000 -7.5814
#
#
#
# Elastic Compliance Matrix: (Units=1/GPa)
#
#
# Indices 1 2 3 4 5 6 
#
# 1 0.013476 -0.000318 -0.003938 0.000000 -0.005988 0.000000
# 2 -0.000318 0.011534 -0.003001 0.000000 -0.008483 0.000000
# 3 -0.003938 -0.003001 0.009445 0.000000 0.003793 0.000000
# 4 0.000000 0.000000 0.000000 0.026060 0.000000 0.036289
# 5 -0.005988 -0.008483 0.003793 0.000000 0.053158 0.000000
# 6 0.000000 0.000000 0.000000 0.036289 0.000000 -0.081370
#
#
# Mechanical properties :
#
#
# Convention : Reuss Voigt Hill
#
# Bulk Modulus (GPa) = 50.15148 58.95516 54.55332
# Shear Modulus (GPa) = 93.52178 23.54950 58.53564
#
# Velocity S-wave (km/s) = 6.72439 3.37433 5.31994
# Velocity P-wave (km/s) = 9.19445 6.60954 8.00699
#
# Compressibility (1/GPa) = 0.01993959
#
# Stress axis : x y z
#
# Youngs Moduli (GPa) = 74.20707 86.70280 105.87692
#
# Poissons Ratio (x) = 0.02757 0.41698
# Poissons Ratio (y) = 0.02360 0.31775
# Poissons Ratio (z) = 0.29225 0.26020
#
# Static dielectric constant tensor:
#      x y z
#    x 1.852120 0.000000 0.050890 
#    y 0.000000 1.784480 0.000000 
#    z 0.050890 0.000000 1.827870 
# 
# From -- ./inp_files/63589.got.cif
#   From: 2010.05.17/outbox.cif.g08.bks.cpg/sg13_32_cif.got.tgz:63589.got - 2010.06.03 16:44:36.
