data_PCOD9229862
_publ_section_title
;
Structure prediction by ZEFSAII (Michael W. Deem and Ramdas Pophale) SiO2 
 PCOD9229862
Probable space group: P 2/C
;
_chemical_formula_sum "Si O2"
_cell_formula_units_Z 30
_cell_length_a 23.929936
_cell_length_b 6.689498
_cell_length_c 14.345979
_cell_angle_alpha 90.000000
_cell_angle_beta 148.940742
_cell_angle_gamma 90.000000
_cell_volume 1184.816949
_symmetry_space_group_name_H-M "P 2/C"
_symmetry_group_IT_number 13
_symmetry_cell_setting 'monoclinic'
loop_
_space_group_symop_operation_xyz
x,y,z
-x,y,1/2-z
-x,-y,-z
x,-y,1/2+z
loop_
_atom_site_type_symbol
_atom_site_label
_atom_site_fract_x
_atom_site_fract_y
_atom_site_fract_z
Si Si1 0.124233 0.053383 0.106312
Si Si2 0.364195 0.515357 0.219083
Si Si3 0.606364 0.559573 0.526643
Si Si4 0.360433 0.030251 0.885586
Si Si5 0.208069 0.415722 0.353007
Si Si6 0.500000 0.926117 0.750000
Si Si7 0.316555 0.042330 0.121588
Si Si8 0.908993 0.811991 0.264846
O O1 0.231499 0.960810 0.215003
O O2 0.155822 0.242763 0.216660
O O3 0.085668 0.879849 0.119730
O O4 0.029531 0.132609 0.903355
O O5 0.478062 0.542745 0.330196
O O6 0.368805 0.537438 0.336845
O O7 0.334926 0.283409 0.160164
O O8 0.273386 0.648735 0.038991
O O9 0.617645 0.798519 0.557933
O O10 0.695633 0.499857 0.577027
O O11 0.373139 0.051298 0.793388
O O12 0.437487 0.153421 0.066347
O O13 0.125208 0.581288 0.273904
O O14 0.607713 0.017506 0.857021
O O15 0.187329 0.056737 0.918681
#
# Coordination Sequence:
#
# PCOD9229862 Si02
#       8
#     4   4   4   4   4   2   4   4
#     4  10  21  39  61  86 116 155 201 245 292 348
#     4   9  19  33  53  83 118 155 196 240 291 355
#     4   9  19  33  53  83 118 155 196 240 291 355
#     4  10  22  37  57  87 119 158 198 240 302 354
#     4  10  20  34  60  84 114 157 193 244 298 348
#     4  12  22  36  56  86 124 160 188 250 288 364
#     4  10  22  37  57  87 119 158 198 240 302 354
#     4  10  21  39  61  86 116 155 201 245 292 348
#
# _framework density 25.320367999999998
#
# number of rings (size 3 to 8) (size 9 to 14) (size 15 to 20)
#    0.000    2.133    1.333    1.200    7.467    0.533 
#    0.000    1.333    0.000    4.000    0.000    0.000 
#    0.000    0.000    0.000    0.000    0.000    0.000 
#
# Total GULP energy -167492.506620 kJ/mol
# GULP energy per Si atom -5583.083554 kJ/mol
# Density = 2.526274 g / cm^3
# Si number density = 25.320368 Si / 1000 Ang^3
#
#
#
# Elastic Constant Matrix: (Units=GPa)
#
#
# Indices 1 2 3 4 5 6 
#
# 1 83.2256 -5.4500 52.6826 0.0000 -19.5731 0.0000
# 2 -5.4500 43.9432 12.5953 0.0000 -5.8821 0.0000
# 3 52.6826 12.5953 190.5662 0.0000 -1.2760 0.0000
# 4 0.0000 0.0000 0.0000 40.7374 0.0000 0.5939
# 5 -19.5731 -5.8821 -1.2760 0.0000 44.6316 0.0000
# 6 0.0000 0.0000 0.0000 0.5939 0.0000 27.6609
#
#
#
# Elastic Compliance Matrix: (Units=1/GPa)
#
#
# Indices 1 2 3 4 5 6 
#
# 1 0.017452 0.004709 -0.005082 0.000000 0.008129 0.000000
# 2 0.004709 0.024879 -0.002911 0.000000 0.005261 0.000000
# 3 -0.005082 -0.002911 0.006829 0.000000 -0.002417 0.000000
# 4 0.000000 0.000000 0.000000 0.024555 0.000000 -0.000527
# 5 0.008129 0.005261 -0.002417 0.000000 0.026595 0.000000
# 6 0.000000 0.000000 0.000000 -0.000527 0.000000 0.036163
#
#
# Mechanical properties :
#
#
# Convention : Reuss Voigt Hill
#
# Bulk Modulus (GPa) = 23.47784 48.59898 36.03841
# Shear Modulus (GPa) = 31.79886 39.79979 35.79932
#
# Velocity S-wave (km/s) = 3.54766 3.96896 3.76421
# Velocity P-wave (km/s) = 5.10623 6.34340 5.75814
#
# Compressibility (1/GPa) = 0.04259336
#
# Stress axis : x y z
#
# Youngs Moduli (GPa) = 57.29868 40.19409 146.44376
#
# Poissons Ratio (x) = -0.18928 0.74417
# Poissons Ratio (y) = -0.26983 0.42630
# Poissons Ratio (z) = 0.29117 0.11701
#
# Static dielectric constant tensor:
#      x y z
#    x 2.016900 0.000000 0.040570 
#    y 0.000000 2.136540 0.000000 
#    z 0.040570 0.000000 2.066950 
# 
# From -- ./inp_files/58699.got.cif
#   From: 2010.05.17/outbox.cif.g08.bks.cpg/sg13_30_cif.got.tgz:58699.got - 2010.06.03 16:44:36.
