data_PCOD9229532
_publ_section_title
;
Structure prediction by ZEFSAII (Michael W. Deem and Ramdas Pophale) SiO2 
 PCOD9229532
Probable space group: P 2/C
;
_chemical_formula_sum "Si O2"
_cell_formula_units_Z 28
_cell_length_a 13.833790
_cell_length_b 14.730451
_cell_length_c 8.771119
_cell_angle_alpha 90.000000
_cell_angle_beta 108.482685
_cell_angle_gamma 90.000000
_cell_volume 1695.167829
_symmetry_space_group_name_H-M "P 2/C"
_symmetry_group_IT_number 13
_symmetry_cell_setting 'monoclinic'
loop_
_space_group_symop_operation_xyz
x,y,z
-x,y,1/2-z
-x,-y,-z
x,-y,1/2+z
loop_
_atom_site_type_symbol
_atom_site_label
_atom_site_fract_x
_atom_site_fract_y
_atom_site_fract_z
Si Si1 0.619169 0.903202 0.627381
Si Si2 0.890019 0.599622 0.628308
Si Si3 0.500000 0.600818 0.066094
Si Si4 0.696122 0.719711 0.531718
Si Si5 0.619169 0.903202 0.991789
Si Si6 0.890019 0.400378 0.761711
Si Si7 0.696122 0.280289 0.664404
O O1 0.681939 0.818346 0.596479
O O2 0.623959 0.906539 0.811979
O O3 0.500000 0.889546 0.522531
O O4 0.651664 0.000000 0.575832
O O5 0.800813 0.669431 0.625110
O O6 0.865852 0.500000 0.682926
O O7 0.896023 0.593342 0.448011
O O8 0.000000 0.626068 0.750000
O O9 0.500000 0.595007 0.250000
O O10 0.399465 0.656666 0.968881
O O11 0.600535 0.656666 0.069416
O O12 0.500000 0.500000 0.000000
O O13 0.692335 0.728071 0.346167
O O14 0.681939 0.818346 0.085460
O O15 0.800813 0.330569 0.675702
O O16 0.000000 0.373932 0.750000
#
# Coordination Sequence:
#
# PCOD9229532 Si02
#       7
#     4   4   4   4   4   4   4
#     4  10  20  33  52  77 104 136 171 209 253 305
#     4  10  20  34  53  76 102 137 177 217 257 300
#     4  10  20  32  47  70 103 136 165 204 250 302
#     4  10  20  34  52  74 103 137 171 210 257 304
#     4  10  20  33  52  77 104 136 171 209 253 305
#     4  10  20  34  53  76 102 137 177 217 257 300
#     4  10  20  34  52  74 103 137 171 210 257 304
#
# _framework density 16.517537000000001
#
# number of rings (size 3 to 8) (size 9 to 14) (size 15 to 20)
#    0.000    2.000    1.429    3.429    0.000    4.571 
#    0.000    0.000    0.000    0.857    0.000    6.000 
#    0.000    0.000    0.000    0.000    0.000    0.000 
#
# Total GULP energy -156321.786115 kJ/mol
# GULP energy per Si atom -5582.920933 kJ/mol
# Density = 1.647994 g / cm^3
# Si number density = 16.517537 Si / 1000 Ang^3
#
#
#
# Elastic Constant Matrix: (Units=GPa)
#
#
# Indices 1 2 3 4 5 6 
#
# 1 113.9996 97.5842 44.3575 0.0000 11.3010 0.0000
# 2 97.5842 170.7439 58.0313 0.0000 17.7027 0.0000
# 3 44.3575 58.0313 50.8137 0.0000 16.9792 0.0000
# 4 0.0000 0.0000 0.0000 33.6650 0.0000 -4.6574
# 5 11.3010 17.7027 16.9792 0.0000 19.6549 0.0000
# 6 0.0000 0.0000 0.0000 -4.6574 0.0000 23.2591
#
#
#
# Elastic Compliance Matrix: (Units=1/GPa)
#
#
# Indices 1 2 3 4 5 6 
#
# 1 0.018638 -0.008312 -0.008010 0.000000 0.003690 0.000000
# 2 -0.008312 0.013298 -0.007768 0.000000 -0.000488 0.000000
# 3 -0.008010 -0.007768 0.044517 0.000000 -0.026855 0.000000
# 4 0.000000 0.000000 0.000000 0.030551 0.000000 0.006117
# 5 0.003690 -0.000488 -0.026855 0.000000 0.072394 0.000000
# 6 0.000000 0.000000 0.000000 0.006117 0.000000 0.044219
#
#
# Mechanical properties :
#
#
# Convention : Reuss Voigt Hill
#
# Bulk Modulus (GPa) = 35.37017 81.72257 58.54637
# Shear Modulus (GPa) = 17.77957 24.35473 21.06715
#
# Velocity S-wave (km/s) = 3.28442 3.84406 3.57521
# Velocity P-wave (km/s) = 5.98694 8.32382 7.25015
#
# Compressibility (1/GPa) = 0.02827241
#
# Stress axis : x y z
#
# Youngs Moduli (GPa) = 53.65266 75.19880 22.46357
#
# Poissons Ratio (x) = 0.62509 0.17994
# Poissons Ratio (y) = 0.44598 0.17449
# Poissons Ratio (z) = 0.42976 0.58412
#
# Static dielectric constant tensor:
#      x y z
#    x 1.549670 0.000000 -0.002520 
#    y 0.000000 1.525100 0.000000 
#    z -0.002520 0.000000 1.555290 
# 
# From -- ./inp_files/16542.got.cif
#   From: 2010.05.17/outbox.cif.g08.bks.cpg/sg13_9_cif.got.tgz:16542.got - 2010.06.03 16:44:36.
