data_PCOD9229879
_publ_section_title
;
Structure prediction by ZEFSAII (Michael W. Deem and Ramdas Pophale) SiO2 
 PCOD9229879
Probable space group: P 2/C
;
_chemical_formula_sum "Si O2"
_cell_formula_units_Z 32
_cell_length_a 19.620357
_cell_length_b 11.192625
_cell_length_c 8.945296
_cell_angle_alpha 90.000000
_cell_angle_beta 127.375445
_cell_angle_gamma 90.000000
_cell_volume 1561.072388
_symmetry_space_group_name_H-M "P 2/C"
_symmetry_group_IT_number 13
_symmetry_cell_setting 'monoclinic'
loop_
_space_group_symop_operation_xyz
x,y,z
-x,y,1/2-z
-x,-y,-z
x,-y,1/2+z
loop_
_atom_site_type_symbol
_atom_site_label
_atom_site_fract_x
_atom_site_fract_y
_atom_site_fract_z
Si Si1 0.368510 0.033928 0.069621
Si Si2 0.568489 0.577920 0.226239
Si Si3 0.593736 0.173028 0.656643
Si Si4 0.678951 0.439919 0.150491
Si Si5 0.232747 0.691929 0.218128
Si Si6 0.742510 0.217193 0.421011
Si Si7 0.820039 0.044299 0.298012
Si Si8 0.898963 0.157274 0.103600
O O1 0.340509 0.135513 0.150784
O O2 0.402422 0.917814 0.200158
O O3 0.426028 0.094529 0.017242
O O4 0.276764 0.996145 0.874047
O O5 0.500000 0.526950 0.250000
O O6 0.541175 0.707604 0.126551
O O7 0.597910 0.487674 0.138719
O O8 0.650609 0.593659 0.445893
O O9 0.686990 0.231476 0.741554
O O10 0.741163 0.554056 0.236477
O O11 0.716448 0.327213 0.284203
O O12 0.222529 0.737016 0.374375
O O13 0.151919 0.723032 0.008881
O O14 0.808761 0.137073 0.418152
O O15 0.861900 0.102993 0.208218
O O16 0.873376 0.934976 0.437206
O O17 0.000000 0.172612 0.250000
#
# Coordination Sequence:
#
# PCOD9229879 Si02
#       8
#     4   4   4   4   4   4   4   4
#     4  11  17  34  59  87 117 148 204 250 285 345
#     4  11  24  42  61  91 125 155 195 249 310 363
#     4  10  20  34  61  85 116 155 197 248 290 352
#     4  11  23  39  66  90 114 161 205 252 295 350
#     4  10  20  39  56  87 116 154 214 248 291 352
#     4  11  20  34  63  90 114 151 208 257 284 344
#     4  12  19  34  57  88 120 159 198 249 297 356
#     4  12  23  36  57  89 131 163 196 250 309 356
#
# _framework density 20.498726999999999
#
# number of rings (size 3 to 8) (size 9 to 14) (size 15 to 20)
#    0.000    1.000    7.500    1.500    1.750    0.000 
#    0.000    0.625    0.000    3.750    0.000    0.000 
#    0.000    0.000    0.000    0.000    0.000    0.000 
#
# Total GULP energy -178898.468444 kJ/mol
# GULP energy per Si atom -5590.577139 kJ/mol
# Density = 2.045207 g / cm^3
# Si number density = 20.498727 Si / 1000 Ang^3
#
#
#
# Elastic Constant Matrix: (Units=GPa)
#
#
# Indices 1 2 3 4 5 6 
#
# 1 48.8876 10.2511 24.6015 0.0000 -14.0961 0.0000
# 2 10.2511 96.4209 26.5519 0.0000 -1.1071 0.0000
# 3 24.6015 26.5519 78.5727 0.0000 -15.1197 0.0000
# 4 0.0000 0.0000 0.0000 36.6504 0.0000 -14.3673
# 5 -14.0961 -1.1071 -15.1197 0.0000 26.6388 0.0000
# 6 0.0000 0.0000 0.0000 -14.3673 0.0000 28.3824
#
#
#
# Elastic Compliance Matrix: (Units=1/GPa)
#
#
# Indices 1 2 3 4 5 6 
#
# 1 0.026775 -0.001085 -0.005949 0.000000 0.010747 0.000000
# 2 -0.001085 0.011568 -0.004027 0.000000 -0.002379 0.000000
# 3 -0.005949 -0.004027 0.017190 0.000000 0.006442 0.000000
# 4 0.000000 0.000000 0.000000 0.034040 0.000000 0.017231
# 5 0.010747 -0.002379 0.006442 0.000000 0.046783 0.000000
# 6 0.000000 0.000000 0.000000 0.017231 0.000000 0.043955
#
#
# Mechanical properties :
#
#
# Convention : Reuss Voigt Hill
#
# Bulk Modulus (GPa) = 29.93027 38.52115 34.22571
# Shear Modulus (GPa) = 23.41146 29.16611 26.28878
#
# Velocity S-wave (km/s) = 3.38315 3.77613 3.58503
# Velocity P-wave (km/s) = 5.46751 6.15183 5.81974
#
# Compressibility (1/GPa) = 0.03341099
#
# Stress axis : x y z
#
# Youngs Moduli (GPa) = 37.34853 86.44339 58.17291
#
# Poissons Ratio (x) = 0.09380 0.34605
# Poissons Ratio (y) = 0.04053 0.23428
# Poissons Ratio (z) = 0.22217 0.34814
#
# Static dielectric constant tensor:
#      x y z
#    x 1.744170 0.000000 0.012090 
#    y 0.000000 1.721770 0.000000 
#    z 0.012090 0.000000 1.762890 
# 
# From -- ./inp_files/23382.got.cif
#   From: 2010.05.17/outbox.cif.g08.bks.cpg/sg13_12_cif.got.tgz:23382.got - 2010.06.03 16:44:36.
