data_PCOD9229306
_publ_section_title
;
Structure prediction by ZEFSAII (Michael W. Deem and Ramdas Pophale) SiO2 
 PCOD9229306
Probable space group: P 2/C
;
_chemical_formula_sum "Si O2"
_cell_formula_units_Z 26
_cell_length_a 10.541273
_cell_length_b 8.239323
_cell_length_c 19.162161
_cell_angle_alpha 90.000000
_cell_angle_beta 39.039965
_cell_angle_gamma 90.000000
_cell_volume 1048.273720
_symmetry_space_group_name_H-M "P 2/C"
_symmetry_group_IT_number 13
_symmetry_cell_setting 'monoclinic'
loop_
_space_group_symop_operation_xyz
x,y,z
-x,y,1/2-z
-x,-y,-z
x,-y,1/2+z
loop_
_atom_site_type_symbol
_atom_site_label
_atom_site_fract_x
_atom_site_fract_y
_atom_site_fract_z
Si Si1 0.171721 0.913997 0.797572
Si Si2 0.500000 0.733599 0.750000
Si Si3 0.336682 0.263234 0.088186
Si Si4 0.290777 0.093407 0.968247
Si Si5 0.147507 0.302223 0.808403
Si Si6 0.500000 0.278939 0.750000
Si Si7 0.000000 0.501342 0.250000
Si Si8 0.689192 0.702803 0.535047
O O1 0.327463 0.841945 0.786899
O O2 0.232700 0.839988 0.696129
O O3 0.177243 0.108705 0.790170
O O4 0.947416 0.873604 0.920225
O O5 0.600138 0.636407 0.644462
O O6 0.160621 0.387723 0.142371
O O7 0.537014 0.337112 0.037442
O O8 0.389676 0.160941 0.997086
O O9 0.384044 0.173838 0.859581
O O10 0.317532 0.899756 0.956030
O O11 0.320128 0.364490 0.785128
O O12 0.142082 0.388217 0.736645
O O13 0.921680 0.337884 0.930142
#
# Coordination Sequence:
#
# PCOD9229306 Si02
#       8
#     4   2   4   4   4   2   2   4
#     4  10  20  39  73 101 137 172 227 284 339 400
#     4  10  19  38  69 110 137 170 221 284 347 400
#     4  11  23  45  69  99 135 180 223 286 339 399
#     4  11  21  38  71 104 135 172 224 280 342 402
#     4  11  26  43  68 104 136 179 229 278 336 404
#     4  12  25  44  67 102 145 180 221 282 343 400
#     4  12  28  46  68  94 138 182 230 278 340 396
#     4  10  22  38  71 106 137 170 222 280 343 401
#
# _framework density 24.802681
#
# number of rings (size 3 to 8) (size 9 to 14) (size 15 to 20)
#    0.000    1.231    1.538    5.077    6.462    3.077 
#    0.000    3.846    0.000    0.000    0.000    0.000 
#    0.000    0.000    0.000    0.000    0.000    0.000 
#
# Total GULP energy -145648.045668 kJ/mol
# GULP energy per Si atom -5601.847910 kJ/mol
# Density = 2.474623 g / cm^3
# Si number density = 24.802681 Si / 1000 Ang^3
#
#
#
# Elastic Constant Matrix: (Units=GPa)
#
#
# Indices 1 2 3 4 5 6 
#
# 1 178.9393 51.3379 51.0273 0.0000 -4.9844 0.0000
# 2 51.3379 55.6058 34.8840 0.0000 -0.9595 0.0000
# 3 51.0273 34.8840 151.8598 0.0000 -3.3533 0.0000
# 4 0.0000 0.0000 0.0000 34.8819 0.0000 5.5184
# 5 -4.9844 -0.9595 -3.3533 0.0000 57.2097 0.0000
# 6 0.0000 0.0000 0.0000 5.5184 0.0000 54.2183
#
#
#
# Elastic Compliance Matrix: (Units=1/GPa)
#
#
# Indices 1 2 3 4 5 6 
#
# 1 0.007777 -0.006472 -0.001116 0.000000 0.000504 0.000000
# 2 -0.006472 0.026398 -0.003897 0.000000 -0.000350 0.000000
# 3 -0.001116 -0.003897 0.007862 0.000000 0.000298 0.000000
# 4 0.000000 0.000000 0.000000 0.029137 0.000000 -0.002966
# 5 0.000504 -0.000350 0.000298 0.000000 0.017535 0.000000
# 6 0.000000 0.000000 0.000000 -0.002966 0.000000 0.018746
#
#
# Mechanical properties :
#
#
# Convention : Reuss Voigt Hill
#
# Bulk Modulus (GPa) = 52.44423 73.43369 62.93896
# Shear Modulus (GPa) = 36.55517 45.87237 41.21377
#
# Velocity S-wave (km/s) = 3.84323 4.30524 4.08078
# Velocity P-wave (km/s) = 6.39409 7.37461 6.90178
#
# Compressibility (1/GPa) = 0.01906787
#
# Stress axis : x y z
#
# Youngs Moduli (GPa) = 128.57692 37.88223 127.20053
#
# Poissons Ratio (x) = 0.24517 0.14190
# Poissons Ratio (y) = 0.83215 0.49569
# Poissons Ratio (z) = 0.14343 0.14762
#
# Static dielectric constant tensor:
#      x y z
#    x 1.919720 0.000000 0.000620 
#    y 0.000000 1.955910 0.000000 
#    z 0.000620 0.000000 1.972250 
# 
# From -- ./inp_files/77984.got.cif
#   From: 2010.05.17/outbox.cif.g08.bks.cpg/sg13_39_cif.got.tgz:77984.got - 2010.06.03 16:44:36.
