data_PCOD9229361
_publ_section_title
;
Structure prediction by ZEFSAII (Michael W. Deem and Ramdas Pophale) SiO2 
 PCOD9229361
Probable space group: P 2/C
;
_chemical_formula_sum "Si O2"
_cell_formula_units_Z 22
_cell_length_a 12.972450
_cell_length_b 12.904845
_cell_length_c 14.041939
_cell_angle_alpha 90.000000
_cell_angle_beta 21.992886
_cell_angle_gamma 90.000000
_cell_volume 880.326568
_symmetry_space_group_name_H-M "P 2/C"
_symmetry_group_IT_number 13
_symmetry_cell_setting 'monoclinic'
loop_
_space_group_symop_operation_xyz
x,y,z
-x,y,1/2-z
-x,-y,-z
x,-y,1/2+z
loop_
_atom_site_type_symbol
_atom_site_label
_atom_site_fract_x
_atom_site_fract_y
_atom_site_fract_z
Si Si1 0.737029 0.159348 0.421182
Si Si2 0.500000 0.018916 0.250000
Si Si3 0.746755 0.823346 0.690476
Si Si4 0.876577 0.534243 0.750154
Si Si5 0.168774 0.289885 0.701450
Si Si6 0.383152 0.355379 0.746528
O O1 0.786644 0.142668 0.266308
O O2 0.476127 0.236140 0.655821
O O3 0.000000 0.209792 0.250000
O O4 0.681044 0.055653 0.528062
O O5 0.332799 0.087695 0.317306
O O6 0.017413 0.771102 0.415395
O O7 0.482357 0.746258 0.917990
O O8 0.868066 0.411253 0.747602
O O9 0.924220 0.399435 0.488428
O O10 0.000000 0.549086 0.750000
O O11 0.575858 0.583546 0.008272
O O12 0.000000 0.265266 0.750000
O O13 0.500000 0.385052 0.750000
#
# Coordination Sequence:
#
# PCOD9229361 Si02
#       6
#     4   2   4   4   4   4
#     4  12  29  48  77 109 153 201 251 314 381 451
#     4  12  28  52  78 104 148 196 260 320 388 444
#     4  12  28  48  78 114 148 193 255 316 377 452
#     4   9  19  35  71 105 146 195 238 290 361 443
#     4  11  22  47  75 113 153 197 245 308 379 440
#     4  10  19  39  65 105 146 196 240 291 359 443
#
# _framework density 24.990725000000001
#
# number of rings (size 3 to 8) (size 9 to 14) (size 15 to 20)
#    0.000    1.091    2.727    3.273    5.091    3.636 
#    0.000    5.455    0.000    0.000    0.000    0.000 
#    0.000    0.000    0.000    0.000    0.000    0.000 
#
# Total GULP energy -123260.680763 kJ/mol
# GULP energy per Si atom -5602.758216 kJ/mol
# Density = 2.493385 g / cm^3
# Si number density = 24.990725 Si / 1000 Ang^3
#
#
#
# Elastic Constant Matrix: (Units=GPa)
#
#
# Indices 1 2 3 4 5 6 
#
# 1 179.5761 32.3485 45.5972 0.0000 21.6628 0.0000
# 2 32.3485 148.3684 67.0687 0.0000 12.6779 0.0000
# 3 45.5972 67.0687 176.8254 0.0000 4.3160 0.0000
# 4 0.0000 0.0000 0.0000 112.9376 0.0000 84.5312
# 5 21.6628 12.6779 4.3160 0.0000 40.5075 0.0000
# 6 0.0000 0.0000 0.0000 84.5312 0.0000 83.2460
#
#
#
# Elastic Compliance Matrix: (Units=1/GPa)
#
#
# Indices 1 2 3 4 5 6 
#
# 1 0.006385 -0.000503 -0.001380 0.000000 -0.003110 0.000000
# 2 -0.000503 0.008379 -0.002999 0.000000 -0.002034 0.000000
# 3 -0.001380 -0.002999 0.007126 0.000000 0.000917 0.000000
# 4 0.000000 0.000000 0.000000 0.036898 0.000000 -0.037468
# 5 -0.003110 -0.002034 0.000917 0.000000 0.026889 0.000000
# 6 0.000000 0.000000 0.000000 -0.037468 0.000000 0.050059
#
#
# Mechanical properties :
#
#
# Convention : Reuss Voigt Hill
#
# Bulk Modulus (GPa) = 82.45815 88.31098 85.38457
# Shear Modulus (GPa) = 33.43558 71.32192 52.37875
#
# Velocity S-wave (km/s) = 3.66173 5.34802 4.58310
# Velocity P-wave (km/s) = 7.13756 8.57609 7.88968
#
# Compressibility (1/GPa) = 0.01212736
#
# Stress axis : x y z
#
# Youngs Moduli (GPa) = 156.62290 119.34639 140.32759
#
# Poissons Ratio (x) = 0.05997 0.19364
# Poissons Ratio (y) = 0.07871 0.42082
# Poissons Ratio (z) = 0.21612 0.35790
#
# Static dielectric constant tensor:
#      x y z
#    x 2.025170 0.000000 -0.007870 
#    y 0.000000 1.961510 0.000000 
#    z -0.007870 0.000000 1.990520 
# 
# From -- ./inp_files/34535.got.cif
#   From: 2010.05.17/outbox.cif.g08.bks.cpg/sg13_18_cif.got.tgz:34535.got - 2010.06.03 16:44:36.
