data_PCOD9229515
_publ_section_title
;
Structure prediction by ZEFSAII (Michael W. Deem and Ramdas Pophale) SiO2 
 PCOD9229515
Probable space group: P 2/C
;
_chemical_formula_sum "Si O2"
_cell_formula_units_Z 32
_cell_length_a 19.437819
_cell_length_b 14.666919
_cell_length_c 12.354300
_cell_angle_alpha 90.000000
_cell_angle_beta 152.183274
_cell_angle_gamma 90.000000
_cell_volume 1643.580758
_symmetry_space_group_name_H-M "P 2/C"
_symmetry_group_IT_number 13
_symmetry_cell_setting 'monoclinic'
loop_
_space_group_symop_operation_xyz
x,y,z
-x,y,1/2-z
-x,-y,-z
x,-y,1/2+z
loop_
_atom_site_type_symbol
_atom_site_label
_atom_site_fract_x
_atom_site_fract_y
_atom_site_fract_z
Si Si1 0.165792 0.840648 0.522198
Si Si2 0.709219 0.324358 0.186511
Si Si3 0.653468 0.176942 0.918387
Si Si4 0.622285 0.334055 0.710647
Si Si5 0.832219 0.968306 0.769033
Si Si6 0.329656 0.661639 0.473976
Si Si7 0.326473 0.142548 0.028146
Si Si8 0.320585 0.467154 0.520316
O O1 0.190825 0.736457 0.596533
O O2 0.192092 0.908414 0.658276
O O3 0.281001 0.866721 0.589507
O O4 0.000000 0.852391 0.250000
O O5 0.676751 0.256385 0.040218
O O6 0.555087 0.345157 0.031656
O O7 0.753607 0.415622 0.184974
O O8 0.500000 0.134184 0.750000
O O9 0.646349 0.233052 0.796359
O O10 0.778457 0.100407 0.099248
O O11 0.673030 0.347323 0.659214
O O12 0.694702 0.408609 0.891674
O O13 0.739188 0.059975 0.630928
O O14 0.000000 0.000000 0.000000
O O15 0.500000 0.667084 0.750000
O O16 0.260138 0.758814 0.404729
O O17 0.269997 0.571454 0.449429
O O18 0.500000 0.143619 0.250000
O O19 0.500000 0.466151 0.750000
#
# Coordination Sequence:
#
# PCOD9229515 Si02
#       8
#     4   4   4   4   4   4   4   4
#     4  11  22  39  60  84 116 158 196 242 305 347
#     4   8  15  29  53  80 108 147 194 236 285 352
#     4   8  16  31  54  82 110 145 195 244 287 342
#     4   9  16  31  51  81 117 150 188 239 298 340
#     4  11  22  39  60  85 115 154 203 245 287 366
#     4  10  20  31  49  83 121 152 188 242 292 344
#     4  11  24  39  57  88 121 151 197 246 295 349
#     4   8  16  29  50  83 116 149 192 238 289 349
#
# _framework density 19.469684999999998
#
# number of rings (size 3 to 8) (size 9 to 14) (size 15 to 20)
#    0.000    2.500    1.250    3.375    0.000    7.000 
#    0.000    0.000    0.000    0.750    3.250    0.000 
#    0.000    0.000    0.000    0.000    0.000    0.000 
#
# Total GULP energy -178319.255273 kJ/mol
# GULP energy per Si atom -5572.476727 kJ/mol
# Density = 1.942537 g / cm^3
# Si number density = 19.469685 Si / 1000 Ang^3
#
#
#
# Elastic Constant Matrix: (Units=GPa)
#
#
# Indices 1 2 3 4 5 6 
#
# 1 81.1397 31.1827 22.5417 0.0000 -14.8100 0.0000
# 2 31.1827 144.1955 38.5004 0.0000 -10.6640 0.0000
# 3 22.5417 38.5004 52.5941 0.0000 -9.9969 0.0000
# 4 0.0000 0.0000 0.0000 4.2388 0.0000 -9.6037
# 5 -14.8100 -10.6640 -9.9969 0.0000 24.0567 0.0000
# 6 0.0000 0.0000 0.0000 -9.6037 0.0000 16.7194
#
#
#
# Elastic Compliance Matrix: (Units=1/GPa)
#
#
# Indices 1 2 3 4 5 6 
#
# 1 0.015386 -0.001744 -0.003979 0.000000 0.007046 0.000000
# 2 -0.001744 0.008855 -0.005638 0.000000 0.000509 0.000000
# 3 -0.003979 -0.005638 0.025956 0.000000 0.005837 0.000000
# 4 0.000000 0.000000 0.000000 -0.782666 0.000000 -0.449568
# 5 0.007046 0.000509 0.005837 0.000000 0.048557 0.000000
# 6 0.000000 0.000000 0.000000 -0.449568 0.000000 -0.198424
#
#
# Mechanical properties :
#
#
# Convention : Reuss Voigt Hill
#
# Bulk Modulus (GPa) = 36.39604 51.37546 43.88575
# Shear Modulus (GPa) = -5.87920 21.38327 7.75204
#
# Velocity S-wave (km/s) = -1.73960 3.31763 1.99756
# Velocity P-wave (km/s) = 3.83397 6.41251 5.28297
#
# Compressibility (1/GPa) = 0.02747552
#
# Stress axis : x y z
#
# Youngs Moduli (GPa) = 64.99446 112.92846 38.52747
#
# Poissons Ratio (x) = 0.19694 0.15328
# Poissons Ratio (y) = 0.11334 0.21722
# Poissons Ratio (z) = 0.25858 0.63670
#
# Static dielectric constant tensor:
#      x y z
#    x 1.679030 0.000000 -0.024340 
#    y 0.000000 1.729720 0.000000 
#    z -0.024340 0.000000 1.699480 
# 
# From -- ./inp_files/39500.got.cif
#   From: 2010.05.17/outbox.cif.g08.bks.cpg/sg13_20_cif.got.tgz:39500.got - 2010.06.03 16:44:36.
