data_PCOD9229514
_publ_section_title
;
Structure prediction by ZEFSAII (Michael W. Deem and Ramdas Pophale) SiO2 
 PCOD9229514
Probable space group: P 2/C
;
_chemical_formula_sum "Si O2"
_cell_formula_units_Z 30
_cell_length_a 11.952744
_cell_length_b 5.909094
_cell_length_c 21.882495
_cell_angle_alpha 90.000000
_cell_angle_beta 129.690136
_cell_angle_gamma 90.000000
_cell_volume 1189.321714
_symmetry_space_group_name_H-M "P 2/C"
_symmetry_group_IT_number 13
_symmetry_cell_setting 'monoclinic'
loop_
_space_group_symop_operation_xyz
x,y,z
-x,y,1/2-z
-x,-y,-z
x,-y,1/2+z
loop_
_atom_site_type_symbol
_atom_site_label
_atom_site_fract_x
_atom_site_fract_y
_atom_site_fract_z
Si Si1 0.712874 0.004570 0.887703
Si Si2 0.278491 0.922449 0.395692
Si Si3 0.217809 0.529331 0.471677
Si Si4 0.500000 0.639178 0.250000
Si Si5 0.246121 0.376651 0.199961
Si Si6 0.563248 0.161375 0.943217
Si Si7 0.008356 0.147077 0.339615
Si Si8 0.962577 0.235449 0.926489
O O1 0.609172 0.194698 0.822198
O O2 0.634769 0.971574 0.924747
O O3 0.871260 0.122279 0.949125
O O4 0.726389 0.807667 0.843429
O O5 0.254774 0.704362 0.430588
O O6 0.389456 0.850136 0.381314
O O7 0.372806 0.104626 0.467281
O O8 0.120069 0.031469 0.330239
O O9 0.359908 0.399592 0.544372
O O10 0.109228 0.341684 0.404956
O O11 0.120324 0.652527 0.489786
O O12 0.403876 0.488170 0.262712
O O13 0.141526 0.571137 0.137030
O O14 0.151712 0.262347 0.221357
O O15 0.982322 0.949721 0.380188
#
# Coordination Sequence:
#
# PCOD9229514 Si02
#       8
#     4   4   4   2   4   4   4   4
#     4  10  20  33  49  74 100 127 165 212 261 313
#     4   9  18  32  48  72 104 141 173 202 243 299
#     4   9  16  30  49  70 101 139 170 204 242 289
#     4  10  20  34  52  74  94 118 160 212 270 316
#     4   9  17  32  52  74  97 126 160 206 263 312
#     4  10  20  31  47  73 106 138 172 207 246 304
#     4   8  15  30  50  72  97 132 171 203 242 296
#     4   8  16  30  48  71  99 132 167 203 250 305
#
# _framework density 25.224460000000001
#
# number of rings (size 3 to 8) (size 9 to 14) (size 15 to 20)
#    0.000    2.933    0.000    0.800    0.000    2.667 
#    0.000   22.667    0.000    0.000    0.000   66.267 
#    0.000    0.000    0.000    0.000    0.000    0.000 
#
# Total GULP energy -167497.573822 kJ/mol
# GULP energy per Si atom -5583.252461 kJ/mol
# Density = 2.516705 g / cm^3
# Si number density = 25.224460 Si / 1000 Ang^3
#
#
#
# Elastic Constant Matrix: (Units=GPa)
#
#
# Indices 1 2 3 4 5 6 
#
# 1 181.9693 53.4232 43.1698 0.0000 49.9833 0.0000
# 2 53.4232 114.1237 23.7108 0.0000 18.3202 0.0000
# 3 43.1698 23.7108 61.5287 0.0000 32.6340 0.0000
# 4 0.0000 0.0000 0.0000 29.4982 0.0000 25.8760
# 5 49.9833 18.3202 32.6340 0.0000 43.5127 0.0000
# 6 0.0000 0.0000 0.0000 25.8760 0.0000 43.4050
#
#
#
# Elastic Compliance Matrix: (Units=1/GPa)
#
#
# Indices 1 2 3 4 5 6 
#
# 1 0.008733 -0.002597 -0.000640 0.000000 -0.008458 0.000000
# 2 -0.002597 0.010413 -0.002404 0.000000 0.000402 0.000000
# 3 -0.000640 -0.002404 0.027733 0.000000 -0.019052 0.000000
# 4 0.000000 0.000000 0.000000 0.071063 0.000000 -0.042364
# 5 -0.008458 0.000402 -0.019052 0.000000 0.046816 0.000000
# 6 0.000000 0.000000 0.000000 -0.042364 0.000000 0.048294
#
#
# Mechanical properties :
#
#
# Convention : Reuss Voigt Hill
#
# Bulk Modulus (GPa) = 28.09297 66.46992 47.28145
# Shear Modulus (GPa) = 21.16840 39.10437 30.13639
#
# Velocity S-wave (km/s) = 2.90004 3.94160 3.46023
# Velocity P-wave (km/s) = 4.73022 6.86466 5.89485
#
# Compressibility (1/GPa) = 0.03559609
#
# Stress axis : x y z
#
# Youngs Moduli (GPa) = 114.50670 96.03257 36.05817
#
# Poissons Ratio (x) = 0.24943 0.02310
# Poissons Ratio (y) = 0.29741 0.08668
# Poissons Ratio (z) = 0.07334 0.23084
#
# Static dielectric constant tensor:
#      x y z
#    x 2.088140 0.000000 -0.006650 
#    y 0.000000 2.054380 0.000000 
#    z -0.006650 0.000000 2.005540 
# 
# From -- ./inp_files/85801.got.cif
#   From: 2010.05.17/outbox.cif.g08.bks.cpg/sg13_43_cif.got.tgz:85801.got - 2010.06.03 16:44:36.
