data_PCOD9229910
_publ_section_title
;
Structure prediction by ZEFSAII (Michael W. Deem and Ramdas Pophale) SiO2 
 PCOD9229910
Probable space group: P 2/C
;
_chemical_formula_sum "Si O2"
_cell_formula_units_Z 26
_cell_length_a 22.991956
_cell_length_b 10.561796
_cell_length_c 9.771522
_cell_angle_alpha 90.000000
_cell_angle_beta 144.571074
_cell_angle_gamma 90.000000
_cell_volume 1375.541442
_symmetry_space_group_name_H-M "P 2/C"
_symmetry_group_IT_number 13
_symmetry_cell_setting 'monoclinic'
loop_
_space_group_symop_operation_xyz
x,y,z
-x,y,1/2-z
-x,-y,-z
x,-y,1/2+z
loop_
_atom_site_type_symbol
_atom_site_label
_atom_site_fract_x
_atom_site_fract_y
_atom_site_fract_z
Si Si1 0.874498 0.403325 0.254761
Si Si2 0.713771 0.256690 0.800016
Si Si3 0.412287 0.606156 0.239487
Si Si4 0.374868 0.259475 0.412209
Si Si5 0.286262 0.376499 0.989390
Si Si6 0.000000 0.532690 0.250000
Si Si7 0.429826 0.026365 0.995618
O O1 0.798787 0.520353 0.140598
O O2 0.933510 0.388067 0.512018
O O3 0.938706 0.447672 0.243913
O O4 0.810377 0.284123 0.078517
O O5 0.630167 0.355620 0.695462
O O6 0.735751 0.296969 0.687420
O O7 0.660882 0.121029 0.708687
O O8 0.521215 0.667251 0.427771
O O9 0.344767 0.676918 0.996148
O O10 0.388874 0.459637 0.169432
O O11 0.393020 0.112054 0.469632
O O12 0.300710 0.286795 0.146912
O O13 0.500000 0.082224 0.250000
O O14 0.500000 0.000000 0.000000
#
# Coordination Sequence:
#
# PCOD9229910 Si02
#       7
#     4   4   4   4   4   2   4
#     4  10  21  39  61  98 119 152 188 247 328 387
#     4  11  22  35  56  84 120 154 212 245 287 360
#     4  10  20  35  51  77 119 157 199 251 291 346
#     4  11  21  36  52  78 117 166 207 246 280 341
#     4  11  22  34  55  89 121 149 197 248 307 358
#     4  10  20  40  68  88 132 142 180 256 340 398
#     4  12  22  40  55  77 119 173 220 244 277 326
#
# _framework density 18.901646
#
# number of rings (size 3 to 8) (size 9 to 14) (size 15 to 20)
#    0.000    1.231    4.615    3.231    2.154    1.231 
#    0.000    0.000    0.000    0.000    0.000    6.462 
#    0.000    0.000    0.000    0.000    0.000    0.000 
#
# Total GULP energy -144966.253997 kJ/mol
# GULP energy per Si atom -5575.625154 kJ/mol
# Density = 1.885863 g / cm^3
# Si number density = 18.901646 Si / 1000 Ang^3
#
#
#
# Elastic Constant Matrix: (Units=GPa)
#
#
# Indices 1 2 3 4 5 6 
#
# 1 86.2432 11.4911 35.4102 0.0000 -19.1743 0.0000
# 2 11.4911 74.8476 44.8634 0.0000 0.0268 0.0000
# 3 35.4102 44.8634 145.2082 0.0000 -24.1769 0.0000
# 4 0.0000 0.0000 0.0000 25.7325 0.0000 -1.7579
# 5 -19.1743 0.0268 -24.1769 0.0000 34.0159 0.0000
# 6 0.0000 0.0000 0.0000 -1.7579 0.0000 0.8385
#
#
#
# Elastic Compliance Matrix: (Units=1/GPa)
#
#
# Indices 1 2 3 4 5 6 
#
# 1 0.013991 -0.000916 -0.002059 0.000000 0.006423 0.000000
# 2 -0.000916 0.016977 -0.005796 0.000000 -0.004649 0.000000
# 3 -0.002059 -0.005796 0.010193 0.000000 0.006089 0.000000
# 4 0.000000 0.000000 0.000000 0.045357 0.000000 0.095089
# 5 0.006423 -0.004649 0.006089 0.000000 0.037350 0.000000
# 6 0.000000 0.000000 0.000000 0.095089 0.000000 1.391946
#
#
# Mechanical properties :
#
#
# Convention : Reuss Voigt Hill
#
# Bulk Modulus (GPa) = 42.33926 54.42537 48.38231
# Shear Modulus (GPa) = 3.24416 26.41966 14.83191
#
# Velocity S-wave (km/s) = 1.31151 3.74270 2.80427
# Velocity P-wave (km/s) = 4.97412 6.89446 6.01146
#
# Compressibility (1/GPa) = 0.02361874
#
# Stress axis : x y z
#
# Youngs Moduli (GPa) = 71.47561 58.90399 98.10393
#
# Poissons Ratio (x) = 0.05395 0.20202
# Poissons Ratio (y) = 0.06547 0.56859
# Poissons Ratio (z) = 0.14719 0.34140
#
# Static dielectric constant tensor:
#      x y z
#    x 1.694270 0.000000 0.020740 
#    y 0.000000 1.641270 0.000000 
#    z 0.020740 0.000000 1.733820 
# 
# From -- ./inp_files/24085.got.cif
#   From: 2010.05.17/outbox.cif.g08.bks.cpg/sg13_13_cif.got.tgz:24085.got - 2010.06.03 16:44:36.
