data_PCOD9229191
_publ_section_title
;
Structure prediction by ZEFSAII (Michael W. Deem and Ramdas Pophale) SiO2 
 PCOD9229191
Probable space group: P 2/C
;
_chemical_formula_sum "Si O2"
_cell_formula_units_Z 28
_cell_length_a 8.141250
_cell_length_b 15.867576
_cell_length_c 17.294296
_cell_angle_alpha 90.000000
_cell_angle_beta 139.164909
_cell_angle_gamma 90.000000
_cell_volume 1460.849065
_symmetry_space_group_name_H-M "P 2/C"
_symmetry_group_IT_number 13
_symmetry_cell_setting 'monoclinic'
loop_
_space_group_symop_operation_xyz
x,y,z
-x,y,1/2-z
-x,-y,-z
x,-y,1/2+z
loop_
_atom_site_type_symbol
_atom_site_label
_atom_site_fract_x
_atom_site_fract_y
_atom_site_fract_z
Si Si1 0.786166 0.661324 0.737195
Si Si2 0.758513 0.809154 0.386978
Si Si3 0.072943 0.629192 0.999049
Si Si4 0.399795 0.525362 0.625733
Si Si5 0.813810 0.105641 0.072606
Si Si6 0.849832 0.940786 0.006088
Si Si7 0.364026 0.155714 0.324011
O O1 0.617311 0.578753 0.661216
O O2 0.612866 0.744422 0.681609
O O3 0.000000 0.676507 0.750000
O O4 0.935545 0.651128 0.870195
O O5 0.500000 0.814488 0.250000
O O6 0.844228 0.713557 0.429180
O O7 0.735786 0.849544 0.464977
O O8 0.965135 0.863076 0.413788
O O9 0.310483 0.567466 0.069691
O O10 0.857706 0.579192 0.969282
O O11 0.500000 0.520255 0.750000
O O12 0.669762 0.139791 0.096146
O O13 0.106548 0.126666 0.192136
O O14 0.787611 0.005012 0.052941
O O15 0.598714 0.900016 0.882134
O O16 0.000000 0.000000 0.000000
#
# Coordination Sequence:
#
# PCOD9229191 Si02
#       7
#     4   4   4   4   4   4   4
#     4  11  20  36  60  90 116 153 204 247 299 357
#     4  11  22  37  56  83 120 153 198 246 303 357
#     4  10  19  38  56  84 115 156 199 239 305 356
#     4   9  20  34  59  85 117 151 193 248 297 360
#     4  10  22  39  60  86 112 161 192 255 302 358
#     4  10  24  36  58  88 116 154 199 257 297 354
#     4  11  20  41  64  84 120 156 206 249 301 367
#
# _framework density 19.166934999999999
#
# number of rings (size 3 to 8) (size 9 to 14) (size 15 to 20)
#    0.000    1.714    2.857    1.714    4.000    2.286 
#    0.000    0.000    0.000    0.000    0.000    0.000 
#    0.000    0.000    0.000    0.000    0.000    0.000 
#
# Total GULP energy -156265.562768 kJ/mol
# GULP energy per Si atom -5580.912956 kJ/mol
# Density = 1.912331 g / cm^3
# Si number density = 19.166935 Si / 1000 Ang^3
#
#
#
# Elastic Constant Matrix: (Units=GPa)
#
#
# Indices 1 2 3 4 5 6 
#
# 1 36.3647 17.0042 16.5200 0.0000 5.9304 0.0000
# 2 17.0042 147.7885 46.2944 0.0000 10.1671 0.0000
# 3 16.5200 46.2944 98.0818 0.0000 7.1644 0.0000
# 4 0.0000 0.0000 0.0000 42.4016 0.0000 13.2835
# 5 5.9304 10.1671 7.1644 0.0000 28.7153 0.0000
# 6 0.0000 0.0000 0.0000 13.2835 0.0000 14.2305
#
#
#
# Elastic Compliance Matrix: (Units=1/GPa)
#
#
# Indices 1 2 3 4 5 6 
#
# 1 0.030991 -0.002012 -0.003926 0.000000 -0.004708 0.000000
# 2 -0.002012 0.008175 -0.003401 0.000000 -0.001631 0.000000
# 3 -0.003926 -0.003401 0.012543 0.000000 -0.001115 0.000000
# 4 0.000000 0.000000 0.000000 0.033331 0.000000 -0.031113
# 5 -0.004708 -0.001631 -0.001115 0.000000 0.036652 0.000000
# 6 0.000000 0.000000 0.000000 -0.031113 0.000000 0.099314
#
#
# Mechanical properties :
#
#
# Convention : Reuss Voigt Hill
#
# Bulk Modulus (GPa) = 30.27352 49.09690 39.68521
# Shear Modulus (GPa) = 19.94440 30.56390 25.25415
#
# Velocity S-wave (km/s) = 3.22927 3.99760 3.63380
# Velocity P-wave (km/s) = 5.45282 6.85410 6.19322
#
# Compressibility (1/GPa) = 0.03303217
#
# Stress axis : x y z
#
# Youngs Moduli (GPa) = 32.26692 122.31839 79.72283
#
# Poissons Ratio (x) = 0.24610 0.31302
# Poissons Ratio (y) = 0.06492 0.27112
# Poissons Ratio (z) = 0.12669 0.41598
#
# Static dielectric constant tensor:
#      x y z
#    x 1.708130 0.000000 0.000860 
#    y 0.000000 1.705160 0.000000 
#    z 0.000860 0.000000 1.637840 
# 
# From -- ./inp_files/64650.got.cif
#   From: 2010.05.17/outbox.cif.g08.bks.cpg/sg13_33_cif.got.tgz:64650.got - 2010.06.03 16:44:36.
