data_PCOD9229635
_publ_section_title
;
Structure prediction by ZEFSAII (Michael W. Deem and Ramdas Pophale) SiO2 
 PCOD9229635
Probable space group: P 2/C
;
_chemical_formula_sum "Si O2"
_cell_formula_units_Z 32
_cell_length_a 14.750144
_cell_length_b 19.275025
_cell_length_c 12.794830
_cell_angle_alpha 90.000000
_cell_angle_beta 159.855274
_cell_angle_gamma 90.000000
_cell_volume 1252.793869
_symmetry_space_group_name_H-M "P 2/C"
_symmetry_group_IT_number 13
_symmetry_cell_setting 'monoclinic'
loop_
_space_group_symop_operation_xyz
x,y,z
-x,y,1/2-z
-x,-y,-z
x,-y,1/2+z
loop_
_atom_site_type_symbol
_atom_site_label
_atom_site_fract_x
_atom_site_fract_y
_atom_site_fract_z
Si Si1 0.629281 0.778546 0.218327
Si Si2 0.622900 0.190663 0.279451
Si Si3 0.698959 0.928323 0.275736
Si Si4 0.886522 0.690396 0.810305
Si Si5 0.810884 0.337075 0.461045
Si Si6 0.967993 0.463112 0.091451
Si Si7 0.539834 0.464414 0.418290
Si Si8 0.874188 0.068936 0.443962
O O1 0.709436 0.854829 0.346532
O O2 0.877705 0.729065 0.491219
O O3 0.557367 0.794589 0.018012
O O4 0.378491 0.736020 0.990547
O O5 0.500000 0.158068 0.250000
O O6 0.720244 0.266425 0.416460
O O7 0.843867 0.138918 0.475832
O O8 0.870541 0.926235 0.353111
O O9 0.824144 0.998962 0.456862
O O10 0.387918 0.934317 0.913814
O O11 0.899879 0.610315 0.792539
O O12 0.937252 0.687105 0.989744
O O13 0.573841 0.388931 0.176991
O O14 0.000000 0.372367 0.750000
O O15 0.149506 0.523000 0.236351
O O16 0.000000 0.467779 0.250000
O O17 0.655430 0.477668 0.743116
O O18 0.500000 0.469466 0.250000
#
# Coordination Sequence:
#
# PCOD9229635 Si02
#       8
#     4   4   4   4   4   4   4   4
#     4  10  20  35  54  83 114 146 189 230 278 340
#     4  10  20  33  52  79 117 156 190 227 272 330
#     4   9  16  32  52  75 104 136 180 231 271 314
#     4  11  23  37  59  87 113 147 191 234 283 342
#     4  11  22  36  57  83 120 157 188 225 276 338
#     4  10  22  41  62  82 107 140 188 244 290 335
#     4  10  21  38  59  81 109 147 186 229 285 340
#     4   9  18  30  51  76 101 141 186 223 266 315
#
# _framework density 25.542909000000002
#
# number of rings (size 3 to 8) (size 9 to 14) (size 15 to 20)
#    0.000    2.000    0.000    5.250    0.000    5.000 
#    0.000    0.000    0.000    3.750    0.000    0.000 
#    0.000    0.000    0.000    0.000    0.000    0.000 
#
# Total GULP energy -178919.965735 kJ/mol
# GULP energy per Si atom -5591.248929 kJ/mol
# Density = 2.548477 g / cm^3
# Si number density = 25.542909 Si / 1000 Ang^3
#
#
#
# Elastic Constant Matrix: (Units=GPa)
#
#
# Indices 1 2 3 4 5 6 
#
# 1 38.5929 0.6696 15.0419 0.0000 12.7232 0.0000
# 2 0.6696 193.1311 52.1797 0.0000 23.1791 0.0000
# 3 15.0419 52.1797 147.6530 0.0000 19.8816 0.0000
# 4 0.0000 0.0000 0.0000 33.3851 0.0000 29.5902
# 5 12.7232 23.1791 19.8816 0.0000 35.3878 0.0000
# 6 0.0000 0.0000 0.0000 29.5902 0.0000 13.3741
#
#
#
# Elastic Compliance Matrix: (Units=1/GPa)
#
#
# Indices 1 2 3 4 5 6 
#
# 1 0.030330 0.001806 -0.002272 0.000000 -0.010811 0.000000
# 2 0.001806 0.006106 -0.001856 0.000000 -0.003606 0.000000
# 3 -0.002272 -0.001856 0.007991 0.000000 -0.002457 0.000000
# 4 0.000000 0.000000 0.000000 -0.031169 0.000000 0.068962
# 5 -0.010811 -0.003606 -0.002457 0.000000 0.035887 0.000000
# 6 0.000000 0.000000 0.000000 0.068962 0.000000 -0.077806
#
#
# Mechanical properties :
#
#
# Convention : Reuss Voigt Hill
#
# Bulk Modulus (GPa) = 25.13688 57.23992 41.18840
# Shear Modulus (GPa) = -464.89280 37.19512 -213.84884
#
# Velocity S-wave (km/s) = -13.50555 3.82013 -9.15987
# Velocity P-wave (km/s) = 15.27538 6.47425 9.78318
#
# Compressibility (1/GPa) = 0.03978219
#
# Stress axis : x y z
#
# Youngs Moduli (GPa) = 32.97054 163.77718 125.14229
#
# Poissons Ratio (x) = -0.29584 0.28438
# Poissons Ratio (y) = -0.05956 0.23230
# Poissons Ratio (z) = 0.07492 0.30401
#
# Static dielectric constant tensor:
#      x y z
#    x 2.046840 0.000000 -0.044830 
#    y 0.000000 2.084380 0.000000 
#    z -0.044830 0.000000 2.039280 
# 
# From -- ./inp_files/54002.got.cif
#   From: 2010.05.17/outbox.cif.g08.bks.cpg/sg13_28_cif.got.tgz:54002.got - 2010.06.03 16:44:36.
