data_PCOD9229922
_publ_section_title
;
Structure prediction by ZEFSAII (Michael W. Deem and Ramdas Pophale) SiO2 
 PCOD9229922
Probable space group: P 2/C
;
_chemical_formula_sum "Si O2"
_cell_formula_units_Z 24
_cell_length_a 13.147644
_cell_length_b 6.074539
_cell_length_c 14.981723
_cell_angle_alpha 90.000000
_cell_angle_beta 56.219592
_cell_angle_gamma 90.000000
_cell_volume 994.524095
_symmetry_space_group_name_H-M "P 2/C"
_symmetry_group_IT_number 13
_symmetry_cell_setting 'monoclinic'
loop_
_space_group_symop_operation_xyz
x,y,z
-x,y,1/2-z
-x,-y,-z
x,-y,1/2+z
loop_
_atom_site_type_symbol
_atom_site_label
_atom_site_fract_x
_atom_site_fract_y
_atom_site_fract_z
Si Si1 0.716242 0.645668 0.644940
Si Si2 0.103498 0.895703 0.323827
Si Si3 0.241551 0.288778 0.176606
Si Si4 0.500000 0.998267 0.750000
Si Si5 0.145563 0.022679 0.994798
Si Si6 0.371366 0.270559 0.948045
Si Si7 0.000000 0.475393 0.750000
O O1 0.742106 0.589313 0.735622
O O2 0.664103 0.469015 0.601029
O O3 0.615646 0.840049 0.701465
O O4 0.832952 0.769143 0.544825
O O5 0.203201 0.038270 0.221861
O O6 0.986112 0.054172 0.398027
O O7 0.150961 0.844352 0.399421
O O8 0.042383 0.691096 0.306282
O O9 0.124463 0.386060 0.180346
O O10 0.362263 0.324319 0.057039
O O11 0.484303 0.150003 0.845463
O O12 0.258846 0.097053 0.997577
#
# Coordination Sequence:
#
# PCOD9229922 Si02
#       7
#     4   4   4   2   4   4   2
#     4  10  22  42  62  90 121 153 201 251 302 358
#     4  10  20  35  53  85 125 159 200 237 279 347
#     4  11  24  37  61  93 123 160 200 240 292 357
#     4  10  24  44  66  82 110 154 198 260 320 356
#     4   9  19  35  58  82 118 164 195 238 291 339
#     4  11  21  40  62  85 116 153 199 250 303 358
#     4  12  20  32  54  88 126 160 190 230 280 344
#
# _framework density 24.132142999999999
#
# number of rings (size 3 to 8) (size 9 to 14) (size 15 to 20)
#    0.000    1.667    0.000    5.000    0.000    2.000 
#    0.000   10.000    0.000    0.000    0.000    0.000 
#    0.000    0.000    0.000    0.000    0.000    0.000 
#
# Total GULP energy -134004.190789 kJ/mol
# GULP energy per Si atom -5583.507950 kJ/mol
# Density = 2.407722 g / cm^3
# Si number density = 24.132143 Si / 1000 Ang^3
#
#
#
# Elastic Constant Matrix: (Units=GPa)
#
#
# Indices 1 2 3 4 5 6 
#
# 1 27.9859 7.2954 6.4935 0.0000 -0.7770 0.0000
# 2 7.2954 46.8221 44.5234 0.0000 2.4577 0.0000
# 3 6.4935 44.5234 155.4861 0.0000 -5.0186 0.0000
# 4 0.0000 0.0000 0.0000 23.0411 0.0000 -2.8444
# 5 -0.7770 2.4577 -5.0186 0.0000 34.1393 0.0000
# 6 0.0000 0.0000 0.0000 -2.8444 0.0000 39.9976
#
#
#
# Elastic Compliance Matrix: (Units=1/GPa)
#
#
# Indices 1 2 3 4 5 6 
#
# 1 0.037306 -0.006103 0.000232 0.000000 0.001323 0.000000
# 2 -0.006103 0.030737 -0.008664 0.000000 -0.003625 0.000000
# 3 0.000232 -0.008664 0.008965 0.000000 0.001947 0.000000
# 4 0.000000 0.000000 0.000000 0.043785 0.000000 0.003114
# 5 0.001323 -0.003625 0.001947 0.000000 0.029869 0.000000
# 6 0.000000 0.000000 0.000000 0.003114 0.000000 0.025223
#
#
# Mechanical properties :
#
#
# Convention : Reuss Voigt Hill
#
# Bulk Modulus (GPa) = 20.85954 38.54653 29.70303
# Shear Modulus (GPa) = 22.63116 30.90103 26.76610
#
# Velocity S-wave (km/s) = 3.06568 3.58228 3.33400
# Velocity P-wave (km/s) = 4.60367 5.75483 5.21114
#
# Compressibility (1/GPa) = 0.04793969
#
# Stress axis : x y z
#
# Youngs Moduli (GPa) = 26.80528 32.53413 111.53973
#
# Poissons Ratio (x) = 0.19856 -0.02591
# Poissons Ratio (y) = 0.16359 0.96634
# Poissons Ratio (z) = -0.00623 0.28186
#
# Static dielectric constant tensor:
#      x y z
#    x 1.935530 0.000000 0.008430 
#    y 0.000000 1.980380 0.000000 
#    z 0.008430 0.000000 2.047050 
# 
# From -- ./inp_files/52124.got.cif
#   From: 2010.05.17/outbox.cif.g08.bks.cpg/sg13_27_cif.got.tgz:52124.got - 2010.06.03 16:44:36.
