data_PCOD9229474
_publ_section_title
;
Structure prediction by ZEFSAII (Michael W. Deem and Ramdas Pophale) SiO2 
 PCOD9229474
Probable space group: P 2/C
;
_chemical_formula_sum "Si O2"
_cell_formula_units_Z 26
_cell_length_a 7.193154
_cell_length_b 28.308454
_cell_length_c 5.684208
_cell_angle_alpha 90.000000
_cell_angle_beta 69.972895
_cell_angle_gamma 90.000000
_cell_volume 1087.467921
_symmetry_space_group_name_H-M "P 2/C"
_symmetry_group_IT_number 13
_symmetry_cell_setting 'monoclinic'
loop_
_space_group_symop_operation_xyz
x,y,z
-x,y,1/2-z
-x,-y,-z
x,-y,1/2+z
loop_
_atom_site_type_symbol
_atom_site_label
_atom_site_fract_x
_atom_site_fract_y
_atom_site_fract_z
Si Si1 0.000000 0.842923 0.750000
Si Si2 0.000000 0.972356 0.250000
Si Si3 0.500000 0.354977 0.750000
Si Si4 0.777760 0.191631 0.755307
Si Si5 0.258808 0.475975 0.361543
Si Si6 0.279373 0.376970 0.241717
Si Si7 0.220580 0.291543 0.553886
Si Si8 0.299775 0.102105 0.462920
O O1 0.163673 0.809597 0.545891
O O2 0.136540 0.877509 0.848881
O O3 0.807687 0.938739 0.345968
O O4 0.000000 0.000000 0.500000
O O5 0.670362 0.385053 0.551963
O O6 0.375681 0.321048 0.637337
O O7 0.710238 0.237881 0.926881
O O8 0.000000 0.183236 0.750000
O O9 0.654806 0.146591 0.887610
O O10 0.500000 0.474260 0.250000
O O11 0.208032 0.499969 0.632577
O O12 0.174087 0.422143 0.393812
O O13 0.500000 0.378685 0.250000
O O14 0.207713 0.323533 0.322674
O O15 0.000000 0.292223 0.750000
O O16 0.500000 0.086782 0.250000
#
# Coordination Sequence:
#
# PCOD9229474 Si02
#       8
#     2   2   2   4   4   4   4   4
#     4  10  19  42  66  96 140 176 224 287 344 402
#     4  12  27  50  76 106 152 192 240 305 354 410
#     4  10  22  36  58  84 126 164 208 264 336 392
#     4   9  20  39  65  93 134 171 222 279 336 405
#     4   9  18  29  54  84 117 159 215 273 336 401
#     4   9  20  35  54  83 124 158 210 269 327 401
#     4  10  22  38  59  91 127 168 212 262 330 400
#     4  11  24  43  71 103 138 185 233 288 351 415
#
# _framework density 23.908752
#
# number of rings (size 3 to 8) (size 9 to 14) (size 15 to 20)
#    0.000    2.154    2.308    0.462    7.538    8.615 
#    0.000    0.000    0.000    0.923    0.000    0.000 
#    0.000    0.000    0.000    0.000    0.000    0.000 
#
# Total GULP energy -144748.470481 kJ/mol
# GULP energy per Si atom -5567.248865 kJ/mol
# Density = 2.385433 g / cm^3
# Si number density = 23.908752 Si / 1000 Ang^3
#
#
#
# Elastic Constant Matrix: (Units=GPa)
#
#
# Indices 1 2 3 4 5 6 
#
# 1 64.0520 17.6085 28.2983 0.0000 -8.4343 0.0000
# 2 17.6085 154.8120 89.1485 0.0000 -4.8544 0.0000
# 3 28.2983 89.1485 129.6998 0.0000 1.8200 0.0000
# 4 0.0000 0.0000 0.0000 -118.2835 0.0000 201.9671
# 5 -8.4343 -4.8544 1.8200 0.0000 29.1438 0.0000
# 6 0.0000 0.0000 0.0000 201.9671 0.0000 -268.3124
#
#
#
# Elastic Compliance Matrix: (Units=1/GPa)
#
#
# Indices 1 2 3 4 5 6 
#
# 1 0.018165 0.000727 -0.004543 0.000000 0.005662 0.000000
# 2 0.000727 0.010869 -0.007664 0.000000 0.002499 0.000000
# 3 -0.004543 -0.007664 0.014018 0.000000 -0.003467 0.000000
# 4 0.000000 0.000000 0.000000 0.029635 0.000000 0.022307
# 5 0.005662 0.002499 -0.003467 0.000000 0.036584 0.000000
# 6 0.000000 0.000000 0.000000 0.022307 0.000000 0.013065
#
#
# Mechanical properties :
#
#
# Convention : Reuss Voigt Hill
#
# Bulk Modulus (GPa) = 49.77057 68.74159 59.25608
# Shear Modulus (GPa) = 32.89660 -57.25653 -12.17997
#
# Velocity S-wave (km/s) = 3.71337 -4.89897 -2.25952
# Velocity P-wave (km/s) = 6.26479 1.78489 4.24627
#
# Compressibility (1/GPa) = 0.02009220
#
# Stress axis : x y z
#
# Youngs Moduli (GPa) = 55.05139 92.00895 71.33785
#
# Poissons Ratio (x) = -0.06692 0.32406
# Poissons Ratio (y) = -0.04004 0.54675
# Poissons Ratio (z) = 0.25008 0.70517
#
# Static dielectric constant tensor:
#      x y z
#    x 1.903400 0.000000 0.100340 
#    y 0.000000 2.000950 0.000000 
#    z 0.100340 0.000000 2.536260 
# 
# From -- ./inp_files/2626.got.cif
#   From: 2010.05.17/outbox.cif.g08.bks.cpg/sg13_2_cif.got.tgz:2626.got - 2010.06.03 16:44:36.
