data_PCOD9229111
_publ_section_title
;
Structure prediction by ZEFSAII (Michael W. Deem and Ramdas Pophale) SiO2 
 PCOD9229111
Probable space group: P 2/C
;
_chemical_formula_sum "Si O2"
_cell_formula_units_Z 24
_cell_length_a 12.682323
_cell_length_b 13.621166
_cell_length_c 9.786503
_cell_angle_alpha 90.000000
_cell_angle_beta 41.200668
_cell_angle_gamma 90.000000
_cell_volume 1113.594628
_symmetry_space_group_name_H-M "P 2/C"
_symmetry_group_IT_number 13
_symmetry_cell_setting 'monoclinic'
loop_
_space_group_symop_operation_xyz
x,y,z
-x,y,1/2-z
-x,-y,-z
x,-y,1/2+z
loop_
_atom_site_type_symbol
_atom_site_label
_atom_site_fract_x
_atom_site_fract_y
_atom_site_fract_z
Si Si1 0.607758 0.607686 0.280797
Si Si2 0.821656 0.751976 0.948033
Si Si3 0.110296 0.451160 0.508675
Si Si4 0.173100 0.024985 0.113116
Si Si5 0.660416 0.706436 0.816833
Si Si6 0.640149 0.067511 0.300439
O O1 0.500000 0.600192 0.250000
O O2 0.486579 0.629258 0.523419
O O3 0.722879 0.702872 0.164181
O O4 0.733929 0.520665 0.144614
O O5 0.830122 0.867969 0.954881
O O6 0.723786 0.726391 0.908001
O O7 0.000000 0.712373 0.750000
O O8 0.189673 0.344383 0.404616
O O9 0.000000 0.450917 0.750000
O O10 0.000000 0.500000 0.500000
O O11 0.216684 0.046084 0.228323
O O12 0.000000 0.979359 0.250000
O O13 0.307103 0.966126 0.900844
O O14 0.608663 0.815580 0.822909
O O15 0.500000 0.000000 0.500000
#
# Coordination Sequence:
#
# PCOD9229111 Si02
#       6
#     4   4   4   4   4   4
#     4  10  19  37  62  88 119 158 201 248 301 370
#     4   9  17  34  60  87 114 156 207 249 296 363
#     4  12  25  43  65  92 124 161 202 252 311 371
#     4  10  21  37  60  87 119 160 205 252 303 359
#     4  10  22  37  59  89 123 158 202 254 306 362
#     4  11  22  40  61  89 124 163 206 253 306 363
#
# _framework density 21.551828
#
# number of rings (size 3 to 8) (size 9 to 14) (size 15 to 20)
#    0.000    1.667    0.000    6.000    0.000    3.333 
#    0.000    8.333    0.000    0.000    0.000    0.000 
#    0.000    0.000    0.000    0.000    0.000    0.000 
#
# Total GULP energy -133840.146504 kJ/mol
# GULP energy per Si atom -5576.672771 kJ/mol
# Density = 2.150277 g / cm^3
# Si number density = 21.551828 Si / 1000 Ang^3
#
#
#
# Elastic Constant Matrix: (Units=GPa)
#
#
# Indices 1 2 3 4 5 6 
#
# 1 33.3627 13.1738 25.2458 0.0000 -8.2207 0.0000
# 2 13.1738 108.2196 67.2288 0.0000 -1.4388 0.0000
# 3 25.2458 67.2288 156.7706 0.0000 -0.6231 0.0000
# 4 0.0000 0.0000 0.0000 22.6292 0.0000 -10.1808
# 5 -8.2207 -1.4388 -0.6231 0.0000 38.9096 0.0000
# 6 0.0000 0.0000 0.0000 -10.1808 0.0000 13.3140
#
#
#
# Elastic Compliance Matrix: (Units=1/GPa)
#
#
# Indices 1 2 3 4 5 6 
#
# 1 0.036302 -0.000962 -0.005403 0.000000 0.007548 0.000000
# 2 -0.000962 0.012627 -0.005259 0.000000 0.000179 0.000000
# 3 -0.005403 -0.005259 0.009500 0.000000 -0.001184 0.000000
# 4 0.000000 0.000000 0.000000 0.067366 0.000000 0.051512
# 5 0.007548 0.000179 -0.001184 0.000000 0.027283 0.000000
# 6 0.000000 0.000000 0.000000 0.051512 0.000000 0.114498
#
#
# Mechanical properties :
#
#
# Convention : Reuss Voigt Hill
#
# Bulk Modulus (GPa) = 28.42590 56.62775 42.52683
# Shear Modulus (GPa) = 16.52608 27.81753 22.17181
#
# Velocity S-wave (km/s) = 2.77213 3.59657 3.21092
# Velocity P-wave (km/s) = 4.84401 6.60146 5.78981
#
# Compressibility (1/GPa) = 0.03517919
#
# Stress axis : x y z
#
# Youngs Moduli (GPa) = 27.54672 79.19396 105.26775
#
# Poissons Ratio (x) = 0.07619 0.56880
# Poissons Ratio (y) = 0.02650 0.55364
# Poissons Ratio (z) = 0.14885 0.41651
#
# Static dielectric constant tensor:
#      x y z
#    x 1.797470 0.000000 -0.045000 
#    y 0.000000 1.839270 0.000000 
#    z -0.045000 0.000000 1.809560 
# 
# From -- ./inp_files/37468.got.cif
#   From: 2010.05.17/outbox.cif.g08.bks.cpg/sg13_19_cif.got.tgz:37468.got - 2010.06.03 16:44:36.
