data_PCOD9229263
_publ_section_title
;
Structure prediction by ZEFSAII (Michael W. Deem and Ramdas Pophale) SiO2 
 PCOD9229263
Probable space group: P 2/C
;
_chemical_formula_sum "Si O2"
_cell_formula_units_Z 22
_cell_length_a 4.997395
_cell_length_b 11.877765
_cell_length_c 16.499558
_cell_angle_alpha 90.000000
_cell_angle_beta 72.252671
_cell_angle_gamma 90.000000
_cell_volume 932.770212
_symmetry_space_group_name_H-M "P 2/C"
_symmetry_group_IT_number 13
_symmetry_cell_setting 'monoclinic'
loop_
_space_group_symop_operation_xyz
x,y,z
-x,y,1/2-z
-x,-y,-z
x,-y,1/2+z
loop_
_atom_site_type_symbol
_atom_site_label
_atom_site_fract_x
_atom_site_fract_y
_atom_site_fract_z
Si Si1 0.500000 0.810720 0.250000
Si Si2 0.947738 0.136396 0.599129
Si Si3 0.218451 0.339060 0.654021
Si Si4 0.626157 0.802780 0.651304
Si Si5 0.681375 0.569357 0.809214
Si Si6 0.777730 0.101511 0.437321
O O1 0.235445 0.881379 0.302373
O O2 0.540471 0.731290 0.323829
O O3 0.773362 0.130863 0.532401
O O4 0.097261 0.257235 0.596995
O O5 0.150511 0.029558 0.577576
O O6 0.293127 0.467718 0.629061
O O7 0.000000 0.348565 0.750000
O O8 0.500000 0.836296 0.750000
O O9 0.504368 0.676621 0.648965
O O10 0.492937 0.872677 0.590644
O O11 0.958270 0.824399 0.620518
O O12 0.500000 0.521561 0.750000
O O13 0.000000 0.600480 0.750000
#
# Coordination Sequence:
#
# PCOD9229263 Si02
#       6
#     2   4   4   4   4   4
#     4  10  20  38  66  94 122 164 224 256 316 396
#     4  10  25  41  64  94 134 172 215 274 333 385
#     4   9  19  36  62  95 123 168 216 274 316 386
#     4  11  24  42  68  94 127 177 221 264 320 405
#     4  10  19  38  63  95 130 165 222 274 328 381
#     4  11  26  44  64  94 137 173 213 274 334 385
#
# _framework density 23.585660000000001
#
# number of rings (size 3 to 8) (size 9 to 14) (size 15 to 20)
#    0.000    1.818    0.909    2.727    6.364    4.364 
#    0.000    1.818    0.000    0.000    0.000    0.000 
#    0.000    0.000    0.000    0.000    0.000    0.000 
#
# Total GULP energy -122944.739479 kJ/mol
# GULP energy per Si atom -5588.397249 kJ/mol
# Density = 2.353198 g / cm^3
# Si number density = 23.585660 Si / 1000 Ang^3
#
#
#
# Elastic Constant Matrix: (Units=GPa)
#
#
# Indices 1 2 3 4 5 6 
#
# 1 77.7909 17.6754 3.2322 0.0000 0.9015 0.0000
# 2 17.6754 124.5799 52.4307 0.0000 -8.1141 0.0000
# 3 3.2322 52.4307 47.6060 0.0000 -0.0835 0.0000
# 4 0.0000 0.0000 0.0000 42.5492 0.0000 -9.3888
# 5 0.9015 -8.1141 -0.0835 0.0000 38.3157 0.0000
# 6 0.0000 0.0000 0.0000 -9.3888 0.0000 61.7597
#
#
#
# Elastic Compliance Matrix: (Units=1/GPa)
#
#
# Indices 1 2 3 4 5 6 
#
# 1 0.013439 -0.002951 0.002336 0.000000 -0.000936 0.000000
# 2 -0.002951 0.015996 -0.017410 0.000000 0.003419 0.000000
# 3 0.002336 -0.017410 0.040016 0.000000 -0.003655 0.000000
# 4 0.000000 0.000000 0.000000 0.024318 0.000000 0.003697
# 5 -0.000936 0.003419 -0.003655 0.000000 0.026837 0.000000
# 6 0.000000 0.000000 0.000000 0.003697 0.000000 0.016754
#
#
# Mechanical properties :
#
#
# Convention : Reuss Voigt Hill
#
# Bulk Modulus (GPa) = 29.94048 44.07260 37.00654
# Shear Modulus (GPa) = 27.09390 40.30081 33.69736
#
# Velocity S-wave (km/s) = 3.39299 4.13813 3.78394
# Velocity P-wave (km/s) = 5.29828 6.44662 5.90045
#
# Compressibility (1/GPa) = 0.03339960
#
# Stress axis : x y z
#
# Youngs Moduli (GPa) = 74.40908 62.51706 24.99023
#
# Poissons Ratio (x) = 0.18447 -0.05837
# Poissons Ratio (y) = 0.21956 0.43509
# Poissons Ratio (z) = -0.17379 1.08845
#
# Static dielectric constant tensor:
#      x y z
#    x 1.989420 0.000000 -0.062380 
#    y 0.000000 1.942870 0.000000 
#    z -0.062380 0.000000 1.882690 
# 
# From -- ./inp_files/43636.got.cif
#   From: 2010.05.17/outbox.cif.g08.bks.cpg/sg13_22_cif.got.tgz:43636.got - 2010.06.03 16:44:36.
