data_PCOD9229567
_publ_section_title
;
Structure prediction by ZEFSAII (Michael W. Deem and Ramdas Pophale) SiO2 
 PCOD9229567
Probable space group: P 2/C
;
_chemical_formula_sum "Si O2"
_cell_formula_units_Z 30
_cell_length_a 5.491654
_cell_length_b 18.206223
_cell_length_c 17.675067
_cell_angle_alpha 90.000000
_cell_angle_beta 129.095820
_cell_angle_gamma 90.000000
_cell_volume 1371.505435
_symmetry_space_group_name_H-M "P 2/C"
_symmetry_group_IT_number 13
_symmetry_cell_setting 'monoclinic'
loop_
_space_group_symop_operation_xyz
x,y,z
-x,y,1/2-z
-x,-y,-z
x,-y,1/2+z
loop_
_atom_site_type_symbol
_atom_site_label
_atom_site_fract_x
_atom_site_fract_y
_atom_site_fract_z
Si Si1 0.637504 0.024674 0.920299
Si Si2 0.484465 0.884199 0.950183
Si Si3 0.089508 0.584865 0.927131
Si Si4 0.013620 0.707225 0.163471
Si Si5 0.477864 0.511107 0.875402
Si Si6 0.803241 0.164270 0.888409
Si Si7 0.500000 0.408165 0.750000
Si Si8 0.671481 0.742372 0.510645
O O1 0.621157 0.087278 0.853617
O O2 0.443264 0.948551 0.879827
O O3 0.552120 0.070703 0.978742
O O4 0.000000 0.000000 0.000000
O O5 0.288848 0.809239 0.921733
O O6 0.841775 0.856575 0.017760
O O7 0.223114 0.557049 0.872370
O O8 0.745354 0.559316 0.885880
O O9 0.332206 0.543720 0.031362
O O10 0.108765 0.672717 0.936443
O O11 0.679445 0.709149 0.057603
O O12 0.000000 0.692748 0.250000
O O13 0.162312 0.787784 0.179994
O O14 0.229606 0.645707 0.167708
O O15 0.352971 0.458181 0.785561
O O16 0.688565 0.218767 0.931952
#
# Coordination Sequence:
#
# PCOD9229567 Si02
#       8
#     4   4   4   4   4   4   2   4
#     4   8  13  25  42  67 103 136 166 201 260 320
#     4   8  15  25  45  70 101 137 166 212 266 326
#     4  10  22  39  56  83 107 147 185 242 288 347
#     4  11  22  32  49  72 104 145 191 228 274 340
#     4  10  24  38  59  77 110 144 191 232 297 345
#     4   9  17  29  44  72 100 145 174 217 268 326
#     4  12  26  40  56  78 106 152 192 234 288 362
#     4  10  20  32  52  74 106 141 182 234 291 339
#
# _framework density 21.873774000000001
#
# number of rings (size 3 to 8) (size 9 to 14) (size 15 to 20)
#    0.000    2.400    0.000    2.400   11.200    0.000 
#    0.000    0.000    0.000    0.000    0.000    0.000 
#    0.000   22.400   34.133    0.400    0.000    0.000 
#
# Total GULP energy -167317.506621 kJ/mol
# GULP energy per Si atom -5577.250221 kJ/mol
# Density = 2.182399 g / cm^3
# Si number density = 21.873774 Si / 1000 Ang^3
#
#
#
# Elastic Constant Matrix: (Units=GPa)
#
#
# Indices 1 2 3 4 5 6 
#
# 1 91.7995 54.4983 12.4736 0.0000 -11.4231 0.0000
# 2 54.4983 193.5754 28.1157 0.0000 -11.9568 0.0000
# 3 12.4736 28.1157 23.5770 0.0000 -11.9507 0.0000
# 4 0.0000 0.0000 0.0000 16.9003 0.0000 -1.7407
# 5 -11.4231 -11.9568 -11.9507 0.0000 21.9391 0.0000
# 6 0.0000 0.0000 0.0000 -1.7407 0.0000 38.2083
#
#
#
# Elastic Compliance Matrix: (Units=1/GPa)
#
#
# Indices 1 2 3 4 5 6 
#
# 1 0.013631 -0.003445 -0.000633 0.000000 0.004875 0.000000
# 2 -0.003445 0.007132 -0.007765 0.000000 -0.002137 0.000000
# 3 -0.000633 -0.007765 0.068652 0.000000 0.032835 0.000000
# 4 0.000000 0.000000 0.000000 0.059449 0.000000 0.002708
# 5 0.004875 -0.002137 0.032835 0.000000 0.064841 0.000000
# 6 0.000000 0.000000 0.000000 0.002708 0.000000 0.026296
#
#
# Mechanical properties :
#
#
# Convention : Reuss Voigt Hill
#
# Bulk Modulus (GPa) = 15.21374 55.45856 35.33615
# Shear Modulus (GPa) = 17.50733 29.66718 23.58725
#
# Velocity S-wave (km/s) = 2.83217 3.68678 3.28736
# Velocity P-wave (km/s) = 4.20300 6.59788 5.53161
#
# Compressibility (1/GPa) = 0.06573005
#
# Stress axis : x y z
#
# Youngs Moduli (GPa) = 73.36302 140.22170 14.56619
#
# Poissons Ratio (x) = 0.48300 0.00922
# Poissons Ratio (y) = 0.25270 0.11311
# Poissons Ratio (z) = 0.04641 1.08883
#
# Static dielectric constant tensor:
#      x y z
#    x 1.901990 0.000000 -0.016720 
#    y 0.000000 1.859910 0.000000 
#    z -0.016720 0.000000 1.811440 
# 
# From -- ./inp_files/61799.got.cif
#   From: 2010.05.17/outbox.cif.g08.bks.cpg/sg13_31_cif.got.tgz:61799.got - 2010.06.03 16:44:36.
