data_PCOD9229838
_publ_section_title
;
Structure prediction by ZEFSAII (Michael W. Deem and Ramdas Pophale) SiO2 
 PCOD9229838
Probable space group: P 2/C
;
_chemical_formula_sum "Si O2"
_cell_formula_units_Z 30
_cell_length_a 6.419205
_cell_length_b 11.513349
_cell_length_c 25.874291
_cell_angle_alpha 90.000000
_cell_angle_beta 120.124893
_cell_angle_gamma 90.000000
_cell_volume 1653.994519
_symmetry_space_group_name_H-M "P 2/C"
_symmetry_group_IT_number 13
_symmetry_cell_setting 'monoclinic'
loop_
_space_group_symop_operation_xyz
x,y,z
-x,y,1/2-z
-x,-y,-z
x,-y,1/2+z
loop_
_atom_site_type_symbol
_atom_site_label
_atom_site_fract_x
_atom_site_fract_y
_atom_site_fract_z
Si Si1 0.515672 0.252977 0.345817
Si Si2 0.391753 0.302348 0.445357
Si Si3 0.252621 0.954598 0.689769
Si Si4 0.000000 0.827499 0.750000
Si Si5 0.106330 0.907467 0.079770
Si Si6 0.914063 0.654496 0.027848
Si Si7 0.695482 0.919371 0.498526
Si Si8 0.926400 0.576600 0.910841
O O1 0.476265 0.243190 0.402422
O O2 0.671687 0.149202 0.340269
O O3 0.678529 0.368384 0.359195
O O4 0.246988 0.245051 0.288577
O O5 0.627209 0.366745 0.496612
O O6 0.320097 0.203753 0.476544
O O7 0.158282 0.381434 0.407554
O O8 0.500000 0.981274 0.750000
O O9 0.057466 0.906239 0.706511
O O10 0.172883 0.065119 0.646582
O O11 0.972374 0.786066 0.051654
O O12 0.323569 0.909722 0.065549
O O13 0.942405 0.017151 0.043778
O O14 0.062146 0.561094 0.079384
O O15 0.964365 0.629415 0.973580
O O16 0.500000 0.000000 0.500000
#
# Coordination Sequence:
#
# PCOD9229838 Si02
#       8
#     4   4   4   2   4   4   4   4
#     4  10  20  34  58  81 109 142 184 234 278 325
#     4  11  19  34  53  81 116 152 180 223 274 336
#     4  10  22  38  57  81 108 142 183 231 284 334
#     4  10  20  38  58  82 104 138 188 236 286 326
#     4  11  21  34  53  80 115 146 183 226 279 331
#     4  10  21  34  51  80 116 156 186 220 269 332
#     4  11  20  30  51  83 114 145 177 220 277 338
#     4  10  20  35  52  79 116 152 189 222 272 327
#
# _framework density 18.137907999999999
#
# number of rings (size 3 to 8) (size 9 to 14) (size 15 to 20)
#    0.000    1.600    2.667    3.600    3.733    1.067 
#    0.000    0.000    0.000    4.000    0.000    1.867 
#    0.000    0.000    0.000    0.000    0.000    0.000 
#
# Total GULP energy -167244.991101 kJ/mol
# GULP energy per Si atom -5574.833037 kJ/mol
# Density = 1.809663 g / cm^3
# Si number density = 18.137908 Si / 1000 Ang^3
#
#
#
# Elastic Constant Matrix: (Units=GPa)
#
#
# Indices 1 2 3 4 5 6 
#
# 1 99.5355 24.9236 23.8511 0.0000 -5.6896 0.0000
# 2 24.9236 47.2737 22.9472 0.0000 1.6619 0.0000
# 3 23.8511 22.9472 63.8604 0.0000 -2.2086 0.0000
# 4 0.0000 0.0000 0.0000 25.7511 0.0000 3.3565
# 5 -5.6896 1.6619 -2.2086 0.0000 30.7649 0.0000
# 6 0.0000 0.0000 0.0000 3.3565 0.0000 19.0724
#
#
#
# Elastic Compliance Matrix: (Units=1/GPa)
#
#
# Indices 1 2 3 4 5 6 
#
# 1 0.012101 -0.005217 -0.002564 0.000000 0.002336 0.000000
# 2 -0.005217 0.028002 -0.008219 0.000000 -0.003068 0.000000
# 3 -0.002564 -0.008219 0.019618 0.000000 0.001378 0.000000
# 4 0.000000 0.000000 0.000000 0.039745 0.000000 -0.006995
# 5 0.002336 -0.003068 0.001378 0.000000 0.033201 0.000000
# 6 0.000000 0.000000 0.000000 -0.006995 0.000000 0.053663
#
#
# Mechanical properties :
#
#
# Convention : Reuss Voigt Hill
#
# Bulk Modulus (GPa) = 36.07625 39.34592 37.71108
# Shear Modulus (GPa) = 21.97116 24.38085 23.17600
#
# Velocity S-wave (km/s) = 3.48421 3.67030 3.57846
# Velocity P-wave (km/s) = 6.00994 6.30089 6.15714
#
# Compressibility (1/GPa) = 0.02771907
#
# Stress axis : x y z
#
# Youngs Moduli (GPa) = 82.63773 35.71203 50.97368
#
# Poissons Ratio (x) = 0.18632 0.13070
# Poissons Ratio (y) = 0.43115 0.41897
# Poissons Ratio (z) = 0.21189 0.29353
#
# Static dielectric constant tensor:
#      x y z
#    x 1.705690 0.000000 0.004450 
#    y 0.000000 1.656130 0.000000 
#    z 0.004450 0.000000 1.655670 
# 
# From -- ./inp_files/83739.got.cif
#   From: 2010.05.17/outbox.cif.g08.bks.cpg/sg13_42_cif.got.tgz:83739.got - 2010.06.03 16:44:36.
