data_PCOD9229792
_publ_section_title
;
Structure prediction by ZEFSAII (Michael W. Deem and Ramdas Pophale) SiO2 
 PCOD9229792
Probable space group: P 2/C
;
_chemical_formula_sum "Si O2"
_cell_formula_units_Z 22
_cell_length_a 15.071243
_cell_length_b 12.048961
_cell_length_c 8.347340
_cell_angle_alpha 90.000000
_cell_angle_beta 47.763728
_cell_angle_gamma 90.000000
_cell_volume 1122.279387
_symmetry_space_group_name_H-M "P 2/C"
_symmetry_group_IT_number 13
_symmetry_cell_setting 'monoclinic'
loop_
_space_group_symop_operation_xyz
x,y,z
-x,y,1/2-z
-x,-y,-z
x,-y,1/2+z
loop_
_atom_site_type_symbol
_atom_site_label
_atom_site_fract_x
_atom_site_fract_y
_atom_site_fract_z
Si Si1 0.500000 0.551881 0.250000
Si Si2 0.650560 0.618490 0.358143
Si Si3 0.905900 0.150172 0.632063
Si Si4 0.500000 0.955403 0.250000
Si Si5 0.063973 0.392908 0.000505
Si Si6 0.361725 0.135522 0.618046
Si Si7 0.000000 0.002897 0.250000
O O1 0.582059 0.619035 0.272377
O O2 0.410353 0.474875 0.460340
O O3 0.624408 0.739426 0.464531
O O4 0.791489 0.593319 0.161801
O O5 0.943584 0.278528 0.592437
O O6 0.780948 0.132335 0.691716
O O7 0.901111 0.086781 0.808118
O O8 0.994697 0.085783 0.406104
O O9 0.405940 0.038524 0.448208
O O10 0.566633 0.884556 0.304761
O O11 0.000000 0.374821 0.250000
O O12 0.000000 0.500000 0.000000
#
# Coordination Sequence:
#
# PCOD9229792 Si02
#       7
#     2   4   4   2   4   4   2
#     4  10  20  38  58  84 106 148 190 234 290 334
#     4  10  21  37  60  81 115 148 189 241 282 344
#     4  10  21  37  59  82 114 151 190 241 281 347
#     4  10  20  34  56  84 116 148 182 230 278 344
#     4  11  23  39  58  86 121 155 197 241 296 353
#     4  10  20  35  55  82 112 146 182 227 279 331
#     4  10  20  38  58  82 110 148 192 232 288 336
#
# _framework density 19.602961000000001
#
# number of rings (size 3 to 8) (size 9 to 14) (size 15 to 20)
#    0.000    1.818    0.909    3.273    1.273    0.000 
#    0.000    0.000   12.000    0.000    0.000    0.000 
#    0.000    0.000    0.000    0.000    0.000    0.000 
#
# Total GULP energy -122468.971602 kJ/mol
# GULP energy per Si atom -5566.771436 kJ/mol
# Density = 1.955834 g / cm^3
# Si number density = 19.602961 Si / 1000 Ang^3
#
#
#
# Elastic Constant Matrix: (Units=GPa)
#
#
# Indices 1 2 3 4 5 6 
#
# 1 52.3993 29.0004 7.5264 0.0000 -19.1171 0.0000
# 2 29.0004 119.1722 18.5771 0.0000 -16.6906 0.0000
# 3 7.5264 18.5771 51.2639 0.0000 -15.2788 0.0000
# 4 0.0000 0.0000 0.0000 19.2456 0.0000 -1.1967
# 5 -19.1171 -16.6906 -15.2788 0.0000 27.3314 0.0000
# 6 0.0000 0.0000 0.0000 -1.1967 0.0000 49.5288
#
#
#
# Elastic Compliance Matrix: (Units=1/GPa)
#
#
# Indices 1 2 3 4 5 6 
#
# 1 0.027963 -0.004708 0.003088 0.000000 0.018410 0.000000
# 2 -0.004708 0.010140 -0.002543 0.000000 0.001478 0.000000
# 3 0.003088 -0.002543 0.024186 0.000000 0.014127 0.000000
# 4 0.000000 0.000000 0.000000 0.052038 0.000000 0.001257
# 5 0.018410 0.001478 0.014127 0.000000 0.058265 0.000000
# 6 0.000000 0.000000 0.000000 0.001257 0.000000 0.020221
#
#
# Mechanical properties :
#
#
# Convention : Reuss Voigt Hill
#
# Bulk Modulus (GPa) = 18.53139 37.00479 27.76809
# Shear Modulus (GPa) = 22.81795 30.40326 26.61060
#
# Velocity S-wave (km/s) = 3.41545 3.94249 3.68839
# Velocity P-wave (km/s) = 5.00276 6.29622 5.68639
#
# Compressibility (1/GPa) = 0.05396250
#
# Stress axis : x y z
#
# Youngs Moduli (GPa) = 35.76183 98.61713 41.34695
#
# Poissons Ratio (x) = 0.46425 -0.12766
# Poissons Ratio (y) = 0.16835 0.10514
# Poissons Ratio (z) = -0.11042 0.25078
#
# Static dielectric constant tensor:
#      x y z
#    x 1.713830 0.000000 0.006690 
#    y 0.000000 1.695830 0.000000 
#    z 0.006690 0.000000 1.727050 
# 
# From -- ./inp_files/15581.got.cif
#   From: 2010.05.17/outbox.cif.g08.bks.cpg/sg13_8_cif.got.tgz:15581.got - 2010.06.03 16:44:36.
