data_PCOD9229882
_publ_section_title
;
Structure prediction by ZEFSAII (Michael W. Deem and Ramdas Pophale) SiO2 
 PCOD9229882
Probable space group: P 2/C
;
_chemical_formula_sum "Si O2"
_cell_formula_units_Z 32
_cell_length_a 10.890906
_cell_length_b 8.301734
_cell_length_c 18.275734
_cell_angle_alpha 90.000000
_cell_angle_beta 127.711569
_cell_angle_gamma 90.000000
_cell_volume 1307.191026
_symmetry_space_group_name_H-M "P 2/C"
_symmetry_group_IT_number 13
_symmetry_cell_setting 'monoclinic'
loop_
_space_group_symop_operation_xyz
x,y,z
-x,y,1/2-z
-x,-y,-z
x,-y,1/2+z
loop_
_atom_site_type_symbol
_atom_site_label
_atom_site_fract_x
_atom_site_fract_y
_atom_site_fract_z
Si Si1 0.771271 0.863550 0.948094
Si Si2 0.991033 0.704706 0.374214
Si Si3 0.749784 0.214565 0.884127
Si Si4 0.744065 0.531607 0.103068
Si Si5 0.036418 0.644359 0.576540
Si Si6 0.456660 0.789153 0.817387
Si Si7 0.524031 0.437249 0.887943
Si Si8 0.146028 0.782470 0.768657
O O1 0.812678 0.711806 0.911096
O O2 0.602953 0.838900 0.920555
O O3 0.755570 0.024650 0.896796
O O4 0.911621 0.853720 0.056378
O O5 0.103093 0.641402 0.351274
O O6 0.810715 0.745943 0.323902
O O7 0.994336 0.544423 0.427331
O O8 0.599723 0.307984 0.860204
O O9 0.886387 0.266926 0.990621
O O10 0.617151 0.612571 0.110073
O O11 0.793933 0.359793 0.155744
O O12 0.658826 0.495055 0.994567
O O13 0.072434 0.696258 0.671871
O O14 0.500000 0.834288 0.750000
O O15 0.456769 0.594584 0.822069
O O16 0.300884 0.863103 0.793766
O O17 0.000000 0.876595 0.750000
#
# Coordination Sequence:
#
# PCOD9229882 Si02
#       8
#     4   4   4   4   4   4   4   4
#     4  11  22  38  58  92 122 160 203 248 299 365
#     4  11  19  35  63  91 116 152 202 256 293 350
#     4  11  22  36  63  90 120 157 202 247 303 357
#     4  10  20  34  61  89 118 147 199 257 298 340
#     4  11  19  35  61  91 119 149 203 253 299 348
#     4  11  21  37  64  85 118 159 201 256 302 348
#     4  10  20  38  59  89 116 153 202 252 290 357
#     4  11  21  33  59  94 116 146 195 254 308 349
#
# _framework density 24.479973000000001
#
# number of rings (size 3 to 8) (size 9 to 14) (size 15 to 20)
#    0.000    1.250    5.000    3.750    0.000    0.000 
#    0.000    1.250    2.750    0.000    6.500    0.000 
#    0.000    0.000    0.000    0.000    0.000    0.000 
#
# Total GULP energy -178404.218386 kJ/mol
# GULP energy per Si atom -5575.131825 kJ/mol
# Density = 2.442426 g / cm^3
# Si number density = 24.479973 Si / 1000 Ang^3
#
#
#
# Elastic Constant Matrix: (Units=GPa)
#
#
# Indices 1 2 3 4 5 6 
#
# 1 211.9736 20.9922 22.6007 0.0000 45.8374 0.0000
# 2 20.9922 57.4973 7.1469 0.0000 13.0805 0.0000
# 3 22.6007 7.1469 66.9436 0.0000 -2.8567 0.0000
# 4 0.0000 0.0000 0.0000 9.3379 0.0000 3.0045
# 5 45.8374 13.0805 -2.8567 0.0000 27.4717 0.0000
# 6 0.0000 0.0000 0.0000 3.0045 0.0000 12.4159
#
#
#
# Elastic Compliance Matrix: (Units=1/GPa)
#
#
# Indices 1 2 3 4 5 6 
#
# 1 0.008072 0.000696 -0.003404 0.000000 -0.014154 0.000000
# 2 0.000696 0.019987 -0.002837 0.000000 -0.010973 0.000000
# 3 -0.003404 -0.002837 0.016764 0.000000 0.008773 0.000000
# 4 0.000000 0.000000 0.000000 0.116132 0.000000 -0.028103
# 5 -0.014154 -0.010973 0.008773 0.000000 0.066155 0.000000
# 6 0.000000 0.000000 0.000000 -0.028103 0.000000 0.087343
#
#
# Mechanical properties :
#
#
# Convention : Reuss Voigt Hill
#
# Bulk Modulus (GPa) = 29.64347 48.65489 39.14918
# Shear Modulus (GPa) = 14.84618 28.89007 21.86812
#
# Velocity S-wave (km/s) = 2.46532 3.43906 2.99207
# Velocity P-wave (km/s) = 4.49881 5.97395 5.28807
#
# Compressibility (1/GPa) = 0.03373425
#
# Stress axis : x y z
#
# Youngs Moduli (GPa) = 123.88150 50.03256 59.65070
#
# Poissons Ratio (x) = -0.03482 0.20302
# Poissons Ratio (y) = -0.08621 0.16923
# Poissons Ratio (z) = 0.42164 0.14194
#
# Static dielectric constant tensor:
#      x y z
#    x 2.110520 0.000000 -0.020290 
#    y 0.000000 1.946380 0.000000 
#    z -0.020290 0.000000 2.044870 
# 
# From -- ./inp_files/86223.got.cif
#   From: 2010.05.17/outbox.cif.g08.bks.cpg/sg13_44_cif.got.tgz:86223.got - 2010.06.03 16:44:36.
