data_PCOD9229573
_publ_section_title
;
Structure prediction by ZEFSAII (Michael W. Deem and Ramdas Pophale) SiO2 
 PCOD9229573
Probable space group: P 2/C
;
_chemical_formula_sum "Si O2"
_cell_formula_units_Z 26
_cell_length_a 23.255677
_cell_length_b 10.261252
_cell_length_c 23.873850
_cell_angle_alpha 90.000000
_cell_angle_beta 11.718405
_cell_angle_gamma 90.000000
_cell_volume 1157.086045
_symmetry_space_group_name_H-M "P 2/C"
_symmetry_group_IT_number 13
_symmetry_cell_setting 'monoclinic'
loop_
_space_group_symop_operation_xyz
x,y,z
-x,y,1/2-z
-x,-y,-z
x,-y,1/2+z
loop_
_atom_site_type_symbol
_atom_site_label
_atom_site_fract_x
_atom_site_fract_y
_atom_site_fract_z
Si Si1 0.793804 0.794885 0.997575
Si Si2 0.096537 0.019800 0.008662
Si Si3 0.000000 0.535375 0.250000
Si Si4 0.388032 0.572169 0.161780
Si Si5 0.838014 0.261923 0.191707
Si Si6 0.624399 0.513517 0.203593
Si Si7 0.549369 0.095608 0.006116
O O1 0.500000 0.835420 0.250000
O O2 0.741206 0.661301 0.082038
O O3 0.907453 0.909874 0.928123
O O4 0.000000 0.764078 0.750000
O O5 0.998418 0.133188 0.059532
O O6 0.878597 0.902159 0.205879
O O7 0.402494 0.971650 0.699080
O O8 0.702316 0.485777 0.505346
O O9 0.830874 0.578112 0.469020
O O10 0.366154 0.490375 0.239330
O O11 0.085739 0.639102 0.439710
O O12 0.500000 0.500000 0.000000
O O13 0.634082 0.681728 0.934905
O O14 0.619119 0.223089 0.351683
O O15 0.500000 0.000000 0.000000
#
# Coordination Sequence:
#
# PCOD9229573 Si02
#       7
#     4   4   2   4   4   4   4
#     4  12  22  31  50  80 115 152 187 221 292 366
#     4  11  21  34  53  81 114 150 183 236 276 337
#     4  10  20  32  54  74  98 150 198 232 274 358
#     4  12  25  37  55  83 121 161 193 242 306 367
#     4  11  21  37  57  76 113 157 194 235 285 334
#     4  11  20  35  51  76 114 152 190 231 287 348
#     4  10  20  34  54  80 106 145 198 226 269 336
#
# _framework density 22.470238999999999
#
# number of rings (size 3 to 8) (size 9 to 14) (size 15 to 20)
#    0.000    0.923    3.846    6.923    2.154    0.000 
#    0.000    0.000    0.000    0.000    0.000    0.000 
#   48.462    0.000    0.000    0.000    0.000    0.000 
#
# Total GULP energy -145027.733995 kJ/mol
# GULP energy per Si atom -5577.989769 kJ/mol
# Density = 2.241910 g / cm^3
# Si number density = 22.470239 Si / 1000 Ang^3
#
#
#
# Elastic Constant Matrix: (Units=GPa)
#
#
# Indices 1 2 3 4 5 6 
#
# 1 105.1404 19.5929 33.4946 0.0000 16.2770 0.0000
# 2 19.5929 24.8702 17.6303 0.0000 -0.8666 0.0000
# 3 33.4946 17.6303 155.3361 0.0000 7.0086 0.0000
# 4 0.0000 0.0000 0.0000 15.8234 0.0000 4.3647
# 5 16.2770 -0.8666 7.0086 0.0000 41.8879 0.0000
# 6 0.0000 0.0000 0.0000 4.3647 0.0000 17.1487
#
#
#
# Elastic Compliance Matrix: (Units=1/GPa)
#
#
# Indices 1 2 3 4 5 6 
#
# 1 0.012360 -0.008880 -0.001443 0.000000 -0.004745 0.000000
# 2 -0.008880 0.050234 -0.004020 0.000000 0.005162 0.000000
# 3 -0.001443 -0.004020 0.007238 0.000000 -0.000733 0.000000
# 4 0.000000 0.000000 0.000000 0.067969 0.000000 -0.017299
# 5 -0.004745 0.005162 -0.000733 0.000000 0.025947 0.000000
# 6 0.000000 0.000000 0.000000 -0.017299 0.000000 0.062716
#
#
# Mechanical properties :
#
#
# Convention : Reuss Voigt Hill
#
# Bulk Modulus (GPa) = 24.30321 47.42026 35.86173
# Shear Modulus (GPa) = 18.59669 29.28061 23.93865
#
# Velocity S-wave (km/s) = 2.87995 3.61374 3.26751
# Velocity P-wave (km/s) = 4.67953 6.20980 5.49816
#
# Compressibility (1/GPa) = 0.04114683
#
# Stress axis : x y z
#
# Youngs Moduli (GPa) = 80.90476 19.90700 138.15651
#
# Poissons Ratio (x) = 0.17677 0.19940
# Poissons Ratio (y) = 0.71841 0.55534
# Poissons Ratio (z) = 0.11677 0.08002
#
# Static dielectric constant tensor:
#      x y z
#    x 1.881040 0.000000 0.006420 
#    y 0.000000 1.950460 0.000000 
#    z 0.006420 0.000000 1.853540 
# 
# From -- ./inp_files/94095.got.cif
#   From: 2010.05.17/outbox.cif.g08.bks.cpg/sg13_48_cif.got.tgz:94095.got - 2010.06.03 16:44:36.
