data_PCOD9229999
_publ_section_title
;
Structure prediction by ZEFSAII (Michael W. Deem and Ramdas Pophale) SiO2 
 PCOD9229999
Probable space group: P 2/C
;
_chemical_formula_sum "Si O2"
_cell_formula_units_Z 24
_cell_length_a 13.051092
_cell_length_b 15.767218
_cell_length_c 20.411061
_cell_angle_alpha 90.000000
_cell_angle_beta 17.394934
_cell_angle_gamma 90.000000
_cell_volume 1255.669618
_symmetry_space_group_name_H-M "P 2/C"
_symmetry_group_IT_number 13
_symmetry_cell_setting 'monoclinic'
loop_
_space_group_symop_operation_xyz
x,y,z
-x,y,1/2-z
-x,-y,-z
x,-y,1/2+z
loop_
_atom_site_type_symbol
_atom_site_label
_atom_site_fract_x
_atom_site_fract_y
_atom_site_fract_z
Si Si1 0.100193 0.920148 0.482007
Si Si2 0.273768 0.425177 0.823373
Si Si3 0.980614 0.158831 0.186226
Si Si4 0.247854 0.768938 0.300135
Si Si5 0.722646 0.254005 0.862098
Si Si6 0.599440 0.427165 0.489212
O O1 0.500000 0.929951 0.250000
O O2 0.067772 0.834014 0.459355
O O3 0.944626 0.908499 0.649379
O O4 0.000000 0.000000 0.500000
O O5 0.500000 0.419858 0.750000
O O6 0.167253 0.327595 0.871369
O O7 0.492814 0.452432 0.627034
O O8 0.000000 0.500000 0.000000
O O9 0.635988 0.213903 0.395884
O O10 0.000000 0.126732 0.250000
O O11 0.335277 0.211726 0.954775
O O12 0.148021 0.786406 0.285435
O O13 0.000000 0.251928 0.750000
O O14 0.618357 0.347527 0.902384
O O15 0.500000 0.500000 0.500000
O O16 0.000000 0.405754 0.250000
#
# Coordination Sequence:
#
# PCOD9229999 Si02
#       6
#     4   4   4   4   4   4
#     4  10  21  38  60  86 116 151 192 237 292 348
#     4  11  22  37  57  84 114 150 193 237 286 344
#     4   9  18  37  62  82 109 153 194 229 282 349
#     4   9  20  40  59  80 115 156 189 229 287 352
#     4  10  20  35  57  85 111 144 190 237 287 339
#     4  11  22  37  56  79 112 152 194 241 292 348
#
# _framework density 19.113309000000001
#
# number of rings (size 3 to 8) (size 9 to 14) (size 15 to 20)
#    0.000    2.000    0.000    5.500    0.000    4.000 
#    0.000    9.167    0.000    0.000    0.000    0.000 
#    0.000    0.000    0.000    0.000    0.000    0.000 
#
# Total GULP energy -133772.661554 kJ/mol
# GULP energy per Si atom -5573.860898 kJ/mol
# Density = 1.906981 g / cm^3
# Si number density = 19.113309 Si / 1000 Ang^3
#
#
#
# Elastic Constant Matrix: (Units=GPa)
#
#
# Indices 1 2 3 4 5 6 
#
# 1 175.1900 49.6453 51.4155 0.0000 14.4694 0.0000
# 2 49.6453 86.4757 25.1402 0.0000 18.6472 0.0000
# 3 51.4155 25.1402 60.1765 0.0000 23.8042 0.0000
# 4 0.0000 0.0000 0.0000 7.3991 0.0000 4.3026
# 5 14.4694 18.6472 23.8042 0.0000 35.2729 0.0000
# 6 0.0000 0.0000 0.0000 4.3026 0.0000 37.0139
#
#
#
# Elastic Compliance Matrix: (Units=1/GPa)
#
#
# Indices 1 2 3 4 5 6 
#
# 1 0.008511 -0.003512 -0.007037 0.000000 0.003114 0.000000
# 2 -0.003512 0.015140 -0.000993 0.000000 -0.005893 0.000000
# 3 -0.007037 -0.000993 0.029596 0.000000 -0.016562 0.000000
# 4 0.000000 0.000000 0.000000 0.144950 0.000000 -0.016849
# 5 0.003114 -0.005893 -0.016562 0.000000 0.041365 0.000000
# 6 0.000000 0.000000 0.000000 -0.016849 0.000000 0.028975
#
#
# Mechanical properties :
#
#
# Convention : Reuss Voigt Hill
#
# Bulk Modulus (GPa) = 33.15293 63.80492 48.47893
# Shear Modulus (GPa) = 16.57409 28.97991 22.77700
#
# Velocity S-wave (km/s) = 2.94793 3.89809 3.45582
# Velocity P-wave (km/s) = 5.38240 7.32905 6.42982
#
# Compressibility (1/GPa) = 0.03016324
#
# Stress axis : x y z
#
# Youngs Moduli (GPa) = 117.49064 66.05180 33.78802
#
# Poissons Ratio (x) = 0.23198 0.23776
# Poissons Ratio (y) = 0.41264 0.03356
# Poissons Ratio (z) = 0.82675 0.06560
#
# Static dielectric constant tensor:
#      x y z
#    x 1.707660 0.000000 0.040020 
#    y 0.000000 1.712910 0.000000 
#    z 0.040020 0.000000 1.655360 
# 
# From -- ./inp_files/12422.got.cif
#   From: 2010.05.17/outbox.cif.g08.bks.cpg/sg13_7_cif.got.tgz:12422.got - 2010.06.03 16:44:36.
