data_PCOD9229955
_publ_section_title
;
Structure prediction by ZEFSAII (Michael W. Deem and Ramdas Pophale) SiO2 
 PCOD9229955
Probable space group: P 2/C
;
_chemical_formula_sum "Si O2"
_cell_formula_units_Z 14
_cell_length_a 8.767606
_cell_length_b 4.017758
_cell_length_c 12.612629
_cell_angle_alpha 90.000000
_cell_angle_beta 83.553162
_cell_angle_gamma 90.000000
_cell_volume 441.484463
_symmetry_space_group_name_H-M "P 2/C"
_symmetry_group_IT_number 13
_symmetry_cell_setting 'monoclinic'
loop_
_space_group_symop_operation_xyz
x,y,z
-x,y,1/2-z
-x,-y,-z
x,-y,1/2+z
loop_
_atom_site_type_symbol
_atom_site_label
_atom_site_fract_x
_atom_site_fract_y
_atom_site_fract_z
Si Si1 0.577048 0.234132 0.403281
Si Si2 0.144763 0.300655 0.534063
Si Si3 0.000000 0.306700 0.750000
Si Si4 0.281889 0.259010 0.317286
O O1 0.713999 0.467226 0.436381
O O2 0.432586 0.423870 0.359882
O O3 0.650902 0.070859 0.290806
O O4 0.500000 0.000000 0.500000
O O5 0.073676 0.123684 0.643138
O O6 0.209067 0.094500 0.428806
O O7 0.000000 0.500000 0.500000
O O8 0.143103 0.517689 0.784282
#
# Coordination Sequence:
#
# PCOD9229955 Si02
#       4
#     4   4   2   4
#     4  10  20  35  55  85 120 155 198 256 313 360
#     4   9  17  34  59  84 111 150 197 246 299 367
#     4   8  16  32  56  84 110 142 192 252 298 346
#     4   9  18  35  56  80 113 152 200 249 297 372
#
# _framework density 31.711199000000001
#
# number of rings (size 3 to 8) (size 9 to 14) (size 15 to 20)
#    0.000    2.857    0.000    0.857    0.000    0.000 
#    0.000   35.714    0.000    3.429    0.000    0.000 
#    0.000    0.000    0.000    0.000    0.000    0.000 
#
# Total GULP energy -78178.000347 kJ/mol
# GULP energy per Si atom -5584.142882 kJ/mol
# Density = 3.163902 g / cm^3
# Si number density = 31.711199 Si / 1000 Ang^3
#
#
#
# Elastic Constant Matrix: (Units=GPa)
#
#
# Indices 1 2 3 4 5 6 
#
# 1 361.9795 100.6000 61.0012 0.0000 71.6462 0.0000
# 2 100.6000 81.9073 81.9208 0.0000 7.1924 0.0000
# 3 61.0012 81.9208 414.3021 0.0000 -106.3410 0.0000
# 4 0.0000 0.0000 0.0000 45.5278 0.0000 1.4221
# 5 71.6462 7.1924 -106.3410 0.0000 103.5555 0.0000
# 6 0.0000 0.0000 0.0000 1.4221 0.0000 101.3382
#
#
#
# Elastic Compliance Matrix: (Units=1/GPa)
#
#
# Indices 1 2 3 4 5 6 
#
# 1 0.005106 -0.005195 -0.000732 0.000000 -0.003923 0.000000
# 2 -0.005195 0.023380 -0.004552 0.000000 -0.002704 0.000000
# 3 -0.000732 -0.004552 0.004933 0.000000 0.005888 0.000000
# 4 0.000000 0.000000 0.000000 0.021974 0.000000 -0.000308
# 5 -0.003923 -0.002704 0.005888 0.000000 0.018605 0.000000
# 6 0.000000 0.000000 0.000000 -0.000308 0.000000 0.009872
#
#
# Mechanical properties :
#
#
# Convention : Reuss Voigt Hill
#
# Bulk Modulus (GPa) = 80.24910 149.47030 114.85970
# Shear Modulus (GPa) = 45.87891 91.06210 68.47050
#
# Velocity S-wave (km/s) = 3.80777 5.36455 4.65175
# Velocity P-wave (km/s) = 6.68531 9.25248 8.07161
#
# Compressibility (1/GPa) = 0.01246120
#
# Stress axis : x y z
#
# Youngs Moduli (GPa) = 195.83704 42.77096 202.72836
#
# Poissons Ratio (x) = 0.22222 0.14830
# Poissons Ratio (y) = 1.01747 0.92283
# Poissons Ratio (z) = 0.14326 0.19470
#
# Static dielectric constant tensor:
#      x y z
#    x 2.405160 0.000000 -0.016510 
#    y 0.000000 2.491570 0.000000 
#    z -0.016510 0.000000 2.415300 
# 
# From -- ./inp_files/10678.got.cif
#   From: 2010.05.17/outbox.cif.g08.bks.cpg/sg13_6_cif.got.tgz:10678.got - 2010.06.03 16:44:36.
