data_PCOD9229412
_publ_section_title
;
Structure prediction by ZEFSAII (Michael W. Deem and Ramdas Pophale) SiO2 
 PCOD9229412
Probable space group: P 2/C
;
_chemical_formula_sum "Si O2"
_cell_formula_units_Z 26
_cell_length_a 23.158380
_cell_length_b 10.248420
_cell_length_c 11.698907
_cell_angle_alpha 90.000000
_cell_angle_beta 153.218644
_cell_angle_gamma 90.000000
_cell_volume 1251.091591
_symmetry_space_group_name_H-M "P 2/C"
_symmetry_group_IT_number 13
_symmetry_cell_setting 'monoclinic'
loop_
_space_group_symop_operation_xyz
x,y,z
-x,y,1/2-z
-x,-y,-z
x,-y,1/2+z
loop_
_atom_site_type_symbol
_atom_site_label
_atom_site_fract_x
_atom_site_fract_y
_atom_site_fract_z
Si Si1 0.232080 0.925374 0.300354
Si Si2 0.819743 0.749349 0.084611
Si Si3 0.500000 0.638460 0.250000
Si Si4 0.500000 0.203009 0.250000
Si Si5 0.938395 0.357119 0.372047
Si Si6 0.754108 0.771610 0.714475
Si Si7 0.589973 0.574044 0.748339
Si Si8 0.000000 0.782092 0.750000
O O1 0.229837 0.869454 0.426161
O O2 0.370253 0.876736 0.498804
O O3 0.232356 0.080447 0.302769
O O4 0.113653 0.865723 0.014616
O O5 0.958377 0.731016 0.381078
O O6 0.827255 0.763226 0.963437
O O7 0.726775 0.625160 0.946771
O O8 0.607923 0.733684 0.491336
O O9 0.409431 0.534565 0.153583
O O10 0.476633 0.298379 0.316441
O O11 0.811023 0.321585 0.216463
O O12 0.000000 0.500000 0.500000
O O13 0.938457 0.310157 0.240317
O O14 0.500000 0.500000 0.500000
#
# Coordination Sequence:
#
# PCOD9229412 Si02
#       8
#     4   4   2   2   4   4   4   2
#     4  10  24  44  65  97 133 179 225 268 337 394
#     4  10  23  43  65  96 130 176 218 273 334 391
#     4  11  23  40  62 106 129 171 220 266 336 395
#     4   9  21  40  64  92 133 173 218 272 322 395
#     4  11  26  45  68 100 130 173 220 277 335 394
#     4  12  25  41  70  97 136 173 221 277 324 405
#     4  10  19  40  64  91 135 171 215 273 333 388
#     4  10  26  46  70  96 134 176 222 278 336 392
#
# _framework density 20.781852000000001
#
# number of rings (size 3 to 8) (size 9 to 14) (size 15 to 20)
#    0.000    1.538    1.538    1.846    6.462    4.923 
#    0.000    2.308    0.000    0.000    0.000    0.000 
#    0.000    0.000    0.000    0.000    0.000    0.000 
#
# Total GULP energy -144807.141208 kJ/mol
# GULP energy per Si atom -5569.505431 kJ/mol
# Density = 2.073455 g / cm^3
# Si number density = 20.781852 Si / 1000 Ang^3
#
#
#
# Elastic Constant Matrix: (Units=GPa)
#
#
# Indices 1 2 3 4 5 6 
#
# 1 111.1383 49.0354 34.6227 0.0000 2.9697 0.0000
# 2 49.0354 122.3772 26.8598 0.0000 6.9762 0.0000
# 3 34.6227 26.8598 65.6887 0.0000 15.4983 0.0000
# 4 0.0000 0.0000 0.0000 12.8779 0.0000 -8.2827
# 5 2.9697 6.9762 15.4983 0.0000 36.9799 0.0000
# 6 0.0000 0.0000 0.0000 -8.2827 0.0000 6.0423
#
#
#
# Elastic Compliance Matrix: (Units=1/GPa)
#
#
# Indices 1 2 3 4 5 6 
#
# 1 0.012331 -0.003872 -0.005388 0.000000 0.001998 0.000000
# 2 -0.003872 0.010194 -0.001939 0.000000 -0.000800 0.000000
# 3 -0.005388 -0.001939 0.020716 0.000000 -0.007884 0.000000
# 4 0.000000 0.000000 0.000000 0.656046 0.000000 0.899287
# 5 0.001998 -0.000800 -0.007884 0.000000 0.030336 0.000000
# 6 0.000000 0.000000 0.000000 0.899287 0.000000 1.398214
#
#
# Mechanical properties :
#
#
# Convention : Reuss Voigt Hill
#
# Bulk Modulus (GPa) = 47.97552 57.80446 52.88999
# Shear Modulus (GPa) = 2.31784 23.75912 13.03848
#
# Velocity S-wave (km/s) = 1.05723 3.38489 2.50751
# Velocity P-wave (km/s) = 4.96243 6.56901 5.82141
#
# Compressibility (1/GPa) = 0.02084396
#
# Stress axis : x y z
#
# Youngs Moduli (GPa) = 81.09416 98.09497 48.27273
#
# Poissons Ratio (x) = 0.37987 0.26007
# Poissons Ratio (y) = 0.31404 0.09358
# Poissons Ratio (z) = 0.43690 0.19017
#
# Static dielectric constant tensor:
#      x y z
#    x 1.750100 0.000000 0.012910 
#    y 0.000000 1.765810 0.000000 
#    z 0.012910 0.000000 1.748790 
# 
# From -- ./inp_files/41700.got.cif
#   From: 2010.05.17/outbox.cif.g08.bks.cpg/sg13_21_cif.got.tgz:41700.got - 2010.06.03 16:44:36.
