data_PCOD9229449
_publ_section_title
;
Structure prediction by ZEFSAII (Michael W. Deem and Ramdas Pophale) SiO2 
 PCOD9229449
Probable space group: P 2/C
;
_chemical_formula_sum "Si O2"
_cell_formula_units_Z 24
_cell_length_a 16.958404
_cell_length_b 7.931015
_cell_length_c 21.056178
_cell_angle_alpha 90.000000
_cell_angle_beta 154.496353
_cell_angle_gamma 90.000000
_cell_volume 1219.370246
_symmetry_space_group_name_H-M "P 2/C"
_symmetry_group_IT_number 13
_symmetry_cell_setting 'monoclinic'
loop_
_space_group_symop_operation_xyz
x,y,z
-x,y,1/2-z
-x,-y,-z
x,-y,1/2+z
loop_
_atom_site_type_symbol
_atom_site_label
_atom_site_fract_x
_atom_site_fract_y
_atom_site_fract_z
Si Si1 0.249778 0.632109 0.303135
Si Si2 0.090655 0.826899 0.086032
Si Si3 0.692580 0.340486 0.861541
Si Si4 0.269500 0.367627 0.202013
Si Si5 0.401312 0.170996 0.405271
Si Si6 0.952148 0.664715 0.787960
O O1 0.265387 0.504312 0.255321
O O2 0.448839 0.687884 0.468678
O O3 0.135196 0.523868 0.270289
O O4 0.151648 0.798066 0.202727
O O5 0.935331 0.688423 0.961052
O O6 0.254507 0.782892 0.157736
O O7 0.000000 0.000000 0.000000
O O8 0.500000 0.287877 0.750000
O O9 0.665031 0.528170 0.811441
O O10 0.864238 0.334137 0.035118
O O11 0.366789 0.204630 0.304742
O O12 0.207707 0.213077 0.299466
O O13 0.500000 0.000000 0.500000
O O14 0.000000 0.705044 0.750000
#
# Coordination Sequence:
#
# PCOD9229449 Si02
#       6
#     4   4   4   4   4   4
#     4  10  20  37  64  89 114 161 211 246 302 370
#     4  11  20  38  67  88 120 162 206 260 306 365
#     4  11  23  39  63  91 122 166 213 260 311 363
#     4  10  19  41  62  87 118 160 213 252 290 373
#     4  11  23  39  65  95 123 162 207 254 317 378
#     4  11  23  40  62  89 127 163 210 262 311 368
#
# _framework density 19.682289999999998
#
# number of rings (size 3 to 8) (size 9 to 14) (size 15 to 20)
#    0.000    1.333    5.000    4.000    7.000    0.000 
#    0.000    1.667    0.000    0.000    0.000    0.000 
#    0.000    0.000    0.000    0.000    0.000    0.000 
#
# Total GULP energy -133745.378165 kJ/mol
# GULP energy per Si atom -5572.724090 kJ/mol
# Density = 1.963749 g / cm^3
# Si number density = 19.682290 Si / 1000 Ang^3
#
#
#
# Elastic Constant Matrix: (Units=GPa)
#
#
# Indices 1 2 3 4 5 6 
#
# 1 73.2545 25.4758 31.5525 0.0000 8.1264 0.0000
# 2 25.4758 89.1068 36.2674 0.0000 6.8327 0.0000
# 3 31.5525 36.2674 137.4746 0.0000 0.0887 0.0000
# 4 0.0000 0.0000 0.0000 47.6733 0.0000 -9.7461
# 5 8.1264 6.8327 0.0887 0.0000 36.4623 0.0000
# 6 0.0000 0.0000 0.0000 -9.7461 0.0000 14.5746
#
#
#
# Elastic Compliance Matrix: (Units=1/GPa)
#
#
# Indices 1 2 3 4 5 6 
#
# 1 0.016370 -0.003271 -0.002892 0.000000 -0.003028 0.000000
# 2 -0.003271 0.013430 -0.002791 0.000000 -0.001781 0.000000
# 3 -0.002892 -0.002791 0.008674 0.000000 0.001147 0.000000
# 4 0.000000 0.000000 0.000000 0.024298 0.000000 0.016248
# 5 -0.003028 -0.001781 0.001147 0.000000 0.028431 0.000000
# 6 0.000000 0.000000 0.000000 0.016248 0.000000 0.079478
#
#
# Mechanical properties :
#
#
# Convention : Reuss Voigt Hill
#
# Bulk Modulus (GPa) = 48.62580 54.04747 51.33663
# Shear Modulus (GPa) = 25.58265 33.51140 29.54703
#
# Velocity S-wave (km/s) = 3.60916 4.13075 3.87873
# Velocity P-wave (km/s) = 6.49053 7.09016 6.79696
#
# Compressibility (1/GPa) = 0.02056522
#
# Stress axis : x y z
#
# Youngs Moduli (GPa) = 61.08611 74.45887 115.29333
#
# Poissons Ratio (x) = 0.24354 0.33347
# Poissons Ratio (y) = 0.19980 0.32181
# Poissons Ratio (z) = 0.17669 0.20783
#
# Static dielectric constant tensor:
#      x y z
#    x 1.716140 0.000000 -0.037680 
#    y 0.000000 1.801460 0.000000 
#    z -0.037680 0.000000 1.759220 
# 
# From -- ./inp_files/87940.got.cif
#   From: 2010.05.17/outbox.cif.g08.bks.cpg/sg13_44_cif.got.tgz:87940.got - 2010.06.03 16:44:36.
