data_PCOD9229225
_publ_section_title
;
Structure prediction by ZEFSAII (Michael W. Deem and Ramdas Pophale) SiO2 
 PCOD9229225
Probable space group: P 2/C
;
_chemical_formula_sum "Si O2"
_cell_formula_units_Z 32
_cell_length_a 13.026619
_cell_length_b 15.976492
_cell_length_c 15.596126
_cell_angle_alpha 90.000000
_cell_angle_beta 153.923905
_cell_angle_gamma 90.000000
_cell_volume 1426.764975
_symmetry_space_group_name_H-M "P 2/C"
_symmetry_group_IT_number 13
_symmetry_cell_setting 'monoclinic'
loop_
_space_group_symop_operation_xyz
x,y,z
-x,y,1/2-z
-x,-y,-z
x,-y,1/2+z
loop_
_atom_site_type_symbol
_atom_site_label
_atom_site_fract_x
_atom_site_fract_y
_atom_site_fract_z
Si Si1 0.255763 0.672830 0.982291
Si Si2 0.857646 0.901884 0.337429
Si Si3 0.261546 0.499091 0.083443
Si Si4 0.071794 0.268244 0.515946
Si Si5 0.208078 0.578892 0.231899
Si Si6 0.635103 0.957108 0.778654
Si Si7 0.277132 0.177379 0.934032
Si Si8 0.562408 0.683886 0.563850
O O1 0.000000 0.675173 0.750000
O O2 0.242648 0.720070 0.063032
O O3 0.294220 0.577667 0.043401
O O4 0.408412 0.706366 0.016968
O O5 0.716973 0.864098 0.154651
O O6 0.915685 0.828290 0.448261
O O7 0.114451 0.927989 0.498685
O O8 0.714120 0.980916 0.263409
O O9 0.500000 0.446968 0.250000
O O10 0.245513 0.529442 0.170789
O O11 0.009701 0.458374 0.880010
O O12 0.128982 0.328747 0.638673
O O13 0.819390 0.302110 0.294882
O O14 0.442138 0.593456 0.462190
O O15 0.500000 0.008072 0.750000
O O16 0.459145 0.880974 0.623701
O O17 0.394321 0.266303 0.002473
O O18 0.000000 0.182225 0.750000
#
# Coordination Sequence:
#
# PCOD9229225 Si02
#       8
#     4   4   4   4   4   4   4   4
#     4   9  20  38  63  94 130 165 215 280 336 387
#     4  11  23  42  69  95 130 169 221 270 331 395
#     4  10  19  38  61  89 128 172 215 272 341 392
#     4  10  21  40  64  97 126 166 219 276 331 397
#     4  10  21  38  61  90 126 170 219 268 332 400
#     4  11  24  44  67  96 134 174 213 272 336 395
#     4  12  24  42  67  94 133 180 218 273 328 400
#     4  11  21  40  65  93 131 172 221 274 331 397
#
# _framework density 22.428360000000001
#
# number of rings (size 3 to 8) (size 9 to 14) (size 15 to 20)
#    0.000    1.500    5.000    0.375    0.000    1.000 
#    4.500    3.125    0.000    0.000    0.000    0.000 
#    0.000    0.000    0.000    0.000    0.000    0.000 
#
# Total GULP energy -178353.664111 kJ/mol
# GULP energy per Si atom -5573.552003 kJ/mol
# Density = 2.237731 g / cm^3
# Si number density = 22.428360 Si / 1000 Ang^3
#
#
#
# Elastic Constant Matrix: (Units=GPa)
#
#
# Indices 1 2 3 4 5 6 
#
# 1 81.1311 21.7194 32.6279 0.0000 35.2688 0.0000
# 2 21.7194 44.0661 12.1184 0.0000 7.7660 0.0000
# 3 32.6279 12.1184 77.3452 0.0000 20.4072 0.0000
# 4 0.0000 0.0000 0.0000 20.5139 0.0000 -2.6525
# 5 35.2688 7.7660 20.4072 0.0000 43.9775 0.0000
# 6 0.0000 0.0000 0.0000 -2.6525 0.0000 -4.8962
#
#
#
# Elastic Compliance Matrix: (Units=1/GPa)
#
#
# Indices 1 2 3 4 5 6 
#
# 1 0.022420 -0.007245 -0.004463 0.000000 -0.014630 0.000000
# 2 -0.007245 0.026364 -0.001572 0.000000 0.001884 0.000000
# 3 -0.004463 -0.001572 0.015999 0.000000 -0.003568 0.000000
# 4 0.000000 0.000000 0.000000 0.045556 0.000000 -0.024680
# 5 -0.014630 0.001884 -0.003568 0.000000 0.035795 0.000000
# 6 0.000000 0.000000 0.000000 -0.024680 0.000000 -0.190869
#
#
# Mechanical properties :
#
#
# Convention : Reuss Voigt Hill
#
# Bulk Modulus (GPa) = 26.16071 37.27489 31.71780
# Shear Modulus (GPa) = -919.95220 20.99080 -449.48070
#
# Velocity S-wave (km/s) = -20.27472 3.06257 -14.17189
# Velocity P-wave (km/s) = 23.16022 5.40013 15.92537
#
# Compressibility (1/GPa) = 0.03822526
#
# Stress axis : x y z
#
# Youngs Moduli (GPa) = 44.60371 37.93021 62.50324
#
# Poissons Ratio (x) = 0.27479 0.27893
# Poissons Ratio (y) = 0.32314 0.09823
# Poissons Ratio (z) = 0.19905 0.05961
#
# Static dielectric constant tensor:
#      x y z
#    x 1.830980 0.000000 0.018470 
#    y 0.000000 1.865740 0.000000 
#    z 0.018470 0.000000 1.884580 
# 
# From -- ./inp_files/51662.got.cif
#   From: 2010.05.17/outbox.cif.g08.bks.cpg/sg13_26_cif.got.tgz:51662.got - 2010.06.03 16:44:36.
