data_PCOD9229619
_publ_section_title
;
Structure prediction by ZEFSAII (Michael W. Deem and Ramdas Pophale) SiO2 
 PCOD9229619
Probable space group: P 2/C
;
_chemical_formula_sum "Si O2"
_cell_formula_units_Z 18
_cell_length_a 24.557211
_cell_length_b 3.898936
_cell_length_c 12.617248
_cell_angle_alpha 90.000000
_cell_angle_beta 152.068379
_cell_angle_gamma 90.000000
_cell_volume 565.878099
_symmetry_space_group_name_H-M "P 2/C"
_symmetry_group_IT_number 13
_symmetry_cell_setting 'monoclinic'
loop_
_space_group_symop_operation_xyz
x,y,z
-x,y,1/2-z
-x,-y,-z
x,-y,1/2+z
loop_
_atom_site_type_symbol
_atom_site_label
_atom_site_fract_x
_atom_site_fract_y
_atom_site_fract_z
Si Si1 0.277328 0.786928 0.468926
Si Si2 0.500000 0.171944 0.250000
Si Si3 0.053245 0.775764 0.187046
Si Si4 0.827926 0.234852 0.403544
Si Si5 0.601037 0.270442 0.118653
O O1 0.165737 0.596172 0.326998
O O2 0.339381 0.937555 0.681054
O O3 0.390465 0.620672 0.608522
O O4 0.225586 0.019077 0.285870
O O5 0.548503 0.954379 0.432800
O O6 0.113195 0.950881 0.393201
O O7 0.941733 0.587604 0.046828
O O8 0.000000 0.000000 0.000000
O O9 0.717910 0.430802 0.265853
O O10 0.500000 0.500000 0.000000
#
# Coordination Sequence:
#
# PCOD9229619 Si02
#       5
#     4   2   4   4   4
#     4   9  17  30  50  76 105 140 180 222 267 323
#     4  10  20  34  50  74 108 146 188 226 268 326
#     4   8  13  25  48  80 106 134 177 223 266 317
#     4   8  15  28  49  79 109 140 176 219 269 327
#     4  10  20  33  50  78 111 146 183 227 277 327
#
# _framework density 31.808971
#
# number of rings (size 3 to 8) (size 9 to 14) (size 15 to 20)
#    0.000    3.111    0.000    0.667    0.000    0.889 
#    0.000    0.000    0.000    0.000    0.000  244.222 
#    0.000    0.000    0.000    0.000    0.000    0.000 
#
# Total GULP energy -100357.539957 kJ/mol
# GULP energy per Si atom -5575.418887 kJ/mol
# Density = 3.173657 g / cm^3
# Si number density = 31.808971 Si / 1000 Ang^3
#
#
#
# Elastic Constant Matrix: (Units=GPa)
#
#
# Indices 1 2 3 4 5 6 
#
# 1 339.7554 80.7983 154.1090 0.0000 82.3266 0.0000
# 2 80.7983 68.0857 88.8436 0.0000 -10.9194 0.0000
# 3 154.1090 88.8436 299.9469 0.0000 -57.8803 0.0000
# 4 0.0000 0.0000 0.0000 70.1448 0.0000 -18.6282
# 5 82.3266 -10.9194 -57.8803 0.0000 195.6486 0.0000
# 6 0.0000 0.0000 0.0000 -18.6282 0.0000 68.9228
#
#
#
# Elastic Compliance Matrix: (Units=1/GPa)
#
#
# Indices 1 2 3 4 5 6 
#
# 1 0.005923 -0.004471 -0.002384 0.000000 -0.003447 0.000000
# 2 -0.004471 0.027436 -0.005484 0.000000 0.001790 0.000000
# 3 -0.002384 -0.005484 0.006700 0.000000 0.002679 0.000000
# 4 0.000000 0.000000 0.000000 0.015359 0.000000 0.004151
# 5 -0.003447 0.001790 0.002679 0.000000 0.007454 0.000000
# 6 0.000000 0.000000 0.000000 0.004151 0.000000 0.015631
#
#
# Mechanical properties :
#
#
# Convention : Reuss Voigt Hill
#
# Bulk Modulus (GPa) = 65.01358 150.58777 107.80067
# Shear Modulus (GPa) = 46.16400 92.54571 69.35485
#
# Velocity S-wave (km/s) = 3.81371 5.39976 4.67449
# Velocity P-wave (km/s) = 6.31472 9.29089 7.94343
#
# Compressibility (1/GPa) = 0.01538140
#
# Stress axis : x y z
#
# Youngs Moduli (GPa) = 168.82184 36.44819 149.24687
#
# Poissons Ratio (x) = 0.16296 0.35585
# Poissons Ratio (y) = 0.75481 0.81845
# Poissons Ratio (z) = 0.40252 0.19988
#
# Static dielectric constant tensor:
#      x y z
#    x 2.384020 0.000000 -0.011040 
#    y 0.000000 2.570670 0.000000 
#    z -0.011040 0.000000 2.365430 
# 
# From -- ./inp_files/41371.got.cif
#   From: 2010.05.17/outbox.cif.g08.bks.cpg/sg13_21_cif.got.tgz:41371.got - 2010.06.03 16:44:36.
