data_PCOD9229315
_publ_section_title
;
Structure prediction by ZEFSAII (Michael W. Deem and Ramdas Pophale) SiO2 
 PCOD9229315
Probable space group: P 2/C
;
_chemical_formula_sum "Si O2"
_cell_formula_units_Z 22
_cell_length_a 17.282242
_cell_length_b 7.321335
_cell_length_c 14.261363
_cell_angle_alpha 90.000000
_cell_angle_beta 145.876376
_cell_angle_gamma 90.000000
_cell_volume 1012.276279
_symmetry_space_group_name_H-M "P 2/C"
_symmetry_group_IT_number 13
_symmetry_cell_setting 'monoclinic'
loop_
_space_group_symop_operation_xyz
x,y,z
-x,y,1/2-z
-x,-y,-z
x,-y,1/2+z
loop_
_atom_site_type_symbol
_atom_site_label
_atom_site_fract_x
_atom_site_fract_y
_atom_site_fract_z
Si Si1 0.671891 0.094690 0.596067
Si Si2 0.500000 0.188927 0.250000
Si Si3 0.624396 0.495526 0.757546
Si Si4 0.928117 0.470101 0.077277
Si Si5 0.577411 0.722471 0.536772
Si Si6 0.028983 0.211962 0.553760
O O1 0.599638 0.088220 0.421960
O O2 0.556457 0.185469 0.547525
O O3 0.812977 0.204085 0.748635
O O4 0.687092 0.882508 0.637618
O O5 0.404307 0.322371 0.214218
O O6 0.635538 0.564522 0.661086
O O7 0.488963 0.368424 0.621831
O O8 0.768593 0.414816 0.931396
O O9 0.000000 0.464072 0.250000
O O10 0.943746 0.672908 0.046350
O O11 0.983339 0.329804 0.054102
O O12 0.000000 0.000000 0.500000
#
# Coordination Sequence:
#
# PCOD9229315 Si02
#       6
#     4   2   4   4   4   4
#     4  10  19  39  56  90 118 156 203 256 310 379
#     4  10  22  34  62  92 120 152 202 264 316 370
#     4  10  19  39  58  89 118 160 202 254 319 380
#     4  11  24  43  66  94 132 174 215 271 321 388
#     4   9  19  34  64  80 118 156 195 251 319 365
#     4  11  24  43  66  94 128 177 221 262 323 391
#
# _framework density 21.733198999999999
#
# number of rings (size 3 to 8) (size 9 to 14) (size 15 to 20)
#    0.000    1.818    1.818    2.182    0.000    1.455 
#    6.545    0.000    0.000    0.000    0.000    0.000 
#    0.000    0.000    0.000    0.000    0.000    0.000 
#
# Total GULP energy -122733.751049 kJ/mol
# GULP energy per Si atom -5578.806866 kJ/mol
# Density = 2.168373 g / cm^3
# Si number density = 21.733199 Si / 1000 Ang^3
#
#
#
# Elastic Constant Matrix: (Units=GPa)
#
#
# Indices 1 2 3 4 5 6 
#
# 1 33.0613 7.1104 23.5112 0.0000 -13.9610 0.0000
# 2 7.1104 101.2827 5.1550 0.0000 -15.8177 0.0000
# 3 23.5112 5.1550 101.1558 0.0000 -21.1660 0.0000
# 4 0.0000 0.0000 0.0000 29.6252 0.0000 5.4181
# 5 -13.9610 -15.8177 -21.1660 0.0000 36.0175 0.0000
# 6 0.0000 0.0000 0.0000 5.4181 0.0000 10.5521
#
#
#
# Elastic Compliance Matrix: (Units=1/GPa)
#
#
# Indices 1 2 3 4 5 6 
#
# 1 0.040035 -0.000720 -0.006941 0.000000 0.011123 0.000000
# 2 -0.000720 0.010635 0.000621 0.000000 0.004756 0.000000
# 3 -0.006941 0.000621 0.012498 0.000000 0.004927 0.000000
# 4 0.000000 0.000000 0.000000 0.037253 0.000000 -0.019128
# 5 0.011123 0.004756 0.004927 0.000000 0.037060 0.000000
# 6 0.000000 0.000000 0.000000 -0.019128 0.000000 0.104589
#
#
# Mechanical properties :
#
#
# Convention : Reuss Voigt Hill
#
# Bulk Modulus (GPa) = 20.37204 34.11701 27.24453
# Shear Modulus (GPa) = 18.34768 28.55383 23.45075
#
# Velocity S-wave (km/s) = 2.90870 3.62862 3.28842
# Velocity P-wave (km/s) = 4.54695 5.76958 5.19436
#
# Compressibility (1/GPa) = 0.04908688
#
# Stress axis : x y z
#
# Youngs Moduli (GPa) = 24.97834 94.02815 80.01104
#
# Poissons Ratio (x) = 0.06772 0.55536
# Poissons Ratio (y) = 0.01799 -0.04965
# Poissons Ratio (z) = 0.17337 -0.05835
#
# Static dielectric constant tensor:
#      x y z
#    x 1.819720 0.000000 -0.037350 
#    y 0.000000 1.798610 0.000000 
#    z -0.037350 0.000000 1.871260 
# 
# From -- ./inp_files/55381.got.cif
#   From: 2010.05.17/outbox.cif.g08.bks.cpg/sg13_28_cif.got.tgz:55381.got - 2010.06.03 16:44:36.
