data_PCOD9229621
_publ_section_title
;
Structure prediction by ZEFSAII (Michael W. Deem and Ramdas Pophale) SiO2 
 PCOD9229621
Probable space group: P 2/C
;
_chemical_formula_sum "Si O2"
_cell_formula_units_Z 26
_cell_length_a 20.220075
_cell_length_b 5.337071
_cell_length_c 13.698098
_cell_angle_alpha 90.000000
_cell_angle_beta 138.159152
_cell_angle_gamma 90.000000
_cell_volume 986.082765
_symmetry_space_group_name_H-M "P 2/C"
_symmetry_group_IT_number 13
_symmetry_cell_setting 'monoclinic'
loop_
_space_group_symop_operation_xyz
x,y,z
-x,y,1/2-z
-x,-y,-z
x,-y,1/2+z
loop_
_atom_site_type_symbol
_atom_site_label
_atom_site_fract_x
_atom_site_fract_y
_atom_site_fract_z
Si Si1 0.556474 0.745303 0.176340
Si Si2 0.000000 0.709382 0.250000
Si Si3 0.193074 0.033430 0.963482
Si Si4 0.879337 0.477920 0.800425
Si Si5 0.287130 0.543038 0.035635
Si Si6 0.628864 0.756608 0.654601
Si Si7 0.166005 0.970262 0.699300
O O1 0.602810 0.654999 0.330720
O O2 0.614127 0.528960 0.176271
O O3 0.582983 0.030226 0.175888
O O4 0.442478 0.741419 0.018980
O O5 0.052024 0.559435 0.219547
O O6 0.087660 0.883284 0.388100
O O7 0.181327 0.010016 0.833127
O O8 0.227006 0.758094 0.028159
O O9 0.267132 0.267939 0.057489
O O10 0.767814 0.517722 0.629799
O O11 0.905583 0.732520 0.884091
O O12 0.871770 0.246009 0.865465
O O13 0.734477 0.877921 0.743110
#
# Coordination Sequence:
#
# PCOD9229621 Si02
#       7
#     4   2   4   4   4   4   4
#     4  10  20  33  51  71  94 130 171 203 230 275
#     4   8  16  30  48  78  98 118 160 190 236 300
#     4   9  18  29  51  74  96 124 151 195 245 288
#     4   9  18  29  51  74  96 124 151 195 245 288
#     4   9  17  31  46  72  99 120 158 196 239 286
#     4  10  20  33  51  71  94 130 171 203 230 275
#     4   9  17  31  46  72  99 120 158 196 239 286
#
# _framework density 26.366955999999998
#
# number of rings (size 3 to 8) (size 9 to 14) (size 15 to 20)
#    0.000    3.077    0.000    1.846    0.000    9.846 
#    0.000    3.077    0.000   11.077    0.000  114.154 
#    0.000    0.000    0.000    0.000    0.000    0.000 
#
# Total GULP energy -144985.681762 kJ/mol
# GULP energy per Si atom -5576.372375 kJ/mol
# Density = 2.630694 g / cm^3
# Si number density = 26.366956 Si / 1000 Ang^3
#
#
#
# Elastic Constant Matrix: (Units=GPa)
#
#
# Indices 1 2 3 4 5 6 
#
# 1 43.9094 8.1187 8.6208 0.0000 -9.4323 0.0000
# 2 8.1187 201.8651 24.6406 0.0000 -4.4145 0.0000
# 3 8.6208 24.6406 100.2306 0.0000 10.3740 0.0000
# 4 0.0000 0.0000 0.0000 13.6745 0.0000 17.6422
# 5 -9.4323 -4.4145 10.3740 0.0000 41.0268 0.0000
# 6 0.0000 0.0000 0.0000 17.6422 0.0000 18.8736
#
#
#
# Elastic Compliance Matrix: (Units=1/GPa)
#
#
# Indices 1 2 3 4 5 6 
#
# 1 0.024747 -0.000534 -0.002649 0.000000 0.006302 0.000000
# 2 -0.000534 0.005150 -0.001299 0.000000 0.000760 0.000000
# 3 -0.002649 -0.001299 0.010887 0.000000 -0.003502 0.000000
# 4 0.000000 0.000000 0.000000 -0.355037 0.000000 0.331872
# 5 0.006302 0.000760 -0.003502 0.000000 0.026790 0.000000
# 6 0.000000 0.000000 0.000000 0.331872 0.000000 -0.257234
#
#
# Mechanical properties :
#
#
# Convention : Reuss Voigt Hill
#
# Bulk Modulus (GPa) = 31.42764 47.64058 39.53411
# Shear Modulus (GPa) = -9.52152 35.02332 12.75090
#
# Velocity S-wave (km/s) = -1.90237 3.64854 2.20146
# Velocity P-wave (km/s) = 2.66831 5.98804 4.63555
#
# Compressibility (1/GPa) = 0.03181912
#
# Stress axis : x y z
#
# Youngs Moduli (GPa) = 40.40923 194.15784 91.85594
#
# Poissons Ratio (x) = 0.10369 0.24337
# Poissons Ratio (y) = 0.02158 0.11931
# Poissons Ratio (z) = 0.10706 0.25219
#
# Static dielectric constant tensor:
#      x y z
#    x 2.040850 0.000000 -0.063810 
#    y 0.000000 2.115250 0.000000 
#    z -0.063810 0.000000 2.303030 
# 
# From -- ./inp_files/70849.got.cif
#   From: 2010.05.17/outbox.cif.g08.bks.cpg/sg13_36_cif.got.tgz:70849.got - 2010.06.03 16:44:36.
