data_PCOD9229958
_publ_section_title
;
Structure prediction by ZEFSAII (Michael W. Deem and Ramdas Pophale) SiO2 
 PCOD9229958
Probable space group: P 2/C
;
_chemical_formula_sum "Si O2"
_cell_formula_units_Z 24
_cell_length_a 15.332046
_cell_length_b 14.461512
_cell_length_c 10.350334
_cell_angle_alpha 90.000000
_cell_angle_beta 154.768915
_cell_angle_gamma 90.000000
_cell_volume 978.257264
_symmetry_space_group_name_H-M "P 2/C"
_symmetry_group_IT_number 13
_symmetry_cell_setting 'monoclinic'
loop_
_space_group_symop_operation_xyz
x,y,z
-x,y,1/2-z
-x,-y,-z
x,-y,1/2+z
loop_
_atom_site_type_symbol
_atom_site_label
_atom_site_fract_x
_atom_site_fract_y
_atom_site_fract_z
Si Si1 0.187641 0.018843 0.104426
Si Si2 0.233910 0.630641 0.516347
Si Si3 0.039238 0.148460 0.530889
Si Si4 0.342207 0.176023 0.155150
Si Si5 0.690606 0.427114 0.913884
Si Si6 0.098115 0.349521 0.547014
O O1 0.000000 0.012441 0.750000
O O2 0.140221 0.077474 0.172415
O O3 0.350092 0.084009 0.250965
O O4 0.200863 0.913241 0.168162
O O5 0.337377 0.722857 0.713578
O O6 0.335198 0.531599 0.673041
O O7 0.223032 0.641100 0.346462
O O8 0.000000 0.626006 0.250000
O O9 0.004080 0.245976 0.418216
O O10 0.126668 0.172065 0.789474
O O11 0.500000 0.176260 0.250000
O O12 0.500000 0.402304 0.750000
O O13 0.752631 0.366462 0.873056
O O14 0.904186 0.418571 0.280854
#
# Coordination Sequence:
#
# PCOD9229958 Si02
#       6
#     4   4   4   4   4   4
#     4   9  18  35  60  81 106 152 195 236 288 362
#     4  11  21  41  64  85 118 162 203 245 297 357
#     4   9  19  37  59  81 110 154 197 233 295 355
#     4  10  20  35  55  87 119 146 192 247 293 348
#     4  11  24  40  61  91 122 158 204 249 302 354
#     4  10  22  42  61  87 123 161 197 248 298 363
#
# _framework density 24.533425000000001
#
# number of rings (size 3 to 8) (size 9 to 14) (size 15 to 20)
#    0.000    2.000    1.667    3.500    2.333    1.333 
#   12.000    0.833    0.000    0.000    0.000    0.000 
#    0.000    0.000    0.000    0.000    0.000    0.000 
#
# Total GULP energy -133973.556959 kJ/mol
# GULP energy per Si atom -5582.231540 kJ/mol
# Density = 2.447759 g / cm^3
# Si number density = 24.533425 Si / 1000 Ang^3
#
#
#
# Elastic Constant Matrix: (Units=GPa)
#
#
# Indices 1 2 3 4 5 6 
#
# 1 124.9623 28.7301 22.7546 0.0000 30.4215 0.0000
# 2 28.7301 145.0415 7.9250 0.0000 1.0444 0.0000
# 3 22.7546 7.9250 51.9972 0.0000 12.7557 0.0000
# 4 0.0000 0.0000 0.0000 12.6056 0.0000 -0.0066
# 5 30.4215 1.0444 12.7557 0.0000 41.5555 0.0000
# 6 0.0000 0.0000 0.0000 -0.0066 0.0000 42.7078
#
#
#
# Elastic Compliance Matrix: (Units=1/GPa)
#
#
# Indices 1 2 3 4 5 6 
#
# 1 0.010604 -0.001906 -0.002658 0.000000 -0.006899 0.000000
# 2 -0.001906 0.007296 -0.000622 0.000000 0.001403 0.000000
# 3 -0.002658 -0.000622 0.021638 0.000000 -0.004681 0.000000
# 4 0.000000 0.000000 0.000000 0.079330 0.000000 0.000012
# 5 -0.006899 0.001403 -0.004681 0.000000 0.030516 0.000000
# 6 0.000000 0.000000 0.000000 0.000012 0.000000 0.023415
#
#
# Mechanical properties :
#
#
# Convention : Reuss Voigt Hill
#
# Bulk Modulus (GPa) = 34.28499 48.98003 41.63251
# Shear Modulus (GPa) = 25.92125 36.87987 31.40056
#
# Velocity S-wave (km/s) = 3.25402 3.88138 3.58146
# Velocity P-wave (km/s) = 5.30314 6.33205 5.84030
#
# Compressibility (1/GPa) = 0.02916728
#
# Stress axis : x y z
#
# Youngs Moduli (GPa) = 94.30392 137.06266 46.21530
#
# Poissons Ratio (x) = 0.26118 0.12282
# Poissons Ratio (y) = 0.17970 0.02875
# Poissons Ratio (z) = 0.25061 0.08528
#
# Static dielectric constant tensor:
#      x y z
#    x 1.952160 0.000000 0.003060 
#    y 0.000000 2.030720 0.000000 
#    z 0.003060 0.000000 2.070610 
# 
# From -- ./inp_files/34332.got.cif
#   From: 2010.05.17/outbox.cif.g08.bks.cpg/sg13_18_cif.got.tgz:34332.got - 2010.06.03 16:44:36.
