data_PCOD9229060
_publ_section_title
;
Structure prediction by ZEFSAII (Michael W. Deem and Ramdas Pophale) SiO2 
 PCOD9229060
Probable space group: P 2/C
;
_chemical_formula_sum "Si O2"
_cell_formula_units_Z 28
_cell_length_a 18.073107
_cell_length_b 8.663886
_cell_length_c 19.874479
_cell_angle_alpha 90.000000
_cell_angle_beta 27.283321
_cell_angle_gamma 90.000000
_cell_volume 1426.517970
_symmetry_space_group_name_H-M "P 2/C"
_symmetry_group_IT_number 13
_symmetry_cell_setting 'monoclinic'
loop_
_space_group_symop_operation_xyz
x,y,z
-x,y,1/2-z
-x,-y,-z
x,-y,1/2+z
loop_
_atom_site_type_symbol
_atom_site_label
_atom_site_fract_x
_atom_site_fract_y
_atom_site_fract_z
Si Si1 0.432028 0.876490 0.416875
Si Si2 0.352066 0.319075 0.670138
Si Si3 0.256562 0.362739 0.317367
Si Si4 0.748627 0.911354 0.065075
Si Si5 0.402951 0.222403 0.479840
Si Si6 0.047406 0.828549 0.482620
Si Si7 0.693858 0.260830 0.083548
O O1 0.485416 0.748925 0.427250
O O2 0.592401 0.901930 0.240815
O O3 0.297953 0.838905 0.469080
O O4 0.382883 0.036829 0.492595
O O5 0.309665 0.483024 0.736783
O O6 0.363717 0.304966 0.581053
O O7 0.202691 0.214012 0.813234
O O8 0.406155 0.247096 0.186232
O O9 0.244787 0.376729 0.408429
O O10 0.095072 0.290092 0.418021
O O11 0.774013 0.094311 0.032726
O O12 0.893900 0.833477 0.987622
O O13 0.300756 0.293384 0.500263
O O14 0.000000 0.000000 0.500000
O O15 0.500000 0.241890 0.250000
#
# Coordination Sequence:
#
# PCOD9229060 Si02
#       7
#     4   4   4   4   4   4   4
#     4   9  16  32  56  82 116 139 195 243 277 332
#     4  11  23  34  56  93 115 146 188 247 298 336
#     4  11  20  37  57  84 119 151 188 236 292 357
#     4   9  14  31  55  83 103 146 198 239 262 329
#     4  10  19  37  60  84 113 148 194 240 288 341
#     4  11  21  36  59  81 113 155 197 233 284 346
#     4   9  15  32  59  82 106 148 197 236 274 340
#
# _framework density 19.628212999999999
#
# number of rings (size 3 to 8) (size 9 to 14) (size 15 to 20)
#    0.000    2.000    5.714    2.143    0.000    0.000 
#   15.429    0.714    0.000    2.571    0.000    0.000 
#    0.000    0.000    0.000    0.000    0.000    0.000 
#
# Total GULP energy -156076.738290 kJ/mol
# GULP energy per Si atom -5574.169225 kJ/mol
# Density = 1.958354 g / cm^3
# Si number density = 19.628213 Si / 1000 Ang^3
#
#
#
# Elastic Constant Matrix: (Units=GPa)
#
#
# Indices 1 2 3 4 5 6 
#
# 1 219.9259 62.0623 45.1871 0.0000 11.9195 0.0000
# 2 62.0623 50.2990 10.2832 0.0000 3.3358 0.0000
# 3 45.1871 10.2832 20.2191 0.0000 -2.0707 0.0000
# 4 0.0000 0.0000 0.0000 -33.0113 0.0000 30.6970
# 5 11.9195 3.3358 -2.0707 0.0000 30.8871 0.0000
# 6 0.0000 0.0000 0.0000 30.6970 0.0000 -0.0974
#
#
#
# Elastic Compliance Matrix: (Units=1/GPa)
#
#
# Indices 1 2 3 4 5 6 
#
# 1 0.012550 -0.010367 -0.023316 0.000000 -0.005286 0.000000
# 2 -0.010367 0.031066 0.007487 0.000000 0.001148 0.000000
# 3 -0.023316 0.007487 0.099278 0.000000 0.014845 0.000000
# 4 0.000000 0.000000 0.000000 0.000104 0.000000 0.032688
# 5 -0.005286 0.001148 0.014845 0.000000 0.035287 0.000000
# 6 0.000000 0.000000 0.000000 0.032688 0.000000 0.035153
#
#
# Mechanical properties :
#
#
# Convention : Reuss Voigt Hill
#
# Bulk Modulus (GPa) = 11.04939 58.38994 34.71967
# Shear Modulus (GPa) = 16.89209 11.08309 13.98759
#
# Velocity S-wave (km/s) = 2.93679 2.37882 2.67240
# Velocity P-wave (km/s) = 4.14019 6.11208 5.22009
#
# Compressibility (1/GPa) = 0.09050270
#
# Stress axis : x y z
#
# Youngs Moduli (GPa) = 79.68320 32.18931 10.07270
#
# Poissons Ratio (x) = 0.33372 0.23485
# Poissons Ratio (y) = 0.82611 -0.07542
# Poissons Ratio (z) = 1.85787 -0.24101
#
# Static dielectric constant tensor:
#      x y z
#    x 1.755510 0.000000 0.016580 
#    y 0.000000 1.708830 0.000000 
#    z 0.016580 0.000000 1.691470 
# 
# From -- ./inp_files/80842.got.cif
#   From: 2010.05.17/outbox.cif.g08.bks.cpg/sg13_41_cif.got.tgz:80842.got - 2010.06.03 16:44:36.
