data_PCOD9229579
_publ_section_title
;
Structure prediction by ZEFSAII (Michael W. Deem and Ramdas Pophale) SiO2 
 PCOD9229579
Probable space group: P 2/C
;
_chemical_formula_sum "Si O2"
_cell_formula_units_Z 30
_cell_length_a 8.724457
_cell_length_b 9.213474
_cell_length_c 21.986693
_cell_angle_alpha 90.000000
_cell_angle_beta 40.724161
_cell_angle_gamma 90.000000
_cell_volume 1153.048822
_symmetry_space_group_name_H-M "P 2/C"
_symmetry_group_IT_number 13
_symmetry_cell_setting 'monoclinic'
loop_
_space_group_symop_operation_xyz
x,y,z
-x,y,1/2-z
-x,-y,-z
x,-y,1/2+z
loop_
_atom_site_type_symbol
_atom_site_label
_atom_site_fract_x
_atom_site_fract_y
_atom_site_fract_z
Si Si1 0.128473 0.476397 0.560810
Si Si2 0.503845 0.581287 0.679092
Si Si3 0.049536 0.276106 0.304328
Si Si4 0.026216 0.299896 0.995215
Si Si5 0.983986 0.037437 0.419774
Si Si6 0.500000 0.902717 0.250000
Si Si7 0.680668 0.721406 0.305260
Si Si8 0.213064 0.781225 0.095668
O O1 0.945816 0.366063 0.580597
O O2 0.312485 0.361200 0.531240
O O3 0.038659 0.569350 0.644189
O O4 0.172083 0.600461 0.497874
O O5 0.500000 0.531305 0.750000
O O6 0.327762 0.716059 0.728431
O O7 0.757498 0.648933 0.588784
O O8 0.390122 0.448691 0.674995
O O9 0.943164 0.154406 0.378682
O O10 0.000000 0.250458 0.250000
O O11 0.050136 0.134379 0.008655
O O12 0.256729 0.990106 0.330939
O O13 0.819558 0.904905 0.445921
O O14 0.524148 0.804196 0.302899
O O15 0.654620 0.795218 0.379795
O O16 0.948560 0.744680 0.200503
#
# Coordination Sequence:
#
# PCOD9229579 Si02
#       8
#     4   4   4   4   4   2   4   4
#     4  10  20  39  59  85 119 152 198 237 293 347
#     4  12  18  35  60  88 112 146 199 248 285 338
#     4  11  22  36  59  88 118 151 190 243 294 348
#     4  10  22  37  60  89 117 151 195 250 286 349
#     4  10  21  35  55  86 116 152 193 237 299 343
#     4  10  20  32  54  86 116 146 186 248 286 334
#     4  10  20  32  57  88 114 147 198 243 288 340
#     4  10  20  36  56  83 117 155 192 237 288 357
#
# _framework density 26.017979
#
# number of rings (size 3 to 8) (size 9 to 14) (size 15 to 20)
#    0.000    1.600    4.667    1.600    5.600    0.533 
#    0.000    2.667    0.000    0.800    0.000    0.000 
#    0.000    0.000    0.000    0.000    0.000    0.000 
#
# Total GULP energy -167654.413235 kJ/mol
# GULP energy per Si atom -5588.480441 kJ/mol
# Density = 2.595876 g / cm^3
# Si number density = 26.017979 Si / 1000 Ang^3
#
#
#
# Elastic Constant Matrix: (Units=GPa)
#
#
# Indices 1 2 3 4 5 6 
#
# 1 76.3171 27.3584 3.6089 0.0000 21.9141 0.0000
# 2 27.3584 158.3331 13.6584 0.0000 8.3833 0.0000
# 3 3.6089 13.6584 44.9733 0.0000 -4.2162 0.0000
# 4 0.0000 0.0000 0.0000 38.3415 0.0000 34.8991
# 5 21.9141 8.3833 -4.2162 0.0000 30.9002 0.0000
# 6 0.0000 0.0000 0.0000 34.8991 0.0000 99.2208
#
#
#
# Elastic Compliance Matrix: (Units=1/GPa)
#
#
# Indices 1 2 3 4 5 6 
#
# 1 0.017436 -0.002217 -0.001852 0.000000 -0.012017 0.000000
# 2 -0.002217 0.006899 -0.001971 0.000000 -0.000568 0.000000
# 3 -0.001852 -0.001971 0.023456 0.000000 0.005049 0.000000
# 4 0.000000 0.000000 0.000000 0.038364 0.000000 -0.013494
# 5 -0.012017 -0.000568 0.005049 0.000000 0.041728 0.000000
# 6 0.000000 0.000000 0.000000 -0.013494 0.000000 0.014825
#
#
# Mechanical properties :
#
#
# Convention : Reuss Voigt Hill
#
# Bulk Modulus (GPa) = 28.00242 40.98609 34.49425
# Shear Modulus (GPa) = 29.99577 49.35903 39.67740
#
# Velocity S-wave (km/s) = 3.39910 4.36031 3.90936
# Velocity P-wave (km/s) = 5.11774 6.41381 5.80208
#
# Compressibility (1/GPa) = 0.03571120
#
# Stress axis : x y z
#
# Youngs Moduli (GPa) = 57.35232 144.95020 42.63327
#
# Poissons Ratio (x) = 0.32131 0.07898
# Poissons Ratio (y) = 0.12713 0.08401
# Poissons Ratio (z) = 0.10624 0.28564
#
# Static dielectric constant tensor:
#      x y z
#    x 2.125610 0.000000 0.022920 
#    y 0.000000 2.059740 0.000000 
#    z 0.022920 0.000000 2.213930 
# 
# From -- ./inp_files/82245.got.cif
#   From: 2010.05.17/outbox.cif.g08.bks.cpg/sg13_42_cif.got.tgz:82245.got - 2010.06.03 16:44:36.
