data_PCOD9229096
_publ_section_title
;
Structure prediction by ZEFSAII (Michael W. Deem and Ramdas Pophale) SiO2 
 PCOD9229096
Probable space group: P 2/C
;
_chemical_formula_sum "Si O2"
_cell_formula_units_Z 24
_cell_length_a 8.768408
_cell_length_b 8.534112
_cell_length_c 22.651393
_cell_angle_alpha 90.000000
_cell_angle_beta 44.331149
_cell_angle_gamma 90.000000
_cell_volume 1184.484967
_symmetry_space_group_name_H-M "P 2/C"
_symmetry_group_IT_number 13
_symmetry_cell_setting 'monoclinic'
loop_
_space_group_symop_operation_xyz
x,y,z
-x,y,1/2-z
-x,-y,-z
x,-y,1/2+z
loop_
_atom_site_type_symbol
_atom_site_label
_atom_site_fract_x
_atom_site_fract_y
_atom_site_fract_z
Si Si1 0.773093 0.160362 0.071746
Si Si2 0.166353 0.062615 0.041907
Si Si3 0.422563 0.631844 0.450467
Si Si4 0.638510 0.536151 0.654749
Si Si5 0.874606 0.187851 0.844576
Si Si6 0.928292 0.603314 0.430951
O O1 0.600811 0.283680 0.145279
O O2 0.925264 0.084631 0.079912
O O3 0.912705 0.270686 0.988147
O O4 0.696404 0.026972 0.047680
O O5 0.171282 0.961348 0.100255
O O6 0.267646 0.232770 0.018868
O O7 0.399923 0.583681 0.387916
O O8 0.659136 0.709689 0.391136
O O9 0.312086 0.474205 0.509007
O O10 0.500000 0.497252 0.750000
O O11 0.893530 0.523574 0.600788
O O12 0.004917 0.306016 0.851724
O O13 0.000000 0.148617 0.750000
#
# Coordination Sequence:
#
# PCOD9229096 Si02
#       6
#     4   4   4   4   4   4
#     4   9  18  36  60  84 107 150 193 234 281 346
#     4  10  19  37  62  79 114 153 194 229 280 356
#     4  11  20  39  61  85 109 157 199 228 281 352
#     4  11  20  35  59  89 117 142 191 252 289 321
#     4  11  24  38  54  86 122 150 188 239 294 335
#     4  10  19  38  62  81 110 153 197 234 279 348
#
# _framework density 20.261970999999999
#
# number of rings (size 3 to 8) (size 9 to 14) (size 15 to 20)
#    0.000    1.667    3.333    3.000    0.000    0.000 
#    3.000    0.833    0.000    0.000    0.000    0.000 
#    0.000    0.000    0.000    0.000    0.000    0.000 
#
# Total GULP energy -133645.107835 kJ/mol
# GULP energy per Si atom -5568.546160 kJ/mol
# Density = 2.021585 g / cm^3
# Si number density = 20.261971 Si / 1000 Ang^3
#
#
#
# Elastic Constant Matrix: (Units=GPa)
#
#
# Indices 1 2 3 4 5 6 
#
# 1 65.3122 23.1532 32.7575 0.0000 9.4183 0.0000
# 2 23.1532 84.1323 22.0611 0.0000 13.3011 0.0000
# 3 32.7575 22.0611 95.3669 0.0000 28.6298 0.0000
# 4 0.0000 0.0000 0.0000 15.3527 0.0000 8.1002
# 5 9.4183 13.3011 28.6298 0.0000 26.9932 0.0000
# 6 0.0000 0.0000 0.0000 8.1002 0.0000 31.4661
#
#
#
# Elastic Compliance Matrix: (Units=1/GPa)
#
#
# Indices 1 2 3 4 5 6 
#
# 1 0.019676 -0.004039 -0.006398 0.000000 0.001911 0.000000
# 2 -0.004039 0.013883 -0.000284 0.000000 -0.005131 0.000000
# 3 -0.006398 -0.000284 0.017660 0.000000 -0.016359 0.000000
# 4 0.000000 0.000000 0.000000 0.075372 0.000000 -0.019403
# 5 0.001911 -0.005131 -0.016359 0.000000 0.056258 0.000000
# 6 0.000000 0.000000 0.000000 -0.019403 0.000000 0.036775
#
#
# Mechanical properties :
#
#
# Convention : Reuss Voigt Hill
#
# Bulk Modulus (GPa) = 33.58240 44.52831 39.05536
# Shear Modulus (GPa) = 19.92089 25.88504 22.90297
#
# Velocity S-wave (km/s) = 3.13895 3.57812 3.36570
# Velocity P-wave (km/s) = 5.45412 6.25256 5.86694
#
# Compressibility (1/GPa) = 0.02977750
#
# Stress axis : x y z
#
# Youngs Moduli (GPa) = 50.82241 72.02916 56.62500
#
# Poissons Ratio (x) = 0.29095 0.36228
# Poissons Ratio (y) = 0.20529 0.01607
# Poissons Ratio (z) = 0.32515 0.02045
#
# Static dielectric constant tensor:
#      x y z
#    x 1.773890 0.000000 0.008550 
#    y 0.000000 1.728010 0.000000 
#    z 0.008550 0.000000 1.696580 
# 
# From -- ./inp_files/75591.got.cif
#   From: 2010.05.17/outbox.cif.g08.bks.cpg/sg13_38_cif.got.tgz:75591.got - 2010.06.03 16:44:36.
