data_PCOD9229066
_publ_section_title
;
Structure prediction by ZEFSAII (Michael W. Deem and Ramdas Pophale) SiO2 
 PCOD9229066
Probable space group: P 2/C
;
_chemical_formula_sum "Si O2"
_cell_formula_units_Z 28
_cell_length_a 25.214026
_cell_length_b 9.460933
_cell_length_c 8.836000
_cell_angle_alpha 90.000000
_cell_angle_beta 43.318420
_cell_angle_gamma 90.000000
_cell_volume 1446.069240
_symmetry_space_group_name_H-M "P 2/C"
_symmetry_group_IT_number 13
_symmetry_cell_setting 'monoclinic'
loop_
_space_group_symop_operation_xyz
x,y,z
-x,y,1/2-z
-x,-y,-z
x,-y,1/2+z
loop_
_atom_site_type_symbol
_atom_site_label
_atom_site_fract_x
_atom_site_fract_y
_atom_site_fract_z
Si Si1 0.942877 0.042929 0.984599
Si Si2 0.627955 0.172218 0.746042
Si Si3 0.301410 0.329589 0.377393
Si Si4 0.483273 0.651515 0.461363
Si Si5 0.847851 0.856617 0.953964
Si Si6 0.700060 0.944919 0.785845
Si Si7 0.739442 0.615168 0.192538
O O1 0.875138 0.114086 0.224343
O O2 0.908267 0.915420 0.953675
O O3 0.000000 0.126078 0.750000
O O4 0.000000 0.000000 0.000000
O O5 0.542335 0.232611 0.903364
O O6 0.667453 0.123124 0.506823
O O7 0.680183 0.297345 0.708892
O O8 0.633584 0.038292 0.845096
O O9 0.270771 0.178992 0.385336
O O10 0.266584 0.454177 0.347205
O O11 0.286179 0.367190 0.581747
O O12 0.393522 0.316734 0.167751
O O13 0.500000 0.640472 0.250000
O O14 0.500000 0.500000 0.500000
O O15 0.821927 0.693904 0.013562
O O16 0.771231 0.947322 0.152848
#
# Coordination Sequence:
#
# PCOD9229066 Si02
#       7
#     4   4   4   4   4   4   4
#     4   9  18  33  60  98 130 156 191 235 294 367
#     4  11  23  41  59  85 116 160 206 271 326 382
#     4  12  23  39  59  86 116 159 213 266 309 382
#     4  12  24  42  61  81 114 162 215 265 332 374
#     4  10  19  37  60  91 126 161 192 248 307 361
#     4  11  22  39  61  88 125 156 210 262 319 372
#     4  11  23  38  61  87 118 161 213 257 315 372
#
# _framework density 19.362835
#
# number of rings (size 3 to 8) (size 9 to 14) (size 15 to 20)
#    0.000    1.143    2.857    6.000    0.000    0.571 
#    0.000    0.000    0.000    0.000    0.000   63.000 
#    0.000    0.000    0.000    0.000    0.000    0.000 
#
# Total GULP energy -156275.317466 kJ/mol
# GULP energy per Si atom -5581.261338 kJ/mol
# Density = 1.931876 g / cm^3
# Si number density = 19.362835 Si / 1000 Ang^3
#
#
#
# Elastic Constant Matrix: (Units=GPa)
#
#
# Indices 1 2 3 4 5 6 
#
# 1 80.2261 25.7016 14.9533 0.0000 2.3856 0.0000
# 2 25.7016 84.9345 -4.4399 0.0000 -7.5485 0.0000
# 3 14.9533 -4.4399 97.1102 0.0000 6.8657 0.0000
# 4 0.0000 0.0000 0.0000 5.9570 0.0000 21.8105
# 5 2.3856 -7.5485 6.8657 0.0000 32.0760 0.0000
# 6 0.0000 0.0000 0.0000 21.8105 0.0000 3.0753
#
#
#
# Elastic Compliance Matrix: (Units=1/GPa)
#
#
# Indices 1 2 3 4 5 6 
#
# 1 0.014431 -0.004636 -0.002316 0.000000 -0.001669 0.000000
# 2 -0.004636 0.013527 0.001100 0.000000 0.003293 0.000000
# 3 -0.002316 0.001100 0.010838 0.000000 -0.001889 0.000000
# 4 0.000000 0.000000 0.000000 -0.006724 0.000000 0.047686
# 5 -0.001669 0.003293 -0.001889 0.000000 0.032479 0.000000
# 6 0.000000 0.000000 0.000000 0.047686 0.000000 -0.013024
#
#
# Mechanical properties :
#
#
# Convention : Reuss Voigt Hill
#
# Bulk Modulus (GPa) = 36.91352 37.18898 37.05125
# Shear Modulus (GPa) = 69.19104 23.29206 46.24155
#
# Velocity S-wave (km/s) = 5.98427 3.47209 4.89218
# Velocity P-wave (km/s) = 8.17644 5.94322 7.14759
#
# Compressibility (1/GPa) = 0.02709034
#
# Stress axis : x y z
#
# Youngs Moduli (GPa) = 69.29321 73.92682 92.26753
#
# Poissons Ratio (x) = 0.34275 0.21371
# Poissons Ratio (y) = 0.32127 -0.10145
# Poissons Ratio (z) = 0.16050 -0.08129
#
# Static dielectric constant tensor:
#      x y z
#    x 1.716130 0.000000 -0.029450 
#    y 0.000000 1.682260 0.000000 
#    z -0.029450 0.000000 1.617390 
# 
# From -- ./inp_files/24541.got.cif
#   From: 2010.05.17/outbox.cif.g08.bks.cpg/sg13_13_cif.got.tgz:24541.got - 2010.06.03 16:44:36.
