data_PCOD9229489
_publ_section_title
;
Structure prediction by ZEFSAII (Michael W. Deem and Ramdas Pophale) SiO2 
 PCOD9229489
Probable space group: P 2/C
;
_chemical_formula_sum "Si O2"
_cell_formula_units_Z 20
_cell_length_a 13.606245
_cell_length_b 8.486414
_cell_length_c 15.361936
_cell_angle_alpha 90.000000
_cell_angle_beta 153.605984
_cell_angle_gamma 90.000000
_cell_volume 788.534844
_symmetry_space_group_name_H-M "P 2/C"
_symmetry_group_IT_number 13
_symmetry_cell_setting 'monoclinic'
loop_
_space_group_symop_operation_xyz
x,y,z
-x,y,1/2-z
-x,-y,-z
x,-y,1/2+z
loop_
_atom_site_type_symbol
_atom_site_label
_atom_site_fract_x
_atom_site_fract_y
_atom_site_fract_z
Si Si1 0.594283 0.668329 0.095904
Si Si2 0.678919 0.181528 0.275174
Si Si3 0.993739 0.792023 0.613661
Si Si4 0.054967 0.411335 0.896894
Si Si5 0.377641 0.123525 0.554602
O O1 0.521137 0.730621 0.131376
O O2 0.851312 0.662793 0.286643
O O3 0.500000 0.500000 0.000000
O O4 0.482014 0.759008 0.928414
O O5 0.907700 0.160128 0.401710
O O6 0.739271 0.310035 0.399250
O O7 0.533866 0.027943 0.181841
O O8 0.966705 0.600357 0.601454
O O9 0.763284 0.850802 0.470387
O O10 0.180016 0.869607 0.825314
O O11 0.000000 0.391025 0.750000
#
# Coordination Sequence:
#
# PCOD9229489 Si02
#       5
#     4   4   4   4   4
#     4  11  21  42  77 114 162 205 264 337 409 493
#     4  11  25  44  81 118 161 213 274 338 416 490
#     4  10  19  44  81 120 163 211 266 332 420 491
#     4  12  24  46  79 115 161 217 274 341 399 492
#     4  10  21  44  77 119 159 211 264 340 416 487
#
# _framework density 25.363496999999999
#
# number of rings (size 3 to 8) (size 9 to 14) (size 15 to 20)
#    0.000    1.200    6.000    3.000    0.000    1.600 
#    7.200    1.000    8.800    2.400    0.000    0.000 
#    0.000    0.000    0.000    0.000    0.000    0.000 
#
# Total GULP energy -111557.143451 kJ/mol
# GULP energy per Si atom -5577.857173 kJ/mol
# Density = 2.530577 g / cm^3
# Si number density = 25.363497 Si / 1000 Ang^3
#
#
#
# Elastic Constant Matrix: (Units=GPa)
#
#
# Indices 1 2 3 4 5 6 
#
# 1 172.7893 96.0831 88.8151 0.0000 40.3190 0.0000
# 2 96.0831 163.6807 107.9924 0.0000 10.2709 0.0000
# 3 88.8151 107.9924 145.5242 0.0000 -7.8604 0.0000
# 4 0.0000 0.0000 0.0000 60.7953 0.0000 9.6470
# 5 40.3190 10.2709 -7.8604 0.0000 57.4921 0.0000
# 6 0.0000 0.0000 0.0000 9.6470 0.0000 34.8915
#
#
#
# Elastic Compliance Matrix: (Units=1/GPa)
#
#
# Indices 1 2 3 4 5 6 
#
# 1 0.012648 -0.002793 -0.006144 0.000000 -0.009211 0.000000
# 2 -0.002793 0.013276 -0.008230 0.000000 -0.001538 0.000000
# 3 -0.006144 -0.008230 0.017168 0.000000 0.008127 0.000000
# 4 0.000000 0.000000 0.000000 0.017203 0.000000 -0.004757
# 5 -0.009211 -0.001538 0.008127 0.000000 0.025239 0.000000
# 6 0.000000 0.000000 0.000000 -0.004757 0.000000 0.029975
#
#
# Mechanical properties :
#
#
# Convention : Reuss Voigt Hill
#
# Bulk Modulus (GPa) = 114.19344 118.64170 116.41757
# Shear Modulus (GPa) = 32.73042 43.24269 37.98656
#
# Velocity S-wave (km/s) = 3.59619 4.13355 3.87419
# Velocity P-wave (km/s) = 7.89708 8.34624 8.12476
#
# Compressibility (1/GPa) = 0.00875707
#
# Stress axis : x y z
#
# Youngs Moduli (GPa) = 79.06513 75.32664 58.24711
#
# Poissons Ratio (x) = 0.21036 0.35788
# Poissons Ratio (y) = 0.22080 0.47939
# Poissons Ratio (z) = 0.48579 0.61997
#
# Static dielectric constant tensor:
#      x y z
#    x 1.985600 0.000000 -0.019780 
#    y 0.000000 1.993530 0.000000 
#    z -0.019780 0.000000 2.104370 
# 
# From -- ./inp_files/69734.got.cif
#   From: 2010.05.17/outbox.cif.g08.bks.cpg/sg13_35_cif.got.tgz:69734.got - 2010.06.03 16:44:36.
