data_PCOD9229117
_publ_section_title
;
Structure prediction by ZEFSAII (Michael W. Deem and Ramdas Pophale) SiO2 
 PCOD9229117
Probable space group: P 2/C
;
_chemical_formula_sum "Si O2"
_cell_formula_units_Z 28
_cell_length_a 17.089451
_cell_length_b 12.416943
_cell_length_c 18.826408
_cell_angle_alpha 90.000000
_cell_angle_beta 157.641982
_cell_angle_gamma 90.000000
_cell_volume 1519.646574
_symmetry_space_group_name_H-M "P 2/C"
_symmetry_group_IT_number 13
_symmetry_cell_setting 'monoclinic'
loop_
_space_group_symop_operation_xyz
x,y,z
-x,y,1/2-z
-x,-y,-z
x,-y,1/2+z
loop_
_atom_site_type_symbol
_atom_site_label
_atom_site_fract_x
_atom_site_fract_y
_atom_site_fract_z
Si Si1 0.833892 0.769974 0.172005
Si Si2 0.544497 0.836319 0.205304
Si Si3 0.429432 0.629662 0.369360
Si Si4 0.663011 0.997068 0.571699
Si Si5 0.995426 0.896302 0.945378
Si Si6 0.027704 0.312050 0.980439
Si Si7 0.524254 0.388654 0.114189
O O1 0.000000 0.786619 0.250000
O O2 0.955429 0.722203 0.341578
O O3 0.733638 0.882735 0.112177
O O4 0.650056 0.687094 0.997675
O O5 0.500000 0.816724 0.250000
O O6 0.508246 0.730839 0.126314
O O7 0.781019 0.868282 0.395038
O O8 0.423675 0.936187 0.069476
O O9 0.515943 0.516249 0.414419
O O10 0.509335 0.641018 0.517454
O O11 0.177840 0.629207 0.161552
O O12 0.848149 0.926253 0.757621
O O13 0.500000 0.000000 0.500000
O O14 0.930519 0.794520 0.937804
O O15 0.000000 0.000000 0.000000
O O16 0.244801 0.371881 0.163998
#
# Coordination Sequence:
#
# PCOD9229117 Si02
#       7
#     4   4   4   4   4   4   4
#     4  11  25  38  54  91 129 154 199 255 303 366
#     4  11  25  39  59  91 127 159 198 253 316 359
#     4   9  20  41  63  92 118 151 211 259 285 368
#     4  12  22  40  64  86 122 164 204 249 300 370
#     4  11  20  36  62  88 117 158 202 245 292 367
#     4  10  19  37  62  92 116 152 209 247 296 360
#     4  10  20  39  69  86 115 163 205 251 307 351
#
# _framework density 18.425336000000001
#
# number of rings (size 3 to 8) (size 9 to 14) (size 15 to 20)
#    0.000    1.429    2.857    3.857    2.000    0.571 
#    2.571    0.000    0.000    0.000    0.000    0.000 
#    0.000    0.000    0.000    0.000    0.000    0.000 
#
# Total GULP energy -156314.654744 kJ/mol
# GULP energy per Si atom -5582.666241 kJ/mol
# Density = 1.838340 g / cm^3
# Si number density = 18.425336 Si / 1000 Ang^3
#
#
#
# Elastic Constant Matrix: (Units=GPa)
#
#
# Indices 1 2 3 4 5 6 
#
# 1 73.1585 43.4832 13.4342 0.0000 13.4128 0.0000
# 2 43.4832 84.3830 31.9105 0.0000 4.9632 0.0000
# 3 13.4342 31.9105 72.0751 0.0000 -11.4997 0.0000
# 4 0.0000 0.0000 0.0000 29.8243 0.0000 -3.3147
# 5 13.4128 4.9632 -11.4997 0.0000 20.7696 0.0000
# 6 0.0000 0.0000 0.0000 -3.3147 0.0000 15.5580
#
#
#
# Elastic Compliance Matrix: (Units=1/GPa)
#
#
# Indices 1 2 3 4 5 6 
#
# 1 0.022385 -0.010095 -0.001782 0.000000 -0.013031 0.000000
# 2 -0.010095 0.019957 -0.007322 0.000000 -0.002304 0.000000
# 3 -0.001782 -0.007322 0.019647 0.000000 0.013778 0.000000
# 4 0.000000 0.000000 0.000000 0.034343 0.000000 0.007317
# 5 -0.013031 -0.002304 0.013778 0.000000 0.064742 0.000000
# 6 0.000000 0.000000 0.000000 0.007317 0.000000 0.065835
#
#
# Mechanical properties :
#
#
# Convention : Reuss Voigt Hill
#
# Bulk Modulus (GPa) = 42.38824 45.25250 43.82037
# Shear Modulus (GPa) = 18.30363 22.61627 20.45995
#
# Velocity S-wave (km/s) = 3.15524 3.50731 3.33592
# Velocity P-wave (km/s) = 6.02738 6.40428 6.21869
#
# Compressibility (1/GPa) = 0.02359145
#
# Stress axis : x y z
#
# Youngs Moduli (GPa) = 44.67196 50.10756 50.89946
#
# Poissons Ratio (x) = 0.50584 0.09071
# Poissons Ratio (y) = 0.45096 0.37267
# Poissons Ratio (z) = 0.07961 0.36687
#
# Static dielectric constant tensor:
#      x y z
#    x 1.614940 0.000000 0.005780 
#    y 0.000000 1.626670 0.000000 
#    z 0.005780 0.000000 1.670620 
# 
# From -- ./inp_files/70669.got.cif
#   From: 2010.05.17/outbox.cif.g08.bks.cpg/sg13_36_cif.got.tgz:70669.got - 2010.06.03 16:44:36.
