data_PCOD9229112
_publ_section_title
;
Structure prediction by ZEFSAII (Michael W. Deem and Ramdas Pophale) SiO2 
 PCOD9229112
Probable space group: P 2/C
;
_chemical_formula_sum "Si O2"
_cell_formula_units_Z 30
_cell_length_a 13.830390
_cell_length_b 14.675365
_cell_length_c 18.342420
_cell_angle_alpha 90.000000
_cell_angle_beta 157.567568
_cell_angle_gamma 90.000000
_cell_volume 1420.630424
_symmetry_space_group_name_H-M "P 2/C"
_symmetry_group_IT_number 13
_symmetry_cell_setting 'monoclinic'
loop_
_space_group_symop_operation_xyz
x,y,z
-x,y,1/2-z
-x,-y,-z
x,-y,1/2+z
loop_
_atom_site_type_symbol
_atom_site_label
_atom_site_fract_x
_atom_site_fract_y
_atom_site_fract_z
Si Si1 0.544525 0.137134 0.074553
Si Si2 0.232542 0.451985 0.954413
Si Si3 0.914833 0.993201 0.276572
Si Si4 0.511875 0.655235 0.527184
Si Si5 0.500000 0.568874 0.250000
Si Si6 0.023602 0.673957 0.110631
Si Si7 0.726049 0.159990 0.458228
Si Si8 0.031331 0.407585 0.070704
O O1 0.588486 0.239809 0.079423
O O2 0.413197 0.149481 0.061806
O O3 0.803580 0.080984 0.240569
O O4 0.321377 0.077666 0.881737
O O5 0.000000 0.499139 0.750000
O O6 0.121470 0.404950 0.948143
O O7 0.331067 0.374024 0.968776
O O8 0.451305 0.512308 0.141375
O O9 0.000000 0.009013 0.250000
O O10 0.151483 0.938056 0.474894
O O11 0.320889 0.648533 0.325566
O O12 0.753736 0.593530 0.716930
O O13 0.765810 0.616641 0.423094
O O14 0.947646 0.765353 0.101380
O O15 0.923818 0.670629 0.958752
O O16 0.500000 0.191196 0.250000
O O17 0.000000 0.500000 0.000000
#
# Coordination Sequence:
#
# PCOD9229112 Si02
#       8
#     4   4   4   4   2   4   4   4
#     4  10  19  37  62  89 124 157 206 255 307 368
#     4  10  20  32  61  92 116 151 202 260 308 362
#     4   9  20  37  60  92 124 165 197 250 313 382
#     4  11  21  38  64  92 119 162 206 259 310 367
#     4  12  24  44  56  84 128 158 204 254 316 374
#     4  11  22  37  60  97 122 152 211 265 314 363
#     4  11  21  34  62  94 126 156 206 263 316 370
#     4  12  25  40  62  87 125 165 203 259 317 370
#
# _framework density 21.117386
#
# number of rings (size 3 to 8) (size 9 to 14) (size 15 to 20)
#    0.000    1.333    5.333    0.800    0.933    2.133 
#    0.000    1.333    1.467    0.000    0.000    0.000 
#    0.000    0.000    0.000    0.000    0.000    0.000 
#
# Total GULP energy -167015.471563 kJ/mol
# GULP energy per Si atom -5567.182385 kJ/mol
# Density = 2.106932 g / cm^3
# Si number density = 21.117386 Si / 1000 Ang^3
#
#
#
# Elastic Constant Matrix: (Units=GPa)
#
#
# Indices 1 2 3 4 5 6 
#
# 1 52.0617 27.5007 12.8466 0.0000 10.9808 0.0000
# 2 27.5007 69.9019 14.0037 0.0000 9.2514 0.0000
# 3 12.8466 14.0037 111.6297 0.0000 9.0384 0.0000
# 4 0.0000 0.0000 0.0000 29.1788 0.0000 11.8392
# 5 10.9808 9.2514 9.0384 0.0000 30.3807 0.0000
# 6 0.0000 0.0000 0.0000 11.8392 0.0000 24.8917
#
#
#
# Elastic Compliance Matrix: (Units=1/GPa)
#
#
# Indices 1 2 3 4 5 6 
#
# 1 0.025570 -0.008986 -0.001320 0.000000 -0.006113 0.000000
# 2 -0.008986 0.018327 -0.001103 0.000000 -0.002005 0.000000
# 3 -0.001320 -0.001103 0.009409 0.000000 -0.001986 0.000000
# 4 0.000000 0.000000 0.000000 0.042467 0.000000 -0.020198
# 5 -0.006113 -0.002005 -0.001986 0.000000 0.036326 0.000000
# 6 0.000000 0.000000 0.000000 -0.020198 0.000000 0.049781
#
#
# Mechanical properties :
#
#
# Convention : Reuss Voigt Hill
#
# Bulk Modulus (GPa) = 32.79968 38.03281 35.41625
# Shear Modulus (GPa) = 23.27075 28.83973 26.05524
#
# Velocity S-wave (km/s) = 3.32320 3.69953 3.51640
# Velocity P-wave (km/s) = 5.50369 6.02478 5.77012
#
# Compressibility (1/GPa) = 0.03048810
#
# Stress axis : x y z
#
# Youngs Moduli (GPa) = 39.10855 54.56333 106.27788
#
# Poissons Ratio (x) = 0.49031 0.14033
# Poissons Ratio (y) = 0.35143 0.11719
# Poissons Ratio (z) = 0.05164 0.06016
#
# Static dielectric constant tensor:
#      x y z
#    x 1.797330 0.000000 -0.011690 
#    y 0.000000 1.818240 0.000000 
#    z -0.011690 0.000000 1.831820 
# 
# From -- ./inp_files/80327.got.cif
#   From: 2010.05.17/outbox.cif.g08.bks.cpg/sg13_41_cif.got.tgz:80327.got - 2010.06.03 16:44:36.
