data_PCOD9229429
_publ_section_title
;
Structure prediction by ZEFSAII (Michael W. Deem and Ramdas Pophale) SiO2 
 PCOD9229429
Probable space group: P 2/C
;
_chemical_formula_sum "Si O2"
_cell_formula_units_Z 24
_cell_length_a 28.506570
_cell_length_b 5.286845
_cell_length_c 14.182959
_cell_angle_alpha 90.000000
_cell_angle_beta 151.531406
_cell_angle_gamma 90.000000
_cell_volume 1018.902353
_symmetry_space_group_name_H-M "P 2/C"
_symmetry_group_IT_number 13
_symmetry_cell_setting 'monoclinic'
loop_
_space_group_symop_operation_xyz
x,y,z
-x,y,1/2-z
-x,-y,-z
x,-y,1/2+z
loop_
_atom_site_type_symbol
_atom_site_label
_atom_site_fract_x
_atom_site_fract_y
_atom_site_fract_z
Si Si1 0.725867 0.946202 0.999945
Si Si2 0.597372 0.383548 0.128088
Si Si3 0.930004 0.091861 0.959758
Si Si4 0.118290 0.417073 0.029767
Si Si5 0.687505 0.153285 0.118641
Si Si6 0.229468 0.742381 0.095798
O O1 0.658181 0.046703 0.965653
O O2 0.822278 0.853931 0.224658
O O3 0.775769 0.148665 0.017662
O O4 0.660568 0.767931 0.818189
O O5 0.599678 0.222862 0.034963
O O6 0.664854 0.613848 0.216416
O O7 0.500000 0.500000 0.000000
O O8 0.946187 0.362901 0.036398
O O9 0.930132 0.853471 0.032729
O O10 0.000000 0.000000 0.000000
O O11 0.232617 0.372784 0.266279
O O12 0.147289 0.538095 0.979489
O O13 0.756944 0.965612 0.304118
#
# Coordination Sequence:
#
# PCOD9229429 Si02
#       6
#     4   4   4   4   4   4
#     4  10  22  39  69  92 130 189 226 276 359 410
#     4  10  23  40  66  99 138 174 232 293 344 416
#     4  11  23  40  70  99 134 176 235 287 341 417
#     4  10  19  40  66  91 134 174 218 288 341 404
#     4   9  20  40  66  91 133 181 228 280 345 422
#     4  10  20  40  67  91 132 179 224 281 350 409
#
# _framework density 23.554759000000001
#
# number of rings (size 3 to 8) (size 9 to 14) (size 15 to 20)
#    0.000    2.000    3.333    0.500    4.667    2.667 
#    0.000    5.833    7.333    0.000    0.000    0.000 
#    0.000    0.000    0.000    0.000    0.000    0.000 
#
# Total GULP energy -133641.263024 kJ/mol
# GULP energy per Si atom -5568.385959 kJ/mol
# Density = 2.350115 g / cm^3
# Si number density = 23.554759 Si / 1000 Ang^3
#
#
#
# Elastic Constant Matrix: (Units=GPa)
#
#
# Indices 1 2 3 4 5 6 
#
# 1 189.7072 69.2773 45.4493 0.0000 5.8862 0.0000
# 2 69.2773 125.7622 27.9564 0.0000 3.7864 0.0000
# 3 45.4493 27.9564 55.0269 0.0000 9.2647 0.0000
# 4 0.0000 0.0000 0.0000 10.5972 0.0000 1.6487
# 5 5.8862 3.7864 9.2647 0.0000 29.5537 0.0000
# 6 0.0000 0.0000 0.0000 1.6487 0.0000 47.0034
#
#
#
# Elastic Compliance Matrix: (Units=1/GPa)
#
#
# Indices 1 2 3 4 5 6 
#
# 1 0.007520 -0.003110 -0.004694 0.000000 0.000372 0.000000
# 2 -0.003110 0.010253 -0.002664 0.000000 0.000141 0.000000
# 3 -0.004694 -0.002664 0.024480 0.000000 -0.006398 0.000000
# 4 0.000000 0.000000 0.000000 0.094882 0.000000 -0.003328
# 5 0.000372 0.000141 -0.006398 0.000000 0.035750 0.000000
# 6 0.000000 0.000000 0.000000 -0.003328 0.000000 0.021392
#
#
# Mechanical properties :
#
#
# Convention : Reuss Voigt Hill
#
# Bulk Modulus (GPa) = 46.90940 72.87360 59.89150
# Shear Modulus (GPa) = 22.49028 32.61841 27.55435
#
# Velocity S-wave (km/s) = 3.09335 3.72531 3.42394
# Velocity P-wave (km/s) = 5.71985 7.03627 6.41193
#
# Compressibility (1/GPa) = 0.02131769
#
# Stress axis : x y z
#
# Youngs Moduli (GPa) = 132.97806 97.53484 40.84947
#
# Poissons Ratio (x) = 0.30336 0.19173
# Poissons Ratio (y) = 0.41360 0.10881
# Poissons Ratio (z) = 0.62415 0.25980
#
# Static dielectric constant tensor:
#      x y z
#    x 1.976400 0.000000 -0.060710 
#    y 0.000000 2.072120 0.000000 
#    z -0.060710 0.000000 1.935030 
# 
# From -- ./inp_files/59778.got.cif
#   From: 2010.05.17/outbox.cif.g08.bks.cpg/sg13_30_cif.got.tgz:59778.got - 2010.06.03 16:44:36.
