data_PCOD9229415
_publ_section_title
;
Structure prediction by ZEFSAII (Michael W. Deem and Ramdas Pophale) SiO2 
 PCOD9229415
Probable space group: P 2/C
;
_chemical_formula_sum "Si O2"
_cell_formula_units_Z 32
_cell_length_a 17.757984
_cell_length_b 5.392025
_cell_length_c 29.802359
_cell_angle_alpha 90.000000
_cell_angle_beta 27.767696
_cell_angle_gamma 90.000000
_cell_volume 1329.467010
_symmetry_space_group_name_H-M "P 2/C"
_symmetry_group_IT_number 13
_symmetry_cell_setting 'monoclinic'
loop_
_space_group_symop_operation_xyz
x,y,z
-x,y,1/2-z
-x,-y,-z
x,-y,1/2+z
loop_
_atom_site_type_symbol
_atom_site_label
_atom_site_fract_x
_atom_site_fract_y
_atom_site_fract_z
Si Si1 0.355461 0.885368 0.516317
Si Si2 0.343713 0.367420 0.233722
Si Si3 0.298363 0.842810 0.204908
Si Si4 0.057859 0.373953 0.120309
Si Si5 0.860132 0.105081 0.289463
Si Si6 0.308194 0.743454 0.969673
Si Si7 0.112366 0.959300 0.508488
Si Si8 0.134586 0.327374 0.908334
O O1 0.349570 0.158704 0.497503
O O2 0.533196 0.801590 0.410267
O O3 0.217096 0.745186 0.560904
O O4 0.300373 0.865507 0.596504
O O5 0.263539 0.575589 0.244003
O O6 0.537563 0.407963 0.128802
O O7 0.268452 0.478892 0.319154
O O8 0.321978 0.081104 0.227080
O O9 0.170411 0.923139 0.235398
O O10 0.925578 0.345881 0.228801
O O11 0.129994 0.633134 0.068416
O O12 0.033269 0.230116 0.086339
O O13 0.000000 0.022305 0.250000
O O14 0.270433 0.942759 0.951199
O O15 0.967944 0.148898 0.571221
O O16 0.180154 0.843271 0.426643
O O17 0.000000 0.500000 0.000000
#
# Coordination Sequence:
#
# PCOD9229415 Si02
#       8
#     4   4   4   4   4   4   4   4
#     4   9  20  41  64  94 137 177 231 287 349 419
#     4  11  26  45  76 100 139 190 240 288 361 435
#     4  11  23  46  70 100 139 192 230 290 358 426
#     4  10  19  40  64  95 133 178 228 284 356 417
#     4  10  22  40  63 101 138 178 237 292 348 422
#     4  10  21  43  71  96 136 191 231 293 364 433
#     4  10  23  41  70  96 142 182 228 299 360 424
#     4  11  25  44  67 103 139 178 238 299 354 437
#
# _framework density 24.069794000000002
#
# number of rings (size 3 to 8) (size 9 to 14) (size 15 to 20)
#    0.000    1.750    1.250    1.875    7.000    0.000 
#    4.500    8.125    0.000    0.000    0.000    0.000 
#    0.000    0.000    0.000    0.000    0.000    0.000 
#
# Total GULP energy -178492.861165 kJ/mol
# GULP energy per Si atom -5577.901911 kJ/mol
# Density = 2.401501 g / cm^3
# Si number density = 24.069794 Si / 1000 Ang^3
#
#
#
# Elastic Constant Matrix: (Units=GPa)
#
#
# Indices 1 2 3 4 5 6 
#
# 1 84.1406 21.9198 23.9932 0.0000 18.6539 0.0000
# 2 21.9198 63.8014 31.4975 0.0000 8.0176 0.0000
# 3 23.9932 31.4975 166.8450 0.0000 25.0239 0.0000
# 4 0.0000 0.0000 0.0000 39.2137 0.0000 -6.3982
# 5 18.6539 8.0176 25.0239 0.0000 23.7713 0.0000
# 6 0.0000 0.0000 0.0000 -6.3982 0.0000 25.8682
#
#
#
# Elastic Compliance Matrix: (Units=1/GPa)
#
#
# Indices 1 2 3 4 5 6 
#
# 1 0.015270 -0.003973 0.000179 0.000000 -0.010831 0.000000
# 2 -0.003973 0.018482 -0.002910 0.000000 -0.000052 0.000000
# 3 0.000179 -0.002910 0.007589 0.000000 -0.007148 0.000000
# 4 0.000000 0.000000 0.000000 0.026574 0.000000 0.006573
# 5 -0.010831 -0.000052 -0.007148 0.000000 0.058109 0.000000
# 6 0.000000 0.000000 0.000000 0.006573 0.000000 0.040283
#
#
# Mechanical properties :
#
#
# Convention : Reuss Voigt Hill
#
# Bulk Modulus (GPa) = 35.80103 52.17868 43.98986
# Shear Modulus (GPa) = 26.45119 33.59573 30.02346
#
# Velocity S-wave (km/s) = 3.31862 3.74004 3.53562
# Velocity P-wave (km/s) = 5.43971 6.35419 5.91465
#
# Compressibility (1/GPa) = 0.02793215
#
# Stress axis : x y z
#
# Youngs Moduli (GPa) = 65.48681 54.10713 131.76451
#
# Poissons Ratio (x) = 0.21499 -0.02353
# Poissons Ratio (y) = 0.26021 0.38341
# Poissons Ratio (z) = -0.01170 0.15744
#
# Static dielectric constant tensor:
#      x y z
#    x 2.061350 0.000000 -0.027640 
#    y 0.000000 2.129880 0.000000 
#    z -0.027640 0.000000 1.951660 
# 
# From -- ./inp_files/97178.got.cif
#   From: 2010.05.17/outbox.cif.g08.bks.cpg/sg13_49_cif.got.tgz:97178.got - 2010.06.03 16:44:36.
