data_PCOD9229563
_publ_section_title
;
Structure prediction by ZEFSAII (Michael W. Deem and Ramdas Pophale) SiO2 
 PCOD9229563
Probable space group: P 2/C
;
_chemical_formula_sum "Si O2"
_cell_formula_units_Z 28
_cell_length_a 24.148750
_cell_length_b 13.360925
_cell_length_c 23.970763
_cell_angle_alpha 90.000000
_cell_angle_beta 12.020883
_cell_angle_gamma 90.000000
_cell_volume 1610.779082
_symmetry_space_group_name_H-M "P 2/C"
_symmetry_group_IT_number 13
_symmetry_cell_setting 'monoclinic'
loop_
_space_group_symop_operation_xyz
x,y,z
-x,y,1/2-z
-x,-y,-z
x,-y,1/2+z
loop_
_atom_site_type_symbol
_atom_site_label
_atom_site_fract_x
_atom_site_fract_y
_atom_site_fract_z
Si Si1 0.655497 0.054520 0.223484
Si Si2 0.804850 0.824076 0.283016
Si Si3 0.207994 0.380072 0.756042
Si Si4 0.728766 0.390771 0.313909
Si Si5 0.583385 0.860976 0.231423
Si Si6 0.815616 0.915545 0.156155
Si Si7 0.912305 0.214266 0.208064
O O1 0.409582 0.129043 0.464356
O O2 0.674532 0.975604 0.154429
O O3 0.917280 0.120828 0.977265
O O4 0.612837 0.977909 0.317955
O O5 0.807029 0.704578 0.276462
O O6 0.717746 0.853124 0.305201
O O7 0.442059 0.363556 0.570978
O O8 0.259310 0.491851 0.682905
O O9 0.935233 0.376919 0.059522
O O10 0.815646 0.319728 0.278743
O O11 0.500000 0.848900 0.250000
O O12 0.330684 0.835726 0.519411
O O13 0.828547 0.790033 0.007840
O O14 0.989155 0.848683 0.943016
O O15 0.000000 0.000000 0.000000
#
# Coordination Sequence:
#
# PCOD9229563 Si02
#       7
#     4   4   4   4   4   4   4
#     4  10  21  32  47  74 101 135 174 206 255 302
#     4  11  19  31  49  74 107 141 167 202 239 309
#     4  10  20  32  51  73 111 143 174 198 244 301
#     4  10  20  34  49  77 104 144 175 206 245 302
#     4  11  23  39  55  75 100 133 177 228 269 311
#     4   9  18  28  44  72 104 137 161 194 239 300
#     4  11  21  34  55  76 105 138 176 213 261 314
#
# _framework density 17.382892999999999
#
# number of rings (size 3 to 8) (size 9 to 14) (size 15 to 20)
#    0.000    1.714    1.429    5.143    4.000    0.000 
#    0.000    0.000    0.000    0.000    0.000    6.000 
#    0.000    0.000    0.000    0.000    0.000    0.000 
#
# Total GULP energy -156176.317790 kJ/mol
# GULP energy per Si atom -5577.725635 kJ/mol
# Density = 1.734333 g / cm^3
# Si number density = 17.382893 Si / 1000 Ang^3
#
#
#
# Elastic Constant Matrix: (Units=GPa)
#
#
# Indices 1 2 3 4 5 6 
#
# 1 72.9534 38.9925 6.8409 0.0000 -16.3805 0.0000
# 2 38.9925 111.0803 20.0528 0.0000 -7.5242 0.0000
# 3 6.8409 20.0528 64.8644 0.0000 -9.5050 0.0000
# 4 0.0000 0.0000 0.0000 17.8134 0.0000 -5.8715
# 5 -16.3805 -7.5242 -9.5050 0.0000 17.4625 0.0000
# 6 0.0000 0.0000 0.0000 -5.8715 0.0000 14.2797
#
#
#
# Elastic Compliance Matrix: (Units=1/GPa)
#
#
# Indices 1 2 3 4 5 6 
#
# 1 0.021131 -0.006628 0.002507 0.000000 0.018330 0.000000
# 2 -0.006628 0.011734 -0.003367 0.000000 -0.002995 0.000000
# 3 0.002507 -0.003367 0.017740 0.000000 0.010557 0.000000
# 4 0.000000 0.000000 0.000000 0.064939 0.000000 0.026701
# 5 0.018330 -0.002995 0.010557 0.000000 0.078915 0.000000
# 6 0.000000 0.000000 0.000000 0.026701 0.000000 0.081009
#
#
# Mechanical properties :
#
#
# Convention : Reuss Voigt Hill
#
# Bulk Modulus (GPa) = 28.06860 42.29673 35.18266
# Shear Modulus (GPa) = 16.53865 22.11192 19.32529
#
# Velocity S-wave (km/s) = 3.08788 3.57045 3.33790
# Velocity P-wave (km/s) = 5.37546 6.43294 5.92783
#
# Compressibility (1/GPa) = 0.03562700
#
# Stress axis : x y z
#
# Youngs Moduli (GPa) = 47.32436 85.22002 56.36855
#
# Poissons Ratio (x) = 0.56488 -0.14129
# Poissons Ratio (y) = 0.31369 0.18982
# Poissons Ratio (z) = -0.11862 0.28697
#
# Static dielectric constant tensor:
#      x y z
#    x 1.587620 0.000000 -0.011160 
#    y 0.000000 1.637900 0.000000 
#    z -0.011160 0.000000 1.609530 
# 
# From -- ./inp_files/89194.got.cif
#   From: 2010.05.17/outbox.cif.g08.bks.cpg/sg13_45_cif.got.tgz:89194.got - 2010.06.03 16:44:36.
