data_PCOD9229232
_publ_section_title
;
Structure prediction by ZEFSAII (Michael W. Deem and Ramdas Pophale) SiO2 
 PCOD9229232
Probable space group: P 2/C
;
_chemical_formula_sum "Si O2"
_cell_formula_units_Z 20
_cell_length_a 10.662337
_cell_length_b 9.184011
_cell_length_c 9.005486
_cell_angle_alpha 90.000000
_cell_angle_beta 85.397407
_cell_angle_gamma 90.000000
_cell_volume 879.000659
_symmetry_space_group_name_H-M "P 2/C"
_symmetry_group_IT_number 13
_symmetry_cell_setting 'monoclinic'
loop_
_space_group_symop_operation_xyz
x,y,z
-x,y,1/2-z
-x,-y,-z
x,-y,1/2+z
loop_
_atom_site_type_symbol
_atom_site_label
_atom_site_fract_x
_atom_site_fract_y
_atom_site_fract_z
Si Si1 0.032093 0.808861 0.412385
Si Si2 0.639175 0.963595 0.287195
Si Si3 0.409490 0.570178 0.636843
Si Si4 0.725512 0.338060 0.632340
Si Si5 0.797266 0.080920 0.049212
O O1 0.123449 0.672161 0.381856
O O2 0.000000 0.863531 0.250000
O O3 0.897511 0.793542 0.504011
O O4 0.118251 0.934713 0.477157
O O5 0.500000 0.001863 0.250000
O O6 0.671587 0.813712 0.199263
O O7 0.678091 0.929200 0.451185
O O8 0.738451 0.080775 0.216728
O O9 0.500000 0.646917 0.750000
O O10 0.500000 0.500000 0.500000
O O11 0.333156 0.456592 0.748726
O O12 0.316415 0.651329 0.534903
#
# Coordination Sequence:
#
# PCOD9229232 Si02
#       5
#     4   4   4   4   4
#     4  10  19  38  62  81 116 162 202 236 290 360
#     4  11  21  37  60  91 122 155 201 247 296 360
#     4   9  18  36  62  87 121 155 194 247 304 352
#     4  10  20  37  63  88 118 158 200 239 304 350
#     4  10  20  36  61  83 117 162 197 238 305 346
#
# _framework density 22.753111000000001
#
# number of rings (size 3 to 8) (size 9 to 14) (size 15 to 20)
#    0.000    2.000    4.000    2.400    0.000    0.000 
#    0.000   17.000    8.800    0.000    0.000    0.000 
#    0.000    0.000    0.000    0.200    0.000    0.000 
#
# Total GULP energy -111450.378030 kJ/mol
# GULP energy per Si atom -5572.518901 kJ/mol
# Density = 2.270132 g / cm^3
# Si number density = 22.753111 Si / 1000 Ang^3
#
#
#
# Elastic Constant Matrix: (Units=GPa)
#
#
# Indices 1 2 3 4 5 6 
#
# 1 114.8591 10.4793 33.6294 0.0000 15.5915 0.0000
# 2 10.4793 36.5716 26.1228 0.0000 4.8980 0.0000
# 3 33.6294 26.1228 119.3830 0.0000 27.5898 0.0000
# 4 0.0000 0.0000 0.0000 26.7410 0.0000 -1.4724
# 5 15.5915 4.8980 27.5898 0.0000 51.0204 0.0000
# 6 0.0000 0.0000 0.0000 -1.4724 0.0000 19.7266
#
#
#
# Elastic Compliance Matrix: (Units=1/GPa)
#
#
# Indices 1 2 3 4 5 6 
#
# 1 0.009647 -0.001039 -0.002094 0.000000 -0.001716 0.000000
# 2 -0.001039 0.032552 -0.007064 0.000000 0.001013 0.000000
# 3 -0.002094 -0.007064 0.011665 0.000000 -0.004990 0.000000
# 4 0.000000 0.000000 0.000000 0.037550 0.000000 0.002803
# 5 -0.001716 0.001013 -0.004990 0.000000 0.022726 0.000000
# 6 0.000000 0.000000 0.000000 0.002803 0.000000 0.050902
#
#
# Mechanical properties :
#
#
# Convention : Reuss Voigt Hill
#
# Bulk Modulus (GPa) = 29.87716 45.69740 37.78728
# Shear Modulus (GPa) = 25.43342 32.86974 29.15158
#
# Velocity S-wave (km/s) = 3.34698 3.80495 3.58329
# Velocity P-wave (km/s) = 5.30055 6.27942 5.81064
#
# Compressibility (1/GPa) = 0.03347038
#
# Stress axis : x y z
#
# Youngs Moduli (GPa) = 103.65868 30.72053 85.72590
#
# Poissons Ratio (x) = 0.03192 0.17947
# Poissons Ratio (y) = 0.10771 0.60557
# Poissons Ratio (z) = 0.21701 0.21701
#
# Static dielectric constant tensor:
#      x y z
#    x 1.965630 0.000000 -0.017590 
#    y 0.000000 1.938170 0.000000 
#    z -0.017590 0.000000 1.882560 
# 
# From -- ./inp_files/15546.got.cif
#   From: 2010.05.17/outbox.cif.g08.bks.cpg/sg13_8_cif.got.tgz:15546.got - 2010.06.03 16:44:36.
