data_PCOD9229616
_publ_section_title
;
Structure prediction by ZEFSAII (Michael W. Deem and Ramdas Pophale) SiO2 
 PCOD9229616
Probable space group: P 2/C
;
_chemical_formula_sum "Si O2"
_cell_formula_units_Z 24
_cell_length_a 8.262002
_cell_length_b 8.879109
_cell_length_c 16.015605
_cell_angle_alpha 90.000000
_cell_angle_beta 58.995160
_cell_angle_gamma 90.000000
_cell_volume 1007.028083
_symmetry_space_group_name_H-M "P 2/C"
_symmetry_group_IT_number 13
_symmetry_cell_setting 'monoclinic'
loop_
_space_group_symop_operation_xyz
x,y,z
-x,y,1/2-z
-x,-y,-z
x,-y,1/2+z
loop_
_atom_site_type_symbol
_atom_site_label
_atom_site_fract_x
_atom_site_fract_y
_atom_site_fract_z
Si Si1 0.287674 0.073908 0.892409
Si Si2 0.607928 0.073136 0.392997
Si Si3 0.374770 0.577513 0.368019
Si Si4 0.934033 0.399456 0.141318
Si Si5 0.973606 0.046034 0.380233
Si Si6 0.307520 0.423788 0.124768
O O1 0.320905 0.250031 0.895206
O O2 0.483091 0.982931 0.848739
O O3 0.160910 0.017389 0.003759
O O4 0.158543 0.052409 0.845477
O O5 0.827824 0.026756 0.342640
O O6 0.616824 0.252820 0.400186
O O7 0.500000 0.000000 0.500000
O O8 0.500000 0.569557 0.250000
O O9 0.192592 0.473503 0.397219
O O10 0.513048 0.527895 0.405872
O O11 0.816770 0.429641 0.257048
O O12 0.957334 0.219049 0.130925
O O13 0.148837 0.457575 0.097118
#
# Coordination Sequence:
#
# PCOD9229616 Si02
#       6
#     4   4   4   4   4   4
#     4  10  20  33  50  74 104 130 161 210 255 295
#     4   9  18  34  53  74 100 130 167 208 247 293
#     4  10  21  34  50  76 105 132 165 207 255 304
#     4   9  18  34  53  73  97 131 172 204 242 301
#     4   9  19  35  52  72  98 132 170 205 247 298
#     4   9  18  34  54  72  98 134 168 205 247 297
#
# _framework density 23.832505000000001
#
# number of rings (size 3 to 8) (size 9 to 14) (size 15 to 20)
#    0.000    2.667    0.000    1.000    0.000    3.333 
#    0.000    7.500    0.000    0.000    0.000    0.000 
#    0.000    0.000    0.000    0.000    0.000    0.000 
#
# Total GULP energy -134109.507346 kJ/mol
# GULP energy per Si atom -5587.896139 kJ/mol
# Density = 2.377826 g / cm^3
# Si number density = 23.832505 Si / 1000 Ang^3
#
#
#
# Elastic Constant Matrix: (Units=GPa)
#
#
# Indices 1 2 3 4 5 6 
#
# 1 254.2906 109.8275 35.2381 0.0000 -16.8344 0.0000
# 2 109.8275 80.7993 4.5099 0.0000 -11.9683 0.0000
# 3 35.2381 4.5099 69.3625 0.0000 -11.1642 0.0000
# 4 0.0000 0.0000 0.0000 43.3850 0.0000 -6.5350
# 5 -16.8344 -11.9683 -11.1642 0.0000 45.9364 0.0000
# 6 0.0000 0.0000 0.0000 -6.5350 0.0000 51.5183
#
#
#
# Elastic Compliance Matrix: (Units=1/GPa)
#
#
# Indices 1 2 3 4 5 6 
#
# 1 0.010823 -0.014593 -0.004707 0.000000 -0.000980 0.000000
# 2 -0.014593 0.032557 0.006038 0.000000 0.004602 0.000000
# 3 -0.004707 0.006038 0.017059 0.000000 0.003994 0.000000
# 4 0.000000 0.000000 0.000000 0.023498 0.000000 0.002981
# 5 -0.000980 0.004602 0.003994 0.000000 0.023580 0.000000
# 6 0.000000 0.000000 0.000000 0.002981 0.000000 0.019789
#
#
# Mechanical properties :
#
#
# Convention : Reuss Voigt Hill
#
# Bulk Modulus (GPa) = 29.48727 78.17816 53.83272
# Shear Modulus (GPa) = 30.27813 45.15975 37.71894
#
# Velocity S-wave (km/s) = 3.56821 4.35774 3.98259
# Velocity P-wave (km/s) = 5.41994 7.62852 6.61703
#
# Compressibility (1/GPa) = 0.03391294
#
# Stress axis : x y z
#
# Youngs Moduli (GPa) = 92.39750 30.71504 58.62133
#
# Poissons Ratio (x) = 0.44824 0.27594
# Poissons Ratio (y) = 1.34840 -0.35394
# Poissons Ratio (z) = 0.43493 -0.18545
#
# Static dielectric constant tensor:
#      x y z
#    x 1.956610 0.000000 -0.002350 
#    y 0.000000 1.805770 0.000000 
#    z -0.002350 0.000000 1.898040 
# 
# From -- ./inp_files/75193.got.cif
#   From: 2010.05.17/outbox.cif.g08.bks.cpg/sg13_38_cif.got.tgz:75193.got - 2010.06.03 16:44:36.
