data_PCOD9229673
_publ_section_title
;
Structure prediction by ZEFSAII (Michael W. Deem and Ramdas Pophale) SiO2 
 PCOD9229673
Probable space group: P 2/C
;
_chemical_formula_sum "Si O2"
_cell_formula_units_Z 26
_cell_length_a 15.462629
_cell_length_b 8.441862
_cell_length_c 15.144778
_cell_angle_alpha 90.000000
_cell_angle_beta 139.731051
_cell_angle_gamma 90.000000
_cell_volume 1277.820826
_symmetry_space_group_name_H-M "P 2/C"
_symmetry_group_IT_number 13
_symmetry_cell_setting 'monoclinic'
loop_
_space_group_symop_operation_xyz
x,y,z
-x,y,1/2-z
-x,-y,-z
x,-y,1/2+z
loop_
_atom_site_type_symbol
_atom_site_label
_atom_site_fract_x
_atom_site_fract_y
_atom_site_fract_z
Si Si1 0.831312 0.566993 0.794220
Si Si2 0.571664 0.648393 0.507538
Si Si3 0.000000 0.810656 0.750000
Si Si4 0.060885 0.949923 0.141591
Si Si5 0.930694 0.625604 0.061635
Si Si6 0.258771 0.634454 0.028605
Si Si7 0.696152 0.765413 0.244425
O O1 0.711436 0.676482 0.667120
O O2 0.758578 0.403554 0.763878
O O3 0.949710 0.499266 0.824953
O O4 0.907695 0.635237 0.937954
O O5 0.500000 0.500000 0.500000
O O6 0.621035 0.613832 0.446550
O O7 0.455379 0.777285 0.407668
O O8 0.866800 0.720921 0.614420
O O9 0.952572 0.913052 0.797497
O O10 0.208470 0.891939 0.228047
O O11 0.980734 0.800223 0.122233
O O12 0.000000 0.000000 0.000000
O O13 0.796729 0.541465 0.991103
O O14 0.296209 0.740951 0.143442
#
# Coordination Sequence:
#
# PCOD9229673 Si02
#       7
#     4   4   2   4   4   4   4
#     4   8  16  31  57  91 116 150 207 261 315 365
#     4  10  20  33  58  91 121 157 211 261 314 385
#     4  12  26  38  66  96 118 168 214 272 332 390
#     4  11  23  41  62  91 132 164 212 267 333 399
#     4   9  19  35  61  88 122 159 203 273 323 363
#     4  11  21  37  61  91 121 160 217 263 320 387
#     4   9  19  38  58  83 126 167 199 260 323 381
#
# _framework density 20.347141000000001
#
# number of rings (size 3 to 8) (size 9 to 14) (size 15 to 20)
#    0.000    2.154    1.538    2.308    2.154    4.308 
#    0.000    0.769    0.000    0.000    0.000    0.000 
#    0.000    0.000    0.000    0.000    0.000    0.000 
#
# Total GULP energy -144844.908212 kJ/mol
# GULP energy per Si atom -5570.958008 kJ/mol
# Density = 2.030083 g / cm^3
# Si number density = 20.347141 Si / 1000 Ang^3
#
#
#
# Elastic Constant Matrix: (Units=GPa)
#
#
# Indices 1 2 3 4 5 6 
#
# 1 116.9616 30.5666 18.4712 0.0000 1.4942 0.0000
# 2 30.5666 48.7641 18.6739 0.0000 4.1788 0.0000
# 3 18.4712 18.6739 111.9929 0.0000 8.1305 0.0000
# 4 0.0000 0.0000 0.0000 26.8126 0.0000 1.0562
# 5 1.4942 4.1788 8.1305 0.0000 34.4284 0.0000
# 6 0.0000 0.0000 0.0000 1.0562 0.0000 37.9992
#
#
#
# Elastic Compliance Matrix: (Units=1/GPa)
#
#
# Indices 1 2 3 4 5 6 
#
# 1 0.010278 -0.006218 -0.000693 0.000000 0.000472 0.000000
# 2 -0.006218 0.025781 -0.003119 0.000000 -0.002123 0.000000
# 3 -0.000693 -0.003119 0.009700 0.000000 -0.001882 0.000000
# 4 0.000000 0.000000 0.000000 0.037337 0.000000 -0.001038
# 5 0.000472 -0.002123 -0.001882 0.000000 0.029727 0.000000
# 6 0.000000 0.000000 0.000000 -0.001038 0.000000 0.026345
#
#
# Mechanical properties :
#
#
# Convention : Reuss Voigt Hill
#
# Bulk Modulus (GPa) = 38.91089 45.90468 42.40779
# Shear Modulus (GPa) = 29.79841 33.84849 31.82345
#
# Velocity S-wave (km/s) = 3.83103 4.08309 3.95907
# Velocity P-wave (km/s) = 6.22367 6.69616 6.46423
#
# Compressibility (1/GPa) = 0.02569975
#
# Stress axis : x y z
#
# Youngs Moduli (GPa) = 97.29399 38.78864 103.09165
#
# Poissons Ratio (x) = 0.24118 0.07141
# Poissons Ratio (y) = 0.60495 0.32155
# Poissons Ratio (z) = 0.06740 0.12099
#
# Static dielectric constant tensor:
#      x y z
#    x 1.781770 0.000000 -0.012970 
#    y 0.000000 1.739040 0.000000 
#    z -0.012970 0.000000 1.765000 
# 
# From -- ./inp_files/53386.got.cif
#   From: 2010.05.17/outbox.cif.g08.bks.cpg/sg13_27_cif.got.tgz:53386.got - 2010.06.03 16:44:36.
