data_PCOD9229155
_publ_section_title
;
Structure prediction by ZEFSAII (Michael W. Deem and Ramdas Pophale) SiO2 
 PCOD9229155
Probable space group: P 2/C
;
_chemical_formula_sum "Si O2"
_cell_formula_units_Z 22
_cell_length_a 7.027628
_cell_length_b 5.732584
_cell_length_c 26.520199
_cell_angle_alpha 90.000000
_cell_angle_beta 68.283510
_cell_angle_gamma 90.000000
_cell_volume 992.576283
_symmetry_space_group_name_H-M "P 2/C"
_symmetry_group_IT_number 13
_symmetry_cell_setting 'monoclinic'
loop_
_space_group_symop_operation_xyz
x,y,z
-x,y,1/2-z
-x,-y,-z
x,-y,1/2+z
loop_
_atom_site_type_symbol
_atom_site_label
_atom_site_fract_x
_atom_site_fract_y
_atom_site_fract_z
Si Si1 0.594579 0.846325 0.658530
Si Si2 0.286355 0.780131 0.422451
Si Si3 0.138198 0.537655 0.334898
Si Si4 0.379029 0.250190 0.017556
Si Si5 0.500000 0.796403 0.250000
Si Si6 0.682355 0.473012 0.373505
O O1 0.783152 0.727206 0.668514
O O2 0.425231 0.657197 0.661967
O O3 0.686340 0.956227 0.598635
O O4 0.489725 0.042786 0.701929
O O5 0.169610 0.648362 0.388405
O O6 0.216950 0.755294 0.487008
O O7 0.516436 0.672843 0.401835
O O8 0.296601 0.652325 0.280810
O O9 0.906395 0.566663 0.341765
O O10 0.296182 0.288648 0.082128
O O11 0.500000 0.500000 0.000000
O O12 0.500000 0.000000 0.000000
#
# Coordination Sequence:
#
# PCOD9229155 Si02
#       6
#     4   4   4   4   2   4
#     4  10  20  40  61  82 118 159 198 267 316 377
#     4   9  20  38  60  87 130 165 197 255 317 371
#     4  10  22  40  60  89 118 160 213 263 319 385
#     4  10  19  37  64  95 136 174 212 256 322 386
#     4  10  22  42  58  78 122 154 202 268 338 372
#     4  10  21  38  64  90 123 163 212 254 315 386
#
# _framework density 22.164541
#
# number of rings (size 3 to 8) (size 9 to 14) (size 15 to 20)
#    0.000    2.182    1.818    0.545    0.000    3.636 
#    0.000   22.727    0.000    0.000    0.000    0.000 
#    0.000    0.000    0.000    0.000    0.000    0.000 
#
# Total GULP energy -122638.498166 kJ/mol
# GULP energy per Si atom -5574.477189 kJ/mol
# Density = 2.211409 g / cm^3
# Si number density = 22.164541 Si / 1000 Ang^3
#
#
#
# Elastic Constant Matrix: (Units=GPa)
#
#
# Indices 1 2 3 4 5 6 
#
# 1 70.3269 5.6083 -17.7851 0.0000 -14.4958 0.0000
# 2 5.6083 70.8557 -9.2332 0.0000 -4.5204 0.0000
# 3 -17.7851 -9.2332 28.6119 0.0000 3.5001 0.0000
# 4 0.0000 0.0000 0.0000 32.8007 0.0000 7.0441
# 5 -14.4958 -4.5204 3.5001 0.0000 18.9081 0.0000
# 6 0.0000 0.0000 0.0000 7.0441 0.0000 2.7331
#
#
#
# Elastic Compliance Matrix: (Units=1/GPa)
#
#
# Indices 1 2 3 4 5 6 
#
# 1 0.019618 0.000698 0.010804 0.000000 0.013207 0.000000
# 2 0.000698 0.014894 0.004849 0.000000 0.003198 0.000000
# 3 0.010804 0.004849 0.043051 0.000000 0.001473 0.000000
# 4 0.000000 0.000000 0.000000 0.068279 0.000000 -0.175977
# 5 0.013207 0.003198 0.001473 0.000000 0.063504 0.000000
# 6 0.000000 0.000000 0.000000 -0.175977 0.000000 0.819434
#
#
# Mechanical properties :
#
#
# Convention : Reuss Voigt Hill
#
# Bulk Modulus (GPa) = 9.06915 14.10828 11.58872
# Shear Modulus (GPa) = 4.84105 23.63535 14.23820
#
# Velocity S-wave (km/s) = 1.47949 3.26906 2.53728
# Velocity P-wave (km/s) = 2.64936 4.54181 3.71801
#
# Compressibility (1/GPa) = 0.11026390
#
# Stress axis : x y z
#
# Youngs Moduli (GPa) = 50.97311 67.14189 23.22836
#
# Poissons Ratio (x) = -0.04684 -0.25096
# Poissons Ratio (y) = -0.03556 -0.11263
# Poissons Ratio (z) = -0.55072 -0.32555
#
# Static dielectric constant tensor:
#      x y z
#    x 1.786410 0.000000 0.018090 
#    y 0.000000 1.870860 0.000000 
#    z 0.018090 0.000000 1.937830 
# 
# From -- ./inp_files/89336.got.cif
#   From: 2010.05.17/outbox.cif.g08.bks.cpg/sg13_45_cif.got.tgz:89336.got - 2010.06.03 16:44:36.
