data_PCOD9229996
_publ_section_title
;
Structure prediction by ZEFSAII (Michael W. Deem and Ramdas Pophale) SiO2 
 PCOD9229996
Probable space group: P 2/C
;
_chemical_formula_sum "Si O2"
_cell_formula_units_Z 32
_cell_length_a 20.485710
_cell_length_b 10.546477
_cell_length_c 15.105766
_cell_angle_alpha 90.000000
_cell_angle_beta 152.033856
_cell_angle_gamma 90.000000
_cell_volume 1530.479406
_symmetry_space_group_name_H-M "P 2/C"
_symmetry_group_IT_number 13
_symmetry_cell_setting 'monoclinic'
loop_
_space_group_symop_operation_xyz
x,y,z
-x,y,1/2-z
-x,-y,-z
x,-y,1/2+z
loop_
_atom_site_type_symbol
_atom_site_label
_atom_site_fract_x
_atom_site_fract_y
_atom_site_fract_z
Si Si1 0.346244 0.517390 0.026002
Si Si2 0.595111 0.124065 0.604694
Si Si3 0.932632 0.869265 0.308894
Si Si4 0.647763 0.224837 0.474699
Si Si5 0.110993 0.627354 0.533424
Si Si6 0.580672 0.627237 0.569732
Si Si7 0.087067 0.124749 0.497740
Si Si8 0.062418 0.383416 0.190472
O O1 0.500000 0.509462 0.250000
O O2 0.308129 0.371763 0.955351
O O3 0.372692 0.604504 0.973720
O O4 0.212125 0.579873 0.911901
O O5 0.621082 0.151014 0.532879
O O6 0.512389 0.248641 0.536309
O O7 0.749770 0.115889 0.831389
O O8 0.500000 0.000000 0.500000
O O9 0.919166 0.870797 0.401137
O O10 0.030012 0.750553 0.403712
O O11 0.778993 0.843271 0.086916
O O12 0.003285 0.000668 0.368270
O O13 0.500000 0.226207 0.250000
O O14 0.273564 0.637790 0.703798
O O15 0.088462 0.621604 0.614143
O O16 0.043044 0.498151 0.418089
O O17 0.500000 0.500000 0.500000
O O18 0.009451 0.251118 0.372206
#
# Coordination Sequence:
#
# PCOD9229996 Si02
#       8
#     4   4   4   4   4   4   4   4
#     4  10  20  35  57  84 112 142 182 233 277 323
#     4  11  22  37  56  84 116 147 179 224 277 329
#     4   9  16  31  51  78 103 136 181 228 263 310
#     4  10  20  36  59  83 110 143 182 229 276 325
#     4   9  16  26  49  74 101 135 179 223 260 308
#     4  11  20  33  55  82 110 145 180 220 273 328
#     4   9  18  30  51  77 108 137 179 230 268 308
#     4   9  16  29  50  77 102 135 180 229 267 303
#
# _framework density 20.908480000000001
#
# number of rings (size 3 to 8) (size 9 to 14) (size 15 to 20)
#    0.000    2.250    2.500    1.500    3.500    3.000 
#    0.000    2.500    0.000    9.000    0.000    0.000 
#    0.000    0.000    0.000    0.000    0.000    0.000 
#
# Total GULP energy -178541.813315 kJ/mol
# GULP energy per Si atom -5579.431666 kJ/mol
# Density = 2.086089 g / cm^3
# Si number density = 20.908480 Si / 1000 Ang^3
#
#
#
# Elastic Constant Matrix: (Units=GPa)
#
#
# Indices 1 2 3 4 5 6 
#
# 1 21.9603 26.3260 26.5359 0.0000 18.9488 0.0000
# 2 26.3260 213.5854 105.4820 0.0000 46.2945 0.0000
# 3 26.5359 105.4820 171.3572 0.0000 53.1061 0.0000
# 4 0.0000 0.0000 0.0000 35.8740 0.0000 10.4931
# 5 18.9488 46.2945 53.1061 0.0000 32.6517 0.0000
# 6 0.0000 0.0000 0.0000 10.4931 0.0000 10.2735
#
#
#
# Elastic Compliance Matrix: (Units=1/GPa)
#
#
# Indices 1 2 3 4 5 6 
#
# 1 0.093102 -0.000666 0.004929 0.000000 -0.061102 0.000000
# 2 -0.000666 0.007292 -0.002624 0.000000 -0.005685 0.000000
# 3 0.004929 -0.002624 0.012947 0.000000 -0.020199 0.000000
# 4 0.000000 0.000000 0.000000 0.039751 0.000000 -0.040601
# 5 -0.061102 -0.005685 -0.020199 0.000000 0.106998 0.000000
# 6 0.000000 0.000000 0.000000 -0.040601 0.000000 0.138807
#
#
# Mechanical properties :
#
#
# Convention : Reuss Voigt Hill
#
# Bulk Modulus (GPa) = 8.57485 80.39897 44.48691
# Shear Modulus (GPa) = 11.50768 32.33044 21.91906
#
# Velocity S-wave (km/s) = 2.34857 3.93655 3.24131
# Velocity P-wave (km/s) = 3.38591 7.69403 5.94401
#
# Compressibility (1/GPa) = 0.11662018
#
# Stress axis : x y z
#
# Youngs Moduli (GPa) = 10.74089 137.13564 77.23553
#
# Poissons Ratio (x) = 0.09131 -0.38069
# Poissons Ratio (y) = 0.00715 0.20265
# Poissons Ratio (z) = -0.05294 0.35981
#
# Static dielectric constant tensor:
#      x y z
#    x 1.764020 0.000000 -0.005150 
#    y 0.000000 1.683410 0.000000 
#    z -0.005150 0.000000 1.840190 
# 
# From -- ./inp_files/82538.got.cif
#   From: 2010.05.17/outbox.cif.g08.bks.cpg/sg13_42_cif.got.tgz:82538.got - 2010.06.03 16:44:36.
