data_PCOD9229662
_publ_section_title
;
Structure prediction by ZEFSAII (Michael W. Deem and Ramdas Pophale) SiO2 
 PCOD9229662
Probable space group: P 2/C
;
_chemical_formula_sum "Si O2"
_cell_formula_units_Z 28
_cell_length_a 14.679860
_cell_length_b 5.049934
_cell_length_c 28.091894
_cell_angle_alpha 90.000000
_cell_angle_beta 38.391697
_cell_angle_gamma 90.000000
_cell_volume 1293.314533
_symmetry_space_group_name_H-M "P 2/C"
_symmetry_group_IT_number 13
_symmetry_cell_setting 'monoclinic'
loop_
_space_group_symop_operation_xyz
x,y,z
-x,y,1/2-z
-x,-y,-z
x,-y,1/2+z
loop_
_atom_site_type_symbol
_atom_site_label
_atom_site_fract_x
_atom_site_fract_y
_atom_site_fract_z
Si Si1 0.098918 0.979125 0.077274
Si Si2 0.131535 0.385505 0.877462
Si Si3 0.654324 0.691285 0.472532
Si Si4 0.747367 0.417351 0.772270
Si Si5 0.522864 0.806725 0.429044
Si Si6 0.920748 0.898565 0.732233
Si Si7 0.892971 0.206486 0.516792
O O1 0.956154 0.858834 0.110013
O O2 0.192887 0.763152 0.066397
O O3 0.037616 0.173318 0.142745
O O4 0.189441 0.088310 0.995034
O O5 0.233792 0.471599 0.791964
O O6 0.200783 0.317839 0.900617
O O7 0.001753 0.583442 0.947066
O O8 0.645225 0.762846 0.420387
O O9 0.605787 0.392275 0.501608
O O10 0.536638 0.896236 0.543953
O O11 0.592156 0.299430 0.852163
O O12 0.790638 0.686842 0.781398
O O13 0.860512 0.189472 0.743820
O O14 0.000000 0.893318 0.750000
O O15 0.000000 0.000000 0.500000
#
# Coordination Sequence:
#
# PCOD9229662 Si02
#       7
#     4   4   4   4   4   4   4
#     4  10  20  33  56  85 113 145 186 237 286 342
#     4   9  19  33  56  87 111 143 179 235 298 351
#     4  10  22  37  58  79 113 151 203 230 270 326
#     4  11  21  37  56  80 116 149 189 225 288 348
#     4  10  22  39  54  80 110 160 195 233 266 327
#     4  11  22  33  53  85 118 146 177 232 292 342
#     4   9  17  34  54  85 114 138 183 228 297 349
#
# _framework density 21.649798000000001
#
# number of rings (size 3 to 8) (size 9 to 14) (size 15 to 20)
#    0.000    2.000    1.429    2.143    2.000    3.429 
#    0.000    0.000    0.000    0.857    0.000    0.000 
#    0.000    0.000    0.000    0.000    0.000    0.000 
#
# Total GULP energy -156133.561865 kJ/mol
# GULP energy per Si atom -5576.198638 kJ/mol
# Density = 2.160052 g / cm^3
# Si number density = 21.649798 Si / 1000 Ang^3
#
#
#
# Elastic Constant Matrix: (Units=GPa)
#
#
# Indices 1 2 3 4 5 6 
#
# 1 40.6323 5.5918 18.0220 0.0000 16.8724 0.0000
# 2 5.5918 62.4097 1.7963 0.0000 11.7340 0.0000
# 3 18.0220 1.7963 88.7554 0.0000 28.8502 0.0000
# 4 0.0000 0.0000 0.0000 24.2178 0.0000 -2.4146
# 5 16.8724 11.7340 28.8502 0.0000 26.4266 0.0000
# 6 0.0000 0.0000 0.0000 -2.4146 0.0000 27.1889
#
#
#
# Elastic Compliance Matrix: (Units=1/GPa)
#
#
# Indices 1 2 3 4 5 6 
#
# 1 0.033573 0.001205 0.000465 0.000000 -0.022477 0.000000
# 2 0.001205 0.018198 0.003509 0.000000 -0.012680 0.000000
# 3 0.000465 0.003509 0.018143 0.000000 -0.021661 0.000000
# 4 0.000000 0.000000 0.000000 0.041661 0.000000 0.003700
# 5 -0.022477 -0.012680 -0.021661 0.000000 0.081470 0.000000
# 6 0.000000 0.000000 0.000000 0.003700 0.000000 0.037108
#
#
# Mechanical properties :
#
#
# Convention : Reuss Voigt Hill
#
# Bulk Modulus (GPa) = 12.45790 26.95750 19.70770
# Shear Modulus (GPa) = 20.27969 26.65916 23.46943
#
# Velocity S-wave (km/s) = 3.06390 3.51291 3.29606
# Velocity P-wave (km/s) = 4.27591 5.37891 4.85881
#
# Compressibility (1/GPa) = 0.08027033
#
# Stress axis : x y z
#
# Youngs Moduli (GPa) = 29.78625 54.95015 55.11907
#
# Poissons Ratio (x) = -0.06620 -0.02563
# Poissons Ratio (y) = -0.03588 -0.19340
# Poissons Ratio (z) = -0.01385 -0.19281
#
# Static dielectric constant tensor:
#      x y z
#    x 1.791130 0.000000 0.034650 
#    y 0.000000 1.869640 0.000000 
#    z 0.034650 0.000000 1.915210 
# 
# From -- ./inp_files/79091.got.cif
#   From: 2010.05.17/outbox.cif.g08.bks.cpg/sg13_40_cif.got.tgz:79091.got - 2010.06.03 16:44:36.
