data_PCOD9229560
_publ_section_title
;
Structure prediction by ZEFSAII (Michael W. Deem and Ramdas Pophale) SiO2 
 PCOD9229560
Probable space group: P 2/C
;
_chemical_formula_sum "Si O2"
_cell_formula_units_Z 28
_cell_length_a 27.069059
_cell_length_b 10.402181
_cell_length_c 27.442064
_cell_angle_alpha 90.000000
_cell_angle_beta 169.493405
_cell_angle_gamma 90.000000
_cell_volume 1409.019529
_symmetry_space_group_name_H-M "P 2/C"
_symmetry_group_IT_number 13
_symmetry_cell_setting 'monoclinic'
loop_
_space_group_symop_operation_xyz
x,y,z
-x,y,1/2-z
-x,-y,-z
x,-y,1/2+z
loop_
_atom_site_type_symbol
_atom_site_label
_atom_site_fract_x
_atom_site_fract_y
_atom_site_fract_z
Si Si1 0.132777 0.371953 0.828048
Si Si2 0.983928 0.653319 0.822646
Si Si3 0.565863 0.614684 0.162722
Si Si4 0.336241 0.765248 0.673137
Si Si5 0.000000 0.851607 0.750000
Si Si6 0.500000 0.967615 0.750000
Si Si7 0.474637 0.314410 0.410126
Si Si8 0.934653 0.652337 0.432056
O O1 0.082805 0.519965 0.769054
O O2 0.000000 0.333207 0.750000
O O3 0.966931 0.288478 0.627575
O O4 0.448530 0.342088 0.135951
O O5 0.734683 0.667705 0.619003
O O6 0.007212 0.763193 0.805083
O O7 0.260560 0.634353 0.120253
O O8 0.548262 0.462460 0.132094
O O9 0.741449 0.680585 0.290365
O O10 0.393304 0.882041 0.691879
O O11 0.419003 0.777263 0.809989
O O12 0.741016 0.942460 0.501397
O O13 0.757856 0.313640 0.713002
O O14 0.232154 0.289841 0.213358
O O15 0.000000 0.500000 0.500000
#
# Coordination Sequence:
#
# PCOD9229560 Si02
#       8
#     4   4   4   4   2   2   4   4
#     4  12  20  36  56  89 118 148 191 238 297 351
#     4  12  22  37  59  86 117 157 193 238 287 352
#     4  11  20  34  55  87 123 158 189 226 289 356
#     4  12  23  37  62  86 118 156 196 237 294 352
#     4  12  28  44  60  82 118 156 206 246 292 344
#     4  12  26  46  58  84 114 158 202 248 290 350
#     4  11  19  33  54  87 123 158 188 229 287 357
#     4  10  20  32  50  83 130 163 181 221 286 362
#
# _framework density 19.871974000000002
#
# number of rings (size 3 to 8) (size 9 to 14) (size 15 to 20)
#    0.000    0.571    5.000    6.857    0.000    0.000 
#    0.000    0.000    0.000    0.000    0.000   20.000 
#    0.000    0.000    0.000    0.000    0.000    0.000 
#
# Total GULP energy -156405.563864 kJ/mol
# GULP energy per Si atom -5585.912995 kJ/mol
# Density = 1.982674 g / cm^3
# Si number density = 19.871974 Si / 1000 Ang^3
#
#
#
# Elastic Constant Matrix: (Units=GPa)
#
#
# Indices 1 2 3 4 5 6 
#
# 1 64.3587 8.2040 -5.9487 0.0000 2.8210 0.0000
# 2 8.2040 61.6383 10.3680 0.0000 -9.3897 0.0000
# 3 -5.9487 10.3680 86.7001 0.0000 -7.2309 0.0000
# 4 0.0000 0.0000 0.0000 15.7722 0.0000 -5.8640
# 5 2.8210 -9.3897 -7.2309 0.0000 39.0419 0.0000
# 6 0.0000 0.0000 0.0000 -5.8640 0.0000 8.1176
#
#
#
# Elastic Compliance Matrix: (Units=1/GPa)
#
#
# Indices 1 2 3 4 5 6 
#
# 1 0.016054 -0.002588 0.001282 0.000000 -0.001545 0.000000
# 2 -0.002588 0.017509 -0.001934 0.000000 0.004040 0.000000
# 3 0.001282 -0.001934 0.011992 0.000000 0.001663 0.000000
# 4 0.000000 0.000000 0.000000 0.086684 0.000000 0.062619
# 5 -0.001545 0.004040 0.001663 0.000000 0.027005 0.000000
# 6 0.000000 0.000000 0.000000 0.062619 0.000000 0.168424
#
#
# Mechanical properties :
#
#
# Convention : Reuss Voigt Hill
#
# Bulk Modulus (GPa) = 25.59198 26.43817 26.01508
# Shear Modulus (GPa) = 14.40203 25.92458 20.16331
#
# Velocity S-wave (km/s) = 2.69502 3.61582 3.18883
# Velocity P-wave (km/s) = 4.75295 5.54665 5.16507
#
# Compressibility (1/GPa) = 0.03907474
#
# Stress axis : x y z
#
# Youngs Moduli (GPa) = 62.28973 57.11386 83.38885
#
# Poissons Ratio (x) = 0.14780 -0.10691
# Poissons Ratio (y) = 0.16119 0.16131
# Poissons Ratio (z) = -0.07986 0.11048
#
# Static dielectric constant tensor:
#      x y z
#    x 1.775550 0.000000 0.003010 
#    y 0.000000 1.666120 0.000000 
#    z 0.003010 0.000000 1.692430 
# 
# From -- ./inp_files/94195.got.cif
#   From: 2010.05.17/outbox.cif.g08.bks.cpg/sg13_48_cif.got.tgz:94195.got - 2010.06.03 16:44:36.
