data_PCOD9229870
_publ_section_title
;
Structure prediction by ZEFSAII (Michael W. Deem and Ramdas Pophale) SiO2 
 PCOD9229870
Probable space group: P 2/C
;
_chemical_formula_sum "Si O2"
_cell_formula_units_Z 26
_cell_length_a 22.379936
_cell_length_b 11.341628
_cell_length_c 9.129847
_cell_angle_alpha 90.000000
_cell_angle_beta 31.846321
_cell_angle_gamma 90.000000
_cell_volume 1222.750054
_symmetry_space_group_name_H-M "P 2/C"
_symmetry_group_IT_number 13
_symmetry_cell_setting 'monoclinic'
loop_
_space_group_symop_operation_xyz
x,y,z
-x,y,1/2-z
-x,-y,-z
x,-y,1/2+z
loop_
_atom_site_type_symbol
_atom_site_label
_atom_site_fract_x
_atom_site_fract_y
_atom_site_fract_z
Si Si1 0.171553 0.295421 0.555149
Si Si2 0.759687 0.264735 0.396286
Si Si3 0.000000 0.535117 0.250000
Si Si4 0.891277 0.079994 0.262370
Si Si5 0.797229 0.893387 0.274531
Si Si6 0.368122 0.733505 0.049353
Si Si7 0.768528 0.456215 0.838830
O O1 0.146574 0.202912 0.734934
O O2 0.253949 0.388551 0.462852
O O3 0.068710 0.375637 0.711992
O O4 0.228219 0.228533 0.299381
O O5 0.873567 0.211462 0.235252
O O6 0.664196 0.236849 0.715532
O O7 0.749307 0.405700 0.398307
O O8 0.902946 0.454400 0.522659
O O9 0.870628 0.082887 0.477358
O O10 0.791367 0.010219 0.383593
O O11 0.000000 0.000000 0.000000
O O12 0.683290 0.835668 0.448182
O O13 0.299935 0.615670 0.141040
O O14 0.500000 0.718162 0.750000
#
# Coordination Sequence:
#
# PCOD9229870 Si02
#       7
#     4   4   2   4   4   4   4
#     4  10  21  36  60  93 133 170 213 264 322 395
#     4  10  21  39  63  92 132 169 220 266 321 392
#     4  10  20  34  60  92 138 172 222 250 324 402
#     4  11  23  40  63  93 130 175 211 268 325 395
#     4  10  23  42  63  93 132 166 226 264 326 388
#     4  10  23  45  68  94 130 174 225 276 325 382
#     4  10  21  40  62  96 132 176 217 266 328 394
#
# _framework density 21.263542999999999
#
# number of rings (size 3 to 8) (size 9 to 14) (size 15 to 20)
#    0.000    1.846    0.000    3.692    4.308    1.846 
#   13.846    6.154    0.000    0.923    0.000    0.000 
#    0.000    0.000    0.000    0.000    0.000    0.000 
#
# Total GULP energy -144895.595219 kJ/mol
# GULP energy per Si atom -5572.907508 kJ/mol
# Density = 2.121515 g / cm^3
# Si number density = 21.263543 Si / 1000 Ang^3
#
#
#
# Elastic Constant Matrix: (Units=GPa)
#
#
# Indices 1 2 3 4 5 6 
#
# 1 100.0985 31.1079 66.1751 0.0000 36.7344 0.0000
# 2 31.1079 77.2713 28.0444 0.0000 13.5870 0.0000
# 3 66.1751 28.0444 124.3958 0.0000 20.5439 0.0000
# 4 0.0000 0.0000 0.0000 19.7060 0.0000 22.9051
# 5 36.7344 13.5870 20.5439 0.0000 40.7994 0.0000
# 6 0.0000 0.0000 0.0000 22.9051 0.0000 35.6156
#
#
#
# Elastic Compliance Matrix: (Units=1/GPa)
#
#
# Indices 1 2 3 4 5 6 
#
# 1 0.021912 -0.003188 -0.008568 0.000000 -0.014353 0.000000
# 2 -0.003188 0.014998 -0.001455 0.000000 -0.001391 0.000000
# 3 -0.008568 -0.001455 0.012620 0.000000 0.001844 0.000000
# 4 0.000000 0.000000 0.000000 0.200992 0.000000 -0.129262
# 5 -0.014353 -0.001391 0.001844 0.000000 0.036968 0.000000
# 6 0.000000 0.000000 0.000000 -0.129262 0.000000 0.111208
#
#
# Mechanical properties :
#
#
# Convention : Reuss Voigt Hill
#
# Bulk Modulus (GPa) = 43.27503 61.38003 52.32753
# Shear Modulus (GPa) = 11.55202 30.98675 21.26939
#
# Velocity S-wave (km/s) = 2.33336 3.82156 3.16614
# Velocity P-wave (km/s) = 5.25884 6.95712 6.16672
#
# Compressibility (1/GPa) = 0.02310801
#
# Stress axis : x y z
#
# Youngs Moduli (GPa) = 45.63607 66.67664 79.23829
#
# Poissons Ratio (x) = 0.21258 0.67888
# Poissons Ratio (y) = 0.14550 0.11532
# Poissons Ratio (z) = 0.39099 0.09704
#
# Static dielectric constant tensor:
#      x y z
#    x 1.812000 0.000000 0.031330 
#    y 0.000000 1.860120 0.000000 
#    z 0.031330 0.000000 1.797850 
# 
# From -- ./inp_files/24111.got.cif
#   From: 2010.05.17/outbox.cif.g08.bks.cpg/sg13_13_cif.got.tgz:24111.got - 2010.06.03 16:44:36.
