data_PCOD9229371
_publ_section_title
;
Structure prediction by ZEFSAII (Michael W. Deem and Ramdas Pophale) SiO2 
 PCOD9229371
Probable space group: P 2/C
;
_chemical_formula_sum "Si O2"
_cell_formula_units_Z 18
_cell_length_a 8.468062
_cell_length_b 17.402761
_cell_length_c 5.136341
_cell_angle_alpha 90.000000
_cell_angle_beta 86.058604
_cell_angle_gamma 90.000000
_cell_volume 755.140316
_symmetry_space_group_name_H-M "P 2/C"
_symmetry_group_IT_number 13
_symmetry_cell_setting 'monoclinic'
loop_
_space_group_symop_operation_xyz
x,y,z
-x,y,1/2-z
-x,-y,-z
x,-y,1/2+z
loop_
_atom_site_type_symbol
_atom_site_label
_atom_site_fract_x
_atom_site_fract_y
_atom_site_fract_z
Si Si1 0.500000 0.764800 0.750000
Si Si2 0.836299 0.186323 0.129981
Si Si3 0.500000 0.341909 0.750000
Si Si4 0.000000 0.333271 0.250000
Si Si5 0.203566 0.446846 0.898044
Si Si6 0.823521 0.966954 0.448460
O O1 0.336802 0.811106 0.719693
O O2 0.535306 0.712839 0.491880
O O3 0.823421 0.124376 0.900012
O O4 0.000000 0.157598 0.250000
O O5 0.882301 0.275984 0.107658
O O6 0.364206 0.398709 0.866303
O O7 0.918654 0.384944 0.476154
O O8 0.192147 0.486340 0.617434
O O9 0.744260 0.014991 0.232087
O O10 0.000000 0.000000 0.500000
#
# Coordination Sequence:
#
# PCOD9229371 Si02
#       6
#     2   4   2   2   4   4
#     4  12  26  47  70 107 140 180 242 296 340 431
#     4  10  22  45  73 102 139 189 229 287 353 407
#     4  12  24  49  70  97 146 182 236 300 358 419
#     4  10  22  46  66 102 140 182 236 296 352 418
#     4  12  25  44  68  99 136 183 235 295 356 423
#     4  10  19  39  66 100 137 177 228 275 337 417
#
# _framework density 23.836628999999999
#
# number of rings (size 3 to 8) (size 9 to 14) (size 15 to 20)
#    0.667    0.444    4.444    2.667    0.000    1.778 
#    8.000    1.111    0.000    0.000    0.000    0.000 
#    0.000    0.000    0.000    0.000    0.000    0.000 
#
# Total GULP energy -100285.578071 kJ/mol
# GULP energy per Si atom -5571.421004 kJ/mol
# Density = 2.378238 g / cm^3
# Si number density = 23.836629 Si / 1000 Ang^3
#
#
#
# Elastic Constant Matrix: (Units=GPa)
#
#
# Indices 1 2 3 4 5 6 
#
# 1 139.9650 55.2377 25.5051 0.0000 -25.7627 0.0000
# 2 55.2377 116.9621 41.3510 0.0000 -6.4513 0.0000
# 3 25.5051 41.3510 128.5491 0.0000 -8.0300 0.0000
# 4 0.0000 0.0000 0.0000 117.2417 0.0000 -62.3439
# 5 -25.7627 -6.4513 -8.0300 0.0000 26.4494 0.0000
# 6 0.0000 0.0000 0.0000 -62.3439 0.0000 35.7957
#
#
#
# Elastic Compliance Matrix: (Units=1/GPa)
#
#
# Indices 1 2 3 4 5 6 
#
# 1 0.010628 -0.004478 -0.000092 0.000000 0.009232 0.000000
# 2 -0.004478 0.011587 -0.002992 0.000000 -0.002443 0.000000
# 3 -0.000092 -0.002992 0.008877 0.000000 0.001876 0.000000
# 4 0.000000 0.000000 0.000000 0.115475 0.000000 0.201118
# 5 0.009232 -0.002443 0.001876 0.000000 0.046774 0.000000
# 6 0.000000 0.000000 0.000000 0.201118 0.000000 0.378215
#
#
# Mechanical properties :
#
#
# Convention : Reuss Voigt Hill
#
# Bulk Modulus (GPa) = 62.61631 69.96264 66.28947
# Shear Modulus (GPa) = 8.44595 53.45617 30.95106
#
# Velocity S-wave (km/s) = 1.88440 4.74075 3.60733
# Velocity P-wave (km/s) = 5.57320 7.70590 6.72464
#
# Compressibility (1/GPa) = 0.01597028
#
# Stress axis : x y z
#
# Youngs Moduli (GPa) = 94.09394 86.30161 112.65306
#
# Poissons Ratio (x) = 0.38642 0.01032
# Poissons Ratio (y) = 0.42131 0.33701
# Poissons Ratio (z) = 0.00862 0.25818
#
# Static dielectric constant tensor:
#      x y z
#    x 1.919690 0.000000 0.080920 
#    y 0.000000 1.897880 0.000000 
#    z 0.080920 0.000000 1.898740 
# 
# From -- ./inp_files/1346.got.cif
#   From: 2010.05.17/outbox.cif.g08.bks.cpg/sg13_1_cif.got.tgz:1346.got - 2010.06.03 16:44:36.
