data_PCOD9229812
_publ_section_title
;
Structure prediction by ZEFSAII (Michael W. Deem and Ramdas Pophale) SiO2 
 PCOD9229812
Probable space group: P 2/C
;
_chemical_formula_sum "Si O2"
_cell_formula_units_Z 24
_cell_length_a 28.368351
_cell_length_b 11.551794
_cell_length_c 9.731691
_cell_angle_alpha 90.000000
_cell_angle_beta 25.036812
_cell_angle_gamma 90.000000
_cell_volume 1349.640115
_symmetry_space_group_name_H-M "P 2/C"
_symmetry_group_IT_number 13
_symmetry_cell_setting 'monoclinic'
loop_
_space_group_symop_operation_xyz
x,y,z
-x,y,1/2-z
-x,-y,-z
x,-y,1/2+z
loop_
_atom_site_type_symbol
_atom_site_label
_atom_site_fract_x
_atom_site_fract_y
_atom_site_fract_z
Si Si1 0.581797 0.982063 0.158858
Si Si2 0.777176 0.132755 0.748630
Si Si3 0.065192 0.070366 0.708271
Si Si4 0.110507 0.632720 0.627503
Si Si5 0.258174 0.209710 0.348809
Si Si6 0.852790 0.429457 0.776142
O O1 0.500000 0.001033 0.250000
O O2 0.500000 0.000000 0.500000
O O3 0.639614 0.855502 0.994726
O O4 0.681173 0.075416 0.910015
O O5 0.841850 0.237784 0.504368
O O6 0.862232 0.029800 0.554690
O O7 0.734703 0.172841 0.009636
O O8 0.148268 0.157395 0.565904
O O9 0.000000 0.124440 0.750000
O O10 0.000000 0.000000 0.000000
O O11 0.148394 0.556233 0.655860
O O12 0.153989 0.574171 0.370865
O O13 0.975990 0.625608 0.979285
O O14 0.238339 0.346947 0.411432
#
# Coordination Sequence:
#
# PCOD9229812 Si02
#       6
#     4   4   4   4   4   4
#     4  11  22  39  58  81 105 137 184 234 284 324
#     4  10  20  34  57  77 106 147 179 218 272 326
#     4  11  20  31  48  78 112 140 172 214 265 326
#     4   9  18  34  55  77 111 146 180 212 260 316
#     4  10  20  35  55  79 106 144 182 217 271 328
#     4   9  18  35  53  79 111 147 178 214 258 319
#
# _framework density 17.782519000000001
#
# number of rings (size 3 to 8) (size 9 to 14) (size 15 to 20)
#    0.000    2.000    3.333    1.000    2.333    0.000 
#   12.000    0.000    0.000    2.000    0.000    0.000 
#    0.000    0.000    0.000    0.000    0.000    0.000 
#
# Total GULP energy -133708.889210 kJ/mol
# GULP energy per Si atom -5571.203717 kJ/mol
# Density = 1.774204 g / cm^3
# Si number density = 17.782519 Si / 1000 Ang^3
#
#
#
# Elastic Constant Matrix: (Units=GPa)
#
#
# Indices 1 2 3 4 5 6 
#
# 1 86.0619 3.1276 6.0667 0.0000 -7.7086 0.0000
# 2 3.1276 55.2637 8.9435 0.0000 1.6425 0.0000
# 3 6.0667 8.9435 52.3813 0.0000 4.4272 0.0000
# 4 0.0000 0.0000 0.0000 29.3331 0.0000 4.4957
# 5 -7.7086 1.6425 4.4272 0.0000 20.6217 0.0000
# 6 0.0000 0.0000 0.0000 4.4957 0.0000 19.2338
#
#
#
# Elastic Compliance Matrix: (Units=1/GPa)
#
#
# Indices 1 2 3 4 5 6 
#
# 1 0.012209 -0.000557 -0.001740 0.000000 0.004982 0.000000
# 2 -0.000557 0.018648 -0.003031 0.000000 -0.001043 0.000000
# 3 -0.001740 -0.003031 0.020211 0.000000 -0.004748 0.000000
# 4 0.000000 0.000000 0.000000 0.035358 0.000000 -0.008265
# 5 0.004982 -0.001043 -0.004748 0.000000 0.051457 0.000000
# 6 0.000000 0.000000 0.000000 -0.008265 0.000000 0.053924
#
#
# Mechanical properties :
#
#
# Convention : Reuss Voigt Hill
#
# Bulk Modulus (GPa) = 24.74580 25.55360 25.14970
# Shear Modulus (GPa) = 23.15521 25.54230 24.34876
#
# Velocity S-wave (km/s) = 3.61242 3.79406 3.70436
# Velocity P-wave (km/s) = 5.59870 5.79607 5.69824
#
# Compressibility (1/GPa) = 0.04041090
#
# Stress axis : x y z
#
# Youngs Moduli (GPa) = 81.90907 53.62460 49.47769
#
# Poissons Ratio (x) = 0.02989 0.08608
# Poissons Ratio (y) = 0.04566 0.14998
# Poissons Ratio (z) = 0.14251 0.16255
#
# Static dielectric constant tensor:
#      x y z
#    x 1.607070 0.000000 -0.005820 
#    y 0.000000 1.619420 0.000000 
#    z -0.005820 0.000000 1.628880 
# 
# From -- ./inp_files/15890.got.cif
#   From: 2010.05.17/outbox.cif.g08.bks.cpg/sg13_8_cif.got.tgz:15890.got - 2010.06.03 16:44:36.
