data_PCOD9229303
_publ_section_title
;
Structure prediction by ZEFSAII (Michael W. Deem and Ramdas Pophale) SiO2 
 PCOD9229303
Probable space group: P 2/C
;
_chemical_formula_sum "Si O2"
_cell_formula_units_Z 30
_cell_length_a 6.245346
_cell_length_b 14.215943
_cell_length_c 17.787320
_cell_angle_alpha 90.000000
_cell_angle_beta 111.262068
_cell_angle_gamma 90.000000
_cell_volume 1471.725082
_symmetry_space_group_name_H-M "P 2/C"
_symmetry_group_IT_number 13
_symmetry_cell_setting 'monoclinic'
loop_
_space_group_symop_operation_xyz
x,y,z
-x,y,1/2-z
-x,-y,-z
x,-y,1/2+z
loop_
_atom_site_type_symbol
_atom_site_label
_atom_site_fract_x
_atom_site_fract_y
_atom_site_fract_z
Si Si1 0.488354 0.610325 0.009881
Si Si2 0.277479 0.761981 0.568541
Si Si3 0.500000 0.997584 0.250000
Si Si4 0.553028 0.168075 0.641227
Si Si5 0.396183 0.900857 0.961809
Si Si6 0.917422 0.857985 0.823645
Si Si7 0.871619 0.333368 0.661801
Si Si8 0.158623 0.713713 0.067744
O O1 0.597467 0.671609 0.954603
O O2 0.500000 0.500000 0.000000
O O3 0.633329 0.624621 0.104874
O O4 0.249579 0.656406 0.006931
O O5 0.450788 0.848822 0.580699
O O6 0.188860 0.770436 0.642687
O O7 0.050238 0.778562 0.488686
O O8 0.444421 0.928124 0.312951
O O9 0.277873 0.062117 0.207879
O O10 0.448697 0.158074 0.543958
O O11 0.791604 0.224431 0.666446
O O12 0.346095 0.233748 0.644158
O O13 0.136411 0.897892 0.898891
O O14 0.500000 0.000000 0.000000
O O15 0.000000 0.833552 0.750000
O O16 0.000000 0.370068 0.750000
O O17 0.031949 0.351809 0.611102
#
# Coordination Sequence:
#
# PCOD9229303 Si02
#       8
#     4   4   2   4   4   4   4   4
#     4  10  22  41  69 103 128 170 225 274 336 418
#     4  11  21  42  67  92 127 173 224 278 343 391
#     4  12  28  38  62  94 138 186 230 282 340 390
#     4  11  21  39  57  96 126 169 221 275 334 401
#     4  12  24  38  64  92 130 174 234 275 329 400
#     4  12  26  44  59  90 133 183 237 280 330 400
#     4  10  21  37  64  99 135 165 206 272 349 403
#     4  10  19  38  68  93 127 170 211 271 338 403
#
# _framework density 20.384243000000001
#
# number of rings (size 3 to 8) (size 9 to 14) (size 15 to 20)
#    0.000    1.067    5.333    3.200    1.867    7.467 
#    0.000    0.000    0.000   16.800    0.000    0.000 
#    0.000    0.000    0.000    0.000    0.000    0.000 
#
# Total GULP energy -167042.173834 kJ/mol
# GULP energy per Si atom -5568.072461 kJ/mol
# Density = 2.033785 g / cm^3
# Si number density = 20.384243 Si / 1000 Ang^3
#
#
#
# Elastic Constant Matrix: (Units=GPa)
#
#
# Indices 1 2 3 4 5 6 
#
# 1 106.3214 40.6545 36.3635 0.0000 -1.3535 0.0000
# 2 40.6545 95.4215 21.4341 0.0000 -3.8258 0.0000
# 3 36.3635 21.4341 97.1227 0.0000 -8.4685 0.0000
# 4 0.0000 0.0000 0.0000 17.5592 0.0000 -6.8739
# 5 -1.3535 -3.8258 -8.4685 0.0000 39.9250 0.0000
# 6 0.0000 0.0000 0.0000 -6.8739 0.0000 11.2283
#
#
#
# Elastic Compliance Matrix: (Units=1/GPa)
#
#
# Indices 1 2 3 4 5 6 
#
# 1 0.012376 -0.004470 -0.003717 0.000000 -0.000797 0.000000
# 2 -0.004470 0.012653 -0.001046 0.000000 0.000839 0.000000
# 3 -0.003717 -0.001046 0.012123 0.000000 0.002345 0.000000
# 4 0.000000 0.000000 0.000000 0.074901 0.000000 0.045854
# 5 -0.000797 0.000839 0.002345 0.000000 0.025598 0.000000
# 6 0.000000 0.000000 0.000000 0.045854 0.000000 0.117133
#
#
# Mechanical properties :
#
#
# Convention : Reuss Voigt Hill
#
# Bulk Modulus (GPa) = 53.51226 55.08552 54.29889
# Shear Modulus (GPa) = 17.89065 27.10337 22.49701
#
# Velocity S-wave (km/s) = 2.96576 3.65036 3.32572
# Velocity P-wave (km/s) = 6.16737 6.69694 6.43760
#
# Compressibility (1/GPa) = 0.01868730
#
# Stress axis : x y z
#
# Youngs Moduli (GPa) = 80.80468 79.03460 82.48767
#
# Poissons Ratio (x) = 0.35326 0.30657
# Poissons Ratio (y) = 0.36118 0.08626
# Poissons Ratio (z) = 0.30032 0.08264
#
# Static dielectric constant tensor:
#      x y z
#    x 1.944140 0.000000 -0.072720 
#    y 0.000000 1.803410 0.000000 
#    z -0.072720 0.000000 1.767130 
# 
# From -- ./inp_files/61445.got.cif
#   From: 2010.05.17/outbox.cif.g08.bks.cpg/sg13_31_cif.got.tgz:61445.got - 2010.06.03 16:44:36.
