data_PCOD9229215
_publ_section_title
;
Structure prediction by ZEFSAII (Michael W. Deem and Ramdas Pophale) SiO2 
 PCOD9229215
Probable space group: P 2/C
;
_chemical_formula_sum "Si O2"
_cell_formula_units_Z 20
_cell_length_a 19.474402
_cell_length_b 10.762037
_cell_length_c 12.938935
_cell_angle_alpha 90.000000
_cell_angle_beta 22.340449
_cell_angle_gamma 90.000000
_cell_volume 1030.779000
_symmetry_space_group_name_H-M "P 2/C"
_symmetry_group_IT_number 13
_symmetry_cell_setting 'monoclinic'
loop_
_space_group_symop_operation_xyz
x,y,z
-x,y,1/2-z
-x,-y,-z
x,-y,1/2+z
loop_
_atom_site_type_symbol
_atom_site_label
_atom_site_fract_x
_atom_site_fract_y
_atom_site_fract_z
Si Si1 0.500000 0.333335 0.750000
Si Si2 0.296752 0.107732 0.350455
Si Si3 0.111466 0.383279 0.308484
Si Si4 0.379300 0.173360 0.720934
Si Si5 0.013488 0.122098 0.555540
Si Si6 0.000000 0.713406 0.750000
O O1 0.676634 0.407070 0.470316
O O2 0.437394 0.250196 0.740490
O O3 0.171904 0.140895 0.621639
O O4 0.168176 0.103131 0.427610
O O5 0.373240 0.970122 0.261988
O O6 0.470383 0.189552 0.077307
O O7 0.000000 0.500000 0.500000
O O8 0.062447 0.249046 0.427036
O O9 0.067842 0.368075 0.249260
O O10 0.174877 0.206872 0.973834
O O11 0.000000 0.000000 0.500000
#
# Coordination Sequence:
#
# PCOD9229215 Si02
#       6
#     2   4   4   4   4   2
#     4  10  20  42  66  84 128 172 210 250 330 378
#     4  10  21  33  60  96 128 159 214 260 308 369
#     4  11  24  44  66  91 122 169 209 258 316 376
#     4  10  19  38  60  94 127 169 203 256 317 377
#     4  11  21  39  63  94 129 164 206 265 315 369
#     4  10  22  42  62  84 126 162 208 248 318 374
#
# _framework density 19.402802000000001
#
# number of rings (size 3 to 8) (size 9 to 14) (size 15 to 20)
#    0.000    1.600    2.000    4.800    0.000    1.600 
#    3.600    2.000    0.000    0.000    0.000    0.000 
#    0.000    0.000    0.000    0.000    0.000    0.000 
#
# Total GULP energy -111596.139189 kJ/mol
# GULP energy per Si atom -5579.806959 kJ/mol
# Density = 1.935864 g / cm^3
# Si number density = 19.402802 Si / 1000 Ang^3
#
#
#
# Elastic Constant Matrix: (Units=GPa)
#
#
# Indices 1 2 3 4 5 6 
#
# 1 67.8881 21.8642 36.8144 0.0000 0.3871 0.0000
# 2 21.8642 81.3210 45.0737 0.0000 2.1660 0.0000
# 3 36.8144 45.0737 195.3391 0.0000 1.0159 0.0000
# 4 0.0000 0.0000 0.0000 25.0772 0.0000 3.7166
# 5 0.3871 2.1660 1.0159 0.0000 29.3490 0.0000
# 6 0.0000 0.0000 0.0000 3.7166 0.0000 8.4298
#
#
#
# Elastic Compliance Matrix: (Units=1/GPa)
#
#
# Indices 1 2 3 4 5 6 
#
# 1 0.017115 -0.003229 -0.002481 0.000000 0.000098 0.000000
# 2 -0.003229 0.014735 -0.002787 0.000000 -0.000948 0.000000
# 3 -0.002481 -0.002787 0.006230 0.000000 0.000023 0.000000
# 4 0.000000 0.000000 0.000000 0.042665 0.000000 -0.018811
# 5 0.000098 -0.000948 0.000023 0.000000 0.034141 0.000000
# 6 0.000000 0.000000 0.000000 -0.018811 0.000000 0.126920
#
#
# Mechanical properties :
#
#
# Convention : Reuss Voigt Hill
#
# Bulk Modulus (GPa) = 47.42388 61.33919 54.38154
# Shear Modulus (GPa) = 18.80924 28.62425 23.71675
#
# Velocity S-wave (km/s) = 3.11691 3.84508 3.49999
# Velocity P-wave (km/s) = 6.11950 7.16904 6.66496
#
# Compressibility (1/GPa) = 0.02108642
#
# Stress axis : x y z
#
# Youngs Moduli (GPa) = 58.42862 67.86621 160.52039
#
# Poissons Ratio (x) = 0.21914 0.39825
# Poissons Ratio (y) = 0.18867 0.44729
# Poissons Ratio (z) = 0.14496 0.18911
#
# Static dielectric constant tensor:
#      x y z
#    x 1.669930 0.000000 0.016660 
#    y 0.000000 1.671310 0.000000 
#    z 0.016660 0.000000 1.770270 
# 
# From -- ./inp_files/29155.got.cif
#   From: 2010.05.17/outbox.cif.g08.bks.cpg/sg13_15_cif.got.tgz:29155.got - 2010.06.03 16:44:36.
