data_PCOD9229880
_publ_section_title
;
Structure prediction by ZEFSAII (Michael W. Deem and Ramdas Pophale) SiO2 
 PCOD9229880
Probable space group: P 2/C
;
_chemical_formula_sum "Si O2"
_cell_formula_units_Z 18
_cell_length_a 7.071526
_cell_length_b 10.610627
_cell_length_c 10.551100
_cell_angle_alpha 90.000000
_cell_angle_beta 111.065728
_cell_angle_gamma 90.000000
_cell_volume 738.774837
_symmetry_space_group_name_H-M "P 2/C"
_symmetry_group_IT_number 13
_symmetry_cell_setting 'monoclinic'
loop_
_space_group_symop_operation_xyz
x,y,z
-x,y,1/2-z
-x,-y,-z
x,-y,1/2+z
loop_
_atom_site_type_symbol
_atom_site_label
_atom_site_fract_x
_atom_site_fract_y
_atom_site_fract_z
Si Si1 0.858128 0.999513 0.590705
Si Si2 0.245864 0.738206 0.487492
Si Si3 0.125889 0.278004 0.409488
Si Si4 0.315572 0.513406 0.120886
Si Si5 0.000000 0.419554 0.750000
O O1 0.707537 0.117317 0.532904
O O2 0.000000 0.020165 0.750000
O O3 0.767893 0.858574 0.580361
O O4 0.000000 0.000000 0.500000
O O5 0.368895 0.629007 0.589548
O O6 0.040488 0.741761 0.521503
O O7 0.176305 0.669521 0.343894
O O8 0.267144 0.391688 0.492983
O O9 0.000000 0.295746 0.250000
O O10 0.500000 0.559845 0.250000
O O11 0.112920 0.512441 0.159935
#
# Coordination Sequence:
#
# PCOD9229880 Si02
#       5
#     4   4   4   4   2
#     4   9  17  33  59  93 117 163 215 261 314 383
#     4  10  20  34  61  87 122 163 204 256 315 370
#     4   9  19  36  62  88 124 162 210 259 314 378
#     4  11  25  39  61  95 128 166 210 260 316 377
#     4  10  20  40  64  84 126 164 208 254 316 368
#
# _framework density 24.364664999999999
#
# number of rings (size 3 to 8) (size 9 to 14) (size 15 to 20)
#    0.000    2.222    1.111    2.667    6.222    0.889 
#    0.000    1.111    0.000    1.333    0.000    0.000 
#    0.000    0.000    0.000    0.000    0.000    0.000 
#
# Total GULP energy -100382.489569 kJ/mol
# GULP energy per Si atom -5576.804976 kJ/mol
# Density = 2.430921 g / cm^3
# Si number density = 24.364665 Si / 1000 Ang^3
#
#
#
# Elastic Constant Matrix: (Units=GPa)
#
#
# Indices 1 2 3 4 5 6 
#
# 1 86.6427 30.7743 29.2917 0.0000 -1.7570 0.0000
# 2 30.7743 239.6194 78.3765 0.0000 -2.0490 0.0000
# 3 29.2917 78.3765 153.4635 0.0000 1.1505 0.0000
# 4 0.0000 0.0000 0.0000 5.8680 0.0000 -5.3043
# 5 -1.7570 -2.0490 1.1505 0.0000 33.2112 0.0000
# 6 0.0000 0.0000 0.0000 -5.3043 0.0000 -2.3042
#
#
#
# Elastic Compliance Matrix: (Units=1/GPa)
#
#
# Indices 1 2 3 4 5 6 
#
# 1 0.012546 -0.000985 -0.001897 0.000000 0.000669 0.000000
# 2 -0.000985 0.005093 -0.002416 0.000000 0.000346 0.000000
# 3 -0.001897 -0.002416 0.008116 0.000000 -0.000531 0.000000
# 4 0.000000 0.000000 0.000000 0.055314 0.000000 -0.127333
# 5 0.000669 0.000346 -0.000531 0.000000 0.030185 0.000000
# 6 0.000000 0.000000 0.000000 -0.127333 0.000000 -0.140864
#
#
# Mechanical properties :
#
#
# Convention : Reuss Voigt Hill
#
# Bulk Modulus (GPa) = 65.96170 84.06787 75.01478
# Shear Modulus (GPa) = -358.13386 30.10719 -164.01333
#
# Velocity S-wave (km/s) = -12.13706 3.51905 -8.21354
# Velocity P-wave (km/s) = 13.01074 7.14777 7.68729
#
# Compressibility (1/GPa) = 0.01516031
#
# Stress axis : x y z
#
# Youngs Moduli (GPa) = 79.70452 196.35267 123.21570
#
# Poissons Ratio (x) = 0.19346 0.23368
# Poissons Ratio (y) = 0.07853 0.29763
# Poissons Ratio (z) = 0.15116 0.47430
#
# Static dielectric constant tensor:
#      x y z
#    x 1.869650 0.000000 -0.002000 
#    y 0.000000 2.079440 0.000000 
#    z -0.002000 0.000000 1.925510 
# 
# From -- ./inp_files/29636.got.cif
#   From: 2010.05.17/outbox.cif.g08.bks.cpg/sg13_15_cif.got.tgz:29636.got - 2010.06.03 16:44:36.
