data_PCOD9229750
_publ_section_title
;
Structure prediction by ZEFSAII (Michael W. Deem and Ramdas Pophale) SiO2 
 PCOD9229750
Probable space group: P 2/C
;
_chemical_formula_sum "Si O2"
_cell_formula_units_Z 24
_cell_length_a 6.993375
_cell_length_b 8.776849
_cell_length_c 20.292881
_cell_angle_alpha 90.000000
_cell_angle_beta 87.598285
_cell_angle_gamma 90.000000
_cell_volume 1244.478763
_symmetry_space_group_name_H-M "P 2/C"
_symmetry_group_IT_number 13
_symmetry_cell_setting 'monoclinic'
loop_
_space_group_symop_operation_xyz
x,y,z
-x,y,1/2-z
-x,-y,-z
x,-y,1/2+z
loop_
_atom_site_type_symbol
_atom_site_label
_atom_site_fract_x
_atom_site_fract_y
_atom_site_fract_z
Si Si1 0.285653 0.101694 0.934566
Si Si2 0.402433 0.848719 0.575257
Si Si3 0.946116 0.012816 0.853745
Si Si4 0.000000 0.728348 0.250000
Si Si5 0.607497 0.306311 0.690331
Si Si6 0.384874 0.622806 0.690161
Si Si7 0.000000 0.240750 0.250000
O O1 0.366200 0.209052 0.875370
O O2 0.405466 0.945365 0.936214
O O3 0.311211 0.179713 0.004954
O O4 0.073984 0.060118 0.913958
O O5 0.254137 0.951591 0.618289
O O6 0.426889 0.702859 0.620542
O O7 0.048690 0.879285 0.808648
O O8 0.920484 0.158445 0.807458
O O9 0.818661 0.650745 0.216259
O O10 0.500000 0.214257 0.750000
O O11 0.528104 0.453112 0.817648
O O12 0.500000 0.694871 0.750000
O O13 0.166551 0.655388 0.715692
#
# Coordination Sequence:
#
# PCOD9229750 Si02
#       7
#     4   4   4   2   4   4   2
#     4  10  20  34  54  80 109 140 176 219 267 318
#     4  10  20  34  54  80 109 140 176 219 267 318
#     4   9  17  32  56  80 105 139 182 226 263 309
#     4   9  18  33  54  80 106 138 182 226 266 312
#     4  10  21  35  53  78 108 141 178 219 264 316
#     4  10  21  35  53  78 108 141 178 219 264 316
#     4   9  18  33  54  80 106 138 182 226 266 312
#
# _framework density 19.285184000000001
#
# number of rings (size 3 to 8) (size 9 to 14) (size 15 to 20)
#    0.000    2.333    0.000    2.500    0.000    6.667 
#    0.000    0.000    0.000    0.000    0.000   32.667 
#    0.000    0.000    0.000    0.000    0.000    0.000 
#
# Total GULP energy -133714.708415 kJ/mol
# GULP energy per Si atom -5571.446184 kJ/mol
# Density = 1.924129 g / cm^3
# Si number density = 19.285184 Si / 1000 Ang^3
#
#
#
# Elastic Constant Matrix: (Units=GPa)
#
#
# Indices 1 2 3 4 5 6 
#
# 1 38.0780 8.1498 -14.2139 0.0000 8.7214 0.0000
# 2 8.1498 54.4894 9.4092 0.0000 7.0606 0.0000
# 3 -14.2139 9.4092 76.6602 0.0000 16.3287 0.0000
# 4 0.0000 0.0000 0.0000 5.0349 0.0000 17.5990
# 5 8.7214 7.0606 16.3287 0.0000 31.2264 0.0000
# 6 0.0000 0.0000 0.0000 17.5990 0.0000 5.4742
#
#
#
# Elastic Compliance Matrix: (Units=1/GPa)
#
#
# Indices 1 2 3 4 5 6 
#
# 1 0.034105 -0.005045 0.009823 0.000000 -0.013521 0.000000
# 2 -0.005045 0.019826 -0.003054 0.000000 -0.001476 0.000000
# 3 0.009823 -0.003054 0.017643 0.000000 -0.011279 0.000000
# 4 0.000000 0.000000 0.000000 -0.019401 0.000000 0.062372
# 5 -0.013521 -0.001476 -0.011279 0.000000 0.042032 0.000000
# 6 0.000000 0.000000 0.000000 0.062372 0.000000 -0.017844
#
#
# Mechanical properties :
#
#
# Convention : Reuss Voigt Hill
#
# Bulk Modulus (GPa) = 13.32963 19.54642 16.43803
# Shear Modulus (GPa) = 51.06126 19.40595 35.23361
#
# Velocity S-wave (km/s) = 5.15116 3.17560 4.27895
# Velocity P-wave (km/s) = 6.50431 4.85834 5.74062
#
# Compressibility (1/GPa) = 0.07502085
#
# Stress axis : x y z
#
# Youngs Moduli (GPa) = 29.32086 50.43999 56.67921
#
# Poissons Ratio (x) = 0.25448 -0.55676
# Poissons Ratio (y) = 0.14793 0.17312
# Poissons Ratio (z) = -0.28802 0.15406
#
# Static dielectric constant tensor:
#      x y z
#    x 1.704440 0.000000 0.001110 
#    y 0.000000 1.700760 0.000000 
#    z 0.001110 0.000000 1.675450 
# 
# From -- ./inp_files/63406.got.cif
#   From: 2010.05.17/outbox.cif.g08.bks.cpg/sg13_32_cif.got.tgz:63406.got - 2010.06.03 16:44:36.
