data_PCOD9229707
_publ_section_title
;
Structure prediction by ZEFSAII (Michael W. Deem and Ramdas Pophale) SiO2 
 PCOD9229707
Probable space group: P 2/C
;
_chemical_formula_sum "Si O2"
_cell_formula_units_Z 30
_cell_length_a 20.197373
_cell_length_b 8.773901
_cell_length_c 16.279666
_cell_angle_alpha 90.000000
_cell_angle_beta 142.593689
_cell_angle_gamma 90.000000
_cell_volume 1752.480439
_symmetry_space_group_name_H-M "P 2/C"
_symmetry_group_IT_number 13
_symmetry_cell_setting 'monoclinic'
loop_
_space_group_symop_operation_xyz
x,y,z
-x,y,1/2-z
-x,-y,-z
x,-y,1/2+z
loop_
_atom_site_type_symbol
_atom_site_label
_atom_site_fract_x
_atom_site_fract_y
_atom_site_fract_z
Si Si1 0.669774 0.601074 0.113487
Si Si2 0.000000 0.058844 0.250000
Si Si3 0.488900 0.177083 0.507320
Si Si4 0.743507 0.699836 0.760050
Si Si5 0.905663 0.220741 0.563468
Si Si6 0.129683 0.631087 0.296743
Si Si7 0.419863 0.342041 0.596456
Si Si8 0.178449 0.722015 0.846700
O O1 0.724188 0.482793 0.231985
O O2 0.768170 0.674168 0.159096
O O3 0.589101 0.722232 0.073151
O O4 0.605042 0.489171 0.986147
O O5 0.094662 0.160735 0.303188
O O6 0.055161 0.948019 0.372302
O O7 0.377405 0.232634 0.354775
O O8 0.472001 0.217697 0.586612
O O9 0.500000 0.000000 0.500000
O O10 0.797183 0.749271 0.725943
O O11 0.817532 0.756777 0.906561
O O12 0.862726 0.294671 0.605994
O O13 0.015652 0.311415 0.648317
O O14 0.131298 0.448852 0.306578
O O15 0.500000 0.375785 0.750000
O O16 0.299893 0.284378 0.505582
#
# Coordination Sequence:
#
# PCOD9229707 Si02
#       8
#     4   2   4   4   4   4   4   4
#     4   9  19  35  56  77 102 139 175 214 260 304
#     4  10  20  34  52  74 108 140 168 214 270 312
#     4  10  21  36  54  78 110 139 168 213 266 318
#     4   9  20  37  54  74 102 137 177 213 254 308
#     4  10  20  34  53  77 103 133 172 218 259 308
#     4   8  18  34  53  76 102 133 175 215 254 304
#     4   9  19  36  56  78 104 138 180 218 255 305
#     4   9  19  35  53  74 104 140 171 210 261 313
#
# _framework density 17.118593000000001
#
# number of rings (size 3 to 8) (size 9 to 14) (size 15 to 20)
#    0.000    3.467    0.000    2.400    0.000   12.267 
#    0.000    3.333    0.000    0.000    0.000    0.000 
#    0.000    0.000    0.000    0.000    0.000    0.000 
#
# Total GULP energy -167113.742862 kJ/mol
# GULP energy per Si atom -5570.458095 kJ/mol
# Density = 1.707963 g / cm^3
# Si number density = 17.118593 Si / 1000 Ang^3
#
#
#
# Elastic Constant Matrix: (Units=GPa)
#
#
# Indices 1 2 3 4 5 6 
#
# 1 74.3693 58.2984 40.6140 0.0000 38.4249 0.0000
# 2 58.2984 87.4925 36.3149 0.0000 28.7754 0.0000
# 3 40.6140 36.3149 107.3173 0.0000 4.5468 0.0000
# 4 0.0000 0.0000 0.0000 3.4626 0.0000 -6.5420
# 5 38.4249 28.7754 4.5468 0.0000 29.6529 0.0000
# 6 0.0000 0.0000 0.0000 -6.5420 0.0000 -5.8582
#
#
#
# Elastic Compliance Matrix: (Units=1/GPa)
#
#
# Indices 1 2 3 4 5 6 
#
# 1 0.090788 -0.019277 -0.023798 0.000000 -0.095290 0.000000
# 2 -0.019277 0.024084 -0.000929 0.000000 0.001750 0.000000
# 3 -0.023798 -0.000929 0.017407 0.000000 0.029070 0.000000
# 4 0.000000 0.000000 0.000000 0.092865 0.000000 -0.103705
# 5 -0.095290 0.001750 0.029070 0.000000 0.151046 0.000000
# 6 0.000000 0.000000 0.000000 -0.103705 0.000000 -0.054891
#
#
# Mechanical properties :
#
#
# Convention : Reuss Voigt Hill
#
# Bulk Modulus (GPa) = 22.58767 59.95931 41.27349
# Shear Modulus (GPa) = 11.79065 14.38159 13.08612
#
# Velocity S-wave (km/s) = 2.62728 2.90162 2.76785
# Velocity P-wave (km/s) = 4.73571 6.80645 5.86322
#
# Compressibility (1/GPa) = 0.04427194
#
# Stress axis : x y z
#
# Youngs Moduli (GPa) = 11.01466 41.52175 57.44762
#
# Poissons Ratio (x) = 0.80040 1.36716
# Poissons Ratio (y) = 0.21232 0.05335
# Poissons Ratio (z) = 0.26213 0.03856
#
# Static dielectric constant tensor:
#      x y z
#    x 1.587650 0.000000 0.009250 
#    y 0.000000 1.583200 0.000000 
#    z 0.009250 0.000000 1.573680 
# 
# From -- ./inp_files/70605.got.cif
#   From: 2010.05.17/outbox.cif.g08.bks.cpg/sg13_36_cif.got.tgz:70605.got - 2010.06.03 16:44:36.
