data_PCOD9229901
_publ_section_title
;
Structure prediction by ZEFSAII (Michael W. Deem and Ramdas Pophale) SiO2 
 PCOD9229901
Probable space group: P 2/C
;
_chemical_formula_sum "Si O2"
_cell_formula_units_Z 28
_cell_length_a 15.956236
_cell_length_b 12.011540
_cell_length_c 8.666273
_cell_angle_alpha 90.000000
_cell_angle_beta 53.283803
_cell_angle_gamma 90.000000
_cell_volume 1331.443772
_symmetry_space_group_name_H-M "P 2/C"
_symmetry_group_IT_number 13
_symmetry_cell_setting 'monoclinic'
loop_
_space_group_symop_operation_xyz
x,y,z
-x,y,1/2-z
-x,-y,-z
x,-y,1/2+z
loop_
_atom_site_type_symbol
_atom_site_label
_atom_site_fract_x
_atom_site_fract_y
_atom_site_fract_z
Si Si1 0.466854 0.118777 0.969831
Si Si2 0.748050 0.781675 0.844210
Si Si3 0.218336 0.611774 0.455872
Si Si4 0.979872 0.123258 0.088363
Si Si5 0.712679 0.367694 0.109063
Si Si6 0.500000 0.742441 0.750000
Si Si7 0.107648 0.319760 0.792668
Si Si8 0.000000 0.503160 0.750000
O O1 0.500000 0.136725 0.750000
O O2 0.341522 0.130814 0.096417
O O3 0.502538 0.196116 0.077480
O O4 0.500000 0.000000 0.000000
O O5 0.861519 0.834190 0.693029
O O6 0.715870 0.671930 0.782329
O O7 0.745048 0.728654 0.017538
O O8 0.282174 0.500169 0.412389
O O9 0.196710 0.628137 0.301470
O O10 0.101097 0.580537 0.642825
O O11 0.000000 0.124780 0.250000
O O12 0.056820 0.210325 0.918190
O O13 0.000000 0.000000 0.000000
O O14 0.608883 0.323426 0.142642
O O15 0.821893 0.309031 0.935995
O O16 0.018851 0.413076 0.865587
#
# Coordination Sequence:
#
# PCOD9229901 Si02
#       8
#     4   4   4   4   4   2   4   2
#     4  11  25  48  77 100 131 180 237 290 349 403
#     4  11  25  45  66 100 137 172 224 283 333 411
#     4  11  20  40  63 100 130 179 220 268 333 404
#     4  12  27  43  63  95 133 173 218 275 339 393
#     4  10  23  41  69  94 138 174 219 273 345 403
#     4  10  24  46  68 106 138 172 230 296 342 406
#     4  11  22  39  64  94 132 178 224 267 325 417
#     4  10  20  34  66  90 136 176 218 260 324 406
#
# _framework density 21.029803000000001
#
# number of rings (size 3 to 8) (size 9 to 14) (size 15 to 20)
#    0.000    1.143    2.143    4.714    5.000    2.286 
#    1.286    2.143    0.000    0.000    0.000    0.000 
#    0.000    0.000    0.000    0.000    0.000    0.000 
#
# Total GULP energy -155982.641931 kJ/mol
# GULP energy per Si atom -5570.808640 kJ/mol
# Density = 2.098194 g / cm^3
# Si number density = 21.029803 Si / 1000 Ang^3
#
#
#
# Elastic Constant Matrix: (Units=GPa)
#
#
# Indices 1 2 3 4 5 6 
#
# 1 146.3749 49.8080 25.1105 0.0000 -2.9466 0.0000
# 2 49.8080 106.3296 17.4431 0.0000 -6.3750 0.0000
# 3 25.1105 17.4431 51.0818 0.0000 5.3252 0.0000
# 4 0.0000 0.0000 0.0000 21.7674 0.0000 4.4517
# 5 -2.9466 -6.3750 5.3252 0.0000 36.9023 0.0000
# 6 0.0000 0.0000 0.0000 4.4517 0.0000 26.2849
#
#
#
# Elastic Compliance Matrix: (Units=1/GPa)
#
#
# Indices 1 2 3 4 5 6 
#
# 1 0.008550 -0.003469 -0.003073 0.000000 0.000527 0.000000
# 2 -0.003469 0.011557 -0.002457 0.000000 0.002074 0.000000
# 3 -0.003073 -0.002457 0.022332 0.000000 -0.003893 0.000000
# 4 0.000000 0.000000 0.000000 0.047589 0.000000 -0.008060
# 5 0.000527 0.002074 -0.003893 0.000000 0.028061 0.000000
# 6 0.000000 0.000000 0.000000 -0.008060 0.000000 0.039410
#
#
# Mechanical properties :
#
#
# Convention : Reuss Voigt Hill
#
# Bulk Modulus (GPa) = 40.91704 54.27884 47.59794
# Shear Modulus (GPa) = 27.22645 31.08590 29.15618
#
# Velocity S-wave (km/s) = 3.60204 3.84889 3.72751
# Velocity P-wave (km/s) = 6.06618 6.75414 6.41938
#
# Compressibility (1/GPa) = 0.02443970
#
# Stress axis : x y z
#
# Youngs Moduli (GPa) = 116.95700 86.52492 44.77865
#
# Poissons Ratio (x) = 0.30019 0.13762
# Poissons Ratio (y) = 0.40577 0.11003
# Poissons Ratio (z) = 0.35944 0.21262
#
# Static dielectric constant tensor:
#      x y z
#    x 1.762680 0.000000 0.063970 
#    y 0.000000 1.739250 0.000000 
#    z 0.063970 0.000000 1.908580 
# 
# From -- ./inp_files/18978.got.cif
#   From: 2010.05.17/outbox.cif.g08.bks.cpg/sg13_10_cif.got.tgz:18978.got - 2010.06.03 16:44:36.
