data_PCOD9229709
_publ_section_title
;
Structure prediction by ZEFSAII (Michael W. Deem and Ramdas Pophale) SiO2 
 PCOD9229709
Probable space group: P 2/C
;
_chemical_formula_sum "Si O2"
_cell_formula_units_Z 18
_cell_length_a 12.939184
_cell_length_b 9.974891
_cell_length_c 12.995424
_cell_angle_alpha 90.000000
_cell_angle_beta 150.143768
_cell_angle_gamma 90.000000
_cell_volume 834.992417
_symmetry_space_group_name_H-M "P 2/C"
_symmetry_group_IT_number 13
_symmetry_cell_setting 'monoclinic'
loop_
_space_group_symop_operation_xyz
x,y,z
-x,y,1/2-z
-x,-y,-z
x,-y,1/2+z
loop_
_atom_site_type_symbol
_atom_site_label
_atom_site_fract_x
_atom_site_fract_y
_atom_site_fract_z
Si Si1 0.000000 0.616319 0.750000
Si Si2 0.553662 0.568475 0.402446
Si Si3 0.022508 0.830081 0.593577
Si Si4 0.285027 0.071610 0.844895
Si Si5 0.564461 0.708180 0.629099
O O1 0.797303 0.534730 0.605493
O O2 0.037366 0.713721 0.879522
O O3 0.500000 0.640288 0.250000
O O4 0.520907 0.658772 0.473935
O O5 0.430083 0.429976 0.304346
O O6 0.211454 0.778111 0.683598
O O7 0.833881 0.873368 0.358536
O O8 0.126838 0.955645 0.744519
O O9 0.374082 0.192523 0.991705
O O10 0.500000 0.000000 0.000000
#
# Coordination Sequence:
#
# PCOD9229709 Si02
#       5
#     2   4   4   4   4
#     4  10  20  34  52  78 104 136 182 224 264 316
#     4  10  20  34  52  75 105 141 179 219 267 320
#     4   9  18  33  55  77 102 137 177 218 266 319
#     4   9  17  33  53  74 101 135 172 215 267 318
#     4   9  19  34  52  76 105 139 177 218 267 320
#
# _framework density 21.557082000000001
#
# number of rings (size 3 to 8) (size 9 to 14) (size 15 to 20)
#    0.000    2.667    0.000    1.333    0.000    1.778 
#    0.000   14.444    0.000    1.333    0.000    0.000 
#    0.000    0.000    0.000    0.000    0.000    0.000 
#
# Total GULP energy -100295.876472 kJ/mol
# GULP energy per Si atom -5571.993137 kJ/mol
# Density = 2.150802 g / cm^3
# Si number density = 21.557082 Si / 1000 Ang^3
#
#
#
# Elastic Constant Matrix: (Units=GPa)
#
#
# Indices 1 2 3 4 5 6 
#
# 1 43.1550 2.4887 10.9174 0.0000 5.8254 0.0000
# 2 2.4887 56.6937 24.8948 0.0000 18.0436 0.0000
# 3 10.9174 24.8948 93.1065 0.0000 16.7432 0.0000
# 4 0.0000 0.0000 0.0000 10.2268 0.0000 8.0797
# 5 5.8254 18.0436 16.7432 0.0000 28.8045 0.0000
# 6 0.0000 0.0000 0.0000 8.0797 0.0000 12.5262
#
#
#
# Elastic Compliance Matrix: (Units=1/GPa)
#
#
# Indices 1 2 3 4 5 6 
#
# 1 0.024298 0.001394 -0.002436 0.000000 -0.004372 0.000000
# 2 0.001394 0.023389 -0.004167 0.000000 -0.012511 0.000000
# 3 -0.002436 -0.004167 0.012934 0.000000 -0.004415 0.000000
# 4 0.000000 0.000000 0.000000 0.199393 0.000000 -0.128613
# 5 -0.004372 -0.012511 -0.004415 0.000000 0.046004 0.000000
# 6 0.000000 0.000000 0.000000 -0.128613 0.000000 0.162791
#
#
# Mechanical properties :
#
#
# Convention : Reuss Voigt Hill
#
# Bulk Modulus (GPa) = 19.91884 29.95077 24.93480
# Shear Modulus (GPa) = 10.08140 20.62177 15.35158
#
# Velocity S-wave (km/s) = 2.16489 3.09627 2.67148
# Velocity P-wave (km/s) = 3.93816 5.16782 4.59432
#
# Compressibility (1/GPa) = 0.05020373
#
# Stress axis : x y z
#
# Youngs Moduli (GPa) = 41.15532 42.75473 77.31404
#
# Poissons Ratio (x) = -0.05961 0.18832
# Poissons Ratio (y) = -0.05738 0.32220
# Poissons Ratio (z) = 0.10025 0.17818
#
# Static dielectric constant tensor:
#      x y z
#    x 1.748090 0.000000 0.002200 
#    y 0.000000 1.855480 0.000000 
#    z 0.002200 0.000000 1.805010 
# 
# From -- ./inp_files/25788.got.cif
#   From: 2010.05.17/outbox.cif.g08.bks.cpg/sg13_13_cif.got.tgz:25788.got - 2010.06.03 16:44:36.
