data_PCOD9229825
_publ_section_title
;
Structure prediction by ZEFSAII (Michael W. Deem and Ramdas Pophale) SiO2 
 PCOD9229825
Probable space group: P 2/C
;
_chemical_formula_sum "Si O2"
_cell_formula_units_Z 28
_cell_length_a 15.044180
_cell_length_b 13.571991
_cell_length_c 16.861337
_cell_angle_alpha 90.000000
_cell_angle_beta 24.089814
_cell_angle_gamma 90.000000
_cell_volume 1405.216459
_symmetry_space_group_name_H-M "P 2/C"
_symmetry_group_IT_number 13
_symmetry_cell_setting 'monoclinic'
loop_
_space_group_symop_operation_xyz
x,y,z
-x,y,1/2-z
-x,-y,-z
x,-y,1/2+z
loop_
_atom_site_type_symbol
_atom_site_label
_atom_site_fract_x
_atom_site_fract_y
_atom_site_fract_z
Si Si1 0.619456 0.466407 0.821077
Si Si2 0.018340 0.031843 0.114043
Si Si3 0.358948 0.839817 0.432270
Si Si4 0.431599 0.020196 0.466058
Si Si5 0.922655 0.359142 0.067453
Si Si6 0.194162 0.860796 0.866168
Si Si7 0.801162 0.346660 0.353598
O O1 0.739249 0.562742 0.687481
O O2 0.832079 0.394710 0.653859
O O3 0.500000 0.500000 0.000000
O O4 0.413824 0.410688 0.950186
O O5 0.824625 0.989183 0.325289
O O6 0.128568 0.934121 0.989714
O O7 0.916376 0.091976 0.122625
O O8 0.167899 0.106364 0.040281
O O9 0.500000 0.786064 0.250000
O O10 0.270896 0.765719 0.569595
O O11 0.502537 0.926677 0.355067
O O12 0.546347 0.121447 0.350610
O O13 0.500000 0.000000 0.500000
O O14 0.877517 0.251035 0.070725
O O15 0.883049 0.356599 0.195810
O O16 0.000000 0.370625 0.250000
#
# Coordination Sequence:
#
# PCOD9229825 Si02
#       7
#     4   4   4   4   4   4   4
#     4   9  22  41  63  90 119 157 210 265 317 379
#     4  10  21  35  53  86 126 164 203 254 306 373
#     4  12  23  37  58  91 131 163 206 265 323 381
#     4  10  20  36  54  80 120 162 205 245 297 374
#     4  10  21  41  64  89 125 166 211 263 314 381
#     4  10  20  34  57  87 118 165 212 248 304 369
#     4  11  23  36  61  96 127 160 201 260 335 381
#
# _framework density 19.925756
#
# number of rings (size 3 to 8) (size 9 to 14) (size 15 to 20)
#    0.000    1.714    1.429    3.857    4.000    2.286 
#    0.000    0.000    0.000   12.000    0.000    0.000 
#    0.000    0.000    0.000    0.000    0.000    0.000 
#
# Total GULP energy -156045.716513 kJ/mol
# GULP energy per Si atom -5573.061304 kJ/mol
# Density = 1.988040 g / cm^3
# Si number density = 19.925756 Si / 1000 Ang^3
#
#
#
# Elastic Constant Matrix: (Units=GPa)
#
#
# Indices 1 2 3 4 5 6 
#
# 1 39.7256 10.3337 18.0293 0.0000 -5.6352 0.0000
# 2 10.3337 132.7059 57.6605 0.0000 -14.7750 0.0000
# 3 18.0293 57.6605 136.6870 0.0000 -5.7439 0.0000
# 4 0.0000 0.0000 0.0000 36.3704 0.0000 -3.1233
# 5 -5.6352 -14.7750 -5.7439 0.0000 31.6632 0.0000
# 6 0.0000 0.0000 0.0000 -3.1233 0.0000 28.6770
#
#
#
# Elastic Compliance Matrix: (Units=1/GPa)
#
#
# Indices 1 2 3 4 5 6 
#
# 1 0.027334 -0.000214 -0.003340 0.000000 0.004159 0.000000
# 2 -0.000214 0.009661 -0.003889 0.000000 0.003765 0.000000
# 3 -0.003340 -0.003889 0.009367 0.000000 -0.000710 0.000000
# 4 0.000000 0.000000 0.000000 0.027754 0.000000 0.003023
# 5 0.004159 0.003765 -0.000710 0.000000 0.033950 0.000000
# 6 0.000000 0.000000 0.000000 0.003023 0.000000 0.035200
#
#
# Mechanical properties :
#
#
# Convention : Reuss Voigt Hill
#
# Bulk Modulus (GPa) = 31.77050 53.46285 42.61667
# Shear Modulus (GPa) = 29.64776 34.21512 31.93144
#
# Velocity S-wave (km/s) = 3.86153 4.14832 4.00749
# Velocity P-wave (km/s) = 5.98840 7.05932 6.54580
#
# Compressibility (1/GPa) = 0.03147574
#
# Stress axis : x y z
#
# Youngs Moduli (GPa) = 36.58400 103.50865 106.75432
#
# Poissons Ratio (x) = 0.02216 0.35660
# Poissons Ratio (y) = 0.00783 0.41517
# Poissons Ratio (z) = 0.12220 0.40255
#
# Static dielectric constant tensor:
#      x y z
#    x 1.739030 0.000000 0.025790 
#    y 0.000000 1.718210 0.000000 
#    z 0.025790 0.000000 1.808270 
# 
# From -- ./inp_files/81052.got.cif
#   From: 2010.05.17/outbox.cif.g08.bks.cpg/sg13_41_cif.got.tgz:81052.got - 2010.06.03 16:44:36.
