data_PCOD9229656
_publ_section_title
;
Structure prediction by ZEFSAII (Michael W. Deem and Ramdas Pophale) SiO2 
 PCOD9229656
Probable space group: P 2/C
;
_chemical_formula_sum "Si O2"
_cell_formula_units_Z 24
_cell_length_a 14.808681
_cell_length_b 6.239992
_cell_length_c 22.694656
_cell_angle_alpha 90.000000
_cell_angle_beta 37.687257
_cell_angle_gamma 90.000000
_cell_volume 1282.078680
_symmetry_space_group_name_H-M "P 2/C"
_symmetry_group_IT_number 13
_symmetry_cell_setting 'monoclinic'
loop_
_space_group_symop_operation_xyz
x,y,z
-x,y,1/2-z
-x,-y,-z
x,-y,1/2+z
loop_
_atom_site_type_symbol
_atom_site_label
_atom_site_fract_x
_atom_site_fract_y
_atom_site_fract_z
Si Si1 0.308228 0.405592 0.615693
Si Si2 0.263843 0.789538 0.016631
Si Si3 0.495773 0.545914 0.821850
Si Si4 0.284296 0.785929 0.713521
Si Si5 0.050507 0.084362 0.790243
Si Si6 0.475189 0.160041 0.920365
O O1 0.293296 0.378234 0.554043
O O2 0.295852 0.637711 0.650062
O O3 0.174226 0.264793 0.712831
O O4 0.460273 0.297349 0.559022
O O5 0.089029 0.817768 0.103403
O O6 0.362490 0.703483 0.911830
O O7 0.328075 0.020873 0.003845
O O8 0.500000 0.527264 0.750000
O O9 0.651528 0.638213 0.767069
O O10 0.468816 0.319975 0.868445
O O11 0.125430 0.897377 0.790157
O O12 0.400762 0.978746 0.652327
O O13 0.000000 0.013446 0.750000
#
# Coordination Sequence:
#
# PCOD9229656 Si02
#       6
#     4   4   4   4   4   4
#     4   9  18  33  53  82 114 140 171 218 278 339
#     4  10  20  33  55  84 111 143 182 222 274 331
#     4  10  22  38  55  77 107 147 196 241 272 305
#     4   9  19  36  58  80 111 147 178 220 276 333
#     4   9  19  33  53  85 119 146 172 210 275 345
#     4   9  19  33  53  78 108 142 182 229 278 327
#
# _framework density 18.719598999999999
#
# number of rings (size 3 to 8) (size 9 to 14) (size 15 to 20)
#    0.000    2.667    0.000    0.500    0.000   17.333 
#    0.000    0.833    0.000   10.000    0.000    0.000 
#    0.000    0.000    0.000    0.000    0.000    0.000 
#
# Total GULP energy -133804.845702 kJ/mol
# GULP energy per Si atom -5575.201904 kJ/mol
# Density = 1.867699 g / cm^3
# Si number density = 18.719599 Si / 1000 Ang^3
#
#
#
# Elastic Constant Matrix: (Units=GPa)
#
#
# Indices 1 2 3 4 5 6 
#
# 1 88.2441 37.7530 59.9287 0.0000 -1.3688 0.0000
# 2 37.7530 78.1203 23.9902 0.0000 -3.0637 0.0000
# 3 59.9287 23.9902 83.4295 0.0000 -5.4964 0.0000
# 4 0.0000 0.0000 0.0000 8.3526 0.0000 -1.7342
# 5 -1.3688 -3.0637 -5.4964 0.0000 30.1775 0.0000
# 6 0.0000 0.0000 0.0000 -1.7342 0.0000 19.7966
#
#
#
# Elastic Compliance Matrix: (Units=1/GPa)
#
#
# Indices 1 2 3 4 5 6 
#
# 1 0.025654 -0.007445 -0.016457 0.000000 -0.002590 0.000000
# 2 -0.007445 0.016216 0.000781 0.000000 0.001451 0.000000
# 3 -0.016457 0.000781 0.023825 0.000000 0.003672 0.000000
# 4 0.000000 0.000000 0.000000 0.121941 0.000000 0.010682
# 5 -0.002590 0.001451 0.003672 0.000000 0.033836 0.000000
# 6 0.000000 0.000000 0.000000 0.010682 0.000000 0.051450
#
#
# Mechanical properties :
#
#
# Convention : Reuss Voigt Hill
#
# Bulk Modulus (GPa) = 51.41054 54.79309 53.10182
# Shear Modulus (GPa) = 15.35399 20.20681 17.78040
#
# Velocity S-wave (km/s) = 2.86704 3.28906 3.08527
# Velocity P-wave (km/s) = 6.20346 6.61497 6.41252
#
# Compressibility (1/GPa) = 0.01945126
#
# Stress axis : x y z
#
# Youngs Moduli (GPa) = 38.98056 61.66753 41.97259
#
# Poissons Ratio (x) = 0.45913 0.69075
# Poissons Ratio (y) = 0.29022 -0.03277
# Poissons Ratio (z) = 0.64151 -0.04815
#
# Static dielectric constant tensor:
#      x y z
#    x 1.660570 0.000000 -0.026540 
#    y 0.000000 1.688850 0.000000 
#    z -0.026540 0.000000 1.648790 
# 
# From -- ./inp_files/78982.got.cif
#   From: 2010.05.17/outbox.cif.g08.bks.cpg/sg13_40_cif.got.tgz:78982.got - 2010.06.03 16:44:36.
