data_PCOD9229483
_publ_section_title
;
Structure prediction by ZEFSAII (Michael W. Deem and Ramdas Pophale) SiO2 
 PCOD9229483
Probable space group: P 2/C
;
_chemical_formula_sum "Si O2"
_cell_formula_units_Z 14
_cell_length_a 7.487998
_cell_length_b 10.973277
_cell_length_c 9.710858
_cell_angle_alpha 90.000000
_cell_angle_beta 52.087004
_cell_angle_gamma 90.000000
_cell_volume 629.515236
_symmetry_space_group_name_H-M "P 2/C"
_symmetry_group_IT_number 13
_symmetry_cell_setting 'monoclinic'
loop_
_space_group_symop_operation_xyz
x,y,z
-x,y,1/2-z
-x,-y,-z
x,-y,1/2+z
loop_
_atom_site_type_symbol
_atom_site_label
_atom_site_fract_x
_atom_site_fract_y
_atom_site_fract_z
Si Si1 0.000000 0.733084 0.250000
Si Si2 0.439581 0.614328 0.934899
Si Si3 0.728875 0.152374 0.386640
Si Si4 0.774295 0.933689 0.164217
O O1 0.821290 0.653208 0.419831
O O2 0.855911 0.821970 0.219693
O O3 0.500000 0.584793 0.750000
O O4 0.591047 0.730153 0.906280
O O5 0.500000 0.500000 0.000000
O O6 0.668310 0.117242 0.572642
O O7 0.000000 0.174653 0.250000
O O8 0.677468 0.041573 0.306528
O O9 0.000000 0.000000 0.000000
#
# Coordination Sequence:
#
# PCOD9229483 Si02
#       4
#     2   4   4   4
#     4  12  26  48  76 106 154 186 252 306 368 434
#     4  12  31  51  74 107 146 203 251 300 360 441
#     4  10  22  44  74 108 149 186 243 299 374 434
#     4  10  19  42  72 113 145 185 232 303 374 433
#
# _framework density 22.239336000000002
#
# number of rings (size 3 to 8) (size 9 to 14) (size 15 to 20)
#    0.000    1.143    4.286    3.429    6.000    2.286 
#    5.143    0.000    0.000    0.000    0.000    0.000 
#    0.000    0.000    0.000    0.000    0.000    0.000 
#
# Total GULP energy -78396.341009 kJ/mol
# GULP energy per Si atom -5599.738644 kJ/mol
# Density = 2.218872 g / cm^3
# Si number density = 22.239336 Si / 1000 Ang^3
#
#
#
# Elastic Constant Matrix: (Units=GPa)
#
#
# Indices 1 2 3 4 5 6 
#
# 1 126.6477 81.5253 60.6574 0.0000 30.3025 0.0000
# 2 81.5253 159.0170 91.0387 0.0000 22.4862 0.0000
# 3 60.6574 91.0387 182.9822 0.0000 32.0664 0.0000
# 4 0.0000 0.0000 0.0000 32.4128 0.0000 12.6349
# 5 30.3025 22.4862 32.0664 0.0000 63.3686 0.0000
# 6 0.0000 0.0000 0.0000 12.6349 0.0000 27.7212
#
#
#
# Elastic Compliance Matrix: (Units=1/GPa)
#
#
# Indices 1 2 3 4 5 6 
#
# 1 0.012742 -0.005540 -0.000817 0.000000 -0.003714 0.000000
# 2 -0.005540 0.011259 -0.003873 0.000000 0.000614 0.000000
# 3 -0.000817 -0.003873 0.008069 0.000000 -0.002318 0.000000
# 4 0.000000 0.000000 0.000000 0.037518 0.000000 -0.017100
# 5 -0.003714 0.000614 -0.002318 0.000000 0.018512 0.000000
# 6 0.000000 0.000000 0.000000 -0.017100 0.000000 0.043867
#
#
# Mechanical properties :
#
#
# Convention : Reuss Voigt Hill
#
# Bulk Modulus (GPa) = 86.12474 103.89889 95.01181
# Shear Modulus (GPa) = 31.99053 40.39557 36.19305
#
# Velocity S-wave (km/s) = 3.79683 4.26655 4.03852
# Velocity P-wave (km/s) = 7.61784 8.43156 8.03501
#
# Compressibility (1/GPa) = 0.01161107
#
# Stress axis : x y z
#
# Youngs Moduli (GPa) = 78.48228 88.81576 123.93206
#
# Poissons Ratio (x) = 0.49201 0.10123
# Poissons Ratio (y) = 0.43476 0.47998
# Poissons Ratio (z) = 0.06411 0.34398
#
# Static dielectric constant tensor:
#      x y z
#    x 1.987120 0.000000 -0.123820 
#    y 0.000000 1.735340 0.000000 
#    z -0.123820 0.000000 1.953010 
# 
# From -- ./inp_files/25920.got.cif
#   From: 2010.05.17/outbox.cif.g08.bks.cpg/sg13_13_cif.got.tgz:25920.got - 2010.06.03 16:44:36.
