data_PCOD9229378
_publ_section_title
;
Structure prediction by ZEFSAII (Michael W. Deem and Ramdas Pophale) SiO2 
 PCOD9229378
Probable space group: P 2/C
;
_chemical_formula_sum "Si O2"
_cell_formula_units_Z 24
_cell_length_a 13.938543
_cell_length_b 9.804551
_cell_length_c 16.952995
_cell_angle_alpha 90.000000
_cell_angle_beta 30.661445
_cell_angle_gamma 90.000000
_cell_volume 1181.493156
_symmetry_space_group_name_H-M "P 2/C"
_symmetry_group_IT_number 13
_symmetry_cell_setting 'monoclinic'
loop_
_space_group_symop_operation_xyz
x,y,z
-x,y,1/2-z
-x,-y,-z
x,-y,1/2+z
loop_
_atom_site_type_symbol
_atom_site_label
_atom_site_fract_x
_atom_site_fract_y
_atom_site_fract_z
Si Si1 0.291876 0.514413 0.435036
Si Si2 0.000000 0.050504 0.750000
Si Si3 0.114753 0.358916 0.926948
Si Si4 0.500000 0.018916 0.250000
Si Si5 0.486164 0.387539 0.943750
Si Si6 0.859600 0.214209 0.996178
Si Si7 0.597586 0.080590 0.504583
O O1 0.500000 0.507504 0.250000
O O2 0.178823 0.635719 0.472042
O O3 0.328755 0.552634 0.497444
O O4 0.202220 0.366430 0.485868
O O5 0.027817 0.145862 0.654303
O O6 0.812942 0.964749 0.864431
O O7 0.307499 0.372005 0.741592
O O8 0.000000 0.500000 0.000000
O O9 0.987898 0.238096 0.982687
O O10 0.679463 0.118099 0.134428
O O11 0.483042 0.939842 0.347186
O O12 0.500000 0.500000 0.000000
O O13 0.423406 0.235972 0.007666
O O14 0.500000 0.000000 0.500000
#
# Coordination Sequence:
#
# PCOD9229378 Si02
#       7
#     4   2   4   2   4   4   4
#     4   9  19  36  63  93 131 166 221 274 334 407
#     4  10  24  44  64 102 140 178 238 288 334 426
#     4   9  20  38  61  98 128 167 221 278 327 411
#     4  10  24  42  72  96 134 192 224 286 346 418
#     4  11  25  42  67  95 134 179 221 283 350 396
#     4  10  19  39  67  95 131 177 226 271 342 407
#     4  11  26  48  70 101 142 185 237 287 350 422
#
# _framework density 20.313278
#
# number of rings (size 3 to 8) (size 9 to 14) (size 15 to 20)
#    0.000    2.000    0.833    1.000   10.500    0.000 
#    9.000    2.500    0.000    0.000    0.000    0.000 
#    0.000    0.000    0.000    0.000    0.000    0.000 
#
# Total GULP energy -133809.472469 kJ/mol
# GULP energy per Si atom -5575.394686 kJ/mol
# Density = 2.026704 g / cm^3
# Si number density = 20.313278 Si / 1000 Ang^3
#
#
#
# Elastic Constant Matrix: (Units=GPa)
#
#
# Indices 1 2 3 4 5 6 
#
# 1 179.1232 76.4599 37.2626 0.0000 5.9488 0.0000
# 2 76.4599 120.5657 25.3237 0.0000 6.1746 0.0000
# 3 37.2626 25.3237 53.3085 0.0000 -5.9416 0.0000
# 4 0.0000 0.0000 0.0000 10.4604 0.0000 -0.2598
# 5 5.9488 6.1746 -5.9416 0.0000 27.0574 0.0000
# 6 0.0000 0.0000 0.0000 -0.2598 0.0000 32.3833
#
#
#
# Elastic Compliance Matrix: (Units=1/GPa)
#
#
# Indices 1 2 3 4 5 6 
#
# 1 0.008320 -0.004363 -0.003932 0.000000 -0.001697 0.000000
# 2 -0.004363 0.011770 -0.002802 0.000000 -0.002342 0.000000
# 3 -0.003932 -0.002802 0.023583 0.000000 0.006683 0.000000
# 4 0.000000 0.000000 0.000000 0.095618 0.000000 0.000767
# 5 -0.001697 -0.002342 0.006683 0.000000 0.039333 0.000000
# 6 0.000000 0.000000 0.000000 0.000767 0.000000 0.030886
#
#
# Mechanical properties :
#
#
# Convention : Reuss Voigt Hill
#
# Bulk Modulus (GPa) = 46.55954 70.12107 58.34031
# Shear Modulus (GPa) = 20.93245 28.24364 24.58804
#
# Velocity S-wave (km/s) = 3.21359 3.73286 3.48292
# Velocity P-wave (km/s) = 6.06136 7.29203 6.70499
#
# Compressibility (1/GPa) = 0.02147787
#
# Stress axis : x y z
#
# Youngs Moduli (GPa) = 120.19930 84.96273 42.40344
#
# Poissons Ratio (x) = 0.37072 0.16672
# Poissons Ratio (y) = 0.52447 0.11882
# Poissons Ratio (z) = 0.47259 0.23808
#
# Static dielectric constant tensor:
#      x y z
#    x 1.757460 0.000000 0.046410 
#    y 0.000000 1.669310 0.000000 
#    z 0.046410 0.000000 1.796280 
# 
# From -- ./inp_files/68120.got.cif
#   From: 2010.05.17/outbox.cif.g08.bks.cpg/sg13_35_cif.got.tgz:68120.got - 2010.06.03 16:44:36.
