data_PCOD9229981
_publ_section_title
;
Structure prediction by ZEFSAII (Michael W. Deem and Ramdas Pophale) SiO2 
 PCOD9229981
Probable space group: P 2/C
;
_chemical_formula_sum "Si O2"
_cell_formula_units_Z 28
_cell_length_a 12.845218
_cell_length_b 14.359932
_cell_length_c 7.927334
_cell_angle_alpha 90.000000
_cell_angle_beta 125.152691
_cell_angle_gamma 90.000000
_cell_volume 1195.564009
_symmetry_space_group_name_H-M "P 2/C"
_symmetry_group_IT_number 13
_symmetry_cell_setting 'monoclinic'
loop_
_space_group_symop_operation_xyz
x,y,z
-x,y,1/2-z
-x,-y,-z
x,-y,1/2+z
loop_
_atom_site_type_symbol
_atom_site_label
_atom_site_fract_x
_atom_site_fract_y
_atom_site_fract_z
Si Si1 0.943805 0.679318 0.866536
Si Si2 0.641470 0.856305 0.329805
Si Si3 0.274083 0.452052 0.491175
Si Si4 0.360178 0.045363 0.036583
Si Si5 0.615090 0.388748 0.230584
Si Si6 0.221193 0.309857 0.696558
Si Si7 0.251791 0.218665 0.087593
O O1 0.851739 0.595788 0.712783
O O2 0.000000 0.725837 0.750000
O O3 0.868661 0.748866 0.917102
O O4 0.076731 0.652278 0.076599
O O5 0.500000 0.823159 0.250000
O O6 0.741600 0.773640 0.399241
O O7 0.680030 0.937622 0.495861
O O8 0.633267 0.910642 0.142787
O O9 0.380875 0.433009 0.450579
O O10 0.272142 0.556789 0.559343
O O11 0.298096 0.393895 0.684805
O O12 0.500000 0.049397 0.250000
O O13 0.272405 0.111262 0.070255
O O14 0.500000 0.401172 0.250000
O O15 0.635097 0.278212 0.221173
O O16 0.253018 0.264964 0.903579
#
# Coordination Sequence:
#
# PCOD9229981 Si02
#       7
#     4   4   4   4   4   4   4
#     4   9  20  38  58  81 109 145 190 237 284 335
#     4  10  21  34  57  86 116 153 191 236 288 344
#     4  10  22  38  58  85 115 150 192 237 286 340
#     4  10  20  35  56  86 120 153 190 235 287 343
#     4  11  22  37  57  84 117 154 189 233 286 343
#     4  10  21  39  58  82 113 150 192 240 290 341
#     4  10  21  37  59  84 114 151 192 238 286 340
#
# _framework density 23.419908
#
# number of rings (size 3 to 8) (size 9 to 14) (size 15 to 20)
#    0.000    2.000    0.000    3.857    0.000    9.714 
#    0.000   27.857    0.000    1.714    0.000    0.000 
#    0.000    0.000    0.000    0.000    0.000    0.000 
#
# Total GULP energy -156170.889428 kJ/mol
# GULP energy per Si atom -5577.531765 kJ/mol
# Density = 2.336660 g / cm^3
# Si number density = 23.419908 Si / 1000 Ang^3
#
#
#
# Elastic Constant Matrix: (Units=GPa)
#
#
# Indices 1 2 3 4 5 6 
#
# 1 148.0759 37.2408 18.9168 0.0000 -25.1387 0.0000
# 2 37.2408 78.7608 -8.0220 0.0000 12.8463 0.0000
# 3 18.9168 -8.0220 43.7532 0.0000 -11.7903 0.0000
# 4 0.0000 0.0000 0.0000 31.8520 0.0000 -9.5089
# 5 -25.1387 12.8463 -11.7903 0.0000 34.0892 0.0000
# 6 0.0000 0.0000 0.0000 -9.5089 0.0000 15.8317
#
#
#
# Elastic Compliance Matrix: (Units=1/GPa)
#
#
# Indices 1 2 3 4 5 6 
#
# 1 0.010409 -0.006737 -0.003290 0.000000 0.009077 0.000000
# 2 -0.006737 0.017948 0.003355 0.000000 -0.010572 0.000000
# 3 -0.003290 0.003355 0.026355 0.000000 0.005425 0.000000
# 4 0.000000 0.000000 0.000000 0.038255 0.000000 0.022977
# 5 0.009077 -0.010572 0.005425 0.000000 0.041889 0.000000
# 6 0.000000 0.000000 0.000000 0.022977 0.000000 0.076965
#
#
# Mechanical properties :
#
#
# Convention : Reuss Voigt Hill
#
# Bulk Modulus (GPa) = 24.17328 40.76238 32.46783
# Shear Modulus (GPa) = 20.92455 31.18486 26.05471
#
# Velocity S-wave (km/s) = 2.99231 3.65300 3.33904
# Velocity P-wave (km/s) = 4.72045 5.93594 5.36274
#
# Compressibility (1/GPa) = 0.04136799
#
# Stress axis : x y z
#
# Youngs Moduli (GPa) = 96.07099 55.71560 37.94380
#
# Poissons Ratio (x) = 0.37537 0.12482
# Poissons Ratio (y) = 0.64726 -0.12730
# Poissons Ratio (z) = 0.31603 -0.18692
#
# Static dielectric constant tensor:
#      x y z
#    x 1.895530 0.000000 0.005420 
#    y 0.000000 1.882430 0.000000 
#    z 0.005420 0.000000 2.019780 
# 
# From -- ./inp_files/16416.got.cif
#   From: 2010.05.17/outbox.cif.g08.bks.cpg/sg13_9_cif.got.tgz:16416.got - 2010.06.03 16:44:36.
