data_PCOD9229325
_publ_section_title
;
Structure prediction by ZEFSAII (Michael W. Deem and Ramdas Pophale) SiO2 
 PCOD9229325
Probable space group: P 2/C
;
_chemical_formula_sum "Si O2"
_cell_formula_units_Z 28
_cell_length_a 10.029982
_cell_length_b 12.616944
_cell_length_c 17.268329
_cell_angle_alpha 90.000000
_cell_angle_beta 42.464148
_cell_angle_gamma 90.000000
_cell_volume 1475.337007
_symmetry_space_group_name_H-M "P 2/C"
_symmetry_group_IT_number 13
_symmetry_cell_setting 'monoclinic'
loop_
_space_group_symop_operation_xyz
x,y,z
-x,y,1/2-z
-x,-y,-z
x,-y,1/2+z
loop_
_atom_site_type_symbol
_atom_site_label
_atom_site_fract_x
_atom_site_fract_y
_atom_site_fract_z
Si Si1 0.275898 0.327763 0.437527
Si Si2 0.805929 0.177376 0.778764
Si Si3 0.079982 0.597531 0.303189
Si Si4 0.280094 0.377264 0.256742
Si Si5 0.381166 0.885117 0.986371
Si Si6 0.005411 0.001888 0.588923
Si Si7 0.174538 0.161046 0.234420
O O1 0.239937 0.333361 0.360868
O O2 0.485349 0.386272 0.356635
O O3 0.311204 0.212080 0.460461
O O4 0.100644 0.378601 0.561648
O O5 0.783938 0.296293 0.755806
O O6 0.865184 0.092401 0.688077
O O7 0.000000 0.182841 0.750000
O O8 0.645861 0.143237 0.911131
O O9 0.184113 0.490472 0.284695
O O10 0.000000 0.583756 0.250000
O O11 0.206833 0.285981 0.229902
O O12 0.614876 0.893911 0.872679
O O13 0.225691 0.976469 0.028819
O O14 0.911922 0.890313 0.651818
O O15 0.000000 0.000000 0.500000
O O16 0.000000 0.136048 0.250000
#
# Coordination Sequence:
#
# PCOD9229325 Si02
#       7
#     4   4   4   4   4   4   4
#     4  10  19  39  60  84 114 163 203 233 300 362
#     4   9  18  36  62  87 109 157 205 240 283 353
#     4  11  19  36  62  88 116 157 207 242 287 359
#     4  10  23  36  58  90 124 153 195 250 303 353
#     4  10  20  42  65  84 116 161 205 246 289 361
#     4  11  22  37  63  91 118 154 200 243 297 362
#     4  11  24  40  59  90 122 153 196 251 307 355
#
# _framework density 18.978715000000001
#
# number of rings (size 3 to 8) (size 9 to 14) (size 15 to 20)
#    0.000    1.714    4.286    3.000    0.000    4.571 
#    2.571    0.000    0.000    0.000    0.000    0.000 
#    0.000    0.000    0.000    0.000    0.000    0.000 
#
# Total GULP energy -156132.067302 kJ/mol
# GULP energy per Si atom -5576.145261 kJ/mol
# Density = 1.893552 g / cm^3
# Si number density = 18.978715 Si / 1000 Ang^3
#
#
#
# Elastic Constant Matrix: (Units=GPa)
#
#
# Indices 1 2 3 4 5 6 
#
# 1 53.6128 22.2182 39.1664 0.0000 -5.3495 0.0000
# 2 22.2182 81.7803 2.3020 0.0000 -4.7844 0.0000
# 3 39.1664 2.3020 94.3134 0.0000 -1.6137 0.0000
# 4 0.0000 0.0000 0.0000 22.9243 0.0000 -6.8339
# 5 -5.3495 -4.7844 -1.6137 0.0000 35.5620 0.0000
# 6 0.0000 0.0000 0.0000 -6.8339 0.0000 16.9565
#
#
#
# Elastic Compliance Matrix: (Units=1/GPa)
#
#
# Indices 1 2 3 4 5 6 
#
# 1 0.031767 -0.008085 -0.012942 0.000000 0.003104 0.000000
# 2 -0.008085 0.014389 0.003021 0.000000 0.000857 0.000000
# 3 -0.012942 0.003021 0.015890 0.000000 -0.000819 0.000000
# 4 0.000000 0.000000 0.000000 0.049579 0.000000 0.019982
# 5 0.003104 0.000857 -0.000819 0.000000 0.028665 0.000000
# 6 0.000000 0.000000 0.000000 0.019982 0.000000 0.067028
#
#
# Mechanical properties :
#
#
# Convention : Reuss Voigt Hill
#
# Bulk Modulus (GPa) = 38.40993 39.67550 39.04271
# Shear Modulus (GPa) = 19.84079 26.15654 22.99867
#
# Velocity S-wave (km/s) = 3.23681 3.71644 3.48489
# Velocity P-wave (km/s) = 5.85249 6.27428 6.06705
#
# Compressibility (1/GPa) = 0.02603494
#
# Stress axis : x y z
#
# Youngs Moduli (GPa) = 31.47940 69.49555 62.93423
#
# Poissons Ratio (x) = 0.56184 0.81447
# Poissons Ratio (y) = 0.25450 -0.19011
# Poissons Ratio (z) = 0.40740 -0.20993
#
# Static dielectric constant tensor:
#      x y z
#    x 1.668510 0.000000 0.002940 
#    y 0.000000 1.670630 0.000000 
#    z 0.002940 0.000000 1.682580 
# 
# From -- ./inp_files/47618.got.cif
#   From: 2010.05.17/outbox.cif.g08.bks.cpg/sg13_24_cif.got.tgz:47618.got - 2010.06.03 16:44:36.
