data_PCOD9229411
_publ_section_title
;
Structure prediction by ZEFSAII (Michael W. Deem and Ramdas Pophale) SiO2 
 PCOD9229411
Probable space group: P 2/C
;
_chemical_formula_sum "Si O2"
_cell_formula_units_Z 24
_cell_length_a 28.608770
_cell_length_b 5.317008
_cell_length_c 14.075475
_cell_angle_alpha 90.000000
_cell_angle_beta 151.236139
_cell_angle_gamma 90.000000
_cell_volume 1030.281610
_symmetry_space_group_name_H-M "P 2/C"
_symmetry_group_IT_number 13
_symmetry_cell_setting 'monoclinic'
loop_
_space_group_symop_operation_xyz
x,y,z
-x,y,1/2-z
-x,-y,-z
x,-y,1/2+z
loop_
_atom_site_type_symbol
_atom_site_label
_atom_site_fract_x
_atom_site_fract_y
_atom_site_fract_z
Si Si1 0.264005 0.942612 0.732895
Si Si2 0.933089 0.112214 0.722705
Si Si3 0.884715 0.601395 0.734447
Si Si4 0.232800 0.725312 0.346584
Si Si5 0.303971 0.132278 0.619007
Si Si6 0.396240 0.633399 0.112519
O O1 0.173417 0.843336 0.512311
O O2 0.216378 0.154051 0.715422
O O3 0.336012 0.033065 0.777807
O O4 0.322260 0.765341 0.907174
O O5 0.947648 0.369738 0.806794
O O6 0.000000 0.081511 0.750000
O O7 0.936393 0.862785 0.795567
O O8 0.843960 0.491980 0.762854
O O9 0.775224 0.651204 0.497179
O O10 0.343409 0.627764 0.539215
O O11 0.239492 0.937750 0.440155
O O12 0.387587 0.223376 0.697561
O O13 0.500000 0.617529 0.250000
#
# Coordination Sequence:
#
# PCOD9229411 Si02
#       6
#     4   4   4   4   4   4
#     4  10  22  39  67  90 125 179 216 257 327 383
#     4  11  23  40  68  99 130 169 217 265 318 381
#     4  10  19  40  64  91 132 170 206 268 316 372
#     4  10  20  39  64  90 131 171 213 264 323 381
#     4   9  20  40  65  88 130 171 212 264 322 381
#     4  10  23  38  62  97 130 167 217 271 319 381
#
# _framework density 23.294599999999999
#
# number of rings (size 3 to 8) (size 9 to 14) (size 15 to 20)
#    0.000    2.000    3.333    0.500    4.667    3.333 
#    0.000    3.333    0.000    0.000    0.000    0.000 
#    0.000    0.000    0.000    0.000    0.000    0.000 
#
# Total GULP energy -133735.805212 kJ/mol
# GULP energy per Si atom -5572.325217 kJ/mol
# Density = 2.324158 g / cm^3
# Si number density = 23.294600 Si / 1000 Ang^3
#
#
#
# Elastic Constant Matrix: (Units=GPa)
#
#
# Indices 1 2 3 4 5 6 
#
# 1 175.3928 61.7503 29.7605 0.0000 8.3817 0.0000
# 2 61.7503 127.4195 21.2991 0.0000 7.8229 0.0000
# 3 29.7605 21.2991 41.3150 0.0000 9.6106 0.0000
# 4 0.0000 0.0000 0.0000 27.6366 0.0000 -28.6768
# 5 8.3817 7.8229 9.6106 0.0000 41.5489 0.0000
# 6 0.0000 0.0000 0.0000 -28.6768 0.0000 79.9677
#
#
#
# Elastic Compliance Matrix: (Units=1/GPa)
#
#
# Indices 1 2 3 4 5 6 
#
# 1 0.007382 -0.002941 -0.003788 0.000000 -0.000059 0.000000
# 2 -0.002941 0.009775 -0.002780 0.000000 -0.000604 0.000000
# 3 -0.003788 -0.002780 0.029663 0.000000 -0.005574 0.000000
# 4 0.000000 0.000000 0.000000 0.057627 0.000000 0.020665
# 5 -0.000059 -0.000604 -0.005574 0.000000 0.025483 0.000000
# 6 0.000000 0.000000 0.000000 0.020665 0.000000 0.019916
#
#
# Mechanical properties :
#
#
# Convention : Reuss Voigt Hill
#
# Bulk Modulus (GPa) = 35.96872 63.30523 49.63698
# Shear Modulus (GPa) = 28.06909 45.25179 36.66044
#
# Velocity S-wave (km/s) = 3.47502 4.41226 3.97139
# Velocity P-wave (km/s) = 5.61919 7.29331 6.51029
#
# Compressibility (1/GPa) = 0.02780193
#
# Stress axis : x y z
#
# Youngs Moduli (GPa) = 135.45657 102.30007 33.71231
#
# Poissons Ratio (x) = 0.30085 0.12770
# Poissons Ratio (y) = 0.39836 0.09374
# Poissons Ratio (z) = 0.51309 0.28444
#
# Static dielectric constant tensor:
#      x y z
#    x 1.915920 0.000000 -0.001840 
#    y 0.000000 2.025910 0.000000 
#    z -0.001840 0.000000 1.866010 
# 
# From -- ./inp_files/59707.got.cif
#   From: 2010.05.17/outbox.cif.g08.bks.cpg/sg13_30_cif.got.tgz:59707.got - 2010.06.03 16:44:36.
