data_PCOD9229059
_publ_section_title
;
Structure prediction by ZEFSAII (Michael W. Deem and Ramdas Pophale) SiO2 
 PCOD9229059
Probable space group: P 2/C
;
_chemical_formula_sum "Si O2"
_cell_formula_units_Z 32
_cell_length_a 20.152182
_cell_length_b 14.151800
_cell_length_c 8.094270
_cell_angle_alpha 90.000000
_cell_angle_beta 36.759781
_cell_angle_gamma 90.000000
_cell_volume 1381.489447
_symmetry_space_group_name_H-M "P 2/C"
_symmetry_group_IT_number 13
_symmetry_cell_setting 'monoclinic'
loop_
_space_group_symop_operation_xyz
x,y,z
-x,y,1/2-z
-x,-y,-z
x,-y,1/2+z
loop_
_atom_site_type_symbol
_atom_site_label
_atom_site_fract_x
_atom_site_fract_y
_atom_site_fract_z
Si Si1 0.207009 0.604674 0.344605
Si Si2 0.386147 0.643853 0.585168
Si Si3 0.947925 0.734499 0.681796
Si Si4 0.745217 0.129706 0.549310
Si Si5 0.716927 0.077333 0.987928
Si Si6 0.181004 0.259561 0.594361
Si Si7 0.331051 0.464764 0.894396
Si Si8 0.498848 0.189324 0.057825
O O1 0.099362 0.632751 0.665562
O O2 0.216924 0.691857 0.198698
O O3 0.223384 0.509399 0.205091
O O4 0.301323 0.595617 0.293836
O O5 0.403214 0.596005 0.374157
O O6 0.446836 0.732867 0.541809
O O7 0.258254 0.682267 0.818037
O O8 0.387161 0.560016 0.716948
O O9 0.000000 0.776440 0.750000
O O10 0.049712 0.727781 0.353137
O O11 0.846649 0.798425 0.820802
O O12 0.752533 0.029485 0.444572
O O13 0.741332 0.105857 0.751637
O O14 0.623654 0.170231 0.752615
O O15 0.586328 0.100104 0.279318
O O16 0.784375 0.150691 0.967878
O O17 0.500000 0.218325 0.250000
#
# Coordination Sequence:
#
# PCOD9229059 Si02
#       8
#     4   4   4   4   4   4   4   4
#     4   9  17  34  58  83 119 157 196 239 295 353
#     4   9  18  37  61  89 125 153 197 247 294 360
#     4  10  19  37  60  83 118 164 199 234 307 356
#     4  11  21  38  64  84 116 159 199 247 299 359
#     4  10  20  38  60  87 114 153 199 248 293 355
#     4   9  18  37  58  82 121 164 193 245 300 352
#     4   9  18  33  62  91 118 156 201 246 292 354
#     4   9  20  37  63  85 115 160 197 240 311 354
#
# _framework density 23.163404
#
# number of rings (size 3 to 8) (size 9 to 14) (size 15 to 20)
#    0.000    2.500    2.500    0.375    1.750    0.500 
#    4.500   18.125    0.000    0.000    0.000    0.000 
#    0.000    0.000    0.000    0.000    0.000    0.000 
#
# Total GULP energy -178721.865701 kJ/mol
# GULP energy per Si atom -5585.058303 kJ/mol
# Density = 2.311068 g / cm^3
# Si number density = 23.163404 Si / 1000 Ang^3
#
#
#
# Elastic Constant Matrix: (Units=GPa)
#
#
# Indices 1 2 3 4 5 6 
#
# 1 58.8232 30.7487 19.2471 0.0000 -3.4354 0.0000
# 2 30.7487 86.7617 25.6060 0.0000 -5.5760 0.0000
# 3 19.2471 25.6060 87.9678 0.0000 -23.6324 0.0000
# 4 0.0000 0.0000 0.0000 23.1014 0.0000 -0.2912
# 5 -3.4354 -5.5760 -23.6324 0.0000 23.5498 0.0000
# 6 0.0000 0.0000 0.0000 -0.2912 0.0000 31.0942
#
#
#
# Elastic Compliance Matrix: (Units=1/GPa)
#
#
# Indices 1 2 3 4 5 6 
#
# 1 0.021488 -0.006786 -0.003171 0.000000 -0.001654 0.000000
# 2 -0.006786 0.014768 -0.002931 0.000000 -0.000434 0.000000
# 3 -0.003171 -0.002931 0.017256 0.000000 0.016160 0.000000
# 4 0.000000 0.000000 0.000000 0.043293 0.000000 0.000405
# 5 -0.001654 -0.000434 0.016160 0.000000 0.058336 0.000000
# 6 0.000000 0.000000 0.000000 0.000405 0.000000 0.032164
#
#
# Mechanical properties :
#
#
# Convention : Reuss Voigt Hill
#
# Bulk Modulus (GPa) = 36.05203 42.75071 39.40137
# Shear Modulus (GPa) = 22.48963 26.07913 24.28438
#
# Velocity S-wave (km/s) = 3.11933 3.35905 3.24140
# Velocity P-wave (km/s) = 5.34524 5.79141 5.57280
#
# Compressibility (1/GPa) = 0.02773769
#
# Stress axis : x y z
#
# Youngs Moduli (GPa) = 46.53709 67.71478 57.95119
#
# Poissons Ratio (x) = 0.45952 0.18374
# Poissons Ratio (y) = 0.31580 0.16983
# Poissons Ratio (z) = 0.14755 0.19844
#
# Static dielectric constant tensor:
#      x y z
#    x 1.864570 0.000000 -0.027260 
#    y 0.000000 1.831180 0.000000 
#    z -0.027260 0.000000 2.075340 
# 
# From -- ./inp_files/23548.got.cif
#   From: 2010.05.17/outbox.cif.g08.bks.cpg/sg13_12_cif.got.tgz:23548.got - 2010.06.03 16:44:36.
