data_PCOD9229729
_publ_section_title
;
Structure prediction by ZEFSAII (Michael W. Deem and Ramdas Pophale) SiO2 
 PCOD9229729
Probable space group: P 2/C
;
_chemical_formula_sum "Si O2"
_cell_formula_units_Z 32
_cell_length_a 13.658291
_cell_length_b 6.388849
_cell_length_c 23.557863
_cell_angle_alpha 90.000000
_cell_angle_beta 41.539717
_cell_angle_gamma 90.000000
_cell_volume 1363.199713
_symmetry_space_group_name_H-M "P 2/C"
_symmetry_group_IT_number 13
_symmetry_cell_setting 'monoclinic'
loop_
_space_group_symop_operation_xyz
x,y,z
-x,y,1/2-z
-x,-y,-z
x,-y,1/2+z
loop_
_atom_site_type_symbol
_atom_site_label
_atom_site_fract_x
_atom_site_fract_y
_atom_site_fract_z
Si Si1 0.466952 0.758531 0.375592
Si Si2 0.731647 0.528207 0.755829
Si Si3 0.697194 0.404381 0.447634
Si Si4 0.953903 0.339759 0.405455
Si Si5 0.390428 0.879062 0.616569
Si Si6 0.042123 0.693106 0.022060
Si Si7 0.800008 0.084519 0.572453
Si Si8 0.172536 0.244936 0.682761
O O1 0.612397 0.644805 0.287801
O O2 0.386136 0.603467 0.455739
O O3 0.361081 0.831481 0.370720
O O4 0.494951 0.957176 0.405402
O O5 0.638810 0.717753 0.820823
O O6 0.811224 0.405754 0.772318
O O7 0.870011 0.642103 0.666413
O O8 0.859756 0.300830 0.389448
O O9 0.603302 0.268387 0.442481
O O10 0.736584 0.632042 0.405584
O O11 0.891531 0.176111 0.478266
O O12 0.912340 0.579268 0.440576
O O13 0.252852 0.030538 0.662964
O O14 0.890330 0.826169 0.086974
O O15 0.000000 0.500000 0.000000
O O16 0.172603 0.838285 0.942832
O O17 0.000000 0.212889 0.750000
#
# Coordination Sequence:
#
# PCOD9229729 Si02
#       8
#     4   4   4   4   4   4   4   4
#     4  10  22  39  55  84 116 161 193 246 301 361
#     4  10  22  38  53  80 123 153 195 242 295 347
#     4  10  21  36  56  80 115 154 203 242 290 339
#     4  10  20  35  59  87 112 152 192 246 296 347
#     4  10  23  33  54  77 119 160 202 238 288 351
#     4   9  19  38  63  91 112 140 187 247 295 356
#     4   9  20  38  64  88 114 144 196 242 301 360
#     4  10  20  34  53  79 111 153 197 246 290 335
#
# _framework density 23.474183
#
# number of rings (size 3 to 8) (size 9 to 14) (size 15 to 20)
#    0.000    2.250    1.250    0.375    1.750   12.500 
#    0.000    0.625    0.000    0.000    0.000    0.000 
#    0.000    0.000    0.000    0.000    0.000    0.000 
#
# Total GULP energy -178303.516232 kJ/mol
# GULP energy per Si atom -5571.984882 kJ/mol
# Density = 2.342075 g / cm^3
# Si number density = 23.474183 Si / 1000 Ang^3
#
#
#
# Elastic Constant Matrix: (Units=GPa)
#
#
# Indices 1 2 3 4 5 6 
#
# 1 89.4133 8.8531 10.6962 0.0000 -23.5820 0.0000
# 2 8.8531 71.4541 7.9407 0.0000 -2.5510 0.0000
# 3 10.6962 7.9407 62.7650 0.0000 -17.9487 0.0000
# 4 0.0000 0.0000 0.0000 10.2075 0.0000 -6.0465
# 5 -23.5820 -2.5510 -17.9487 0.0000 28.0747 0.0000
# 6 0.0000 0.0000 0.0000 -6.0465 0.0000 27.8137
#
#
#
# Elastic Compliance Matrix: (Units=1/GPa)
#
#
# Indices 1 2 3 4 5 6 
#
# 1 0.014602 -0.001503 0.001432 0.000000 0.013044 0.000000
# 2 -0.001503 0.014350 -0.001894 0.000000 -0.001169 0.000000
# 3 0.001432 -0.001894 0.019852 0.000000 0.013723 0.000000
# 4 0.000000 0.000000 0.000000 0.112447 0.000000 0.024445
# 5 0.013044 -0.001169 0.013723 0.000000 0.055243 0.000000
# 6 0.000000 0.000000 0.000000 0.024445 0.000000 0.041268
#
#
# Mechanical properties :
#
#
# Convention : Reuss Voigt Hill
#
# Bulk Modulus (GPa) = 22.28408 30.95692 26.62050
# Shear Modulus (GPa) = 18.07346 26.29535 22.18441
#
# Velocity S-wave (km/s) = 2.77777 3.35054 3.07751
# Velocity P-wave (km/s) = 4.44990 5.30890 4.89827
#
# Compressibility (1/GPa) = 0.04487509
#
# Stress axis : x y z
#
# Youngs Moduli (GPa) = 68.48504 69.68706 50.37221
#
# Poissons Ratio (x) = 0.10471 -0.07213
# Poissons Ratio (y) = 0.10290 0.09539
# Poissons Ratio (z) = -0.09806 0.13196
#
# Static dielectric constant tensor:
#      x y z
#    x 1.934690 0.000000 0.025160 
#    y 0.000000 1.922170 0.000000 
#    z 0.025160 0.000000 2.013860 
# 
# From -- ./inp_files/96853.got.cif
#   From: 2010.05.17/outbox.cif.g08.bks.cpg/sg13_49_cif.got.tgz:96853.got - 2010.06.03 16:44:36.
