data_PCOD9229503
_publ_section_title
;
Structure prediction by ZEFSAII (Michael W. Deem and Ramdas Pophale) SiO2 
 PCOD9229503
Probable space group: P 2/C
;
_chemical_formula_sum "Si O2"
_cell_formula_units_Z 24
_cell_length_a 20.695626
_cell_length_b 12.525694
_cell_length_c 23.608981
_cell_angle_alpha 90.000000
_cell_angle_beta 10.219315
_cell_angle_gamma 90.000000
_cell_volume 1085.804523
_symmetry_space_group_name_H-M "P 2/C"
_symmetry_group_IT_number 13
_symmetry_cell_setting 'monoclinic'
loop_
_space_group_symop_operation_xyz
x,y,z
-x,y,1/2-z
-x,-y,-z
x,-y,1/2+z
loop_
_atom_site_type_symbol
_atom_site_label
_atom_site_fract_x
_atom_site_fract_y
_atom_site_fract_z
Si Si1 0.739869 0.993444 0.669037
Si Si2 0.388931 0.361664 0.166567
Si Si3 0.205589 0.450528 0.897340
Si Si4 0.130159 0.214549 0.820374
Si Si5 0.085087 0.349273 0.240640
Si Si6 0.830870 0.874371 0.783482
O O1 0.864025 0.883030 0.532690
O O2 0.000000 0.000000 0.500000
O O3 0.849963 0.086799 0.531846
O O4 0.340015 0.024826 0.035531
O O5 0.394404 0.437750 0.217174
O O6 0.185941 0.434147 0.294703
O O7 0.109488 0.269821 0.424794
O O8 0.740358 0.302660 0.837546
O O9 0.483829 0.369018 0.627761
O O10 0.130554 0.418402 0.026771
O O11 0.503482 0.168373 0.525184
O O12 0.030560 0.224540 0.299379
O O13 0.000000 0.379681 0.250000
#
# Coordination Sequence:
#
# PCOD9229503 Si02
#       6
#     4   4   4   4   4   4
#     4  10  20  30  51  79 114 147 175 215 279 335
#     4  11  20  33  58  80 116 148 180 234 300 344
#     4  11  22  38  53  83 112 150 191 237 287 340
#     4  11  18  32  52  84 113 147 177 221 289 353
#     4  12  24  39  58  79 113 157 196 233 277 339
#     4  11  19  34  50  78 116 147 182 226 270 341
#
# _framework density 22.103425000000001
#
# number of rings (size 3 to 8) (size 9 to 14) (size 15 to 20)
#    0.000    1.000    3.333    7.500    0.000    2.667 
#    0.000    0.000    0.000    0.000    0.000   17.500 
#    0.000    0.000    0.000    0.000    0.000    0.000 
#
# Total GULP energy -133927.939041 kJ/mol
# GULP energy per Si atom -5580.330793 kJ/mol
# Density = 2.205312 g / cm^3
# Si number density = 22.103425 Si / 1000 Ang^3
#
#
#
# Elastic Constant Matrix: (Units=GPa)
#
#
# Indices 1 2 3 4 5 6 
#
# 1 57.3217 31.8258 25.6755 0.0000 31.7240 0.0000
# 2 31.8258 88.8251 22.0541 0.0000 19.4007 0.0000
# 3 25.6755 22.0541 78.8364 0.0000 40.2687 0.0000
# 4 0.0000 0.0000 0.0000 32.4215 0.0000 26.3877
# 5 31.7240 19.4007 40.2687 0.0000 34.0581 0.0000
# 6 0.0000 0.0000 0.0000 26.3877 0.0000 25.0177
#
#
#
# Elastic Compliance Matrix: (Units=1/GPa)
#
#
# Indices 1 2 3 4 5 6 
#
# 1 0.047685 -0.008231 0.017839 0.000000 -0.060820 0.000000
# 2 -0.008231 0.014283 -0.002715 0.000000 0.002740 0.000000
# 3 0.017839 -0.002715 0.038710 0.000000 -0.060838 0.000000
# 4 0.000000 0.000000 0.000000 0.217923 0.000000 -0.229857
# 5 -0.060820 0.002740 -0.060838 0.000000 0.156385 0.000000
# 6 0.000000 0.000000 0.000000 -0.229857 0.000000 0.282416
#
#
# Mechanical properties :
#
#
# Convention : Reuss Voigt Hill
#
# Bulk Modulus (GPa) = 8.73636 42.67710 25.70673
# Shear Modulus (GPa) = 6.39574 27.99463 17.19519
#
# Velocity S-wave (km/s) = 1.70289 3.56269 2.79219
# Velocity P-wave (km/s) = 2.79777 6.02275 4.69580
#
# Compressibility (1/GPa) = 0.11446410
#
# Stress axis : x y z
#
# Youngs Moduli (GPa) = 20.97088 70.01554 25.83338
#
# Poissons Ratio (x) = 0.57626 -0.46083
# Poissons Ratio (y) = 0.17260 0.07013
# Poissons Ratio (z) = -0.37409 0.19007
#
# Static dielectric constant tensor:
#      x y z
#    x 1.833220 0.000000 -0.025290 
#    y 0.000000 1.903290 0.000000 
#    z -0.025290 0.000000 1.811660 
# 
# From -- ./inp_files/93858.got.cif
#   From: 2010.05.17/outbox.cif.g08.bks.cpg/sg13_47_cif.got.tgz:93858.got - 2010.06.03 16:44:36.
