data_PCOD9229827
_publ_section_title
;
Structure prediction by ZEFSAII (Michael W. Deem and Ramdas Pophale) SiO2 
 PCOD9229827
Probable space group: P 2/C
;
_chemical_formula_sum "Si O2"
_cell_formula_units_Z 30
_cell_length_a 15.180498
_cell_length_b 7.730682
_cell_length_c 26.134152
_cell_angle_alpha 90.000000
_cell_angle_beta 23.418582
_cell_angle_gamma 90.000000
_cell_volume 1218.961080
_symmetry_space_group_name_H-M "P 2/C"
_symmetry_group_IT_number 13
_symmetry_cell_setting 'monoclinic'
loop_
_space_group_symop_operation_xyz
x,y,z
-x,y,1/2-z
-x,-y,-z
x,-y,1/2+z
loop_
_atom_site_type_symbol
_atom_site_label
_atom_site_fract_x
_atom_site_fract_y
_atom_site_fract_z
Si Si1 0.894148 0.211437 0.116316
Si Si2 0.116431 0.038673 0.581825
Si Si3 0.497001 0.576821 0.625381
Si Si4 0.702165 0.774575 0.314292
Si Si5 0.461813 0.028611 0.693564
Si Si6 0.462197 0.302083 0.037415
Si Si7 0.000000 0.857776 0.750000
Si Si8 0.671250 0.616160 0.120701
O O1 0.704960 0.339661 0.236211
O O2 0.006967 0.114444 0.104777
O O3 0.743783 0.063753 0.168960
O O4 0.091908 0.319001 0.985171
O O5 0.324256 0.084323 0.434368
O O6 0.111323 0.958306 0.642101
O O7 0.962427 0.205397 0.670061
O O8 0.393345 0.403958 0.655095
O O9 0.542555 0.700856 0.552888
O O10 0.684556 0.501628 0.562979
O O11 0.612115 0.919269 0.324117
O O12 0.615859 0.806766 0.417228
O O13 0.539668 0.207456 0.676255
O O14 0.206016 0.250271 0.164628
O O15 0.500000 0.500000 0.000000
O O16 0.500000 0.524091 0.250000
#
# Coordination Sequence:
#
# PCOD9229827 Si02
#       8
#     4   4   4   4   4   4   2   4
#     4  10  21  38  63  88 120 162 199 257 318 363
#     4  10  20  34  57  88 123 166 208 246 295 361
#     4  10  21  38  60  87 123 164 203 258 308 370
#     4   9  19  36  55  84 123 164 208 244 294 360
#     4   9  19  38  60  87 120 161 207 251 309 365
#     4  10  21  35  58  86 122 168 209 251 297 363
#     4  12  20  34  58  84 122 170 210 256 294 362
#     4  10  23  42  64  90 121 158 205 262 322 380
#
# _framework density 24.611122999999999
#
# number of rings (size 3 to 8) (size 9 to 14) (size 15 to 20)
#    0.000    2.133    2.667    0.000    1.867    3.733 
#    0.000    6.000    0.000    0.000    0.000    0.000 
#    0.000    0.000    0.000    0.000    0.000    0.000 
#
# Total GULP energy -167371.549577 kJ/mol
# GULP energy per Si atom -5579.051653 kJ/mol
# Density = 2.455511 g / cm^3
# Si number density = 24.611123 Si / 1000 Ang^3
#
#
#
# Elastic Constant Matrix: (Units=GPa)
#
#
# Indices 1 2 3 4 5 6 
#
# 1 44.1715 10.2559 26.3831 0.0000 6.4282 0.0000
# 2 10.2559 45.2337 11.3338 0.0000 -1.1738 0.0000
# 3 26.3831 11.3338 123.1458 0.0000 -6.6080 0.0000
# 4 0.0000 0.0000 0.0000 40.8163 0.0000 -5.0798
# 5 6.4282 -1.1738 -6.6080 0.0000 23.9882 0.0000
# 6 0.0000 0.0000 0.0000 -5.0798 0.0000 17.3959
#
#
#
# Elastic Compliance Matrix: (Units=1/GPa)
#
#
# Indices 1 2 3 4 5 6 
#
# 1 0.029018 -0.005265 -0.006256 0.000000 -0.009757 0.000000
# 2 -0.005265 0.023591 -0.000919 0.000000 0.002312 0.000000
# 3 -0.006256 -0.000919 0.009777 0.000000 0.004325 0.000000
# 4 0.000000 0.000000 0.000000 0.025424 0.000000 0.007424
# 5 -0.009757 0.002312 0.004325 0.000000 0.045606 0.000000
# 6 0.000000 0.000000 0.000000 0.007424 0.000000 0.059653
#
#
# Mechanical properties :
#
#
# Convention : Reuss Voigt Hill
#
# Bulk Modulus (GPa) = 26.66191 34.27738 30.46965
# Shear Modulus (GPa) = 21.69651 27.41199 24.55425
#
# Velocity S-wave (km/s) = 2.97235 3.34099 3.16205
# Velocity P-wave (km/s) = 4.75780 5.37036 5.07333
#
# Compressibility (1/GPa) = 0.03750668
#
# Stress axis : x y z
#
# Youngs Moduli (GPa) = 34.46142 42.38822 102.27663
#
# Poissons Ratio (x) = 0.22317 0.63983
# Poissons Ratio (y) = 0.18144 0.09401
# Poissons Ratio (z) = 0.21559 0.03896
#
# Static dielectric constant tensor:
#      x y z
#    x 2.024660 0.000000 -0.016820 
#    y 0.000000 2.019090 0.000000 
#    z -0.016820 0.000000 2.036020 
# 
# From -- ./inp_files/97337.got.cif
#   From: 2010.05.17/outbox.cif.g08.bks.cpg/sg13_49_cif.got.tgz:97337.got - 2010.06.03 16:44:36.
