data_PCOD9229786
_publ_section_title
;
Structure prediction by ZEFSAII (Michael W. Deem and Ramdas Pophale) SiO2 
 PCOD9229786
Probable space group: P 2/C
;
_chemical_formula_sum "Si O2"
_cell_formula_units_Z 18
_cell_length_a 7.516477
_cell_length_b 8.536015
_cell_length_c 18.202535
_cell_angle_alpha 90.000000
_cell_angle_beta 51.569422
_cell_angle_gamma 90.000000
_cell_volume 914.879283
_symmetry_space_group_name_H-M "P 2/C"
_symmetry_group_IT_number 13
_symmetry_cell_setting 'monoclinic'
loop_
_space_group_symop_operation_xyz
x,y,z
-x,y,1/2-z
-x,-y,-z
x,-y,1/2+z
loop_
_atom_site_type_symbol
_atom_site_label
_atom_site_fract_x
_atom_site_fract_y
_atom_site_fract_z
Si Si1 0.744876 0.160664 0.723664
Si Si2 0.810074 0.656027 0.896822
Si Si3 0.000000 0.089237 0.250000
Si Si4 0.154516 0.532300 0.388769
Si Si5 0.461706 0.383041 0.611368
O O1 0.500000 0.120086 0.750000
O O2 0.863939 0.292666 0.641371
O O3 0.686736 0.250168 0.813946
O O4 0.891108 0.014616 0.712832
O O5 0.823641 0.796861 0.836600
O O6 0.692312 0.505152 0.891365
O O7 0.060823 0.596542 0.856314
O O8 0.652994 0.688099 0.008245
O O9 0.407972 0.528707 0.355666
O O10 0.000000 0.500000 0.500000
#
# Coordination Sequence:
#
# PCOD9229786 Si02
#       5
#     4   4   2   4   4
#     4  10  21  37  54  77 112 147 176 219 278 329
#     4  10  20  34  56  83 105 138 186 229 270 319
#     4  12  24  34  52  84 118 146 174 222 286 338
#     4   9  18  36  60  80 100 138 189 229 261 312
#     4   9  19  37  58  77 103 142 188 229 263 315
#
# _framework density 19.674728000000002
#
# number of rings (size 3 to 8) (size 9 to 14) (size 15 to 20)
#    0.000    2.222    0.000    2.667    0.000    2.667 
#    0.000   10.000    0.000    0.000    0.000    0.000 
#    0.000    0.000    0.000    0.000    0.000    0.000 
#
# Total GULP energy -100333.423914 kJ/mol
# GULP energy per Si atom -5574.079106 kJ/mol
# Density = 1.962995 g / cm^3
# Si number density = 19.674728 Si / 1000 Ang^3
#
#
#
# Elastic Constant Matrix: (Units=GPa)
#
#
# Indices 1 2 3 4 5 6 
#
# 1 37.4753 8.5962 9.1026 0.0000 8.3219 0.0000
# 2 8.5962 49.6715 32.6719 0.0000 2.0968 0.0000
# 3 9.1026 32.6719 92.1862 0.0000 10.5672 0.0000
# 4 0.0000 0.0000 0.0000 9.8599 0.0000 6.6734
# 5 8.3219 2.0968 10.5672 0.0000 22.8254 0.0000
# 6 0.0000 0.0000 0.0000 6.6734 0.0000 2.3087
#
#
#
# Elastic Compliance Matrix: (Units=1/GPa)
#
#
# Indices 1 2 3 4 5 6 
#
# 1 0.030120 -0.004701 -0.000104 0.000000 -0.010501 0.000000
# 2 -0.004701 0.027073 -0.009549 0.000000 0.003648 0.000000
# 3 -0.000104 -0.009549 0.014930 0.000000 -0.005997 0.000000
# 4 0.000000 0.000000 0.000000 -0.106046 0.000000 0.306530
# 5 -0.010501 0.003648 -0.005997 0.000000 0.050081 0.000000
# 6 0.000000 0.000000 0.000000 0.306530 0.000000 -0.452893
#
#
# Mechanical properties :
#
#
# Convention : Reuss Voigt Hill
#
# Bulk Modulus (GPa) = 23.03390 31.11940 27.07665
# Shear Modulus (GPa) = -12.70462 15.59627 1.44583
#
# Velocity S-wave (km/s) = -2.54388 2.81856 0.85817
# Velocity P-wave (km/s) = 1.76191 5.14234 3.84369
#
# Compressibility (1/GPa) = 0.04341426
#
# Stress axis : x y z
#
# Youngs Moduli (GPa) = 33.20078 36.93767 66.98140
#
# Poissons Ratio (x) = 0.17363 0.00699
# Poissons Ratio (y) = 0.15606 0.63960
# Poissons Ratio (z) = 0.00346 0.35271
#
# Static dielectric constant tensor:
#      x y z
#    x 1.751900 0.000000 -0.007150 
#    y 0.000000 1.683390 0.000000 
#    z -0.007150 0.000000 1.736140 
# 
# From -- ./inp_files/45480.got.cif
#   From: 2010.05.17/outbox.cif.g08.bks.cpg/sg13_23_cif.got.tgz:45480.got - 2010.06.03 16:44:36.
