data_PCOD9229267
_publ_section_title
;
Structure prediction by ZEFSAII (Michael W. Deem and Ramdas Pophale) SiO2 
 PCOD9229267
Probable space group: P 2/C
;
_chemical_formula_sum "Si O2"
_cell_formula_units_Z 20
_cell_length_a 11.320794
_cell_length_b 10.186691
_cell_length_c 13.567562
_cell_angle_alpha 90.000000
_cell_angle_beta 32.325341
_cell_angle_gamma 90.000000
_cell_volume 836.648916
_symmetry_space_group_name_H-M "P 2/C"
_symmetry_group_IT_number 13
_symmetry_cell_setting 'monoclinic'
loop_
_space_group_symop_operation_xyz
x,y,z
-x,y,1/2-z
-x,-y,-z
x,-y,1/2+z
loop_
_atom_site_type_symbol
_atom_site_label
_atom_site_fract_x
_atom_site_fract_y
_atom_site_fract_z
Si Si1 0.328134 0.374015 0.697002
Si Si2 0.246024 0.872110 0.119120
Si Si3 0.952238 0.202147 0.473395
Si Si4 0.319115 0.026050 0.273822
Si Si5 0.197134 0.385689 0.167939
O O1 0.297159 0.273032 0.626870
O O2 0.162743 0.326398 0.896530
O O3 0.583119 0.359975 0.549003
O O4 0.277950 0.521035 0.698772
O O5 0.000000 0.880171 0.250000
O O6 0.272407 0.964888 0.197016
O O7 0.435603 0.915983 0.907870
O O8 0.139087 0.140381 0.412262
O O9 0.088556 0.252861 0.284649
O O10 0.760818 0.092921 0.599840
O O11 0.000000 0.456387 0.250000
#
# Coordination Sequence:
#
# PCOD9229267 Si02
#       5
#     4   4   4   4   4
#     4  10  22  41  63  88 124 157 207 253 302 362
#     4  10  19  38  64  89 122 165 201 250 302 362
#     4  10  20  41  61  86 128 157 196 257 303 357
#     4   9  20  38  59  91 125 159 200 248 307 359
#     4  11  23  40  64  90 119 165 202 253 308 360
#
# _framework density 23.904888
#
# number of rings (size 3 to 8) (size 9 to 14) (size 15 to 20)
#    0.000    2.000    2.000    1.200    0.000    1.600 
#    3.600    8.000    0.000    0.000    0.000    0.000 
#    0.000    0.000    0.000    0.000    0.000    0.000 
#
# Total GULP energy -111790.273432 kJ/mol
# GULP energy per Si atom -5589.513672 kJ/mol
# Density = 2.385048 g / cm^3
# Si number density = 23.904888 Si / 1000 Ang^3
#
#
#
# Elastic Constant Matrix: (Units=GPa)
#
#
# Indices 1 2 3 4 5 6 
#
# 1 57.8790 14.6182 27.4155 0.0000 -30.0232 0.0000
# 2 14.6182 61.0239 28.1868 0.0000 -5.0894 0.0000
# 3 27.4155 28.1868 152.1774 0.0000 -41.4061 0.0000
# 4 0.0000 0.0000 0.0000 35.0535 0.0000 3.8754
# 5 -30.0232 -5.0894 -41.4061 0.0000 38.1252 0.0000
# 6 0.0000 0.0000 0.0000 3.8754 0.0000 24.8519
#
#
#
# Elastic Compliance Matrix: (Units=1/GPa)
#
#
# Indices 1 2 3 4 5 6 
#
# 1 0.031728 -0.006686 0.002950 0.000000 0.027297 0.000000
# 2 -0.006686 0.019409 -0.004426 0.000000 -0.007481 0.000000
# 3 0.002950 -0.004426 0.010406 0.000000 0.013033 0.000000
# 4 0.000000 0.000000 0.000000 0.029028 0.000000 -0.004527
# 5 0.027297 -0.007481 0.013033 0.000000 0.060881 0.000000
# 6 0.000000 0.000000 0.000000 -0.004527 0.000000 0.040944
#
#
# Mechanical properties :
#
#
# Convention : Reuss Voigt Hill
#
# Bulk Modulus (GPa) = 22.11517 45.72459 33.91988
# Shear Modulus (GPa) = 22.34178 32.99677 27.66928
#
# Velocity S-wave (km/s) = 3.06046 3.71932 3.40586
# Velocity P-wave (km/s) = 4.66475 6.13300 5.44856
#
# Compressibility (1/GPa) = 0.04521783
#
# Stress axis : x y z
#
# Youngs Moduli (GPa) = 31.51749 51.52202 96.09868
#
# Poissons Ratio (x) = 0.34450 -0.28345
# Poissons Ratio (y) = 0.21074 0.42534
# Poissons Ratio (z) = -0.09296 0.22804
#
# Static dielectric constant tensor:
#      x y z
#    x 2.013030 0.000000 0.022860 
#    y 0.000000 1.889140 0.000000 
#    z 0.022860 0.000000 1.905860 
# 
# From -- ./inp_files/50720.got.cif
#   From: 2010.05.17/outbox.cif.g08.bks.cpg/sg13_26_cif.got.tgz:50720.got - 2010.06.03 16:44:36.
