data_PCOD9229572
_publ_section_title
;
Structure prediction by ZEFSAII (Michael W. Deem and Ramdas Pophale) SiO2 
 PCOD9229572
Probable space group: P 2/C
;
_chemical_formula_sum "Si O2"
_cell_formula_units_Z 24
_cell_length_a 18.280658
_cell_length_b 5.280052
_cell_length_c 23.560691
_cell_angle_alpha 90.000000
_cell_angle_beta 25.454057
_cell_angle_gamma 90.000000
_cell_volume 977.398209
_symmetry_space_group_name_H-M "P 2/C"
_symmetry_group_IT_number 13
_symmetry_cell_setting 'monoclinic'
loop_
_space_group_symop_operation_xyz
x,y,z
-x,y,1/2-z
-x,-y,-z
x,-y,1/2+z
loop_
_atom_site_type_symbol
_atom_site_label
_atom_site_fract_x
_atom_site_fract_y
_atom_site_fract_z
Si Si1 0.037238 0.974286 0.158523
Si Si2 0.502741 0.216102 0.131795
Si Si3 0.391652 0.709285 0.255377
Si Si4 0.666737 0.847301 0.400585
Si Si5 0.851650 0.463875 0.475708
Si Si6 0.217913 0.510210 0.773836
O O1 0.847519 0.982396 0.264316
O O2 0.000000 0.918859 0.250000
O O3 0.141338 0.746883 0.055448
O O4 0.120163 0.246979 0.091046
O O5 0.522216 0.484274 0.148659
O O6 0.321317 0.252088 0.226124
O O7 0.479672 0.980141 0.189199
O O8 0.640033 0.190826 0.986349
O O9 0.296497 0.628410 0.378679
O O10 0.255943 0.688290 0.298228
O O11 0.686058 0.594646 0.349462
O O12 0.500000 0.000000 0.500000
O O13 0.022788 0.458045 0.395320
#
# Coordination Sequence:
#
# PCOD9229572 Si02
#       6
#     4   4   4   4   4   4
#     4  11  26  43  64  86 117 159 203 252 299 349
#     4  10  20  32  53  86 127 150 191 237 304 341
#     4  10  21  33  55  88 129 153 191 242 305 355
#     4  11  19  39  61  93 121 155 202 249 296 350
#     4  11  22  39  61  84 120 160 204 240 298 363
#     4   9  21  31  56  92 123 158 192 248 298 348
#
# _framework density 24.554986
#
# number of rings (size 3 to 8) (size 9 to 14) (size 15 to 20)
#    1.000    0.667    1.667    3.500    2.333    4.667 
#    0.000    0.000    0.000    6.000    0.000    0.000 
#    0.000    0.000    0.000    0.000    0.000    0.000 
#
# Total GULP energy -134225.977959 kJ/mol
# GULP energy per Si atom -5592.749082 kJ/mol
# Density = 2.449910 g / cm^3
# Si number density = 24.554986 Si / 1000 Ang^3
#
#
#
# Elastic Constant Matrix: (Units=GPa)
#
#
# Indices 1 2 3 4 5 6 
#
# 1 82.7636 17.8304 26.1457 0.0000 -1.8497 0.0000
# 2 17.8304 154.6425 53.8591 0.0000 4.1835 0.0000
# 3 26.1457 53.8591 120.1368 0.0000 15.1821 0.0000
# 4 0.0000 0.0000 0.0000 36.3577 0.0000 7.4042
# 5 -1.8497 4.1835 15.1821 0.0000 37.2344 0.0000
# 6 0.0000 0.0000 0.0000 7.4042 0.0000 34.8675
#
#
#
# Elastic Compliance Matrix: (Units=1/GPa)
#
#
# Indices 1 2 3 4 5 6 
#
# 1 0.013146 -0.000578 -0.002839 0.000000 0.001876 0.000000
# 2 -0.000578 0.007700 -0.003388 0.000000 0.000488 0.000000
# 3 -0.002839 -0.003388 0.010997 0.000000 -0.004244 0.000000
# 4 0.000000 0.000000 0.000000 0.028748 0.000000 -0.006105
# 5 0.001876 0.000488 -0.004244 0.000000 0.028626 0.000000
# 6 0.000000 0.000000 0.000000 -0.006105 0.000000 0.029976
#
#
# Mechanical properties :
#
#
# Convention : Reuss Voigt Hill
#
# Bulk Modulus (GPa) = 54.84404 61.46816 58.15610
# Shear Modulus (GPa) = 36.00244 39.00576 37.50410
#
# Velocity S-wave (km/s) = 3.83325 3.98993 3.91237
# Velocity P-wave (km/s) = 6.47884 6.80539 6.64412
#
# Compressibility (1/GPa) = 0.01823352
#
# Stress axis : x y z
#
# Youngs Moduli (GPa) = 76.06965 129.87230 90.93478
#
# Poissons Ratio (x) = 0.07503 0.25816
# Poissons Ratio (y) = 0.04394 0.30807
# Poissons Ratio (z) = 0.21596 0.43999
#
# Static dielectric constant tensor:
#      x y z
#    x 2.050320 0.000000 -0.051990 
#    y 0.000000 1.912680 0.000000 
#    z -0.051990 0.000000 1.903690 
# 
# From -- ./inp_files/88255.got.cif
#   From: 2010.05.17/outbox.cif.g08.bks.cpg/sg13_45_cif.got.tgz:88255.got - 2010.06.03 16:44:36.
