data_PCOD9229204
_publ_section_title
;
Structure prediction by ZEFSAII (Michael W. Deem and Ramdas Pophale) SiO2 
 PCOD9229204
Probable space group: P 2/C
;
_chemical_formula_sum "Si O2"
_cell_formula_units_Z 30
_cell_length_a 7.710623
_cell_length_b 9.549657
_cell_length_c 23.965366
_cell_angle_alpha 90.000000
_cell_angle_beta 49.761794
_cell_angle_gamma 90.000000
_cell_volume 1347.081311
_symmetry_space_group_name_H-M "P 2/C"
_symmetry_group_IT_number 13
_symmetry_cell_setting 'monoclinic'
loop_
_space_group_symop_operation_xyz
x,y,z
-x,y,1/2-z
-x,-y,-z
x,-y,1/2+z
loop_
_atom_site_type_symbol
_atom_site_label
_atom_site_fract_x
_atom_site_fract_y
_atom_site_fract_z
Si Si1 0.147078 0.382275 0.542347
Si Si2 0.653119 0.475910 0.784127
Si Si3 0.135871 0.444577 0.143677
Si Si4 0.781614 0.390838 0.095153
Si Si5 0.016829 0.173760 0.365256
Si Si6 0.500000 0.056716 0.250000
Si Si7 0.641968 0.838238 0.301080
Si Si8 0.116234 0.872658 0.134372
O O1 0.273165 0.358923 0.457942
O O2 0.125502 0.244540 0.584598
O O3 0.245576 0.495970 0.565068
O O4 0.914978 0.460764 0.571111
O O5 0.872031 0.503031 0.700345
O O6 0.450145 0.585517 0.823034
O O7 0.565094 0.317432 0.800609
O O8 0.750769 0.492766 0.826024
O O9 0.118672 0.278240 0.147038
O O10 0.935155 0.267197 0.089497
O O11 0.270164 0.142369 0.290687
O O12 0.890622 0.025734 0.392355
O O13 0.479427 0.955278 0.308309
O O14 0.694571 0.855078 0.356019
O O15 0.880834 0.856179 0.218033
#
# Coordination Sequence:
#
# PCOD9229204 Si02
#       8
#     4   4   4   4   4   2   4   4
#     4  10  20  41  58  84 118 165 194 249 283 367
#     4  11  20  35  63  91 113 153 196 260 286 360
#     4  10  20  37  61  86 120 149 205 236 313 337
#     4  10  24  36  59  89 122 152 205 240 307 334
#     4  10  22  36  54  87 118 162 183 250 290 362
#     4  10  22  34  58  90 130 140 200 244 304 342
#     4  10  20  34  59  94 109 154 193 251 291 346
#     4  10  19  38  60  78 121 154 201 228 301 353
#
# _framework density 22.27037
#
# number of rings (size 3 to 8) (size 9 to 14) (size 15 to 20)
#    0.000    1.867    2.667    1.600    3.733    8.000 
#    0.000    0.000    0.000    1.600    0.000    0.000 
#    0.000    0.000    0.000    0.000    0.000    0.000 
#
# Total GULP energy -167440.768144 kJ/mol
# GULP energy per Si atom -5581.358938 kJ/mol
# Density = 2.221968 g / cm^3
# Si number density = 22.270370 Si / 1000 Ang^3
#
#
#
# Elastic Constant Matrix: (Units=GPa)
#
#
# Indices 1 2 3 4 5 6 
#
# 1 58.6354 17.5524 28.0488 0.0000 21.6881 0.0000
# 2 17.5524 156.1670 26.9144 0.0000 13.1671 0.0000
# 3 28.0488 26.9144 82.1025 0.0000 21.9238 0.0000
# 4 0.0000 0.0000 0.0000 10.4601 0.0000 11.1382
# 5 21.6881 13.1671 21.9238 0.0000 33.8487 0.0000
# 6 0.0000 0.0000 0.0000 11.1382 0.0000 18.2909
#
#
#
# Elastic Compliance Matrix: (Units=1/GPa)
#
#
# Indices 1 2 3 4 5 6 
#
# 1 0.024005 -0.000875 -0.004713 0.000000 -0.011988 0.000000
# 2 -0.000875 0.006878 -0.001682 0.000000 -0.001025 0.000000
# 3 -0.004713 -0.001682 0.016154 0.000000 -0.006789 0.000000
# 4 0.000000 0.000000 0.000000 0.271922 0.000000 -0.165586
# 5 -0.011988 -0.001025 -0.006789 0.000000 0.042021 0.000000
# 6 0.000000 0.000000 0.000000 -0.165586 0.000000 0.155505
#
#
# Mechanical properties :
#
#
# Convention : Reuss Voigt Hill
#
# Bulk Modulus (GPa) = 30.77151 49.10400 39.93775
# Shear Modulus (GPa) = 9.22753 27.47922 18.35337
#
# Velocity S-wave (km/s) = 2.03775 3.51649 2.87386
# Velocity P-wave (km/s) = 4.40270 6.21164 5.38369
#
# Compressibility (1/GPa) = 0.03249760
#
# Stress axis : x y z
#
# Youngs Moduli (GPa) = 41.65793 145.38915 61.90322
#
# Poissons Ratio (x) = 0.12722 0.29174
# Poissons Ratio (y) = 0.03645 0.10412
# Poissons Ratio (z) = 0.19633 0.24454
#
# Static dielectric constant tensor:
#      x y z
#    x 1.859130 0.000000 0.009010 
#    y 0.000000 1.826620 0.000000 
#    z 0.009010 0.000000 1.816810 
# 
# From -- ./inp_files/84955.got.cif
#   From: 2010.05.17/outbox.cif.g08.bks.cpg/sg13_43_cif.got.tgz:84955.got - 2010.06.03 16:44:36.
