data_PCOD9229648
_publ_section_title
;
Structure prediction by ZEFSAII (Michael W. Deem and Ramdas Pophale) SiO2 
 PCOD9229648
Probable space group: P 2/C
;
_chemical_formula_sum "Si O2"
_cell_formula_units_Z 28
_cell_length_a 14.968478
_cell_length_b 9.740015
_cell_length_c 9.340502
_cell_angle_alpha 90.000000
_cell_angle_beta 108.318286
_cell_angle_gamma 90.000000
_cell_volume 1292.773689
_symmetry_space_group_name_H-M "P 2/C"
_symmetry_group_IT_number 13
_symmetry_cell_setting 'monoclinic'
loop_
_space_group_symop_operation_xyz
x,y,z
-x,y,1/2-z
-x,-y,-z
x,-y,1/2+z
loop_
_atom_site_type_symbol
_atom_site_label
_atom_site_fract_x
_atom_site_fract_y
_atom_site_fract_z
Si Si1 0.136438 0.535249 0.931150
Si Si2 0.209688 0.967743 0.424811
Si Si3 0.549961 0.807792 0.632514
Si Si4 0.935772 0.358993 0.391923
Si Si5 0.909935 0.051746 0.369140
Si Si6 0.696777 0.260218 0.986771
Si Si7 0.383451 0.882167 0.333837
O O1 0.110780 0.543981 0.751656
O O2 0.233967 0.612625 0.006366
O O3 0.046965 0.612004 0.960406
O O4 0.122590 0.385778 0.992922
O O5 0.119493 0.956873 0.276758
O O6 0.240558 0.127270 0.442384
O O7 0.179395 0.939439 0.570116
O O8 0.294262 0.885373 0.395620
O O9 0.500000 0.751892 0.750000
O O10 0.629433 0.720498 0.590550
O O11 0.471408 0.832638 0.471268
O O12 0.593252 0.958548 0.694600
O O13 0.927248 0.206205 0.331565
O O14 0.000000 0.000000 0.500000
O O15 0.639481 0.208534 0.817421
#
# Coordination Sequence:
#
# PCOD9229648 Si02
#       7
#     4   4   4   4   4   4   4
#     4  10  22  42  64  86 120 173 220 270 300 377
#     4  11  22  35  56  89 128 166 204 255 326 394
#     4  10  20  33  55  88 131 164 202 265 328 397
#     4  10  23  42  63  87 127 170 225 262 318 369
#     4  12  24  39  58  92 131 172 206 268 331 384
#     4  11  20  36  59  86 125 163 207 260 323 380
#     4  10  20  33  54  88 130 168 209 251 331 406
#
# _framework density 21.658857000000001
#
# number of rings (size 3 to 8) (size 9 to 14) (size 15 to 20)
#    0.000    1.429    2.857    4.286    4.000    1.143 
#    7.714    0.000    0.000    0.000    0.000   14.000 
#    0.000    0.000    0.000    0.000    0.000    0.000 
#
# Total GULP energy -156370.085672 kJ/mol
# GULP energy per Si atom -5584.645917 kJ/mol
# Density = 2.160956 g / cm^3
# Si number density = 21.658857 Si / 1000 Ang^3
#
#
#
# Elastic Constant Matrix: (Units=GPa)
#
#
# Indices 1 2 3 4 5 6 
#
# 1 120.5629 23.2425 31.4481 0.0000 -16.7601 0.0000
# 2 23.2425 21.8652 10.8223 0.0000 -2.1749 0.0000
# 3 31.4481 10.8223 101.2644 0.0000 -0.3857 0.0000
# 4 0.0000 0.0000 0.0000 15.9115 0.0000 2.7190
# 5 -16.7601 -2.1749 -0.3857 0.0000 46.6623 0.0000
# 6 0.0000 0.0000 0.0000 2.7190 0.0000 22.8757
#
#
#
# Elastic Compliance Matrix: (Units=1/GPa)
#
#
# Indices 1 2 3 4 5 6 
#
# 1 0.011478 -0.010648 -0.002413 0.000000 0.003606 0.000000
# 2 -0.010648 0.058396 -0.002938 0.000000 -0.001127 0.000000
# 3 -0.002413 -0.002938 0.010935 0.000000 -0.000913 0.000000
# 4 0.000000 0.000000 0.000000 0.064151 0.000000 -0.007625
# 5 0.003606 -0.001127 -0.000913 0.000000 0.022666 0.000000
# 6 0.000000 0.000000 0.000000 -0.007625 0.000000 0.044621
#
#
# Mechanical properties :
#
#
# Convention : Reuss Voigt Hill
#
# Bulk Modulus (GPa) = 20.48749 41.63538 31.06143
# Shear Modulus (GPa) = 19.19281 28.96853 24.08067
#
# Velocity S-wave (km/s) = 2.98004 3.66114 3.33801
# Velocity P-wave (km/s) = 4.61742 6.09401 5.40636
#
# Compressibility (1/GPa) = 0.04881028
#
# Stress axis : x y z
#
# Youngs Moduli (GPa) = 87.12412 17.12458 91.44945
#
# Poissons Ratio (x) = 0.18234 0.22065
# Poissons Ratio (y) = 0.92769 0.26871
# Poissons Ratio (z) = 0.21021 0.05032
#
# Static dielectric constant tensor:
#      x y z
#    x 1.827180 0.000000 -0.002040 
#    y 0.000000 1.776050 0.000000 
#    z -0.002040 0.000000 1.840760 
# 
# From -- ./inp_files/18852.got.cif
#   From: 2010.05.17/outbox.cif.g08.bks.cpg/sg13_10_cif.got.tgz:18852.got - 2010.06.03 16:44:36.
