data_PCOD9229542
_publ_section_title
;
Structure prediction by ZEFSAII (Michael W. Deem and Ramdas Pophale) SiO2 
 PCOD9229542
Probable space group: P 2/C
;
_chemical_formula_sum "Si O2"
_cell_formula_units_Z 32
_cell_length_a 11.422092
_cell_length_b 11.419614
_cell_length_c 20.523405
_cell_angle_alpha 90.000000
_cell_angle_beta 48.555351
_cell_angle_gamma 90.000000
_cell_volume 2006.658479
_symmetry_space_group_name_H-M "P 2/C"
_symmetry_group_IT_number 13
_symmetry_cell_setting 'monoclinic'
loop_
_space_group_symop_operation_xyz
x,y,z
-x,y,1/2-z
-x,-y,-z
x,-y,1/2+z
loop_
_atom_site_type_symbol
_atom_site_label
_atom_site_fract_x
_atom_site_fract_y
_atom_site_fract_z
Si Si1 0.963613 0.653686 0.952098
Si Si2 0.368491 0.057035 0.503538
Si Si3 0.730680 0.777594 0.701519
Si Si4 0.420917 0.739935 0.881769
Si Si5 0.864341 0.014384 0.642631
Si Si6 0.058991 0.810015 0.156329
Si Si7 0.132104 0.605284 0.028080
Si Si8 0.185171 0.108839 0.976696
O O1 0.110160 0.704011 0.857396
O O2 0.902327 0.530714 0.947906
O O3 0.031709 0.637348 0.000342
O O4 0.832546 0.753598 0.004578
O O5 0.425774 0.162136 0.435712
O O6 0.219559 0.113820 0.596034
O O7 0.500000 0.000000 0.500000
O O8 0.304658 0.956136 0.479339
O O9 0.594742 0.716698 0.792673
O O10 0.671698 0.786951 0.648144
O O11 0.760440 0.911521 0.711752
O O12 0.313406 0.632960 0.945194
O O13 0.786790 0.076768 0.608954
O O14 0.930366 0.109413 0.667782
O O15 0.015468 0.945326 0.558227
O O16 0.085958 0.694684 0.102376
O O17 0.000000 0.782584 0.250000
#
# Coordination Sequence:
#
# PCOD9229542 Si02
#       8
#     4   4   4   4   4   4   4   4
#     4   9  16  29  55  78  94 125 174 220 247 283
#     4  10  20  32  48  71 105 136 162 199 257 316
#     4   9  16  27  50  78  99 124 162 211 260 297
#     4   9  17  29  47  73 102 132 160 201 256 308
#     4   9  15  27  49  75  99 122 162 211 260 298
#     4  10  20  32  50  72 102 139 168 205 250 306
#     4   9  17  31  51  75  99 132 173 208 248 295
#     4   9  15  29  50  74  98 123 162 215 254 292
#
# _framework density 15.946909
#
# number of rings (size 3 to 8) (size 9 to 14) (size 15 to 20)
#    0.000    2.750    2.500    0.000    1.750    0.000 
#    0.000    0.000    5.500    1.500    3.250    0.000 
#    0.000    0.000    0.000    0.000    0.000    0.000 
#
# Total GULP energy -178165.212532 kJ/mol
# GULP energy per Si atom -5567.662892 kJ/mol
# Density = 1.591061 g / cm^3
# Si number density = 15.946909 Si / 1000 Ang^3
#
#
#
# Elastic Constant Matrix: (Units=GPa)
#
#
# Indices 1 2 3 4 5 6 
#
# 1 73.0333 46.5174 32.6437 0.0000 -4.6309 0.0000
# 2 46.5174 127.0340 44.7500 0.0000 -3.7420 0.0000
# 3 32.6437 44.7500 82.3127 0.0000 2.1834 0.0000
# 4 0.0000 0.0000 0.0000 10.1031 0.0000 -1.7961
# 5 -4.6309 -3.7420 2.1834 0.0000 12.7514 0.0000
# 6 0.0000 0.0000 0.0000 -1.7961 0.0000 22.7822
#
#
#
# Elastic Compliance Matrix: (Units=1/GPa)
#
#
# Indices 1 2 3 4 5 6 
#
# 1 0.019736 -0.005216 -0.005165 0.000000 0.006521 0.000000
# 2 -0.005216 0.011300 -0.004131 0.000000 0.002129 0.000000
# 3 -0.005165 -0.004131 0.016600 0.000000 -0.005930 0.000000
# 4 0.000000 0.000000 0.000000 0.100387 0.000000 0.007914
# 5 0.006521 0.002129 -0.005930 0.000000 0.082431 0.000000
# 6 0.000000 0.000000 0.000000 0.007914 0.000000 0.044518
#
#
# Mechanical properties :
#
#
# Convention : Reuss Voigt Hill
#
# Bulk Modulus (GPa) = 53.72453 58.91137 56.31795
# Shear Modulus (GPa) = 16.11863 19.69191 17.90527
#
# Velocity S-wave (km/s) = 3.18271 3.51784 3.35446
# Velocity P-wave (km/s) = 6.87524 7.31592 7.09900
#
# Compressibility (1/GPa) = 0.01861347
#
# Stress axis : x y z
#
# Youngs Moduli (GPa) = 50.66801 88.49691 60.24006
#
# Poissons Ratio (x) = 0.46157 0.31111
# Poissons Ratio (y) = 0.26427 0.24887
# Poissons Ratio (z) = 0.26168 0.36561
#
# Static dielectric constant tensor:
#      x y z
#    x 1.526550 0.000000 -0.012840 
#    y 0.000000 1.527370 0.000000 
#    z -0.012840 0.000000 1.547020 
# 
# From -- ./inp_files/78406.got.cif
#   From: 2010.05.17/outbox.cif.g08.bks.cpg/sg13_40_cif.got.tgz:78406.got - 2010.06.03 16:44:36.
