data_PCOD9229134
_publ_section_title
;
Structure prediction by ZEFSAII (Michael W. Deem and Ramdas Pophale) SiO2 
 PCOD9229134
Probable space group: P 2/C
;
_chemical_formula_sum "Si O2"
_cell_formula_units_Z 22
_cell_length_a 10.279649
_cell_length_b 10.892410
_cell_length_c 14.115531
_cell_angle_alpha 90.000000
_cell_angle_beta 149.803555
_cell_angle_gamma 90.000000
_cell_volume 794.947396
_symmetry_space_group_name_H-M "P 2/C"
_symmetry_group_IT_number 13
_symmetry_cell_setting 'monoclinic'
loop_
_space_group_symop_operation_xyz
x,y,z
-x,y,1/2-z
-x,-y,-z
x,-y,1/2+z
loop_
_atom_site_type_symbol
_atom_site_label
_atom_site_fract_x
_atom_site_fract_y
_atom_site_fract_z
Si Si1 0.695132 0.263204 0.589304
Si Si2 0.062956 0.301419 0.575236
Si Si3 0.000000 0.074130 0.250000
Si Si4 0.272409 0.903354 0.547460
Si Si5 0.546155 0.487389 0.168067
Si Si6 0.292458 0.269319 0.533245
O O1 0.721912 0.242590 0.717997
O O2 0.618103 0.143023 0.483585
O O3 0.527153 0.376195 0.445535
O O4 0.000000 0.289053 0.750000
O O5 0.176507 0.441075 0.665489
O O6 0.053032 0.280921 0.456964
O O7 0.818902 0.221136 0.457285
O O8 0.230279 0.168383 0.416585
O O9 0.034569 0.988962 0.365262
O O10 0.500000 0.964696 0.750000
O O11 0.500000 0.453405 0.250000
O O12 0.338449 0.595607 0.021836
O O13 0.500000 0.250818 0.750000
#
# Coordination Sequence:
#
# PCOD9229134 Si02
#       6
#     4   4   2   4   4   4
#     4  10  19  37  63  93 131 165 202 254 314 375
#     4   9  19  42  62  95 128 160 211 255 310 382
#     4  12  22  44  66  84 128 170 210 266 318 354
#     4  11  23  42  62  92 127 166 211 264 309 368
#     4   9  19  38  63  93 130 164 204 255 312 375
#     4   9  22  42  63  93 125 163 209 262 310 372
#
# _framework density 27.674785
#
# number of rings (size 3 to 8) (size 9 to 14) (size 15 to 20)
#    0.000    2.545    2.727    1.636    1.273    0.727 
#    6.545   27.273    0.000    0.000    0.000    0.000 
#    0.000    0.000    0.000    0.000    0.000    0.000 
#
# Total GULP energy -122489.519863 kJ/mol
# GULP energy per Si atom -5567.705448 kJ/mol
# Density = 2.761180 g / cm^3
# Si number density = 27.674785 Si / 1000 Ang^3
#
#
#
# Elastic Constant Matrix: (Units=GPa)
#
#
# Indices 1 2 3 4 5 6 
#
# 1 61.9185 10.5109 32.5822 0.0000 -31.0828 0.0000
# 2 10.5109 120.7623 64.2494 0.0000 -6.9859 0.0000
# 3 32.5822 64.2494 175.0655 0.0000 -15.3666 0.0000
# 4 0.0000 0.0000 0.0000 71.3854 0.0000 0.2629
# 5 -31.0828 -6.9859 -15.3666 0.0000 37.9738 0.0000
# 6 0.0000 0.0000 0.0000 0.2629 0.0000 -10.6081
#
#
#
# Elastic Compliance Matrix: (Units=1/GPa)
#
#
# Indices 1 2 3 4 5 6 
#
# 1 0.029375 0.000751 -0.003754 0.000000 0.022664 0.000000
# 2 0.000751 0.010314 -0.003841 0.000000 0.000958 0.000000
# 3 -0.003754 -0.003841 0.007765 0.000000 -0.000637 0.000000
# 4 0.000000 0.000000 0.000000 0.014007 0.000000 0.000347
# 5 0.022664 0.000958 -0.000637 0.000000 0.044803 0.000000
# 6 0.000000 0.000000 0.000000 0.000347 0.000000 -0.094259
#
#
# Mechanical properties :
#
#
# Convention : Reuss Voigt Hill
#
# Bulk Modulus (GPa) = 29.61457 63.60348 46.60902
# Shear Modulus (GPa) = 135.32502 36.44380 85.88441
#
# Velocity S-wave (km/s) = 7.00032 3.63279 5.57681
# Velocity P-wave (km/s) = 8.72144 6.37406 7.63846
#
# Compressibility (1/GPa) = 0.03376716
#
# Stress axis : x y z
#
# Youngs Moduli (GPa) = 34.04267 96.95216 128.79097
#
# Poissons Ratio (x) = -0.07284 0.48342
# Poissons Ratio (y) = -0.02558 0.49470
# Poissons Ratio (z) = 0.12778 0.37241
#
# Static dielectric constant tensor:
#      x y z
#    x 2.540810 0.000000 0.223380 
#    y 0.000000 2.164960 0.000000 
#    z 0.223380 0.000000 2.230080 
# 
# From -- ./inp_files/51270.got.cif
#   From: 2010.05.17/outbox.cif.g08.bks.cpg/sg13_26_cif.got.tgz:51270.got - 2010.06.03 16:44:36.
