data_PCOD9229314
_publ_section_title
;
Structure prediction by ZEFSAII (Michael W. Deem and Ramdas Pophale) SiO2 
 PCOD9229314
Probable space group: P 2/C
;
_chemical_formula_sum "Si O2"
_cell_formula_units_Z 26
_cell_length_a 14.857143
_cell_length_b 17.970537
_cell_length_c 5.272332
_cell_angle_alpha 90.000000
_cell_angle_beta 72.114372
_cell_angle_gamma 90.000000
_cell_volume 1339.633992
_symmetry_space_group_name_H-M "P 2/C"
_symmetry_group_IT_number 13
_symmetry_cell_setting 'monoclinic'
loop_
_space_group_symop_operation_xyz
x,y,z
-x,y,1/2-z
-x,-y,-z
x,-y,1/2+z
loop_
_atom_site_type_symbol
_atom_site_label
_atom_site_fract_x
_atom_site_fract_y
_atom_site_fract_z
Si Si1 0.392784 0.532132 0.621179
Si Si2 0.000000 0.869763 0.250000
Si Si3 0.500000 0.819780 0.750000
Si Si4 0.610277 0.046617 0.997186
Si Si5 0.202987 0.127860 0.543867
Si Si6 0.404395 0.700345 0.504593
Si Si7 0.209676 0.229640 0.033667
Si Si8 0.000000 0.767100 0.750000
O O1 0.500000 0.500000 0.500000
O O2 0.346696 0.508850 0.397010
O O3 0.396854 0.620364 0.644853
O O4 0.099899 0.909992 0.145663
O O5 0.001336 0.818013 0.498026
O O6 0.445283 0.875677 0.982620
O O7 0.425814 0.766992 0.678322
O O8 0.590194 0.005570 0.279062
O O9 0.718397 0.069620 0.943025
O O10 0.217131 0.167951 0.256931
O O11 0.207347 0.190309 0.761294
O O12 0.500000 0.696455 0.250000
O O13 0.303982 0.719840 0.463887
O O14 0.105940 0.268601 0.160785
#
# Coordination Sequence:
#
# PCOD9229314 Si02
#       8
#     4   2   2   4   4   4   4   2
#     4  10  20  38  54  80 121 155 183 215 276 342
#     4   8  16  30  60  79 102 139 168 242 300 332
#     4  12  26  40  56  82 112 142 204 240 274 336
#     4  12  26  42  56  73 109 157 190 232 291 344
#     4  10  19  39  56  81 110 137 191 238 290 344
#     4  12  24  35  63  88 118 153 189 240 280 328
#     4  10  20  35  58  87 111 145 186 240 287 329
#     4   8  16  32  54  81 114 139 178 232 292 336
#
# _framework density 19.408287999999999
#
# number of rings (size 3 to 8) (size 9 to 14) (size 15 to 20)
#    0.000    1.538    3.077    3.231    2.154    0.000 
#    0.000    0.769    0.000    0.000    0.000    1.077 
#    0.000    0.000    0.000    0.000    0.000    0.000 
#
# Total GULP energy -144946.633115 kJ/mol
# GULP energy per Si atom -5574.870504 kJ/mol
# Density = 1.936411 g / cm^3
# Si number density = 19.408288 Si / 1000 Ang^3
#
#
#
# Elastic Constant Matrix: (Units=GPa)
#
#
# Indices 1 2 3 4 5 6 
#
# 1 136.8915 23.8920 4.6387 0.0000 -12.2742 0.0000
# 2 23.8920 84.4316 17.6777 0.0000 1.9004 0.0000
# 3 4.6387 17.6777 88.1048 0.0000 10.4758 0.0000
# 4 0.0000 0.0000 0.0000 26.1974 0.0000 5.7482
# 5 -12.2742 1.9004 10.4758 0.0000 28.9554 0.0000
# 6 0.0000 0.0000 0.0000 5.7482 0.0000 7.2297
#
#
#
# Elastic Compliance Matrix: (Units=1/GPa)
#
#
# Indices 1 2 3 4 5 6 
#
# 1 0.008049 -0.002276 -0.000408 0.000000 0.003709 0.000000
# 2 -0.002276 0.013007 -0.002376 0.000000 -0.000959 0.000000
# 3 -0.000408 -0.002376 0.012383 0.000000 -0.004497 0.000000
# 4 0.000000 0.000000 0.000000 0.046238 0.000000 -0.036763
# 5 0.003709 -0.000959 -0.004497 0.000000 0.037798 0.000000
# 6 0.000000 0.000000 0.000000 -0.036763 0.000000 0.167547
#
#
# Mechanical properties :
#
#
# Convention : Reuss Voigt Hill
#
# Bulk Modulus (GPa) = 42.88319 44.64939 43.76629
# Shear Modulus (GPa) = 16.50634 30.02448 23.26541
#
# Velocity S-wave (km/s) = 2.91946 3.93745 3.46603
# Velocity P-wave (km/s) = 5.78858 6.61261 6.21427
#
# Compressibility (1/GPa) = 0.02331916
#
# Stress axis : x y z
#
# Youngs Moduli (GPa) = 124.24532 76.88242 80.75553
#
# Poissons Ratio (x) = 0.17495 0.03296
# Poissons Ratio (y) = 0.28273 0.19187
# Poissons Ratio (z) = 0.05071 0.18267
#
# Static dielectric constant tensor:
#      x y z
#    x 1.829340 0.000000 -0.015730 
#    y 0.000000 1.625140 0.000000 
#    z -0.015730 0.000000 1.872170 
# 
# From -- ./inp_files/4964.got.cif
#   From: 2010.05.17/outbox.cif.g08.bks.cpg/sg13_3_cif.got.tgz:4964.got - 2010.06.03 16:44:36.
