data_PCOD9229473
_publ_section_title
;
Structure prediction by ZEFSAII (Michael W. Deem and Ramdas Pophale) SiO2 
 PCOD9229473
Probable space group: P 2/C
;
_chemical_formula_sum "Si O2"
_cell_formula_units_Z 18
_cell_length_a 18.893757
_cell_length_b 9.110582
_cell_length_c 13.594244
_cell_angle_alpha 90.000000
_cell_angle_beta 18.134921
_cell_angle_gamma 90.000000
_cell_volume 728.344456
_symmetry_space_group_name_H-M "P 2/C"
_symmetry_group_IT_number 13
_symmetry_cell_setting 'monoclinic'
loop_
_space_group_symop_operation_xyz
x,y,z
-x,y,1/2-z
-x,-y,-z
x,-y,1/2+z
loop_
_atom_site_type_symbol
_atom_site_label
_atom_site_fract_x
_atom_site_fract_y
_atom_site_fract_z
Si Si1 0.281732 0.814834 0.992284
Si Si2 0.866238 0.629316 0.126462
Si Si3 0.723188 0.539271 0.631006
Si Si4 0.000000 0.966680 0.750000
Si Si5 0.294699 0.248456 0.953093
O O1 0.500000 0.896195 0.750000
O O2 0.330348 0.705607 0.834624
O O3 0.230205 0.712575 0.152829
O O4 0.073860 0.921731 0.239410
O O5 0.704155 0.543786 0.262657
O O6 0.000000 0.500000 0.000000
O O7 0.053530 0.732745 0.827232
O O8 0.641427 0.411589 0.666138
O O9 0.000000 0.539142 0.250000
O O10 0.223600 0.861180 0.458152
O O11 0.500000 0.200670 0.750000
#
# Coordination Sequence:
#
# PCOD9229473 Si02
#       5
#     4   4   4   2   4
#     4  12  25  43  67 101 135 177 221 272 333 393
#     4  11  21  41  71 100 132 171 220 277 333 385
#     4  10  19  42  66  96 132 164 221 282 317 379
#     4  12  24  48  64  90 152 168 218 284 318 394
#     4  11  23  45  70  95 130 178 221 272 331 390
#
# _framework density 24.713581000000001
#
# number of rings (size 3 to 8) (size 9 to 14) (size 15 to 20)
#    0.000    0.889    8.889    1.333    0.000    1.778 
#    4.000    2.222    0.000    0.000    0.000    0.000 
#    0.000    0.000    0.000    0.000    0.000    0.000 
#
# Total GULP energy -100298.108213 kJ/mol
# GULP energy per Si atom -5572.117123 kJ/mol
# Density = 2.465733 g / cm^3
# Si number density = 24.713581 Si / 1000 Ang^3
#
#
#
# Elastic Constant Matrix: (Units=GPa)
#
#
# Indices 1 2 3 4 5 6 
#
# 1 175.3885 59.2579 45.5124 0.0000 -57.0003 0.0000
# 2 59.2579 133.1880 21.9429 0.0000 -34.1350 0.0000
# 3 45.5124 21.9429 29.6728 0.0000 -17.5325 0.0000
# 4 0.0000 0.0000 0.0000 -823.0852 0.0000 462.1029
# 5 -57.0003 -34.1350 -17.5325 0.0000 56.0371 0.0000
# 6 0.0000 0.0000 0.0000 462.1029 0.0000 -248.6952
#
#
#
# Elastic Compliance Matrix: (Units=1/GPa)
#
#
# Indices 1 2 3 4 5 6 
#
# 1 0.011839 -0.001287 -0.012948 0.000000 0.007207 0.000000
# 2 -0.001287 0.009473 -0.002938 0.000000 0.003542 0.000000
# 3 -0.012948 -0.002938 0.057529 0.000000 0.003039 0.000000
# 4 0.000000 0.000000 0.000000 0.028128 0.000000 0.052264
# 5 0.007207 0.003542 0.003039 0.000000 0.028285 0.000000
# 6 0.000000 0.000000 0.000000 0.052264 0.000000 0.093091
#
#
# Mechanical properties :
#
#
# Convention : Reuss Voigt Hill
#
# Bulk Modulus (GPa) = 22.47506 65.74173 44.10840
# Shear Modulus (GPa) = 18.01659 -189.04624 -85.51483
#
# Velocity S-wave (km/s) = 2.70296 -8.75562 -5.88876
# Velocity P-wave (km/s) = 4.34227 8.69226 5.32448
#
# Compressibility (1/GPa) = 0.04449376
#
# Stress axis : x y z
#
# Youngs Moduli (GPa) = 84.46883 105.56767 17.38245
#
# Poissons Ratio (x) = 0.13586 0.22507
# Poissons Ratio (y) = 0.10870 0.05107
# Poissons Ratio (z) = 1.09372 0.31019
#
# Static dielectric constant tensor:
#      x y z
#    x 1.983830 0.000000 0.088360 
#    y 0.000000 2.051550 0.000000 
#    z 0.088360 0.000000 2.225970 
# 
# From -- ./inp_files/57002.got.cif
#   From: 2010.05.17/outbox.cif.g08.bks.cpg/sg13_29_cif.got.tgz:57002.got - 2010.06.03 16:44:36.
