data_PCOD9229053
_publ_section_title
;
Structure prediction by ZEFSAII (Michael W. Deem and Ramdas Pophale) SiO2 
 PCOD9229053
Probable space group: P 2/C
;
_chemical_formula_sum "Si O2"
_cell_formula_units_Z 22
_cell_length_a 11.533225
_cell_length_b 5.359104
_cell_length_c 20.070354
_cell_angle_alpha 90.000000
_cell_angle_beta 136.143257
_cell_angle_gamma 90.000000
_cell_volume 859.492294
_symmetry_space_group_name_H-M "P 2/C"
_symmetry_group_IT_number 13
_symmetry_cell_setting 'monoclinic'
loop_
_space_group_symop_operation_xyz
x,y,z
-x,y,1/2-z
-x,-y,-z
x,-y,1/2+z
loop_
_atom_site_type_symbol
_atom_site_label
_atom_site_fract_x
_atom_site_fract_y
_atom_site_fract_z
Si Si1 0.143936 0.517071 0.397316
Si Si2 0.411531 0.750248 0.434896
Si Si3 0.000000 0.125196 0.250000
Si Si4 0.956854 0.901690 0.374242
Si Si5 0.578640 0.590933 0.379775
Si Si6 0.724143 0.079483 0.392493
O O1 0.229106 0.747968 0.393181
O O2 0.268173 0.420674 0.504359
O O3 0.134804 0.314115 0.336593
O O4 0.974391 0.604922 0.363786
O O5 0.500000 0.500000 0.500000
O O6 0.424672 0.689011 0.361721
O O7 0.500000 0.000000 0.500000
O O8 0.934835 0.005215 0.290866
O O9 0.133552 0.924726 0.489370
O O10 0.827591 0.047219 0.367306
O O11 0.604596 0.320090 0.356043
O O12 0.622901 0.823479 0.353023
#
# Coordination Sequence:
#
# PCOD9229053 Si02
#       6
#     4   4   2   4   4   4
#     4  10  22  35  58  89 124 155 205 255 319 374
#     4  10  20  35  61  89 120 151 199 261 308 356
#     4  12  22  38  56  88 126 166 204 246 320 394
#     4  10  22  36  56  88 121 161 198 254 309 375
#     4  10  19  37  59  90 114 152 200 259 309 357
#     4  10  21  36  62  86 122 151 205 255 308 362
#
# _framework density 25.596506000000002
#
# number of rings (size 3 to 8) (size 9 to 14) (size 15 to 20)
#    0.000    1.818    1.818    3.818    5.091    2.182 
#    0.000    0.000    0.000    1.091    0.000    0.000 
#    0.000    0.000    0.000    0.000    0.000    0.000 
#
# Total GULP energy -122555.178167 kJ/mol
# GULP energy per Si atom -5570.689917 kJ/mol
# Density = 2.553825 g / cm^3
# Si number density = 25.596506 Si / 1000 Ang^3
#
#
#
# Elastic Constant Matrix: (Units=GPa)
#
#
# Indices 1 2 3 4 5 6 
#
# 1 111.9569 62.1408 29.8207 0.0000 -39.0875 0.0000
# 2 62.1408 159.0149 24.7362 0.0000 -22.6810 0.0000
# 3 29.8207 24.7362 155.1308 0.0000 -33.1816 0.0000
# 4 0.0000 0.0000 0.0000-1302.9252 0.0000 -86.1099
# 5 -39.0875 -22.6810 -33.1816 0.0000 34.9568 0.0000
# 6 0.0000 0.0000 0.0000 -86.1099 0.0000 37.7317
#
#
#
# Elastic Compliance Matrix: (Units=1/GPa)
#
#
# Indices 1 2 3 4 5 6 
#
# 1 0.017139 -0.004394 0.001123 0.000000 0.017380 0.000000
# 2 -0.004394 0.008060 -0.000468 0.000000 -0.000127 0.000000
# 3 0.001123 -0.000468 0.008167 0.000000 0.008705 0.000000
# 4 0.000000 0.000000 0.000000 -0.000667 0.000000 -0.001522
# 5 0.017380 -0.000127 0.008705 0.000000 0.056221 0.000000
# 6 0.000000 0.000000 0.000000 -0.001522 0.000000 0.023029
#
#
# Mechanical properties :
#
#
# Convention : Reuss Voigt Hill
#
# Bulk Modulus (GPa) = 38.62418 73.27753 55.95086
# Shear Modulus (GPa) = 39.04537 -225.42035 -93.18749
#
# Velocity S-wave (km/s) = 3.90990 -9.39457 -6.04031
# Velocity P-wave (km/s) = 5.95864 9.43331 5.17116
#
# Compressibility (1/GPa) = 0.02589052
#
# Stress axis : x y z
#
# Youngs Moduli (GPa) = 58.34505 124.06456 122.44874
#
# Poissons Ratio (x) = 0.54508 -0.13757
# Poissons Ratio (y) = 0.25634 0.05729
# Poissons Ratio (z) = -0.06555 0.05804
#
# Static dielectric constant tensor:
#      x y z
#    x 2.054500 0.000000 -0.018760 
#    y 0.000000 2.204580 0.000000 
#    z -0.018760 0.000000 2.052950 
# 
# From -- ./inp_files/65132.got.cif
#   From: 2010.05.17/outbox.cif.g08.bks.cpg/sg13_33_cif.got.tgz:65132.got - 2010.06.03 16:44:36.
