data_PCOD9229373
_publ_section_title
;
Structure prediction by ZEFSAII (Michael W. Deem and Ramdas Pophale) SiO2 
 PCOD9229373
Probable space group: P 2/C
;
_chemical_formula_sum "Si O2"
_cell_formula_units_Z 28
_cell_length_a 9.523345
_cell_length_b 7.772377
_cell_length_c 31.262717
_cell_angle_alpha 90.000000
_cell_angle_beta 144.296796
_cell_angle_gamma 90.000000
_cell_volume 1350.440403
_symmetry_space_group_name_H-M "P 2/C"
_symmetry_group_IT_number 13
_symmetry_cell_setting 'monoclinic'
loop_
_space_group_symop_operation_xyz
x,y,z
-x,y,1/2-z
-x,-y,-z
x,-y,1/2+z
loop_
_atom_site_type_symbol
_atom_site_label
_atom_site_fract_x
_atom_site_fract_y
_atom_site_fract_z
Si Si1 0.091094 0.814582 0.155808
Si Si2 0.375762 0.291656 0.176217
Si Si3 0.424288 0.315308 0.998022
Si Si4 0.116882 0.156106 0.428479
Si Si5 0.316015 0.621562 0.564697
Si Si6 0.483757 0.113081 0.686010
Si Si7 0.193425 0.229659 0.537170
O O1 0.253949 0.810694 0.238615
O O2 0.287979 0.788987 0.167177
O O3 0.004845 0.010810 0.129596
O O4 0.847250 0.713851 0.086012
O O5 0.500000 0.361957 0.250000
O O6 0.415251 0.367862 0.138258
O O7 0.090446 0.300410 0.116800
O O8 0.457883 0.090014 0.191345
O O9 0.624929 0.195358 0.026535
O O10 0.442873 0.302939 0.054104
O O11 0.500000 0.500000 0.000000
O O12 0.149964 0.106476 0.486171
O O13 0.285078 0.419302 0.546377
O O14 0.060875 0.721264 0.504414
O O15 0.388200 0.143010 0.615347
#
# Coordination Sequence:
#
# PCOD9229373 Si02
#       7
#     4   4   4   4   4   4   4
#     4  10  21  38  61  95 117 165 204 258 313 363
#     4  10  20  40  65  93 120 155 206 264 303 361
#     4  12  23  41  62  88 129 167 205 252 307 379
#     4  10  21  38  66  88 122 158 204 257 307 363
#     4  10  22  37  61  94 122 162 213 245 307 363
#     4  10  19  39  66  90 125 151 213 258 312 354
#     4  10  20  38  61  95 118 159 211 258 295 367
#
# _framework density 20.733975000000001
#
# number of rings (size 3 to 8) (size 9 to 14) (size 15 to 20)
#    0.000    1.714    5.714    0.429    2.000    1.714 
#    5.143    1.429    0.000    0.000    0.000    0.000 
#    0.000    0.000    0.000    0.000    0.000    0.000 
#
# Total GULP energy -156063.873020 kJ/mol
# GULP energy per Si atom -5573.709751 kJ/mol
# Density = 2.068678 g / cm^3
# Si number density = 20.733975 Si / 1000 Ang^3
#
#
#
# Elastic Constant Matrix: (Units=GPa)
#
#
# Indices 1 2 3 4 5 6 
#
# 1 59.0040 0.7787 30.2239 0.0000 9.6093 0.0000
# 2 0.7787 26.7925 0.2768 0.0000 11.6542 0.0000
# 3 30.2239 0.2768 161.7314 0.0000 -6.4167 0.0000
# 4 0.0000 0.0000 0.0000 2.4854 0.0000 -13.6519
# 5 9.6093 11.6542 -6.4167 0.0000 32.3573 0.0000
# 6 0.0000 0.0000 0.0000 -13.6519 0.0000 10.7213
#
#
#
# Elastic Compliance Matrix: (Units=1/GPa)
#
#
# Indices 1 2 3 4 5 6 
#
# 1 0.020299 0.002881 -0.004111 0.000000 -0.007881 0.000000
# 2 0.002881 0.044748 -0.001299 0.000000 -0.017230 0.000000
# 3 -0.004111 -0.001299 0.007076 0.000000 0.003092 0.000000
# 4 0.000000 0.000000 0.000000 -0.067122 0.000000 -0.085470
# 5 -0.007881 -0.017230 0.003092 0.000000 0.040064 0.000000
# 6 0.000000 0.000000 0.000000 -0.085470 0.000000 -0.015560
#
#
# Mechanical properties :
#
#
# Convention : Reuss Voigt Hill
#
# Bulk Modulus (GPa) = 14.91069 34.45407 24.68238
# Shear Modulus (GPa) = 87.84406 23.52937 55.68672
#
# Velocity S-wave (km/s) = 6.51607 3.37237 5.18807
# Velocity P-wave (km/s) = 7.98870 5.64066 6.91507
#
# Compressibility (1/GPa) = 0.06706600
#
# Stress axis : x y z
#
# Youngs Moduli (GPa) = 49.26265 22.34724 141.31767
#
# Poissons Ratio (x) = -0.06438 0.58097
# Poissons Ratio (y) = -0.14191 0.18350
# Poissons Ratio (z) = 0.20252 0.02902
#
# Static dielectric constant tensor:
#      x y z
#    x 1.780340 0.000000 0.016600 
#    y 0.000000 1.824440 0.000000 
#    z 0.016600 0.000000 1.796960 
# 
# From -- ./inp_files/95994.got.cif
#   From: 2010.05.17/outbox.cif.g08.bks.cpg/sg13_48_cif.got.tgz:95994.got - 2010.06.03 16:44:36.
