data_PCOD9229787
_publ_section_title
;
Structure prediction by ZEFSAII (Michael W. Deem and Ramdas Pophale) SiO2 
 PCOD9229787
Probable space group: P 2/C
;
_chemical_formula_sum "Si O2"
_cell_formula_units_Z 26
_cell_length_a 7.330584
_cell_length_b 12.579054
_cell_length_c 14.188692
_cell_angle_alpha 90.000000
_cell_angle_beta 123.029075
_cell_angle_gamma 90.000000
_cell_volume 1096.925470
_symmetry_space_group_name_H-M "P 2/C"
_symmetry_group_IT_number 13
_symmetry_cell_setting 'monoclinic'
loop_
_space_group_symop_operation_xyz
x,y,z
-x,y,1/2-z
-x,-y,-z
x,-y,1/2+z
loop_
_atom_site_type_symbol
_atom_site_label
_atom_site_fract_x
_atom_site_fract_y
_atom_site_fract_z
Si Si1 0.433773 0.725346 0.598742
Si Si2 0.035865 0.994846 0.620737
Si Si3 0.454563 0.260551 0.878869
Si Si4 0.878022 0.230051 0.334885
Si Si5 0.000000 0.416292 0.250000
Si Si6 0.000000 0.828777 0.250000
Si Si7 0.500000 0.914495 0.250000
Si Si8 0.532313 0.506447 0.120466
O O1 0.453626 0.740203 0.492361
O O2 0.221220 0.773836 0.587882
O O3 0.658134 0.764560 0.709481
O O4 0.415684 0.599983 0.622410
O O5 0.924451 0.089946 0.646681
O O6 0.291860 0.014855 0.713847
O O7 0.984609 0.876325 0.640233
O O8 0.000000 0.000000 0.500000
O O9 0.202473 0.242932 0.778566
O O10 0.564287 0.162791 0.855267
O O11 0.535810 0.376129 0.868767
O O12 0.012338 0.334338 0.342091
O O13 0.788303 0.486291 0.206694
O O14 0.500000 0.500000 0.000000
#
# Coordination Sequence:
#
# PCOD9229787 Si02
#       8
#     4   4   4   4   2   2   2   4
#     4   9  19  36  58  81 110 145 182 227 278 325
#     4  11  23  39  57  82 111 144 186 231 274 326
#     4  10  20  38  55  79 115 148 182 228 269 325
#     4  10  20  36  57  82 110 141 183 233 277 323
#     4  10  20  34  56  84 110 142 184 226 270 326
#     4  10  22  36  54  80 110 148 186 222 276 326
#     4  10  24  38  58  82 108 150 192 220 276 330
#     4   9  19  35  56  82 111 144 182 222 272 328
#
# _framework density 23.702612999999999
#
# number of rings (size 3 to 8) (size 9 to 14) (size 15 to 20)
#    0.000    2.154    0.000    2.769    0.000    7.385 
#    0.000    6.923    0.000    0.000    0.000    0.000 
#    0.000    0.000    0.000    0.000    0.000    0.000 
#
# Total GULP energy -145225.883141 kJ/mol
# GULP energy per Si atom -5585.610890 kJ/mol
# Density = 2.364866 g / cm^3
# Si number density = 23.702613 Si / 1000 Ang^3
#
#
#
# Elastic Constant Matrix: (Units=GPa)
#
#
# Indices 1 2 3 4 5 6 
#
# 1 46.9154 -8.2113 -2.1910 0.0000 -10.9128 0.0000
# 2 -8.2113 103.8869 26.2931 0.0000 -0.1232 0.0000
# 3 -2.1910 26.2931 89.4701 0.0000 -36.5309 0.0000
# 4 0.0000 0.0000 0.0000 28.4566 0.0000 -6.9104
# 5 -10.9128 -0.1232 -36.5309 0.0000 38.8720 0.0000
# 6 0.0000 0.0000 0.0000 -6.9104 0.0000 5.1712
#
#
#
# Elastic Compliance Matrix: (Units=1/GPa)
#
#
# Indices 1 2 3 4 5 6 
#
# 1 0.024401 0.000623 0.005212 0.000000 0.011750 0.000000
# 2 0.000623 0.010950 -0.005058 0.000000 -0.004543 0.000000
# 3 0.005212 -0.005058 0.021714 0.000000 0.021853 0.000000
# 4 0.000000 0.000000 0.000000 0.052023 0.000000 0.069520
# 5 0.011750 -0.004543 0.021853 0.000000 0.049547 0.000000
# 6 0.000000 0.000000 0.000000 0.069520 0.000000 0.286279
#
#
# Mechanical properties :
#
#
# Convention : Reuss Voigt Hill
#
# Bulk Modulus (GPa) = 17.05920 30.22821 23.64371
# Shear Modulus (GPa) = 10.80153 29.45875 20.13014
#
# Velocity S-wave (km/s) = 2.13705 3.52923 2.91740
# Velocity P-wave (km/s) = 3.64721 5.42108 4.62008
#
# Compressibility (1/GPa) = 0.05861939
#
# Stress axis : x y z
#
# Youngs Moduli (GPa) = 40.98254 91.32574 46.05429
#
# Poissons Ratio (x) = -0.05694 -0.24003
# Poissons Ratio (y) = -0.02555 0.23293
# Poissons Ratio (z) = -0.21360 0.46190
#
# Static dielectric constant tensor:
#      x y z
#    x 1.825290 0.000000 -0.066910 
#    y 0.000000 1.905500 0.000000 
#    z -0.066910 0.000000 1.889990 
# 
# From -- ./inp_files/46845.got.cif
#   From: 2010.05.17/outbox.cif.g08.bks.cpg/sg13_24_cif.got.tgz:46845.got - 2010.06.03 16:44:36.
