data_PCOD9229775
_publ_section_title
;
Structure prediction by ZEFSAII (Michael W. Deem and Ramdas Pophale) SiO2 
 PCOD9229775
Probable space group: P 2/C
;
_chemical_formula_sum "Si O2"
_cell_formula_units_Z 22
_cell_length_a 23.482255
_cell_length_b 6.516549
_cell_length_c 24.599064
_cell_angle_alpha 90.000000
_cell_angle_beta 163.495564
_cell_angle_gamma 90.000000
_cell_volume 1069.378257
_symmetry_space_group_name_H-M "P 2/C"
_symmetry_group_IT_number 13
_symmetry_cell_setting 'monoclinic'
loop_
_space_group_symop_operation_xyz
x,y,z
-x,y,1/2-z
-x,-y,-z
x,-y,1/2+z
loop_
_atom_site_type_symbol
_atom_site_label
_atom_site_fract_x
_atom_site_fract_y
_atom_site_fract_z
Si Si1 0.824822 0.407447 0.124345
Si Si2 0.363464 0.290280 0.958766
Si Si3 0.500000 0.492416 0.250000
Si Si4 0.916725 0.474229 0.363762
Si Si5 0.259291 0.741028 0.623891
Si Si6 0.938939 0.081221 0.315229
O O1 0.731077 0.560815 0.082049
O O2 0.915028 0.214252 0.238572
O O3 0.000000 0.511468 0.250000
O O4 0.648065 0.366357 0.920317
O O5 0.294066 0.409457 0.840601
O O6 0.243050 0.078752 0.849291
O O7 0.589308 0.253892 0.185879
O O8 0.622609 0.348390 0.320098
O O9 0.912462 0.240199 0.340466
O O10 0.000000 0.500000 0.500000
O O11 0.081600 0.584565 0.476320
O O12 0.146222 0.955412 0.509112
#
# Coordination Sequence:
#
# PCOD9229775 Si02
#       6
#     4   4   2   4   4   4
#     4  10  20  34  55  82 116 152 190 232 280 336
#     4   9  21  38  55  82 116 147 189 241 288 340
#     4  10  20  38  58  82 120 152 182 234 288 340
#     4  10  22  41  61  83 115 153 194 241 290 341
#     4  10  22  39  58  86 119 150 190 239 288 341
#     4  10  21  37  58  83 112 150 192 233 283 342
#
# _framework density 20.572700999999999
#
# number of rings (size 3 to 8) (size 9 to 14) (size 15 to 20)
#    0.000    2.182    0.000    3.273    0.000   13.091 
#    0.000    3.636    0.000    0.000    0.000    0.000 
#    0.000    0.000    0.000    0.000    0.000    0.000 
#
# Total GULP energy -122756.930650 kJ/mol
# GULP energy per Si atom -5579.860484 kJ/mol
# Density = 2.052588 g / cm^3
# Si number density = 20.572701 Si / 1000 Ang^3
#
#
#
# Elastic Constant Matrix: (Units=GPa)
#
#
# Indices 1 2 3 4 5 6 
#
# 1 40.6490 11.3563 25.5745 0.0000 -19.6889 0.0000
# 2 11.3563 96.7777 55.9123 0.0000 -7.5225 0.0000
# 3 25.5745 55.9123 182.1307 0.0000 -27.5232 0.0000
# 4 0.0000 0.0000 0.0000 7.6929 0.0000 32.0053
# 5 -19.6889 -7.5225 -27.5232 0.0000 35.2330 0.0000
# 6 0.0000 0.0000 0.0000 32.0053 0.0000 -41.3970
#
#
#
# Elastic Compliance Matrix: (Units=1/GPa)
#
#
# Indices 1 2 3 4 5 6 
#
# 1 0.034721 -0.001735 -0.001663 0.000000 0.017733 0.000000
# 2 -0.001735 0.012652 -0.003831 0.000000 -0.001261 0.000000
# 3 -0.001663 -0.003831 0.007524 0.000000 0.004131 0.000000
# 4 0.000000 0.000000 0.000000 0.030829 0.000000 0.023835
# 5 0.017733 -0.001261 0.004131 0.000000 0.041250 0.000000
# 6 0.000000 0.000000 0.000000 0.023835 0.000000 -0.005729
#
#
# Mechanical properties :
#
#
# Convention : Reuss Voigt Hill
#
# Bulk Modulus (GPa) = 24.72842 56.13817 40.43329
# Shear Modulus (GPa) = 33.51548 15.42007 24.46777
#
# Velocity S-wave (km/s) = 4.04062 2.74074 3.45241
# Velocity P-wave (km/s) = 5.81506 6.11249 5.96563
#
# Compressibility (1/GPa) = 0.04043931
#
# Stress axis : x y z
#
# Youngs Moduli (GPa) = 28.80078 79.04005 132.90221
#
# Poissons Ratio (x) = 0.13715 0.22102
# Poissons Ratio (y) = 0.04997 0.50913
# Poissons Ratio (z) = 0.04790 0.30279
#
# Static dielectric constant tensor:
#      x y z
#    x 1.758680 0.000000 -0.029470 
#    y 0.000000 1.702930 0.000000 
#    z -0.029470 0.000000 1.771390 
# 
# From -- ./inp_files/88803.got.cif
#   From: 2010.05.17/outbox.cif.g08.bks.cpg/sg13_45_cif.got.tgz:88803.got - 2010.06.03 16:44:36.
