data_PCOD9229148
_publ_section_title
;
Structure prediction by ZEFSAII (Michael W. Deem and Ramdas Pophale) SiO2 
 PCOD9229148
Probable space group: P 2/C
;
_chemical_formula_sum "Si O2"
_cell_formula_units_Z 26
_cell_length_a 7.936541
_cell_length_b 12.882386
_cell_length_c 14.286057
_cell_angle_alpha 90.000000
_cell_angle_beta 58.475329
_cell_angle_gamma 90.000000
_cell_volume 1245.062309
_symmetry_space_group_name_H-M "P 2/C"
_symmetry_group_IT_number 13
_symmetry_cell_setting 'monoclinic'
loop_
_space_group_symop_operation_xyz
x,y,z
-x,y,1/2-z
-x,-y,-z
x,-y,1/2+z
loop_
_atom_site_type_symbol
_atom_site_label
_atom_site_fract_x
_atom_site_fract_y
_atom_site_fract_z
Si Si1 0.714086 0.554071 0.926064
Si Si2 0.000000 0.183095 0.750000
Si Si3 0.838679 0.869618 0.721899
Si Si4 0.559792 0.696872 0.839303
Si Si5 0.162153 0.663660 0.071337
Si Si6 0.869332 0.255544 0.500173
Si Si7 0.155159 0.939844 0.387004
O O1 0.709621 0.605958 0.825597
O O2 0.857364 0.457721 0.899663
O O3 0.500000 0.500000 0.000000
O O4 0.751147 0.652046 0.983872
O O5 0.162379 0.263241 0.662419
O O6 0.062068 0.116323 0.822383
O O7 0.671931 0.804353 0.822234
O O8 0.000000 0.908161 0.750000
O O9 0.963637 0.791746 0.618381
O O10 0.740311 0.961401 0.690519
O O11 0.500000 0.689472 0.750000
O O12 0.363885 0.686169 0.957271
O O13 0.985261 0.695606 0.054060
O O14 0.757464 0.153494 0.574947
O O15 0.000000 0.000000 0.500000
#
# Coordination Sequence:
#
# PCOD9229148 Si02
#       7
#     4   2   4   4   4   4   4
#     4  10  22  39  60  90 129 168 212 264 323 387
#     4  10  20  40  62  88 132 162 212 270 310 394
#     4  11  19  35  66  91 119 164 221 262 323 389
#     4  11  22  39  61  91 130 159 214 278 316 387
#     4  10  22  39  61  91 128 167 210 265 334 383
#     4  10  19  37  64  90 123 166 215 261 316 406
#     4   9  20  36  64  93 124 167 220 262 322 382
#
# _framework density 20.882489
#
# number of rings (size 3 to 8) (size 9 to 14) (size 15 to 20)
#    0.000    1.846    3.846    0.462    0.000    1.231 
#   11.077    0.769    6.769    0.000    0.000    0.000 
#    0.000    0.000    0.000    0.000    0.000    0.000 
#
# Total GULP energy -144803.896317 kJ/mol
# GULP energy per Si atom -5569.380628 kJ/mol
# Density = 2.083496 g / cm^3
# Si number density = 20.882489 Si / 1000 Ang^3
#
#
#
# Elastic Constant Matrix: (Units=GPa)
#
#
# Indices 1 2 3 4 5 6 
#
# 1 63.3398 41.2335 15.6790 0.0000 14.2001 0.0000
# 2 41.2335 154.4096 36.7710 0.0000 0.4660 0.0000
# 3 15.6790 36.7710 78.3438 0.0000 7.3704 0.0000
# 4 0.0000 0.0000 0.0000 34.7025 0.0000 -0.8990
# 5 14.2001 0.4660 7.3704 0.0000 18.4258 0.0000
# 6 0.0000 0.0000 0.0000 -0.8990 0.0000 -10.9137
#
#
#
# Elastic Compliance Matrix: (Units=1/GPa)
#
#
# Indices 1 2 3 4 5 6 
#
# 1 0.024054 -0.006341 -0.000113 0.000000 -0.018332 0.000000
# 2 -0.006341 0.008990 -0.003521 0.000000 0.006068 0.000000
# 3 -0.000113 -0.003521 0.014987 0.000000 -0.005819 0.000000
# 4 0.000000 0.000000 0.000000 0.028755 0.000000 -0.002369
# 5 -0.018332 0.006068 -0.005819 0.000000 0.070573 0.000000
# 6 0.000000 0.000000 0.000000 -0.002369 0.000000 -0.091433
#
#
# Mechanical properties :
#
#
# Convention : Reuss Voigt Hill
#
# Bulk Modulus (GPa) = 35.61285 53.71779 44.66532
# Shear Modulus (GPa) = 58.66039 21.93690 40.29864
#
# Velocity S-wave (km/s) = 5.30582 3.24465 4.39769
# Velocity P-wave (km/s) = 7.39098 6.31004 6.87180
#
# Compressibility (1/GPa) = 0.02807975
#
# Stress axis : x y z
#
# Youngs Moduli (GPa) = 41.57389 111.23709 66.72449
#
# Poissons Ratio (x) = 0.70535 0.00754
# Poissons Ratio (y) = 0.26362 0.23495
# Poissons Ratio (z) = 0.00470 0.39169
#
# Static dielectric constant tensor:
#      x y z
#    x 1.776180 0.000000 -0.008010 
#    y 0.000000 1.808810 0.000000 
#    z -0.008010 0.000000 1.757060 
# 
# From -- ./inp_files/46770.got.cif
#   From: 2010.05.17/outbox.cif.g08.bks.cpg/sg13_24_cif.got.tgz:46770.got - 2010.06.03 16:44:36.
