data_PCOD9229777
_publ_section_title
;
Structure prediction by ZEFSAII (Michael W. Deem and Ramdas Pophale) SiO2 
 PCOD9229777
Probable space group: P 2/C
;
_chemical_formula_sum "Si O2"
_cell_formula_units_Z 18
_cell_length_a 6.983246
_cell_length_b 10.461917
_cell_length_c 10.360852
_cell_angle_alpha 90.000000
_cell_angle_beta 108.838908
_cell_angle_gamma 90.000000
_cell_volume 716.395207
_symmetry_space_group_name_H-M "P 2/C"
_symmetry_group_IT_number 13
_symmetry_cell_setting 'monoclinic'
loop_
_space_group_symop_operation_xyz
x,y,z
-x,y,1/2-z
-x,-y,-z
x,-y,1/2+z
loop_
_atom_site_type_symbol
_atom_site_label
_atom_site_fract_x
_atom_site_fract_y
_atom_site_fract_z
Si Si1 0.212019 0.025927 0.118969
Si Si2 0.000000 0.372208 0.750000
Si Si3 0.000000 0.197791 0.250000
Si Si4 0.849405 0.577840 0.877726
Si Si5 0.334760 0.744027 0.479990
Si Si6 0.500000 0.199441 0.750000
O O1 0.176903 0.102664 0.245815
O O2 0.314135 0.894903 0.180724
O O3 0.340378 0.119284 0.052546
O O4 0.000000 0.000000 0.000000
O O5 0.172364 0.472724 0.739301
O O6 0.108375 0.281577 0.875797
O O7 0.020257 0.299051 0.139243
O O8 0.654970 0.633807 0.908692
O O9 0.000000 0.500000 0.000000
O O10 0.469159 0.733154 0.381430
#
# Coordination Sequence:
#
# PCOD9229777 Si02
#       6
#     4   2   2   4   4   2
#     4  11  22  38  58  84 115 156 200 241 290 349
#     4   9  16  35  62  86 114 153 196 241 292 352
#     4   9  18  33  58  86 112 151 196 241 294 350
#     4   8  16  32  58  87 114 148 195 243 292 350
#     4  10  20  34  55  84 115 153 192 239 294 344
#     4  12  24  38  56  86 124 156 194 246 290 346
#
# _framework density 25.125796000000001
#
# number of rings (size 3 to 8) (size 9 to 14) (size 15 to 20)
#    0.000    2.222    0.000    3.333    0.000    0.000 
#    0.000    1.111    0.000   18.667    0.000    0.000 
#    0.000    0.000    0.000    0.000    0.000    0.000 
#
# Total GULP energy -100295.897521 kJ/mol
# GULP energy per Si atom -5571.994307 kJ/mol
# Density = 2.506861 g / cm^3
# Si number density = 25.125796 Si / 1000 Ang^3
#
#
#
# Elastic Constant Matrix: (Units=GPa)
#
#
# Indices 1 2 3 4 5 6 
#
# 1 71.2036 39.9376 43.9084 0.0000 -31.9406 0.0000
# 2 39.9376 81.8479 25.7696 0.0000 -22.3040 0.0000
# 3 43.9084 25.7696 78.5683 0.0000 -33.8242 0.0000
# 4 0.0000 0.0000 0.0000 0.4666 0.0000 -1.3838
# 5 -31.9406 -22.3040 -33.8242 0.0000 67.1208 0.0000
# 6 0.0000 0.0000 0.0000 -1.3838 0.0000 22.1592
#
#
#
# Elastic Compliance Matrix: (Units=1/GPa)
#
#
# Indices 1 2 3 4 5 6 
#
# 1 0.027671 -0.008868 -0.010415 0.000000 0.004973 0.000000
# 2 -0.008868 0.016926 0.000012 0.000000 0.001410 0.000000
# 3 -0.010415 0.000012 0.020960 0.000000 0.005610 0.000000
# 4 0.000000 0.000000 0.000000 2.630145 0.000000 0.164245
# 5 0.004973 0.001410 0.005610 0.000000 0.020560 0.000000
# 6 0.000000 0.000000 0.000000 0.164245 0.000000 0.055385
#
#
# Mechanical properties :
#
#
# Convention : Reuss Voigt Hill
#
# Bulk Modulus (GPa) = 37.01818 50.09457 43.55638
# Shear Modulus (GPa) = 1.77356 26.08293 13.92824
#
# Velocity S-wave (km/s) = 0.84107 3.22544 2.35700
# Velocity P-wave (km/s) = 3.96337 5.81825 4.97797
#
# Compressibility (1/GPa) = 0.02701375
#
# Stress axis : x y z
#
# Youngs Moduli (GPa) = 36.13835 59.08226 47.71103
#
# Poissons Ratio (x) = 0.52394 0.49691
# Poissons Ratio (y) = 0.32048 -0.00055
# Poissons Ratio (z) = 0.37638 -0.00069
#
# Static dielectric constant tensor:
#      x y z
#    x 1.883530 0.000000 -0.259240 
#    y 0.000000 1.975030 0.000000 
#    z -0.259240 0.000000 2.073420 
# 
# From -- ./inp_files/25840.got.cif
#   From: 2010.05.17/outbox.cif.g08.bks.cpg/sg13_13_cif.got.tgz:25840.got - 2010.06.03 16:44:36.
