data_PCOD9229630
_publ_section_title
;
Structure prediction by ZEFSAII (Michael W. Deem and Ramdas Pophale) SiO2 
 PCOD9229630
Probable space group: P 2/C
;
_chemical_formula_sum "Si O2"
_cell_formula_units_Z 28
_cell_length_a 12.323909
_cell_length_b 22.852201
_cell_length_c 5.398645
_cell_angle_alpha 90.000000
_cell_angle_beta 73.355318
_cell_angle_gamma 90.000000
_cell_volume 1456.705961
_symmetry_space_group_name_H-M "P 2/C"
_symmetry_group_IT_number 13
_symmetry_cell_setting 'monoclinic'
loop_
_space_group_symop_operation_xyz
x,y,z
-x,y,1/2-z
-x,-y,-z
x,-y,1/2+z
loop_
_atom_site_type_symbol
_atom_site_label
_atom_site_fract_x
_atom_site_fract_y
_atom_site_fract_z
Si Si1 0.133946 0.228384 0.647769
Si Si2 0.137723 0.032266 0.148492
Si Si3 0.374927 0.653821 0.338323
Si Si4 0.373036 0.518142 0.372194
Si Si5 0.241630 0.345306 0.410715
Si Si6 0.050679 0.432241 0.467190
Si Si7 0.138283 0.832057 0.647064
O O1 0.156954 0.295253 0.561307
O O2 0.179365 0.191027 0.386028
O O3 0.000000 0.218969 0.750000
O O4 0.177724 0.206539 0.886234
O O5 0.168889 0.100062 0.094696
O O6 0.000000 0.030364 0.250000
O O7 0.175357 0.005159 0.385857
O O8 0.500000 0.680882 0.250000
O O9 0.387788 0.585989 0.411084
O O10 0.297685 0.676013 0.615446
O O11 0.326059 0.651094 0.091251
O O12 0.500000 0.491321 0.250000
O O13 0.314697 0.489835 0.646363
O O14 0.178203 0.407072 0.396606
O O15 0.000000 0.406360 0.250000
O O16 0.000000 0.500000 0.500000
O O17 0.000000 0.407274 0.750000
O O18 0.000000 0.828862 0.750000
#
# Coordination Sequence:
#
# PCOD9229630 Si02
#       7
#     4   4   4   4   4   4   4
#     4  10  20  33  52  73 103 136 183 233 263 310
#     4   9  15  23  38  61  94 135 180 222 258 303
#     4  11  24  41  58  83 110 134 172 218 262 339
#     4   9  17  33  52  70  95 122 146 186 240 297
#     4  12  23  39  61  83 104 145 180 216 282 328
#     4  10  22  42  59  81 109 133 170 221 269 327
#     4   9  17  29  44  69  99 138 181 228 269 296
#
# _framework density 19.221450000000001
#
# number of rings (size 3 to 8) (size 9 to 14) (size 15 to 20)
#    0.000    2.000    0.000    4.286    0.000    7.429 
#   15.429    0.000    0.000    0.000    0.000    0.000 
#    0.000    0.000    0.000    0.000    0.000  180.000 
#
# Total GULP energy -155880.058263 kJ/mol
# GULP energy per Si atom -5567.144938 kJ/mol
# Density = 1.917770 g / cm^3
# Si number density = 19.221450 Si / 1000 Ang^3
#
#
#
# Elastic Constant Matrix: (Units=GPa)
#
#
# Indices 1 2 3 4 5 6 
#
# 1 55.9169 4.2407 42.9021 0.0000 19.2847 0.0000
# 2 4.2407 75.3899 41.7884 0.0000 5.2410 0.0000
# 3 42.9021 41.7884 155.2477 0.0000 23.1085 0.0000
# 4 0.0000 0.0000 0.0000 -46.5618 0.0000 -17.0612
# 5 19.2847 5.2410 23.1085 0.0000 28.1706 0.0000
# 6 0.0000 0.0000 0.0000 -17.0612 0.0000 0.1012
#
#
#
# Elastic Compliance Matrix: (Units=1/GPa)
#
#
# Indices 1 2 3 4 5 6 
#
# 1 0.027313 0.002896 -0.006224 0.000000 -0.014131 0.000000
# 2 0.002896 0.015907 -0.004951 0.000000 -0.000881 0.000000
# 3 -0.006224 -0.004951 0.009936 0.000000 -0.002969 0.000000
# 4 0.000000 0.000000 0.000000 -0.000342 0.000000 -0.057679
# 5 -0.014131 -0.000881 -0.002969 0.000000 0.047770 0.000000
# 6 0.000000 0.000000 0.000000 -0.057679 0.000000 0.157411
#
#
# Mechanical properties :
#
#
# Convention : Reuss Voigt Hill
#
# Bulk Modulus (GPa) = 27.32414 51.60189 39.46301
# Shear Modulus (GPa) = 17.43669 9.51688 13.47678
#
# Velocity S-wave (km/s) = 3.01516 2.22754 2.65076
# Velocity P-wave (km/s) = 5.13496 5.78966 5.47211
#
# Compressibility (1/GPa) = 0.03659767
#
# Stress axis : x y z
#
# Youngs Moduli (GPa) = 36.61289 62.86548 100.64609
#
# Poissons Ratio (x) = -0.18205 0.62642
# Poissons Ratio (y) = -0.10603 0.49829
# Poissons Ratio (z) = 0.22788 0.31124
#
# Static dielectric constant tensor:
#      x y z
#    x 1.727670 0.000000 0.018070 
#    y 0.000000 1.636040 0.000000 
#    z 0.018070 0.000000 1.744120 
# 
# From -- ./inp_files/4095.got.cif
#   From: 2010.05.17/outbox.cif.g08.bks.cpg/sg13_3_cif.got.tgz:4095.got - 2010.06.03 16:44:36.
