data_PCOD9229288
_publ_section_title
;
Structure prediction by ZEFSAII (Michael W. Deem and Ramdas Pophale) SiO2 
 PCOD9229288
Probable space group: P 2/C
;
_chemical_formula_sum "Si O2"
_cell_formula_units_Z 24
_cell_length_a 14.065164
_cell_length_b 9.074812
_cell_length_c 8.741074
_cell_angle_alpha 90.000000
_cell_angle_beta 86.320163
_cell_angle_gamma 90.000000
_cell_volume 1113.399213
_symmetry_space_group_name_H-M "P 2/C"
_symmetry_group_IT_number 13
_symmetry_cell_setting 'monoclinic'
loop_
_space_group_symop_operation_xyz
x,y,z
-x,y,1/2-z
-x,-y,-z
x,-y,1/2+z
loop_
_atom_site_type_symbol
_atom_site_label
_atom_site_fract_x
_atom_site_fract_y
_atom_site_fract_z
Si Si1 0.583137 0.704983 0.456090
Si Si2 0.985729 0.658037 0.929929
Si Si3 0.058773 0.889122 0.101357
Si Si4 0.500000 0.524965 0.750000
Si Si5 0.304950 0.904732 0.859804
Si Si6 0.500000 0.057576 0.750000
Si Si7 0.804476 0.865679 0.922836
O O1 0.541346 0.624472 0.609897
O O2 0.579076 0.582021 0.321923
O O3 0.677830 0.788607 0.503843
O O4 0.518578 0.835797 0.393043
O O5 0.883124 0.742889 0.964702
O O6 0.000000 0.651953 0.750000
O O7 0.000000 0.500000 0.000000
O O8 0.072960 0.754155 0.989369
O O9 0.000000 0.831618 0.250000
O O10 0.139337 0.993846 0.153214
O O11 0.000000 0.000000 0.000000
O O12 0.259322 0.824575 0.716503
O O13 0.407424 0.961351 0.791785
O O14 0.252537 0.050870 0.935057
#
# Coordination Sequence:
#
# PCOD9229288 Si02
#       7
#     4   4   4   2   4   2   4
#     4  10  21  40  63  91 124 184 230 275 343 412
#     4  11  23  43  71  95 133 177 219 269 354 436
#     4  10  19  38  66  93 126 166 210 268 346 416
#     4   9  21  40  68  82 123 175 246 258 342 437
#     4  12  23  39  64 100 140 170 236 299 335 394
#     4  11  23  40  64  96 131 191 228 290 354 377
#     4  11  23  39  65 101 131 170 223 289 335 400
#
# _framework density 21.555613000000001
#
# number of rings (size 3 to 8) (size 9 to 14) (size 15 to 20)
#    0.000    1.333    1.667    6.500    2.333    0.000 
#    0.000    3.333    0.000    0.000    0.000    0.000 
#    0.000    0.000    0.000    0.000    0.000    0.000 
#
# Total GULP energy -133729.360480 kJ/mol
# GULP energy per Si atom -5572.056687 kJ/mol
# Density = 2.150655 g / cm^3
# Si number density = 21.555613 Si / 1000 Ang^3
#
#
#
# Elastic Constant Matrix: (Units=GPa)
#
#
# Indices 1 2 3 4 5 6 
#
# 1 73.5188 30.6110 26.0141 0.0000 9.4738 0.0000
# 2 30.6110 117.9660 31.9299 0.0000 11.3986 0.0000
# 3 26.0141 31.9299 119.3289 0.0000 18.9086 0.0000
# 4 0.0000 0.0000 0.0000 43.0884 0.0000 6.5107
# 5 9.4738 11.3986 18.9086 0.0000 40.8809 0.0000
# 6 0.0000 0.0000 0.0000 6.5107 0.0000 27.2871
#
#
#
# Elastic Compliance Matrix: (Units=1/GPa)
#
#
# Indices 1 2 3 4 5 6 
#
# 1 0.016048 -0.003370 -0.002327 0.000000 -0.001703 0.000000
# 2 -0.003370 0.009936 -0.001736 0.000000 -0.001187 0.000000
# 3 -0.002327 -0.001736 0.009917 0.000000 -0.003563 0.000000
# 4 0.000000 0.000000 0.000000 0.024076 0.000000 -0.005745
# 5 -0.001703 -0.001187 -0.003563 0.000000 0.026835 0.000000
# 6 0.000000 0.000000 0.000000 -0.005745 0.000000 0.038018
#
#
# Mechanical properties :
#
#
# Convention : Reuss Voigt Hill
#
# Bulk Modulus (GPa) = 47.53992 54.21374 50.87683
# Shear Modulus (GPa) = 34.08156 37.06852 35.57504
#
# Velocity S-wave (km/s) = 3.98062 4.15139 4.06690
# Velocity P-wave (km/s) = 6.57492 6.94146 6.76067
#
# Compressibility (1/GPa) = 0.02103495
#
# Stress axis : x y z
#
# Youngs Moduli (GPa) = 62.31343 100.64406 100.84045
#
# Poissons Ratio (x) = 0.33916 0.23465
# Poissons Ratio (y) = 0.20999 0.17506
# Poissons Ratio (z) = 0.14500 0.17472
#
# Static dielectric constant tensor:
#      x y z
#    x 1.853710 0.000000 0.000120 
#    y 0.000000 1.805690 0.000000 
#    z 0.000120 0.000000 1.789590 
# 
# From -- ./inp_files/18142.got.cif
#   From: 2010.05.17/outbox.cif.g08.bks.cpg/sg13_10_cif.got.tgz:18142.got - 2010.06.03 16:44:36.
