data_PCOD9229506
_publ_section_title
;
Structure prediction by ZEFSAII (Michael W. Deem and Ramdas Pophale) SiO2 
 PCOD9229506
Probable space group: P 2/C
;
_chemical_formula_sum "Si O2"
_cell_formula_units_Z 20
_cell_length_a 11.574186
_cell_length_b 11.026006
_cell_length_c 8.840341
_cell_angle_alpha 90.000000
_cell_angle_beta 115.705242
_cell_angle_gamma 90.000000
_cell_volume 1016.530677
_symmetry_space_group_name_H-M "P 2/C"
_symmetry_group_IT_number 13
_symmetry_cell_setting 'monoclinic'
loop_
_space_group_symop_operation_xyz
x,y,z
-x,y,1/2-z
-x,-y,-z
x,-y,1/2+z
loop_
_atom_site_type_symbol
_atom_site_label
_atom_site_fract_x
_atom_site_fract_y
_atom_site_fract_z
Si Si1 0.887719 0.345917 0.464161
Si Si2 0.371771 0.403885 0.085605
Si Si3 0.635986 0.336590 0.768904
Si Si4 0.000000 0.543484 0.750000
Si Si5 0.883575 0.162164 0.906081
Si Si6 0.000000 0.023180 0.250000
O O1 0.743058 0.317850 0.422952
O O2 0.923767 0.459816 0.590331
O O3 0.904365 0.379755 0.298413
O O4 0.996111 0.249289 0.560151
O O5 0.500000 0.374545 0.250000
O O6 0.340231 0.543259 0.115385
O O7 0.382442 0.386349 0.912466
O O8 0.500000 0.284200 0.750000
O O9 0.754654 0.242716 0.836278
O O10 0.917771 0.102505 0.086282
O O11 0.899720 0.057931 0.789555
#
# Coordination Sequence:
#
# PCOD9229506 Si02
#       6
#     4   4   4   2   4   2
#     4  11  20  34  56  85 118 157 189 230 286 348
#     4  11  22  35  56  90 132 162 191 228 278 361
#     4  11  23  39  60  89 126 162 192 232 292 359
#     4  10  20  30  52  88 118 144 194 228 268 358
#     4  11  23  41  63  85 114 152 200 253 302 342
#     4  10  24  42  62  86 108 142 206 270 300 330
#
# _framework density 19.674762999999999
#
# number of rings (size 3 to 8) (size 9 to 14) (size 15 to 20)
#    0.000    1.200    0.000    9.600    0.000    4.800 
#    0.000    1.000    0.000    4.800    0.000    0.000 
#    0.000    0.000    0.000    0.000    0.000    0.000 
#
# Total GULP energy -111747.291180 kJ/mol
# GULP energy per Si atom -5587.364559 kJ/mol
# Density = 1.962998 g / cm^3
# Si number density = 19.674763 Si / 1000 Ang^3
#
#
#
# Elastic Constant Matrix: (Units=GPa)
#
#
# Indices 1 2 3 4 5 6 
#
# 1 164.9575 58.6338 77.1865 0.0000 14.2839 0.0000
# 2 58.6338 59.5172 57.0194 0.0000 4.8767 0.0000
# 3 77.1865 57.0194 140.7685 0.0000 -18.9123 0.0000
# 4 0.0000 0.0000 0.0000 12.9916 0.0000 -6.1469
# 5 14.2839 4.8767 -18.9123 0.0000 41.2466 0.0000
# 6 0.0000 0.0000 0.0000 -6.1469 0.0000 29.9244
#
#
#
# Elastic Compliance Matrix: (Units=1/GPa)
#
#
# Indices 1 2 3 4 5 6 
#
# 1 0.010491 -0.006284 -0.003831 0.000000 -0.004647 0.000000
# 2 -0.006284 0.034666 -0.011567 0.000000 -0.007226 0.000000
# 3 -0.003831 -0.011567 0.015188 0.000000 0.009658 0.000000
# 4 0.000000 0.000000 0.000000 0.085259 0.000000 0.017513
# 5 -0.004647 -0.007226 0.009658 0.000000 0.031136 0.000000
# 6 0.000000 0.000000 0.000000 0.017513 0.000000 0.037015
#
#
# Mechanical properties :
#
#
# Convention : Reuss Voigt Hill
#
# Bulk Modulus (GPa) = 58.89257 83.43583 71.16420
# Shear Modulus (GPa) = 19.02733 28.32610 23.67671
#
# Velocity S-wave (km/s) = 3.11319 3.79848 3.47278
# Velocity P-wave (km/s) = 6.55138 7.85732 7.23388
#
# Compressibility (1/GPa) = 0.01698007
#
# Stress axis : x y z
#
# Youngs Moduli (GPa) = 95.32084 28.84657 65.84318
#
# Poissons Ratio (x) = 0.18127 0.25227
# Poissons Ratio (y) = 0.59898 0.76161
# Poissons Ratio (z) = 0.36521 0.33367
#
# Static dielectric constant tensor:
#      x y z
#    x 1.749330 0.000000 -0.022830 
#    y 0.000000 1.717370 0.000000 
#    z -0.022830 0.000000 1.722740 
# 
# From -- ./inp_files/15365.got.cif
#   From: 2010.05.17/outbox.cif.g08.bks.cpg/sg13_8_cif.got.tgz:15365.got - 2010.06.03 16:44:36.
