data_PCOD9229719
_publ_section_title
;
Structure prediction by ZEFSAII (Michael W. Deem and Ramdas Pophale) SiO2 
 PCOD9229719
Probable space group: P 2/C
;
_chemical_formula_sum "Si O2"
_cell_formula_units_Z 24
_cell_length_a 7.664952
_cell_length_b 23.920513
_cell_length_c 8.420056
_cell_angle_alpha 90.000000
_cell_angle_beta 124.199024
_cell_angle_gamma 90.000000
_cell_volume 1276.873156
_symmetry_space_group_name_H-M "P 2/C"
_symmetry_group_IT_number 13
_symmetry_cell_setting 'monoclinic'
loop_
_space_group_symop_operation_xyz
x,y,z
-x,y,1/2-z
-x,-y,-z
x,-y,1/2+z
loop_
_atom_site_type_symbol
_atom_site_label
_atom_site_fract_x
_atom_site_fract_y
_atom_site_fract_z
Si Si1 0.500000 0.233635 0.250000
Si Si2 0.241102 0.681195 0.826953
Si Si3 0.500000 0.276701 0.750000
Si Si4 0.500000 0.979350 0.750000
Si Si5 0.737461 0.439761 0.322555
Si Si6 0.000000 0.526639 0.250000
Si Si7 0.758234 0.063991 0.674690
Si Si8 0.758597 0.808480 0.174757
O O1 0.670650 0.273678 0.252502
O O2 0.614426 0.198409 0.444565
O O3 0.258318 0.619812 0.761330
O O4 0.000000 0.692323 0.750000
O O5 0.387362 0.687153 0.057135
O O6 0.328293 0.236187 0.744326
O O7 0.388555 0.943938 0.555438
O O8 0.673613 0.019702 0.758478
O O9 0.500000 0.454044 0.250000
O O10 0.835840 0.486404 0.257417
O O11 0.879784 0.438479 0.554147
O O12 0.743021 0.127786 0.726322
O O13 0.000000 0.053461 0.750000
O O14 0.000000 0.797576 0.250000
#
# Coordination Sequence:
#
# PCOD9229719 Si02
#       8
#     2   4   2   2   4   2   4   4
#     4  10  21  38  56  80 112 142 189 232 276 332
#     4  11  22  39  58  85 114 145 185 232 278 330
#     4  10  23  38  58  82 114 148 187 234 280 330
#     4  10  20  34  52  82 112 144 182 236 276 330
#     4  11  22  42  61  87 114 149 185 227 278 330
#     4  10  24  42  62  86 118 148 186 230 274 332
#     4  10  20  34  55  79 111 145 187 228 281 331
#     4  10  20  37  57  80 108 150 187 229 280 333
#
# _framework density 18.795914
#
# number of rings (size 3 to 8) (size 9 to 14) (size 15 to 20)
#    0.000    1.667    1.667    3.000    0.000    1.333 
#    3.000    0.000    0.000   16.000    0.000    0.000 
#    0.000    0.000    0.000    0.000    0.000    0.000 
#
# Total GULP energy -134110.858272 kJ/mol
# GULP energy per Si atom -5587.952428 kJ/mol
# Density = 1.875313 g / cm^3
# Si number density = 18.795914 Si / 1000 Ang^3
#
#
#
# Elastic Constant Matrix: (Units=GPa)
#
#
# Indices 1 2 3 4 5 6 
#
# 1 122.5610 41.5199 22.5746 0.0000 15.2630 0.0000
# 2 41.5199 84.3688 45.7829 0.0000 6.0005 0.0000
# 3 22.5746 45.7829 68.9650 0.0000 -7.2004 0.0000
# 4 0.0000 0.0000 0.0000 -7.8866 0.0000 -3.5237
# 5 15.2630 6.0005 -7.2004 0.0000 29.1281 0.0000
# 6 0.0000 0.0000 0.0000 -3.5237 0.0000 -10.8512
#
#
#
# Elastic Compliance Matrix: (Units=1/GPa)
#
#
# Indices 1 2 3 4 5 6 
#
# 1 0.010380 -0.004129 -0.001166 0.000000 -0.004877 0.000000
# 2 -0.004129 0.021690 -0.013640 0.000000 -0.005677 0.000000
# 3 -0.001166 -0.013640 0.024938 0.000000 0.009586 0.000000
# 4 0.000000 0.000000 0.000000 -0.148318 0.000000 0.048164
# 5 -0.004877 -0.005677 0.009586 0.000000 0.040426 0.000000
# 6 0.000000 0.000000 0.000000 0.048164 0.000000 -0.107796
#
#
# Mechanical properties :
#
#
# Convention : Reuss Voigt Hill
#
# Bulk Modulus (GPa) = 52.25257 55.07218 53.66237
# Shear Modulus (GPa) = -43.69460 13.14589 -15.27435
#
# Velocity S-wave (km/s) = -4.82673 2.64749 -2.85378
# Velocity P-wave (km/s) = 1.78963 6.22168 4.21346
#
# Compressibility (1/GPa) = 0.01913781
#
# Stress axis : x y z
#
# Youngs Moduli (GPa) = 96.33954 46.10360 40.09953
#
# Poissons Ratio (x) = 0.19034 0.04676
# Poissons Ratio (y) = 0.39775 0.54698
# Poissons Ratio (z) = 0.11234 0.62888
#
# Static dielectric constant tensor:
#      x y z
#    x 1.632050 0.000000 -0.006620 
#    y 0.000000 1.618580 0.000000 
#    z -0.006620 0.000000 1.628990 
# 
# From -- ./inp_files/13544.got.cif
#   From: 2010.05.17/outbox.cif.g08.bks.cpg/sg13_7_cif.got.tgz:13544.got - 2010.06.03 16:44:36.
