data_PCOD9229135
_publ_section_title
;
Structure prediction by ZEFSAII (Michael W. Deem and Ramdas Pophale) SiO2 
 PCOD9229135
Probable space group: P 2/C
;
_chemical_formula_sum "Si O2"
_cell_formula_units_Z 28
_cell_length_a 12.393371
_cell_length_b 8.596259
_cell_length_c 17.366651
_cell_angle_alpha 90.000000
_cell_angle_beta 33.998161
_cell_angle_gamma 90.000000
_cell_volume 1034.560765
_symmetry_space_group_name_H-M "P 2/C"
_symmetry_group_IT_number 13
_symmetry_cell_setting 'monoclinic'
loop_
_space_group_symop_operation_xyz
x,y,z
-x,y,1/2-z
-x,-y,-z
x,-y,1/2+z
loop_
_atom_site_type_symbol
_atom_site_label
_atom_site_fract_x
_atom_site_fract_y
_atom_site_fract_z
Si Si1 0.500000 0.553448 0.750000
Si Si2 0.639635 0.005152 0.283742
Si Si3 0.739509 0.827917 0.875859
Si Si4 0.786442 0.896111 0.452315
Si Si5 0.880213 0.761912 0.550366
Si Si6 0.000000 0.350373 0.750000
Si Si7 0.427376 0.342482 0.658499
Si Si8 0.066124 0.427829 0.340676
O O1 0.689086 0.656055 0.651819
O O2 0.540636 0.441591 0.654319
O O3 0.666212 0.046232 0.357345
O O4 0.432438 0.085523 0.387778
O O5 0.808410 0.089435 0.139250
O O6 0.639932 0.822897 0.267114
O O7 0.872132 0.715276 0.748499
O O8 0.819795 0.932032 0.898527
O O9 0.570136 0.715845 0.007412
O O10 0.922765 0.832091 0.440431
O O11 0.822419 0.772417 0.362259
O O12 0.000316 0.651589 0.539051
O O13 0.050089 0.463371 0.648995
O O14 0.250072 0.456138 0.743432
#
# Coordination Sequence:
#
# PCOD9229135 Si02
#       8
#     2   4   4   4   4   2   4   4
#     4  10  20  30  54  96 124 154 178 258 324 370
#     4  10  19  37  63  94 122 156 201 257 320 371
#     4  10  21  36  64  89 121 157 207 263 311 367
#     4  11  22  38  63  89 122 168 210 249 305 375
#     4  10  21  39  63  90 128 156 202 262 316 364
#     4  12  26  40  64  82 126 176 218 252 292 372
#     4  10  20  33  61  95 126 151 196 256 319 368
#     4  10  23  41  58  92 126 164 205 257 310 364
#
# _framework density 27.064627000000002
#
# number of rings (size 3 to 8) (size 9 to 14) (size 15 to 20)
#    0.000    1.714    1.429    3.857    6.000    1.143 
#    0.000    0.000    0.000    8.571    0.000    0.000 
#    0.000    0.000    0.000    0.000    0.000    0.000 
#
# Total GULP energy -156581.546595 kJ/mol
# GULP energy per Si atom -5592.198093 kJ/mol
# Density = 2.700303 g / cm^3
# Si number density = 27.064627 Si / 1000 Ang^3
#
#
#
# Elastic Constant Matrix: (Units=GPa)
#
#
# Indices 1 2 3 4 5 6 
#
# 1 70.5935 49.4289 25.5837 0.0000 13.0828 0.0000
# 2 49.4289 166.4184 49.8384 0.0000 11.6275 0.0000
# 3 25.5837 49.8384 117.1076 0.0000 19.1608 0.0000
# 4 0.0000 0.0000 0.0000 69.0091 0.0000 5.9291
# 5 13.0828 11.6275 19.1608 0.0000 27.8187 0.0000
# 6 0.0000 0.0000 0.0000 5.9291 0.0000 29.4112
#
#
#
# Elastic Compliance Matrix: (Units=1/GPa)
#
#
# Indices 1 2 3 4 5 6 
#
# 1 0.019161 -0.004937 -0.001069 0.000000 -0.006212 0.000000
# 2 -0.004937 0.008182 -0.002506 0.000000 0.000628 0.000000
# 3 -0.001069 -0.002506 0.010803 0.000000 -0.005891 0.000000
# 4 0.000000 0.000000 0.000000 0.014746 0.000000 -0.002973
# 5 -0.006212 0.000628 -0.005891 0.000000 0.042663 0.000000
# 6 0.000000 0.000000 0.000000 -0.002973 0.000000 0.034600
#
#
# Mechanical properties :
#
#
# Convention : Reuss Voigt Hill
#
# Bulk Modulus (GPa) = 47.34363 67.09128 57.21746
# Shear Modulus (GPa) = 32.42123 40.53236 36.47680
#
# Velocity S-wave (km/s) = 3.46485 3.87410 3.67518
# Velocity P-wave (km/s) = 5.79118 6.69736 6.26068
#
# Compressibility (1/GPa) = 0.02112216
#
# Stress axis : x y z
#
# Youngs Moduli (GPa) = 52.18959 122.21905 92.56634
#
# Poissons Ratio (x) = 0.60341 0.09891
# Poissons Ratio (y) = 0.25767 0.23200
# Poissons Ratio (z) = 0.05576 0.30632
#
# Static dielectric constant tensor:
#      x y z
#    x 2.258010 0.000000 -0.006270 
#    y 0.000000 2.008190 0.000000 
#    z -0.006270 0.000000 2.148710 
# 
# From -- ./inp_files/53009.got.cif
#   From: 2010.05.17/outbox.cif.g08.bks.cpg/sg13_27_cif.got.tgz:53009.got - 2010.06.03 16:44:36.
