data_PCOD9229250
_publ_section_title
;
Structure prediction by ZEFSAII (Michael W. Deem and Ramdas Pophale) SiO2 
 PCOD9229250
Probable space group: P 2/C
;
_chemical_formula_sum "Si O2"
_cell_formula_units_Z 26
_cell_length_a 14.417368
_cell_length_b 9.192968
_cell_length_c 14.249362
_cell_angle_alpha 90.000000
_cell_angle_beta 140.367941
_cell_angle_gamma 90.000000
_cell_volume 1204.645130
_symmetry_space_group_name_H-M "P 2/C"
_symmetry_group_IT_number 13
_symmetry_cell_setting 'monoclinic'
loop_
_space_group_symop_operation_xyz
x,y,z
-x,y,1/2-z
-x,-y,-z
x,-y,1/2+z
loop_
_atom_site_type_symbol
_atom_site_label
_atom_site_fract_x
_atom_site_fract_y
_atom_site_fract_z
Si Si1 0.361262 0.706950 0.029568
Si Si2 0.816869 0.661301 0.267100
Si Si3 0.752106 0.655599 0.762734
Si Si4 0.321459 0.842740 0.189384
Si Si5 0.000000 0.194129 0.750000
Si Si6 0.250076 0.847065 0.572830
Si Si7 0.420622 0.628162 0.569923
O O1 0.284077 0.776039 0.058906
O O2 0.520407 0.782946 0.155003
O O3 0.382649 0.536317 0.068267
O O4 0.277243 0.716779 0.865007
O O5 0.832731 0.498806 0.319237
O O6 0.796505 0.784347 0.329201
O O7 0.928532 0.704144 0.273385
O O8 0.663074 0.654909 0.092206
O O9 0.819197 0.760659 0.893069
O O10 0.589898 0.633428 0.678460
O O11 0.327876 0.014840 0.179059
O O12 0.874658 0.107343 0.598237
O O13 0.355358 0.742723 0.593251
#
# Coordination Sequence:
#
# PCOD9229250 Si02
#       7
#     4   4   4   4   2   4   4
#     4  10  21  36  60  97 137 157 201 248 337 390
#     4  10  20  42  68  88 129 167 220 255 323 358
#     4  11  20  37  64  98 123 165 199 270 324 390
#     4  11  22  37  58  97 131 174 197 260 309 401
#     4  10  26  48  62  86 122 180 226 276 288 370
#     4  11  26  38  63  92 131 170 220 252 321 364
#     4  10  19  38  62  97 129 167 193 267 321 394
#
# _framework density 21.583120000000001
#
# number of rings (size 3 to 8) (size 9 to 14) (size 15 to 20)
#    0.000    1.538    3.077    2.308    6.462    4.308 
#    0.000    0.000    0.000    5.538    0.000    0.000 
#    0.000    0.000    0.000    0.000    0.000    0.000 
#
# Total GULP energy -145199.311923 kJ/mol
# GULP energy per Si atom -5584.588920 kJ/mol
# Density = 2.153400 g / cm^3
# Si number density = 21.583120 Si / 1000 Ang^3
#
#
#
# Elastic Constant Matrix: (Units=GPa)
#
#
# Indices 1 2 3 4 5 6 
#
# 1 119.7651 46.6495 12.1956 0.0000 -23.1970 0.0000
# 2 46.6495 121.7042 22.8587 0.0000 -21.4670 0.0000
# 3 12.1956 22.8587 82.4510 0.0000 -14.9317 0.0000
# 4 0.0000 0.0000 0.0000 15.7363 0.0000 -7.1060
# 5 -23.1970 -21.4670 -14.9317 0.0000 35.3771 0.0000
# 6 0.0000 0.0000 0.0000 -7.1060 0.0000 -20.1904
#
#
#
# Elastic Compliance Matrix: (Units=1/GPa)
#
#
# Indices 1 2 3 4 5 6 
#
# 1 0.010554 -0.003194 0.000246 0.000000 0.005086 0.000000
# 2 -0.003194 0.010385 -0.001781 0.000000 0.003455 0.000000
# 3 0.000246 -0.001781 0.013447 0.000000 0.004756 0.000000
# 4 0.000000 0.000000 0.000000 0.054833 0.000000 -0.019299
# 5 0.005086 0.003455 0.004756 0.000000 0.035706 0.000000
# 6 0.000000 0.000000 0.000000 -0.019299 0.000000 -0.042736
#
#
# Mechanical properties :
#
#
# Convention : Reuss Voigt Hill
#
# Bulk Modulus (GPa) = 40.11788 54.14756 47.13272
# Shear Modulus (GPa) = 50.02164 22.33235 36.17700
#
# Velocity S-wave (km/s) = 4.81940 3.22019 4.09855
# Velocity P-wave (km/s) = 7.04250 6.24248 6.65452
#
# Compressibility (1/GPa) = 0.02492654
#
# Stress axis : x y z
#
# Youngs Moduli (GPa) = 94.75129 96.29207 74.36532
#
# Poissons Ratio (x) = 0.30760 -0.01826
# Poissons Ratio (y) = 0.30268 0.13244
# Poissons Ratio (z) = -0.02326 0.17148
#
# Static dielectric constant tensor:
#      x y z
#    x 1.787830 0.000000 0.012630 
#    y 0.000000 1.781340 0.000000 
#    z 0.012630 0.000000 1.852680 
# 
# From -- ./inp_files/53256.got.cif
#   From: 2010.05.17/outbox.cif.g08.bks.cpg/sg13_27_cif.got.tgz:53256.got - 2010.06.03 16:44:36.
