data_PCOD9229382
_publ_section_title
;
Structure prediction by ZEFSAII (Michael W. Deem and Ramdas Pophale) SiO2 
 PCOD9229382
Probable space group: P 2/C
;
_chemical_formula_sum "Si O2"
_cell_formula_units_Z 30
_cell_length_a 11.629930
_cell_length_b 7.898402
_cell_length_c 30.679469
_cell_angle_alpha 90.000000
_cell_angle_beta 28.945660
_cell_angle_gamma 90.000000
_cell_volume 1363.928176
_symmetry_space_group_name_H-M "P 2/C"
_symmetry_group_IT_number 13
_symmetry_cell_setting 'monoclinic'
loop_
_space_group_symop_operation_xyz
x,y,z
-x,y,1/2-z
-x,-y,-z
x,-y,1/2+z
loop_
_atom_site_type_symbol
_atom_site_label
_atom_site_fract_x
_atom_site_fract_y
_atom_site_fract_z
Si Si1 0.611470 0.909717 0.505175
Si Si2 0.764659 0.183393 0.589793
Si Si3 0.009322 0.071166 0.425635
Si Si4 0.705252 0.025077 0.246423
Si Si5 0.649961 0.730630 0.830520
Si Si6 0.542613 0.482934 0.286205
Si Si7 0.000529 0.317143 0.843184
Si Si8 0.000000 0.542771 0.250000
O O1 0.793061 0.046598 0.464609
O O2 0.452184 0.850877 0.598383
O O3 0.753293 0.736341 0.446477
O O4 0.500000 0.000000 0.500000
O O5 0.625279 0.353565 0.648127
O O6 0.937510 0.111619 0.569698
O O7 0.918444 0.190401 0.494615
O O8 0.564986 0.032567 0.653846
O O9 0.236205 0.106049 0.319930
O O10 0.812305 0.145745 0.247747
O O11 0.842507 0.849518 0.202488
O O12 0.496590 0.650077 0.840997
O O13 0.780800 0.577480 0.810471
O O14 0.500000 0.437749 0.250000
O O15 0.822509 0.536440 0.198225
O O16 0.953362 0.349355 0.808205
#
# Coordination Sequence:
#
# PCOD9229382 Si02
#       8
#     4   4   4   4   4   4   4   2
#     4  11  24  40  63  94 126 166 217 269 318 374
#     4  10  19  39  68  90 130 163 216 265 317 391
#     4  10  21  37  62 101 119 163 222 264 316 373
#     4  10  20  38  66  88 125 162 210 269 316 376
#     4  11  25  41  61  95 129 161 218 266 321 382
#     4  10  21  43  65  91 131 175 205 257 333 391
#     4   9  22  41  65  90 120 171 216 253 324 387
#     4  10  24  40  60  90 124 168 212 262 316 394
#
# _framework density 21.995294999999999
#
# number of rings (size 3 to 8) (size 9 to 14) (size 15 to 20)
#    0.000    1.867    1.333    2.800    5.600    2.667 
#    4.800    1.333    0.000    0.000    0.000    0.000 
#    0.000    0.000    0.000    0.000    0.000    0.000 
#
# Total GULP energy -167232.814797 kJ/mol
# GULP energy per Si atom -5574.427160 kJ/mol
# Density = 2.194523 g / cm^3
# Si number density = 21.995295 Si / 1000 Ang^3
#
#
#
# Elastic Constant Matrix: (Units=GPa)
#
#
# Indices 1 2 3 4 5 6 
#
# 1 154.1158 21.5780 41.3362 0.0000 28.9434 0.0000
# 2 21.5780 56.6396 18.8933 0.0000 12.7713 0.0000
# 3 41.3362 18.8933 102.0771 0.0000 34.6676 0.0000
# 4 0.0000 0.0000 0.0000 15.7115 0.0000 -6.2659
# 5 28.9434 12.7713 34.6676 0.0000 33.6318 0.0000
# 6 0.0000 0.0000 0.0000 -6.2659 0.0000 55.0020
#
#
#
# Elastic Compliance Matrix: (Units=1/GPa)
#
#
# Indices 1 2 3 4 5 6 
#
# 1 0.007973 -0.001491 -0.001254 0.000000 -0.005003 0.000000
# 2 -0.001491 0.019774 -0.001449 0.000000 -0.004732 0.000000
# 3 -0.001254 -0.001449 0.015416 0.000000 -0.014262 0.000000
# 4 0.000000 0.000000 0.000000 0.066677 0.000000 0.007596
# 5 -0.005003 -0.004732 -0.014262 0.000000 0.050538 0.000000
# 6 0.000000 0.000000 0.000000 0.007596 0.000000 0.019047
#
#
# Mechanical properties :
#
#
# Convention : Reuss Voigt Hill
#
# Bulk Modulus (GPa) = 28.75577 52.93862 40.84720
# Shear Modulus (GPa) = 25.07478 36.27071 30.67275
#
# Velocity S-wave (km/s) = 3.38006 4.06522 3.73837
# Velocity P-wave (km/s) = 5.32307 6.79375 6.10287
#
# Compressibility (1/GPa) = 0.03477563
#
# Stress axis : x y z
#
# Youngs Moduli (GPa) = 125.41896 50.57158 64.86811
#
# Poissons Ratio (x) = 0.07542 0.08131
# Poissons Ratio (y) = 0.18703 0.09399
# Poissons Ratio (z) = 0.15721 0.07328
#
# Static dielectric constant tensor:
#      x y z
#    x 1.850670 0.000000 -0.045280 
#    y 0.000000 1.837550 0.000000 
#    z -0.045280 0.000000 1.916850 
# 
# From -- ./inp_files/96602.got.cif
#   From: 2010.05.17/outbox.cif.g08.bks.cpg/sg13_49_cif.got.tgz:96602.got - 2010.06.03 16:44:36.
