data_PCOD9229038
_publ_section_title
;
Structure prediction by ZEFSAII (Michael W. Deem and Ramdas Pophale) SiO2 
 PCOD9229038
Probable space group: P 2/C
;
_chemical_formula_sum "Si O2"
_cell_formula_units_Z 24
_cell_length_a 11.234863
_cell_length_b 9.331205
_cell_length_c 10.634400
_cell_angle_alpha 90.000000
_cell_angle_beta 93.929239
_cell_angle_gamma 90.000000
_cell_volume 1112.234767
_symmetry_space_group_name_H-M "P 2/C"
_symmetry_group_IT_number 13
_symmetry_cell_setting 'monoclinic'
loop_
_space_group_symop_operation_xyz
x,y,z
-x,y,1/2-z
-x,-y,-z
x,-y,1/2+z
loop_
_atom_site_type_symbol
_atom_site_label
_atom_site_fract_x
_atom_site_fract_y
_atom_site_fract_z
Si Si1 0.210833 0.292189 0.815720
Si Si2 0.147630 0.546864 0.966194
Si Si3 0.476186 0.623654 0.394168
Si Si4 0.706335 0.214210 0.954673
Si Si5 0.079212 0.322971 0.131488
Si Si6 0.865528 0.058545 0.501575
O O1 0.140300 0.435198 0.850608
O O2 0.340746 0.321526 0.886718
O O3 0.232117 0.259191 0.672615
O O4 0.150167 0.156028 0.876377
O O5 0.029313 0.642554 0.974054
O O6 0.249744 0.661840 0.947383
O O7 0.166954 0.448881 0.091428
O O8 0.500000 0.575516 0.250000
O O9 0.500000 0.500000 0.500000
O O10 0.566556 0.756674 0.426476
O O11 0.764311 0.062870 0.992712
O O12 0.143097 0.173201 0.112797
O O13 0.000000 0.320617 0.250000
O O14 0.000000 0.000000 0.500000
#
# Coordination Sequence:
#
# PCOD9229038 Si02
#       6
#     4   4   4   4   4   4
#     4  10  23  40  62  91 127 162 213 262 320 385
#     4  10  19  37  58  88 118 155 209 261 306 372
#     4  10  21  42  68  96 126 166 215 274 329 386
#     4  11  22  38  65  88 124 167 206 264 324 375
#     4  10  21  35  54  82 121 159 203 248 305 376
#     4  11  24  39  55  88 127 165 206 250 313 388
#
# _framework density 21.578175999999999
#
# number of rings (size 3 to 8) (size 9 to 14) (size 15 to 20)
#    0.000    1.667    3.333    1.000    2.333    0.667 
#    0.000    1.667    0.000    0.000    0.000    0.000 
#    0.000    0.000    0.000    0.000    0.000    0.000 
#
# Total GULP energy -133756.837203 kJ/mol
# GULP energy per Si atom -5573.201550 kJ/mol
# Density = 2.152906 g / cm^3
# Si number density = 21.578176 Si / 1000 Ang^3
#
#
#
# Elastic Constant Matrix: (Units=GPa)
#
#
# Indices 1 2 3 4 5 6 
#
# 1 75.0686 21.7339 -9.3016 0.0000 -1.3483 0.0000
# 2 21.7339 130.6763 17.4110 0.0000 4.8798 0.0000
# 3 -9.3016 17.4110 54.0416 0.0000 -12.5483 0.0000
# 4 0.0000 0.0000 0.0000 19.5934 0.0000 -0.9675
# 5 -1.3483 4.8798 -12.5483 0.0000 27.1390 0.0000
# 6 0.0000 0.0000 0.0000 -0.9675 0.0000 35.5101
#
#
#
# Elastic Compliance Matrix: (Units=1/GPa)
#
#
# Indices 1 2 3 4 5 6 
#
# 1 0.014837 -0.003170 0.004345 0.000000 0.003316 0.000000
# 2 -0.003170 0.008889 -0.004276 0.000000 -0.003733 0.000000
# 3 0.004345 -0.004276 0.023367 0.000000 0.011789 0.000000
# 4 0.000000 0.000000 0.000000 0.051106 0.000000 0.001392
# 5 0.003316 -0.003733 0.011789 0.000000 0.043134 0.000000
# 6 0.000000 0.000000 0.000000 0.001392 0.000000 0.028199
#
#
# Mechanical properties :
#
#
# Convention : Reuss Voigt Hill
#
# Bulk Modulus (GPa) = 24.45574 35.49701 29.97638
# Shear Modulus (GPa) = 26.40384 31.77802 29.09093
#
# Velocity S-wave (km/s) = 3.50185 3.84173 3.67572
# Velocity P-wave (km/s) = 5.26391 6.01371 5.65126
#
# Compressibility (1/GPa) = 0.04089020
#
# Stress axis : x y z
#
# Youngs Moduli (GPa) = 67.39892 112.49884 42.79476
#
# Poissons Ratio (x) = 0.35667 -0.18595
# Poissons Ratio (y) = 0.21369 0.18301
# Poissons Ratio (z) = -0.29286 0.48108
#
# Static dielectric constant tensor:
#      x y z
#    x 1.844400 0.000000 0.018530 
#    y 0.000000 1.819310 0.000000 
#    z 0.018530 0.000000 1.872910 
# 
# From -- ./inp_files/32582.got.cif
#   From: 2010.05.17/outbox.cif.g08.bks.cpg/sg13_17_cif.got.tgz:32582.got - 2010.06.03 16:44:36.
