data_PCOD9229249
_publ_section_title
;
Structure prediction by ZEFSAII (Michael W. Deem and Ramdas Pophale) SiO2 
 PCOD9229249
Probable space group: P 2/C
;
_chemical_formula_sum "Si O2"
_cell_formula_units_Z 28
_cell_length_a 13.707392
_cell_length_b 5.477690
_cell_length_c 17.547298
_cell_angle_alpha 90.000000
_cell_angle_beta 68.231012
_cell_angle_gamma 90.000000
_cell_volume 1223.578282
_symmetry_space_group_name_H-M "P 2/C"
_symmetry_group_IT_number 13
_symmetry_cell_setting 'monoclinic'
loop_
_space_group_symop_operation_xyz
x,y,z
-x,y,1/2-z
-x,-y,-z
x,-y,1/2+z
loop_
_atom_site_type_symbol
_atom_site_label
_atom_site_fract_x
_atom_site_fract_y
_atom_site_fract_z
Si Si1 0.000000 0.719062 0.250000
Si Si2 0.256240 0.924105 0.423299
Si Si3 0.872507 0.003852 0.408317
Si Si4 0.819216 0.637828 0.804386
Si Si5 0.500000 0.356307 0.250000
Si Si6 0.662366 0.275588 0.907788
Si Si7 0.315164 0.012149 0.244791
Si Si8 0.373389 0.437056 0.426452
O O1 0.037327 0.866789 0.164536
O O2 0.098900 0.558629 0.248112
O O3 0.273687 0.859550 0.329344
O O4 0.307863 0.689946 0.451682
O O5 0.143098 0.962721 0.496934
O O6 0.310155 0.193335 0.416626
O O7 0.764398 0.865761 0.413435
O O8 0.869302 0.262819 0.367452
O O9 0.709036 0.520620 0.858781
O O10 0.788692 0.850293 0.755770
O O11 0.458743 0.493484 0.336813
O O12 0.404639 0.191780 0.248270
O O13 0.632534 0.121152 0.842813
O O14 0.590936 0.344147 0.000232
#
# Coordination Sequence:
#
# PCOD9229249 Si02
#       8
#     2   4   4   4   2   4   4   4
#     4  10  20  34  66  98 122 162 220 284 324 390
#     4  10  21  39  64  91 130 179 212 263 332 395
#     4   9  18  36  60  91 125 167 214 268 328 393
#     4  10  19  38  62  93 126 165 218 275 325 391
#     4  10  24  42  62  94 134 182 218 272 328 384
#     4   9  19  36  63  88 123 172 221 270 324 383
#     4  10  23  39  62  94 133 174 224 270 328 385
#     4  10  21  40  63  90 128 174 226 267 324 385
#
# _framework density 22.883699
#
# number of rings (size 3 to 8) (size 9 to 14) (size 15 to 20)
#    0.000    2.286    1.429    0.429    4.000    2.857 
#    0.000    1.429    0.000   12.000    0.000    0.000 
#    0.000    0.000    0.000    0.000    0.000    0.000 
#
# Total GULP energy -155940.984297 kJ/mol
# GULP energy per Si atom -5569.320868 kJ/mol
# Density = 2.283161 g / cm^3
# Si number density = 22.883699 Si / 1000 Ang^3
#
#
#
# Elastic Constant Matrix: (Units=GPa)
#
#
# Indices 1 2 3 4 5 6 
#
# 1 25.9524 5.8697 37.3679 0.0000 -4.3697 0.0000
# 2 5.8697 77.3207 22.4696 0.0000 -8.7238 0.0000
# 3 37.3679 22.4696 193.3918 0.0000 -15.6907 0.0000
# 4 0.0000 0.0000 0.0000 181.0416 0.0000 29.5750
# 5 -4.3697 -8.7238 -15.6907 0.0000 21.2617 0.0000
# 6 0.0000 0.0000 0.0000 29.5750 0.0000 37.1759
#
#
#
# Elastic Compliance Matrix: (Units=1/GPa)
#
#
# Indices 1 2 3 4 5 6 
#
# 1 0.053686 -0.000791 -0.010012 0.000000 0.003320 0.000000
# 2 -0.000791 0.013838 -0.001072 0.000000 0.004724 0.000000
# 3 -0.010012 -0.001072 0.007475 0.000000 0.003019 0.000000
# 4 0.000000 0.000000 0.000000 0.006349 0.000000 -0.005051
# 5 0.003320 0.004724 0.003019 0.000000 0.051882 0.000000
# 6 0.000000 0.000000 0.000000 -0.005051 0.000000 0.030917
#
#
# Mechanical properties :
#
#
# Convention : Reuss Voigt Hill
#
# Bulk Modulus (GPa) = 19.51272 47.56436 33.53854
# Shear Modulus (GPa) = 24.39272 63.29302 43.84287
#
# Velocity S-wave (km/s) = 3.26842 5.26485 4.38185
# Velocity P-wave (km/s) = 4.77377 7.60188 6.34734
#
# Compressibility (1/GPa) = 0.05124861
#
# Stress axis : x y z
#
# Youngs Moduli (GPa) = 18.62675 72.26661 133.78149
#
# Poissons Ratio (x) = 0.05719 1.33944
# Poissons Ratio (y) = 0.01474 0.14335
# Poissons Ratio (z) = 0.18649 0.07744
#
# Static dielectric constant tensor:
#      x y z
#    x 2.053040 0.000000 0.166910 
#    y 0.000000 1.973550 0.000000 
#    z 0.166910 0.000000 2.074120 
# 
# From -- ./inp_files/67305.got.cif
#   From: 2010.05.17/outbox.cif.g08.bks.cpg/sg13_34_cif.got.tgz:67305.got - 2010.06.03 16:44:36.
