data_PCOD9229490
_publ_section_title
;
Structure prediction by ZEFSAII (Michael W. Deem and Ramdas Pophale) SiO2 
 PCOD9229490
Probable space group: P 2/C
;
_chemical_formula_sum "Si O2"
_cell_formula_units_Z 20
_cell_length_a 10.901158
_cell_length_b 11.904808
_cell_length_c 9.221814
_cell_angle_alpha 90.000000
_cell_angle_beta 59.702895
_cell_angle_gamma 90.000000
_cell_volume 1033.318052
_symmetry_space_group_name_H-M "P 2/C"
_symmetry_group_IT_number 13
_symmetry_cell_setting 'monoclinic'
loop_
_space_group_symop_operation_xyz
x,y,z
-x,y,1/2-z
-x,-y,-z
x,-y,1/2+z
loop_
_atom_site_type_symbol
_atom_site_label
_atom_site_fract_x
_atom_site_fract_y
_atom_site_fract_z
Si Si1 0.838593 0.465934 0.129635
Si Si2 0.500000 0.019390 0.750000
Si Si3 0.407583 0.154990 0.539056
Si Si4 0.500000 0.480322 0.750000
Si Si5 0.170130 0.661314 0.157098
Si Si6 0.631447 0.351308 0.413082
O O1 0.789237 0.582549 0.231789
O O2 0.797465 0.369448 0.272901
O O3 0.790925 0.412749 0.006455
O O4 0.000000 0.500000 0.000000
O O5 0.409921 0.096863 0.694974
O O6 0.585700 0.938710 0.589759
O O7 0.269835 0.231457 0.601256
O O8 0.549284 0.233848 0.443355
O O9 0.594502 0.398298 0.593228
O O10 0.433314 0.564173 0.669994
O O11 0.000000 0.683224 0.250000
#
# Coordination Sequence:
#
# PCOD9229490 Si02
#       6
#     4   2   4   2   4   4
#     4  10  20  33  53  86 124 156 186 221 274 357
#     4  10  24  40  58  82 106 140 204 274 302 324
#     4  11  22  39  59  81 111 150 199 253 304 340
#     4  10  20  28  48  84 110 134 182 218 262 348
#     4  10  21  37  58  86 123 160 189 229 291 363
#     4  11  19  32  53  80 114 150 180 225 281 344
#
# _framework density 19.355125999999998
#
# number of rings (size 3 to 8) (size 9 to 14) (size 15 to 20)
#    0.000    1.600    0.000    7.200    0.000    1.600 
#    0.000    1.000    0.000    0.000    0.000    0.000 
#    0.000    0.000    0.000    0.000    0.000    0.000 
#
# Total GULP energy -111439.614242 kJ/mol
# GULP energy per Si atom -5571.980712 kJ/mol
# Density = 1.931107 g / cm^3
# Si number density = 19.355126 Si / 1000 Ang^3
#
#
#
# Elastic Constant Matrix: (Units=GPa)
#
#
# Indices 1 2 3 4 5 6 
#
# 1 91.5324 66.9853 59.8535 0.0000 9.4990 0.0000
# 2 66.9853 94.4760 32.3309 0.0000 4.0387 0.0000
# 3 59.8535 32.3309 134.8333 0.0000 13.6849 0.0000
# 4 0.0000 0.0000 0.0000 30.7833 0.0000 3.9789
# 5 9.4990 4.0387 13.6849 0.0000 38.6292 0.0000
# 6 0.0000 0.0000 0.0000 3.9789 0.0000 35.3821
#
#
#
# Elastic Compliance Matrix: (Units=1/GPa)
#
#
# Indices 1 2 3 4 5 6 
#
# 1 0.030503 -0.018492 -0.008860 0.000000 -0.002429 0.000000
# 2 -0.018492 0.022743 0.002630 0.000000 0.001238 0.000000
# 3 -0.008860 0.002630 0.010919 0.000000 -0.001964 0.000000
# 4 0.000000 0.000000 0.000000 0.032964 0.000000 -0.003707
# 5 -0.002429 0.001238 -0.001964 0.000000 0.027051 0.000000
# 6 0.000000 0.000000 0.000000 -0.003707 0.000000 0.028680
#
#
# Mechanical properties :
#
#
# Convention : Reuss Voigt Hill
#
# Bulk Modulus (GPa) = 67.93359 71.02012 69.47685
# Shear Modulus (GPa) = 24.12998 31.73704 27.93351
#
# Velocity S-wave (km/s) = 3.53469 4.05374 3.80308
# Velocity P-wave (km/s) = 7.19954 7.66050 7.43360
#
# Compressibility (1/GPa) = 0.01472026
#
# Stress axis : x y z
#
# Youngs Moduli (GPa) = 32.78316 43.96984 91.58766
#
# Poissons Ratio (x) = 0.81308 0.81149
# Poissons Ratio (y) = 0.60621 -0.24084
# Poissons Ratio (z) = 0.29047 -0.11562
#
# Static dielectric constant tensor:
#      x y z
#    x 1.862790 0.000000 -0.095100 
#    y 0.000000 1.653140 0.000000 
#    z -0.095100 0.000000 1.760240 
# 
# From -- ./inp_files/15537.got.cif
#   From: 2010.05.17/outbox.cif.g08.bks.cpg/sg13_8_cif.got.tgz:15537.got - 2010.06.03 16:44:36.
