data_PCOD9229171
_publ_section_title
;
Structure prediction by ZEFSAII (Michael W. Deem and Ramdas Pophale) SiO2 
 PCOD9229171
Probable space group: P 2/C
;
_chemical_formula_sum "Si O2"
_cell_formula_units_Z 28
_cell_length_a 10.155506
_cell_length_b 9.687998
_cell_length_c 13.358412
_cell_angle_alpha 90.000000
_cell_angle_beta 68.996149
_cell_angle_gamma 90.000000
_cell_volume 1226.961606
_symmetry_space_group_name_H-M "P 2/C"
_symmetry_group_IT_number 13
_symmetry_cell_setting 'monoclinic'
loop_
_space_group_symop_operation_xyz
x,y,z
-x,y,1/2-z
-x,-y,-z
x,-y,1/2+z
loop_
_atom_site_type_symbol
_atom_site_label
_atom_site_fract_x
_atom_site_fract_y
_atom_site_fract_z
Si Si1 0.655375 0.143314 0.679322
Si Si2 0.170554 0.965322 0.626421
Si Si3 0.946441 0.393014 0.098329
Si Si4 0.792414 0.438349 0.340705
Si Si5 0.589652 0.769694 0.986178
Si Si6 0.273279 0.746373 0.125498
Si Si7 0.119990 0.903477 0.871254
O O1 0.500000 0.085118 0.750000
O O2 0.636192 0.243226 0.589760
O O3 0.702097 0.231324 0.762345
O O4 0.764297 0.017846 0.630255
O O5 0.168884 0.129961 0.630652
O O6 0.327598 0.909929 0.562913
O O7 0.143338 0.900958 0.743747
O O8 0.046731 0.935064 0.582058
O O9 0.839890 0.448319 0.212568
O O10 0.874457 0.249523 0.083486
O O11 0.087128 0.363395 0.126205
O O12 0.000000 0.500000 0.000000
O O13 0.652414 0.351419 0.400748
O O14 0.778842 0.594125 0.382159
O O15 0.422292 0.771998 0.030533
#
# Coordination Sequence:
#
# PCOD9229171 Si02
#       7
#     4   4   4   4   4   4   4
#     4   9  22  39  64  95 132 168 219 273 323 385
#     4  10  19  37  65  91 126 165 219 265 322 382
#     4  11  24  42  66  92 130 169 215 271 327 385
#     4  11  23  42  64  93 132 170 214 263 327 393
#     4  11  20  40  64  91 130 175 212 262 330 385
#     4  10  23  38  62  97 129 171 217 266 318 389
#     4  10  19  40  63  90 127 169 214 272 327 382
#
# _framework density 22.820599999999999
#
# number of rings (size 3 to 8) (size 9 to 14) (size 15 to 20)
#    0.000    1.714    2.857    1.714    2.000    6.286 
#    0.000    0.000    0.000    0.000    0.000    0.000 
#    0.000    0.000    0.000    0.000    0.000    0.000 
#
# Total GULP energy -156297.552714 kJ/mol
# GULP energy per Si atom -5582.055454 kJ/mol
# Density = 2.276866 g / cm^3
# Si number density = 22.820600 Si / 1000 Ang^3
#
#
#
# Elastic Constant Matrix: (Units=GPa)
#
#
# Indices 1 2 3 4 5 6 
#
# 1 41.1931 26.2055 23.5975 0.0000 -8.6096 0.0000
# 2 26.2055 113.4044 25.1227 0.0000 -8.9629 0.0000
# 3 23.5975 25.1227 124.8865 0.0000 -17.9745 0.0000
# 4 0.0000 0.0000 0.0000 34.8354 0.0000 -5.4251
# 5 -8.6096 -8.9629 -17.9745 0.0000 26.7871 0.0000
# 6 0.0000 0.0000 0.0000 -5.4251 0.0000 26.9377
#
#
#
# Elastic Compliance Matrix: (Units=1/GPa)
#
#
# Indices 1 2 3 4 5 6 
#
# 1 0.031483 -0.005965 -0.003962 0.000000 0.005464 0.000000
# 2 -0.005965 0.010461 -0.000830 0.000000 0.001026 0.000000
# 3 -0.003962 -0.000830 0.009630 0.000000 0.004911 0.000000
# 4 0.000000 0.000000 0.000000 0.029636 0.000000 0.005968
# 5 0.005464 0.001026 0.004911 0.000000 0.042726 0.000000
# 6 0.000000 0.000000 0.000000 0.005968 0.000000 0.038325
#
#
# Mechanical properties :
#
#
# Convention : Reuss Voigt Hill
#
# Bulk Modulus (GPa) = 33.26769 47.70391 40.48580
# Shear Modulus (GPa) = 25.80054 31.34926 28.57490
#
# Velocity S-wave (km/s) = 3.36606 3.71040 3.54242
# Velocity P-wave (km/s) = 5.45130 6.26940 5.87461
#
# Compressibility (1/GPa) = 0.03005919
#
# Stress axis : x y z
#
# Youngs Moduli (GPa) = 31.76353 95.58965 103.84675
#
# Poissons Ratio (x) = 0.57023 0.41147
# Poissons Ratio (y) = 0.18948 0.08615
# Poissons Ratio (z) = 0.12585 0.07930
#
# Static dielectric constant tensor:
#      x y z
#    x 1.846980 0.000000 -0.000090 
#    y 0.000000 1.851210 0.000000 
#    z -0.000090 0.000000 1.940770 
# 
# From -- ./inp_files/50224.got.cif
#   From: 2010.05.17/outbox.cif.g08.bks.cpg/sg13_26_cif.got.tgz:50224.got - 2010.06.03 16:44:36.
