data_PCOD9229824
_publ_section_title
;
Structure prediction by ZEFSAII (Michael W. Deem and Ramdas Pophale) SiO2 
 PCOD9229824
Probable space group: P 2/C
;
_chemical_formula_sum "Si O2"
_cell_formula_units_Z 24
_cell_length_a 13.169527
_cell_length_b 11.903060
_cell_length_c 14.231093
_cell_angle_alpha 90.000000
_cell_angle_beta 150.275006
_cell_angle_gamma 90.000000
_cell_volume 1106.130743
_symmetry_space_group_name_H-M "P 2/C"
_symmetry_group_IT_number 13
_symmetry_cell_setting 'monoclinic'
loop_
_space_group_symop_operation_xyz
x,y,z
-x,y,1/2-z
-x,-y,-z
x,-y,1/2+z
loop_
_atom_site_type_symbol
_atom_site_label
_atom_site_fract_x
_atom_site_fract_y
_atom_site_fract_z
Si Si1 0.597655 0.685217 0.027671
Si Si2 0.917590 0.081601 0.079170
Si Si3 0.976587 0.828978 0.341974
Si Si4 0.500000 0.784445 0.250000
Si Si5 0.280514 0.405773 0.690481
Si Si6 0.127227 0.719483 0.636428
Si Si7 0.500000 0.404890 0.250000
O O1 0.356891 0.699133 0.852184
O O2 0.607292 0.659376 0.923638
O O3 0.739480 0.792898 0.167790
O O4 0.683049 0.590523 0.167992
O O5 0.000000 0.084093 0.250000
O O6 0.043273 0.168150 0.117426
O O7 0.691073 0.131488 0.907540
O O8 0.953177 0.954258 0.074856
O O9 0.000000 0.816848 0.250000
O O10 0.111284 0.745014 0.512665
O O11 0.571793 0.696651 0.226475
O O12 0.346192 0.513289 0.684040
O O13 0.045250 0.373500 0.481147
#
# Coordination Sequence:
#
# PCOD9229824 Si02
#       7
#     4   4   4   2   4   4   2
#     4  11  22  38  59  83 116 152 189 240 295 346
#     4  10  20  34  57  87 117 155 197 234 283 342
#     4  10  22  37  54  83 118 152 193 236 282 348
#     4   9  18  36  59  84 120 156 193 243 282 328
#     4   9  21  40  59  85 116 149 199 246 283 343
#     4  10  21  38  59  84 116 153 192 240 292 342
#     4  11  22  40  63  84 114 156 193 241 302 342
#
# _framework density 21.697254999999998
#
# number of rings (size 3 to 8) (size 9 to 14) (size 15 to 20)
#    0.000    2.000    0.000    3.000    0.000    4.000 
#    0.000    5.000    0.000    0.000    0.000    0.000 
#    0.000    0.000    0.000    0.000    0.000    0.000 
#
# Total GULP energy -133900.756256 kJ/mol
# GULP energy per Si atom -5579.198177 kJ/mol
# Density = 2.164787 g / cm^3
# Si number density = 21.697255 Si / 1000 Ang^3
#
#
#
# Elastic Constant Matrix: (Units=GPa)
#
#
# Indices 1 2 3 4 5 6 
#
# 1 75.3328 14.3010 21.9412 0.0000 4.6549 0.0000
# 2 14.3010 98.2011 38.7122 0.0000 18.8221 0.0000
# 3 21.9412 38.7122 112.8811 0.0000 19.6873 0.0000
# 4 0.0000 0.0000 0.0000 31.8219 0.0000 3.7098
# 5 4.6549 18.8221 19.6873 0.0000 42.9436 0.0000
# 6 0.0000 0.0000 0.0000 3.7098 0.0000 15.3881
#
#
#
# Elastic Compliance Matrix: (Units=1/GPa)
#
#
# Indices 1 2 3 4 5 6 
#
# 1 0.014179 -0.001139 -0.002374 0.000000 0.000051 0.000000
# 2 -0.001139 0.012401 -0.003375 0.000000 -0.003765 0.000000
# 3 -0.002374 -0.003375 0.011059 0.000000 -0.003333 0.000000
# 4 0.000000 0.000000 0.000000 0.032334 0.000000 -0.007795
# 5 0.000051 -0.003765 -0.003333 0.000000 0.026459 0.000000
# 6 0.000000 0.000000 0.000000 -0.007795 0.000000 0.066864
#
#
# Mechanical properties :
#
#
# Convention : Reuss Voigt Hill
#
# Bulk Modulus (GPa) = 41.90529 48.48042 45.19285
# Shear Modulus (GPa) = 27.02311 32.12810 29.57561
#
# Velocity S-wave (km/s) = 3.53294 3.85222 3.69603
# Velocity P-wave (km/s) = 5.99981 6.49451 6.25206
#
# Compressibility (1/GPa) = 0.02386333
#
# Stress axis : x y z
#
# Youngs Moduli (GPa) = 70.52675 80.63846 90.42226
#
# Poissons Ratio (x) = 0.09181 0.21470
# Poissons Ratio (y) = 0.08030 0.30517
# Poissons Ratio (z) = 0.16746 0.27215
#
# Static dielectric constant tensor:
#      x y z
#    x 1.819980 0.000000 -0.017550 
#    y 0.000000 1.831490 0.000000 
#    z -0.017550 0.000000 1.764410 
# 
# From -- ./inp_files/53587.got.cif
#   From: 2010.05.17/outbox.cif.g08.bks.cpg/sg13_27_cif.got.tgz:53587.got - 2010.06.03 16:44:36.
