data_PCOD9229860
_publ_section_title
;
Structure prediction by ZEFSAII (Michael W. Deem and Ramdas Pophale) SiO2 
 PCOD9229860
Probable space group: P 2/C
;
_chemical_formula_sum "Si O2"
_cell_formula_units_Z 28
_cell_length_a 20.427319
_cell_length_b 8.733336
_cell_length_c 23.591360
_cell_angle_alpha 90.000000
_cell_angle_beta 158.778049
_cell_angle_gamma 90.000000
_cell_volume 1523.460410
_symmetry_space_group_name_H-M "P 2/C"
_symmetry_group_IT_number 13
_symmetry_cell_setting 'monoclinic'
loop_
_space_group_symop_operation_xyz
x,y,z
-x,y,1/2-z
-x,-y,-z
x,-y,1/2+z
loop_
_atom_site_type_symbol
_atom_site_label
_atom_site_fract_x
_atom_site_fract_y
_atom_site_fract_z
Si Si1 0.966971 0.520395 0.139792
Si Si2 0.000000 0.038448 0.750000
Si Si3 0.374564 0.820294 0.756751
Si Si4 0.825434 0.095280 0.877801
Si Si5 0.743622 0.676752 0.047054
Si Si6 0.994692 0.357865 0.953720
Si Si7 0.859475 0.167912 0.040053
Si Si8 0.500000 0.995150 0.250000
O O1 0.791751 0.609410 0.023886
O O2 0.021387 0.581969 0.122595
O O3 0.916681 0.342238 0.096888
O O4 0.136795 0.566245 0.316523
O O5 0.831923 0.154400 0.619070
O O6 0.985476 0.938660 0.681192
O O7 0.186269 0.731233 0.609340
O O8 0.416113 0.891836 0.728736
O O9 0.342846 0.979304 0.765711
O O10 0.538867 0.704206 0.900244
O O11 0.836779 0.245460 0.848365
O O12 0.853555 0.137433 0.967259
O O13 0.000000 0.000000 0.000000
O O14 0.000000 0.500000 0.000000
O O15 0.659563 0.117003 0.899440
#
# Coordination Sequence:
#
# PCOD9229860 Si02
#       8
#     4   2   4   4   4   4   4   2
#     4  10  22  37  60  87 123 155 186 241 306 361
#     4  10  20  34  60  82 118 150 192 236 304 356
#     4  10  20  38  59  85 116 150 199 251 280 352
#     4   9  21  35  61  81 114 151 201 238 286 340
#     4  10  22  39  58  89 117 156 192 240 310 351
#     4  11  21  39  61  86 117 159 199 238 297 353
#     4  11  20  37  57  89 118 150 193 250 294 355
#     4  10  20  34  62  92 116 144 206 254 298 332
#
# _framework density 18.379211999999999
#
# number of rings (size 3 to 8) (size 9 to 14) (size 15 to 20)
#    0.000    2.000    2.857    1.714   10.000    1.143 
#    0.000    1.429    0.000    0.000    0.000    0.000 
#    0.000    0.000    0.000    0.000    0.000    0.000 
#
# Total GULP energy -155878.762656 kJ/mol
# GULP energy per Si atom -5567.098666 kJ/mol
# Density = 1.833738 g / cm^3
# Si number density = 18.379212 Si / 1000 Ang^3
#
#
#
# Elastic Constant Matrix: (Units=GPa)
#
#
# Indices 1 2 3 4 5 6 
#
# 1 98.2647 44.9179 22.9132 0.0000 -0.2385 0.0000
# 2 44.9179 120.4910 27.6628 0.0000 -2.7350 0.0000
# 3 22.9132 27.6628 36.2647 0.0000 6.7493 0.0000
# 4 0.0000 0.0000 0.0000 26.5944 0.0000 1.2874
# 5 -0.2385 -2.7350 6.7493 0.0000 25.6942 0.0000
# 6 0.0000 0.0000 0.0000 1.2874 0.0000 38.2463
#
#
#
# Elastic Compliance Matrix: (Units=1/GPa)
#
#
# Indices 1 2 3 4 5 6 
#
# 1 0.013161 -0.003531 -0.005861 0.000000 0.001286 0.000000
# 2 -0.003531 0.011273 -0.006924 0.000000 0.002986 0.000000
# 3 -0.005861 -0.006924 0.038593 0.000000 -0.010929 0.000000
# 4 0.000000 0.000000 0.000000 0.037663 0.000000 -0.001268
# 5 0.001286 0.002986 -0.010929 0.000000 0.042120 0.000000
# 6 0.000000 0.000000 0.000000 -0.001268 0.000000 0.026189
#
#
# Mechanical properties :
#
#
# Convention : Reuss Voigt Hill
#
# Bulk Modulus (GPa) = 32.89960 49.55645 41.22802
# Shear Modulus (GPa) = 23.61132 28.74209 26.17671
#
# Velocity S-wave (km/s) = 3.58813 3.95883 3.77803
# Velocity P-wave (km/s) = 5.92499 6.92230 6.44297
#
# Compressibility (1/GPa) = 0.03039551
#
# Stress axis : x y z
#
# Youngs Moduli (GPa) = 75.98451 88.70602 25.91112
#
# Poissons Ratio (x) = 0.31326 0.15186
# Poissons Ratio (y) = 0.26833 0.17940
# Poissons Ratio (z) = 0.44533 0.61417
#
# Static dielectric constant tensor:
#      x y z
#    x 1.623440 0.000000 0.004510 
#    y 0.000000 1.666930 0.000000 
#    z 0.004510 0.000000 1.672660 
# 
# From -- ./inp_files/88551.got.cif
#   From: 2010.05.17/outbox.cif.g08.bks.cpg/sg13_45_cif.got.tgz:88551.got - 2010.06.03 16:44:36.
