data_PCOD9229366
_publ_section_title
;
Structure prediction by ZEFSAII (Michael W. Deem and Ramdas Pophale) SiO2 
 PCOD9229366
Probable space group: P 2/C
;
_chemical_formula_sum "Si O2"
_cell_formula_units_Z 28
_cell_length_a 10.378023
_cell_length_b 9.683278
_cell_length_c 13.921042
_cell_angle_alpha 90.000000
_cell_angle_beta 59.895491
_cell_angle_gamma 90.000000
_cell_volume 1210.266701
_symmetry_space_group_name_H-M "P 2/C"
_symmetry_group_IT_number 13
_symmetry_cell_setting 'monoclinic'
loop_
_space_group_symop_operation_xyz
x,y,z
-x,y,1/2-z
-x,-y,-z
x,-y,1/2+z
loop_
_atom_site_type_symbol
_atom_site_label
_atom_site_fract_x
_atom_site_fract_y
_atom_site_fract_z
Si Si1 0.245655 0.429626 0.426948
Si Si2 0.797237 0.882338 0.540186
Si Si3 0.984598 0.521178 0.649644
Si Si4 0.626748 0.850876 0.119332
Si Si5 0.199869 0.736731 0.278044
Si Si6 0.069273 0.010540 0.317753
Si Si7 0.502668 0.595936 0.406405
O O1 0.256053 0.272480 0.459246
O O2 0.150475 0.422527 0.364365
O O3 0.402419 0.508047 0.368839
O O4 0.139664 0.520504 0.535919
O O5 0.938224 0.932350 0.425352
O O6 0.671095 0.997643 0.571032
O O7 0.846199 0.899317 0.634341
O O8 0.943111 0.358900 0.672725
O O9 0.000000 0.579259 0.750000
O O10 0.500000 0.855691 0.250000
O O11 0.763313 0.780672 0.126188
O O12 0.576776 0.745195 0.056570
O O13 0.175186 0.885867 0.240095
O O14 0.332326 0.642416 0.186681
O O15 0.000000 0.081625 0.250000
O O16 0.500000 0.500000 0.500000
#
# Coordination Sequence:
#
# PCOD9229366 Si02
#       7
#     4   4   4   4   4   4   4
#     4  11  24  40  62 102 134 164 225 290 331 400
#     4  10  22  40  66  97 134 173 223 286 346 394
#     4  11  22  38  65  95 130 172 217 274 346 401
#     4   9  20  42  65  87 129 181 219 266 340 414
#     4  10  19  39  65  90 121 175 221 263 323 410
#     4  10  21  38  69  96 130 177 229 272 337 423
#     4  11  23  39  66  95 132 176 226 272 335 406
#
# _framework density 23.135396
#
# number of rings (size 3 to 8) (size 9 to 14) (size 15 to 20)
#    0.000    1.714    2.857    1.286    2.000    0.571 
#    2.571    2.143    0.000    0.000    0.000    0.000 
#    0.000    0.000    0.000    0.000    0.000    0.000 
#
# Total GULP energy -156380.611100 kJ/mol
# GULP energy per Si atom -5585.021825 kJ/mol
# Density = 2.308274 g / cm^3
# Si number density = 23.135396 Si / 1000 Ang^3
#
#
#
# Elastic Constant Matrix: (Units=GPa)
#
#
# Indices 1 2 3 4 5 6 
#
# 1 67.2337 24.4473 47.0406 0.0000 -0.4336 0.0000
# 2 24.4473 120.5552 29.5894 0.0000 -5.8334 0.0000
# 3 47.0406 29.5894 73.6584 0.0000 4.1449 0.0000
# 4 0.0000 0.0000 0.0000 18.9164 0.0000 -12.9943
# 5 -0.4336 -5.8334 4.1449 0.0000 32.0512 0.0000
# 6 0.0000 0.0000 0.0000 -12.9943 0.0000 23.5493
#
#
#
# Elastic Compliance Matrix: (Units=1/GPa)
#
#
# Indices 1 2 3 4 5 6 
#
# 1 0.027266 -0.001231 -0.017051 0.000000 0.002350 0.000000
# 2 -0.001231 0.009410 -0.003112 0.000000 0.002098 0.000000
# 3 -0.017051 -0.003112 0.025949 0.000000 -0.004153 0.000000
# 4 0.000000 0.000000 0.000000 0.085134 0.000000 0.046976
# 5 0.002350 0.002098 -0.004153 0.000000 0.032151 0.000000
# 6 0.000000 0.000000 0.000000 0.046976 0.000000 0.068385
#
#
# Mechanical properties :
#
#
# Convention : Reuss Voigt Hill
#
# Bulk Modulus (GPa) = 50.40864 51.51132 50.95998
# Shear Modulus (GPa) = 16.79575 25.59472 21.19524
#
# Velocity S-wave (km/s) = 2.69732 3.32972 3.03006
# Velocity P-wave (km/s) = 5.61574 6.09066 5.85802
#
# Compressibility (1/GPa) = 0.01983787
#
# Stress axis : x y z
#
# Youngs Moduli (GPa) = 36.67599 106.27081 38.53669
#
# Poissons Ratio (x) = 0.13077 0.65708
# Poissons Ratio (y) = 0.04513 0.11994
# Poissons Ratio (z) = 0.62535 0.33075
#
# Static dielectric constant tensor:
#      x y z
#    x 1.941120 0.000000 0.023210 
#    y 0.000000 1.852550 0.000000 
#    z 0.023210 0.000000 1.913910 
# 
# From -- ./inp_files/50256.got.cif
#   From: 2010.05.17/outbox.cif.g08.bks.cpg/sg13_26_cif.got.tgz:50256.got - 2010.06.03 16:44:36.
