data_PCOD9229071
_publ_section_title
;
Structure prediction by ZEFSAII (Michael W. Deem and Ramdas Pophale) SiO2 
 PCOD9229071
Probable space group: P 2/C
;
_chemical_formula_sum "Si O2"
_cell_formula_units_Z 28
_cell_length_a 8.886268
_cell_length_b 13.546197
_cell_length_c 12.088583
_cell_angle_alpha 90.000000
_cell_angle_beta 109.856544
_cell_angle_gamma 90.000000
_cell_volume 1368.649489
_symmetry_space_group_name_H-M "P 2/C"
_symmetry_group_IT_number 13
_symmetry_cell_setting 'monoclinic'
loop_
_space_group_symop_operation_xyz
x,y,z
-x,y,1/2-z
-x,-y,-z
x,-y,1/2+z
loop_
_atom_site_type_symbol
_atom_site_label
_atom_site_fract_x
_atom_site_fract_y
_atom_site_fract_z
Si Si1 0.316305 0.914725 0.372142
Si Si2 0.769351 0.246816 0.974301
Si Si3 0.941266 0.221818 0.620833
Si Si4 0.500000 0.703464 0.750000
Si Si5 0.500000 0.228950 0.750000
Si Si6 0.404638 0.874092 0.894558
Si Si7 0.914015 0.431603 0.113387
Si Si8 0.225240 0.607597 0.539353
O O1 0.141234 0.879930 0.364293
O O2 0.388797 0.839441 0.300075
O O3 0.424646 0.902829 0.509424
O O4 0.332569 0.024899 0.328991
O O5 0.702937 0.155914 0.027327
O O6 0.823680 0.328317 0.075831
O O7 0.623257 0.285267 0.860716
O O8 0.915059 0.217772 0.930494
O O9 0.807283 0.292559 0.536315
O O10 0.000000 0.269543 0.750000
O O11 0.419980 0.781076 0.816778
O O12 0.374275 0.633312 0.654527
O O13 0.000000 0.452319 0.250000
O O14 0.066581 0.416256 0.070987
O O15 0.785664 0.515217 0.046859
#
# Coordination Sequence:
#
# PCOD9229071 Si02
#       8
#     4   4   4   2   2   4   4   4
#     4  10  20  38  61  88 125 167 210 251 316 373
#     4  10  22  37  63  89 128 161 212 264 317 370
#     4  11  20  39  61  91 122 167 211 259 306 384
#     4  12  21  41  64  94 130 168 213 259 320 380
#     4  10  19  37  60  92 124 162 205 263 316 368
#     4  10  22  38  60  90 125 167 204 264 310 368
#     4  10  21  43  61  88 124 165 204 258 318 376
#     4  10  23  38  64  90 122 164 209 255 316 380
#
# _framework density 20.458123000000001
#
# number of rings (size 3 to 8) (size 9 to 14) (size 15 to 20)
#    0.000    1.714    2.857    1.714    0.000    1.143 
#    0.000    6.429    0.000    0.000    0.000    0.000 
#    0.000    0.000    0.000    0.000    0.000    0.000 
#
# Total GULP energy -156090.752428 kJ/mol
# GULP energy per Si atom -5574.669730 kJ/mol
# Density = 2.041156 g / cm^3
# Si number density = 20.458123 Si / 1000 Ang^3
#
#
#
# Elastic Constant Matrix: (Units=GPa)
#
#
# Indices 1 2 3 4 5 6 
#
# 1 71.6506 34.5693 17.8036 0.0000 5.6795 0.0000
# 2 34.5693 75.9784 35.8218 0.0000 20.0795 0.0000
# 3 17.8036 35.8218 102.6183 0.0000 26.3142 0.0000
# 4 0.0000 0.0000 0.0000 27.0921 0.0000 7.2442
# 5 5.6795 20.0795 26.3142 0.0000 39.3840 0.0000
# 6 0.0000 0.0000 0.0000 7.2442 0.0000 23.1741
#
#
#
# Elastic Compliance Matrix: (Units=1/GPa)
#
#
# Indices 1 2 3 4 5 6 
#
# 1 0.018038 -0.008435 -0.000749 0.000000 0.002200 0.000000
# 2 -0.008435 0.020657 -0.004053 0.000000 -0.006607 0.000000
# 3 -0.000749 -0.004053 0.012951 0.000000 -0.006479 0.000000
# 4 0.000000 0.000000 0.000000 0.040278 0.000000 -0.012591
# 5 0.002200 -0.006607 -0.006479 0.000000 0.032771 0.000000
# 6 0.000000 0.000000 0.000000 -0.012591 0.000000 0.047087
#
#
# Mechanical properties :
#
#
# Convention : Reuss Voigt Hill
#
# Bulk Modulus (GPa) = 39.72849 47.40407 43.56628
# Shear Modulus (GPa) = 24.19580 28.73354 26.46467
#
# Velocity S-wave (km/s) = 3.44277 3.75174 3.60057
# Velocity P-wave (km/s) = 5.93845 6.47989 6.21507
#
# Compressibility (1/GPa) = 0.02517086
#
# Stress axis : x y z
#
# Youngs Moduli (GPa) = 55.43788 48.41047 77.21438
#
# Poissons Ratio (x) = 0.40836 0.05783
# Poissons Ratio (y) = 0.46764 0.31295
# Poissons Ratio (z) = 0.04152 0.19621
#
# Static dielectric constant tensor:
#      x y z
#    x 1.734750 0.000000 -0.009170 
#    y 0.000000 1.740560 0.000000 
#    z -0.009170 0.000000 1.799930 
# 
# From -- ./inp_files/30542.got.cif
#   From: 2010.05.17/outbox.cif.g08.bks.cpg/sg13_16_cif.got.tgz:30542.got - 2010.06.03 16:44:36.
