data_PCOD9229766
_publ_section_title
;
Structure prediction by ZEFSAII (Michael W. Deem and Ramdas Pophale) SiO2 
 PCOD9229766
Probable space group: P 2/C
;
_chemical_formula_sum "Si O2"
_cell_formula_units_Z 22
_cell_length_a 14.810676
_cell_length_b 4.821227
_cell_length_c 21.446414
_cell_angle_alpha 90.000000
_cell_angle_beta 43.047813
_cell_angle_gamma 90.000000
_cell_volume 1045.342953
_symmetry_space_group_name_H-M "P 2/C"
_symmetry_group_IT_number 13
_symmetry_cell_setting 'monoclinic'
loop_
_space_group_symop_operation_xyz
x,y,z
-x,y,1/2-z
-x,-y,-z
x,-y,1/2+z
loop_
_atom_site_type_symbol
_atom_site_label
_atom_site_fract_x
_atom_site_fract_y
_atom_site_fract_z
Si Si1 0.374150 0.267468 0.998429
Si Si2 0.993840 0.254706 0.955665
Si Si3 0.000000 0.518037 0.250000
Si Si4 0.792940 0.224316 0.948524
Si Si5 0.366823 0.952459 0.641119
Si Si6 0.196169 0.528152 0.251197
O O1 0.334823 0.578614 0.999720
O O2 0.391206 0.214158 0.063929
O O3 0.247788 0.090750 0.041376
O O4 0.500965 0.114847 0.904732
O O5 0.113219 0.321547 0.847209
O O6 0.861377 0.254125 0.980838
O O7 0.000000 0.500000 0.000000
O O8 0.000000 0.000000 0.000000
O O9 0.096580 0.692960 0.157343
O O10 0.096887 0.378400 0.251757
O O11 0.299069 0.714718 0.717716
O O12 0.269397 0.214003 0.681080
#
# Coordination Sequence:
#
# PCOD9229766 Si02
#       6
#     4   4   2   4   4   4
#     4  11  21  36  58  91 130 161 195 241 309 382
#     4  11  24  43  62  87 118 163 212 264 312 357
#     4  10  20  34  54  90 120 148 204 234 320 356
#     4  11  22  37  61  88 123 161 200 258 302 380
#     4  11  21  36  58  91 130 161 195 241 309 382
#     4  11  22  37  61  88 123 161 200 258 302 380
#
# _framework density 21.045725999999998
#
# number of rings (size 3 to 8) (size 9 to 14) (size 15 to 20)
#    0.000    1.091    3.636    3.273    0.000    8.727 
#    0.000    0.000    0.000   16.364    0.000    0.000 
#    0.000    0.000    0.000    0.000    0.000    0.000 
#
# Total GULP energy -122734.389674 kJ/mol
# GULP energy per Si atom -5578.835894 kJ/mol
# Density = 2.099782 g / cm^3
# Si number density = 21.045726 Si / 1000 Ang^3
#
#
#
# Elastic Constant Matrix: (Units=GPa)
#
#
# Indices 1 2 3 4 5 6 
#
# 1 91.5166 18.0256 36.0807 0.0000 8.6137 0.0000
# 2 18.0256 115.6004 25.5409 0.0000 0.7186 0.0000
# 3 36.0807 25.5409 72.0249 0.0000 -5.9337 0.0000
# 4 0.0000 0.0000 0.0000 19.1806 0.0000 8.2939
# 5 8.6137 0.7186 -5.9337 0.0000 27.0687 0.0000
# 6 0.0000 0.0000 0.0000 8.2939 0.0000 34.7283
#
#
#
# Elastic Compliance Matrix: (Units=1/GPa)
#
#
# Indices 1 2 3 4 5 6 
#
# 1 0.014654 -0.000552 -0.007667 0.000000 -0.006329 0.000000
# 2 -0.000552 0.009433 -0.003131 0.000000 -0.000761 0.000000
# 3 -0.007667 -0.003131 0.019393 0.000000 0.006774 0.000000
# 4 0.000000 0.000000 0.000000 0.058140 0.000000 -0.013885
# 5 -0.006329 -0.000761 0.006774 0.000000 0.040462 0.000000
# 6 0.000000 0.000000 0.000000 -0.013885 0.000000 0.032111
#
#
# Mechanical properties :
#
#
# Convention : Reuss Voigt Hill
#
# Bulk Modulus (GPa) = 48.12171 48.71515 48.41843
# Shear Modulus (GPa) = 24.53148 29.49519 27.01334
#
# Velocity S-wave (km/s) = 3.41783 3.74770 3.58656
# Velocity P-wave (km/s) = 6.20406 6.47492 6.34094
#
# Compressibility (1/GPa) = 0.02078064
#
# Stress axis : x y z
#
# Youngs Moduli (GPa) = 68.24109 106.00950 51.56460
#
# Poissons Ratio (x) = 0.05849 0.39532
# Poissons Ratio (y) = 0.03765 0.16147
# Poissons Ratio (z) = 0.52318 0.33196
#
# Static dielectric constant tensor:
#      x y z
#    x 1.770750 0.000000 -0.055710 
#    y 0.000000 1.729320 0.000000 
#    z -0.055710 0.000000 1.791590 
# 
# From -- ./inp_files/79143.got.cif
#   From: 2010.05.17/outbox.cif.g08.bks.cpg/sg13_40_cif.got.tgz:79143.got - 2010.06.03 16:44:36.
