data_PCOD9229394
_publ_section_title
;
Structure prediction by ZEFSAII (Michael W. Deem and Ramdas Pophale) SiO2 
 PCOD9229394
Probable space group: P 2/C
;
_chemical_formula_sum "Si O2"
_cell_formula_units_Z 22
_cell_length_a 19.192664
_cell_length_b 5.109492
_cell_length_c 13.291825
_cell_angle_alpha 90.000000
_cell_angle_beta 137.757706
_cell_angle_gamma 90.000000
_cell_volume 876.273243
_symmetry_space_group_name_H-M "P 2/C"
_symmetry_group_IT_number 13
_symmetry_cell_setting 'monoclinic'
loop_
_space_group_symop_operation_xyz
x,y,z
-x,y,1/2-z
-x,-y,-z
x,-y,1/2+z
loop_
_atom_site_type_symbol
_atom_site_label
_atom_site_fract_x
_atom_site_fract_y
_atom_site_fract_z
Si Si1 0.850136 0.313041 0.004063
Si Si2 0.894706 0.676792 0.332797
Si Si3 0.799188 0.851816 0.648723
Si Si4 0.000000 0.271809 0.750000
Si Si5 0.594500 0.291678 0.009423
Si Si6 0.373550 0.790493 0.323742
O O1 0.917316 0.298128 0.974892
O O2 0.732503 0.304869 0.840900
O O3 0.852634 0.101215 0.096485
O O4 0.896407 0.551960 0.116857
O O5 0.857060 0.381581 0.270628
O O6 0.978290 0.795767 0.344579
O O7 0.802502 0.879914 0.212564
O O8 0.680392 0.758807 0.516197
O O9 0.603809 0.584365 0.062254
O O10 0.625943 0.086263 0.132629
O O11 0.474573 0.233653 0.860278
#
# Coordination Sequence:
#
# PCOD9229394 Si02
#       6
#     4   4   4   2   4   4
#     4  11  23  44  68  97 130 180 215 278 329 391
#     4  11  24  45  65  95 131 177 213 285 322 390
#     4  11  23  40  69  97 132 166 226 260 335 401
#     4  10  26  44  68 100 134 174 238 268 334 398
#     4  10  19  40  61 100 125 169 214 269 319 414
#     4  10  21  36  69  89 132 171 213 263 341 375
#
# _framework density 25.106324999999998
#
# number of rings (size 3 to 8) (size 9 to 14) (size 15 to 20)
#    0.000    1.455    3.636    0.545    0.000    9.455 
#    0.000    5.455    0.000   10.909    0.000    0.000 
#    0.000    0.000    0.000    0.000    0.000    0.000 
#
# Total GULP energy -122652.840180 kJ/mol
# GULP energy per Si atom -5575.129099 kJ/mol
# Density = 2.504918 g / cm^3
# Si number density = 25.106325 Si / 1000 Ang^3
#
#
#
# Elastic Constant Matrix: (Units=GPa)
#
#
# Indices 1 2 3 4 5 6 
#
# 1 105.8956 26.6857 -4.4674 0.0000 -29.0947 0.0000
# 2 26.6857 100.5307 34.5353 0.0000 -8.7686 0.0000
# 3 -4.4674 34.5353 82.0493 0.0000 0.6705 0.0000
# 4 0.0000 0.0000 0.0000 14.2249 0.0000 5.5854
# 5 -29.0947 -8.7686 0.6705 0.0000 51.6130 0.0000
# 6 0.0000 0.0000 0.0000 5.5854 0.0000 11.6506
#
#
#
# Elastic Compliance Matrix: (Units=1/GPa)
#
#
# Indices 1 2 3 4 5 6 
#
# 1 0.012082 -0.003360 0.002021 0.000000 0.006214 0.000000
# 2 -0.003360 0.012781 -0.005566 0.000000 0.000350 0.000000
# 3 0.002021 -0.005566 0.014640 0.000000 0.000004 0.000000
# 4 0.000000 0.000000 0.000000 0.086601 0.000000 -0.041517
# 5 0.006214 0.000350 0.000004 0.000000 0.022937 0.000000
# 6 0.000000 0.000000 0.000000 -0.041517 0.000000 0.105736
#
#
# Mechanical properties :
#
#
# Convention : Reuss Voigt Hill
#
# Bulk Modulus (GPa) = 38.91622 44.66476 41.79049
# Shear Modulus (GPa) = 18.04064 30.94584 24.49324
#
# Velocity S-wave (km/s) = 2.68352 3.51464 3.12682
# Velocity P-wave (km/s) = 5.01358 5.85654 5.45138
#
# Compressibility (1/GPa) = 0.02569622
#
# Stress axis : x y z
#
# Youngs Moduli (GPa) = 82.76496 78.23810 68.30395
#
# Poissons Ratio (x) = 0.26285 -0.13805
# Poissons Ratio (y) = 0.27806 0.38015
# Poissons Ratio (z) = -0.16728 0.43544
#
# Static dielectric constant tensor:
#      x y z
#    x 2.554550 0.000000 0.423060 
#    y 0.000000 2.116220 0.000000 
#    z 0.423060 0.000000 2.220610 
# 
# From -- ./inp_files/54339.got.cif
#   From: 2010.05.17/outbox.cif.g08.bks.cpg/sg13_28_cif.got.tgz:54339.got - 2010.06.03 16:44:36.
