data_PCOD9229138
_publ_section_title
;
Structure prediction by ZEFSAII (Michael W. Deem and Ramdas Pophale) SiO2 
 PCOD9229138
Probable space group: P 2/C
;
_chemical_formula_sum "Si O2"
_cell_formula_units_Z 16
_cell_length_a 20.610797
_cell_length_b 8.125083
_cell_length_c 10.517396
_cell_angle_alpha 90.000000
_cell_angle_beta 155.574310
_cell_angle_gamma 90.000000
_cell_volume 728.315726
_symmetry_space_group_name_H-M "P 2/C"
_symmetry_group_IT_number 13
_symmetry_cell_setting 'monoclinic'
loop_
_space_group_symop_operation_xyz
x,y,z
-x,y,1/2-z
-x,-y,-z
x,-y,1/2+z
loop_
_atom_site_type_symbol
_atom_site_label
_atom_site_fract_x
_atom_site_fract_y
_atom_site_fract_z
Si Si1 0.709536 0.145795 0.378757
Si Si2 0.104107 0.480840 0.810774
Si Si3 0.398930 0.664487 0.293608
Si Si4 0.324363 0.090980 0.461493
O O1 0.798329 0.317076 0.546230
O O2 0.750414 0.018329 0.561796
O O3 0.522425 0.192180 0.051229
O O4 0.750879 0.085271 0.310745
O O5 0.000000 0.462375 0.750000
O O6 0.000000 0.500000 0.500000
O O7 0.232305 0.626511 0.060703
O O8 0.500000 0.500000 0.500000
O O9 0.347989 0.723677 0.060348
O O10 0.500000 0.027413 0.750000
#
# Coordination Sequence:
#
# PCOD9229138 Si02
#       4
#     4   4   4   4
#     4  10  22  40  64  92 122 158 204 254 304 367
#     4  11  24  42  61  88 125 163 205 254 306 362
#     4   9  19  37  62  89 119 158 203 252 302 355
#     4  10  19  37  63  95 123 153 202 258 304 360
#
# _framework density 21.968492999999999
#
# number of rings (size 3 to 8) (size 9 to 14) (size 15 to 20)
#    0.000    2.000    0.000    4.500    0.000    6.000 
#    0.000   26.250    0.000    0.000    0.000    0.000 
#    0.000    0.000    0.000    0.000    0.000    0.000 
#
# Total GULP energy -89164.635955 kJ/mol
# GULP energy per Si atom -5572.789747 kJ/mol
# Density = 2.191849 g / cm^3
# Si number density = 21.968493 Si / 1000 Ang^3
#
#
#
# Elastic Constant Matrix: (Units=GPa)
#
#
# Indices 1 2 3 4 5 6 
#
# 1 113.3320 67.9800 57.2604 0.0000 -15.5987 0.0000
# 2 67.9800 91.0391 30.5740 0.0000 -16.6783 0.0000
# 3 57.2604 30.5740 89.0305 0.0000 -4.6770 0.0000
# 4 0.0000 0.0000 0.0000 13.8690 0.0000 -5.6943
# 5 -15.5987 -16.6783 -4.6770 0.0000 39.6082 0.0000
# 6 0.0000 0.0000 0.0000 -5.6943 0.0000 40.3465
#
#
#
# Elastic Compliance Matrix: (Units=1/GPa)
#
#
# Indices 1 2 3 4 5 6 
#
# 1 0.021198 -0.012331 -0.009291 0.000000 0.002059 0.000000
# 2 -0.012331 0.020548 0.001081 0.000000 0.003924 0.000000
# 3 -0.009291 0.001081 0.016772 0.000000 -0.001223 0.000000
# 4 0.000000 0.000000 0.000000 0.076538 0.000000 0.010802
# 5 0.002059 0.003924 -0.001223 0.000000 0.027566 0.000000
# 6 0.000000 0.000000 0.000000 0.010802 0.000000 0.026310
#
#
# Mechanical properties :
#
#
# Convention : Reuss Voigt Hill
#
# Bulk Modulus (GPa) = 57.35481 67.22561 62.29021
# Shear Modulus (GPa) = 21.20205 27.93720 24.56962
#
# Velocity S-wave (km/s) = 3.10999 3.56995 3.34788
# Velocity P-wave (km/s) = 6.24984 6.90363 6.58485
#
# Compressibility (1/GPa) = 0.01743533
#
# Stress axis : x y z
#
# Youngs Moduli (GPa) = 47.17491 48.66620 59.62311
#
# Poissons Ratio (x) = 0.60012 0.55393
# Poissons Ratio (y) = 0.58173 -0.06443
# Poissons Ratio (z) = 0.43828 -0.05259
#
# Static dielectric constant tensor:
#      x y z
#    x 1.802030 0.000000 0.005870 
#    y 0.000000 1.846200 0.000000 
#    z 0.005870 0.000000 1.825740 
# 
# From -- ./inp_files/10844.got.cif
#   From: 2010.05.17/outbox.cif.g08.bks.cpg/sg13_6_cif.got.tgz:10844.got - 2010.06.03 16:44:36.
