data_PCOD9229785
_publ_section_title
;
Structure prediction by ZEFSAII (Michael W. Deem and Ramdas Pophale) SiO2 
 PCOD9229785
Probable space group: P 2/C
;
_chemical_formula_sum "Si O2"
_cell_formula_units_Z 26
_cell_length_a 20.779570
_cell_length_b 5.703248
_cell_length_c 15.384631
_cell_angle_alpha 90.000000
_cell_angle_beta 146.157898
_cell_angle_gamma 90.000000
_cell_volume 1015.378265
_symmetry_space_group_name_H-M "P 2/C"
_symmetry_group_IT_number 13
_symmetry_cell_setting 'monoclinic'
loop_
_space_group_symop_operation_xyz
x,y,z
-x,y,1/2-z
-x,-y,-z
x,-y,1/2+z
loop_
_atom_site_type_symbol
_atom_site_label
_atom_site_fract_x
_atom_site_fract_y
_atom_site_fract_z
Si Si1 0.598459 0.535218 0.434083
Si Si2 0.025538 0.545724 0.896812
Si Si3 0.000000 0.060735 0.250000
Si Si4 0.732371 0.970794 0.918115
Si Si5 0.656406 0.034790 0.533775
Si Si6 0.096038 0.816602 0.136392
Si Si7 0.739355 0.522563 0.426002
O O1 0.500000 0.546092 0.250000
O O2 0.593206 0.285462 0.476966
O O3 0.711531 0.525838 0.497767
O O4 0.601586 0.779338 0.490163
O O5 0.965326 0.780504 0.795364
O O6 0.948079 0.320820 0.827883
O O7 0.094696 0.612288 0.062100
O O8 0.124570 0.510394 0.937517
O O9 0.127100 0.966219 0.419487
O O10 0.693389 0.721983 0.835431
O O11 0.700326 0.225841 0.844448
O O12 0.678162 0.971847 0.953749
O O13 0.780931 0.063684 0.717532
O O14 0.000000 0.000000 0.000000
#
# Coordination Sequence:
#
# PCOD9229785 Si02
#       7
#     4   4   2   4   4   4   4
#     4  10  21  41  66  95 120 155 213 283 325 354
#     4  10  24  37  56  85 129 167 210 247 302 374
#     4  10  20  34  56  82 118 164 210 250 292 352
#     4   9  19  30  51  82 115 148 194 243 297 349
#     4  10  22  36  62  88 125 163 205 255 318 380
#     4  11  25  39  57  88 134 178 206 239 311 394
#     4   9  20  35  54  87 114 153 198 254 305 362
#
# _framework density 25.606221999999999
#
# number of rings (size 3 to 8) (size 9 to 14) (size 15 to 20)
#    0.000    2.154    0.000    1.385   21.538    0.615 
#    0.000    0.000    0.000    1.846    0.000    0.000 
#    0.000    0.000    0.000    0.000    0.000    0.000 
#
# Total GULP energy -145081.742041 kJ/mol
# GULP energy per Si atom -5580.067002 kJ/mol
# Density = 2.554794 g / cm^3
# Si number density = 25.606222 Si / 1000 Ang^3
#
#
#
# Elastic Constant Matrix: (Units=GPa)
#
#
# Indices 1 2 3 4 5 6 
#
# 1 39.9490 -10.1914 -5.1777 0.0000 2.4668 0.0000
# 2 -10.1914 284.4915 44.4756 0.0000 0.1937 0.0000
# 3 -5.1777 44.4756 100.7386 0.0000 9.6634 0.0000
# 4 0.0000 0.0000 0.0000 20.4976 0.0000 -6.2682
# 5 2.4668 0.1937 9.6634 0.0000 20.4434 0.0000
# 6 0.0000 0.0000 0.0000 -6.2682 0.0000 7.5233
#
#
#
# Elastic Compliance Matrix: (Units=1/GPa)
#
#
# Indices 1 2 3 4 5 6 
#
# 1 0.025620 0.000707 0.001364 0.000000 -0.003743 0.000000
# 2 0.000707 0.003807 -0.001710 0.000000 0.000687 0.000000
# 3 0.001364 -0.001710 0.011278 0.000000 -0.005479 0.000000
# 4 0.000000 0.000000 0.000000 0.065466 0.000000 0.054544
# 5 -0.003743 0.000687 -0.005479 0.000000 0.051951 0.000000
# 6 0.000000 0.000000 0.000000 0.054544 0.000000 0.178364
#
#
# Mechanical properties :
#
#
# Convention : Reuss Voigt Hill
#
# Bulk Modulus (GPa) = 24.13965 53.71023 38.92494
# Shear Modulus (GPa) = 14.30312 36.09770 25.20041
#
# Velocity S-wave (km/s) = 2.36599 3.75870 3.14052
# Velocity P-wave (km/s) = 4.11237 6.31333 5.32775
#
# Compressibility (1/GPa) = 0.04142562
#
# Stress axis : x y z
#
# Youngs Moduli (GPa) = 39.03174 262.65248 88.67201
#
# Poissons Ratio (x) = -0.18574 -0.12091
# Poissons Ratio (y) = -0.02760 0.15167
# Poissons Ratio (z) = -0.05322 0.44926
#
# Static dielectric constant tensor:
#      x y z
#    x 2.089380 0.000000 -0.004210 
#    y 0.000000 2.226800 0.000000 
#    z -0.004210 0.000000 2.059990 
# 
# From -- ./inp_files/70991.got.cif
#   From: 2010.05.17/outbox.cif.g08.bks.cpg/sg13_36_cif.got.tgz:70991.got - 2010.06.03 16:44:36.
