data_PCOD9229133
_publ_section_title
;
Structure prediction by ZEFSAII (Michael W. Deem and Ramdas Pophale) SiO2 
 PCOD9229133
Probable space group: P 2/C
;
_chemical_formula_sum "Si O2"
_cell_formula_units_Z 18
_cell_length_a 7.209984
_cell_length_b 11.992596
_cell_length_c 8.168168
_cell_angle_alpha 90.000000
_cell_angle_beta 73.373329
_cell_angle_gamma 90.000000
_cell_volume 676.742679
_symmetry_space_group_name_H-M "P 2/C"
_symmetry_group_IT_number 13
_symmetry_cell_setting 'monoclinic'
loop_
_space_group_symop_operation_xyz
x,y,z
-x,y,1/2-z
-x,-y,-z
x,-y,1/2+z
loop_
_atom_site_type_symbol
_atom_site_label
_atom_site_fract_x
_atom_site_fract_y
_atom_site_fract_z
Si Si1 0.769452 0.331273 0.798740
Si Si2 0.716398 0.098657 0.642850
Si Si3 0.000000 0.686669 0.750000
Si Si4 0.723282 0.137627 0.249843
Si Si5 0.778402 0.478565 0.502967
O O1 0.752750 0.202315 0.755733
O O2 0.693913 0.401637 0.663595
O O3 0.687963 0.404318 0.971108
O O4 0.000000 0.347737 0.750000
O O5 0.500000 0.068870 0.750000
O O6 0.722633 0.131268 0.449671
O O7 0.808361 0.978743 0.657936
O O8 0.883766 0.770013 0.658412
O O9 0.823030 0.607226 0.845572
O O10 0.500000 0.160842 0.250000
O O11 0.000000 0.500000 0.500000
#
# Coordination Sequence:
#
# PCOD9229133 Si02
#       5
#     4   4   2   4   4
#     4  10  21  38  65  92 127 167 216 264 319 384
#     4  11  24  45  63  93 132 173 213 270 327 379
#     4  12  22  40  70  96 126 174 218 254 334 380
#     4  11  26  44  66  95 135 169 217 272 320 383
#     4  10  19  37  63  93 130 164 213 269 315 380
#
# _framework density 26.597996999999999
#
# number of rings (size 3 to 8) (size 9 to 14) (size 15 to 20)
#    0.000    1.333    5.556    2.667    1.556    8.000 
#    0.000    2.222    0.000    0.000    0.000    0.000 
#    0.000    0.000    0.000    0.000    0.000    0.000 
#
# Total GULP energy -100384.813561 kJ/mol
# GULP energy per Si atom -5576.934087 kJ/mol
# Density = 2.653746 g / cm^3
# Si number density = 26.597997 Si / 1000 Ang^3
#
#
#
# Elastic Constant Matrix: (Units=GPa)
#
#
# Indices 1 2 3 4 5 6 
#
# 1 94.3808 32.7388 8.9878 0.0000 -1.3107 0.0000
# 2 32.7388 182.4015 14.7663 0.0000 32.7189 0.0000
# 3 8.9878 14.7663 52.0979 0.0000 5.1734 0.0000
# 4 0.0000 0.0000 0.0000 41.8029 0.0000 5.3414
# 5 -1.3107 32.7189 5.1734 0.0000 29.9209 0.0000
# 6 0.0000 0.0000 0.0000 5.3414 0.0000 -34.4178
#
#
#
# Elastic Compliance Matrix: (Units=1/GPa)
#
#
# Indices 1 2 3 4 5 6 
#
# 1 0.011714 -0.002628 -0.001641 0.000000 0.003671 0.000000
# 2 -0.002628 0.007486 -0.000859 0.000000 -0.008153 0.000000
# 3 -0.001641 -0.000859 0.019978 0.000000 -0.002587 0.000000
# 4 0.000000 0.000000 0.000000 0.023457 0.000000 0.003640
# 5 0.003671 -0.008153 -0.002587 0.000000 0.042945 0.000000
# 6 0.000000 0.000000 0.000000 0.003640 0.000000 -0.028490
#
#
# Mechanical properties :
#
#
# Convention : Reuss Voigt Hill
#
# Bulk Modulus (GPa) = 34.57430 49.09624 41.83527
# Shear Modulus (GPa) = 51.55381 25.62035 38.58708
#
# Velocity S-wave (km/s) = 4.40734 3.10698 3.81301
# Velocity P-wave (km/s) = 6.23912 5.60088 5.92859
#
# Compressibility (1/GPa) = 0.02892322
#
# Stress axis : x y z
#
# Youngs Moduli (GPa) = 85.36611 133.58084 50.05520
#
# Poissons Ratio (x) = 0.35108 0.08212
# Poissons Ratio (y) = 0.22436 0.04299
# Poissons Ratio (z) = 0.14004 0.11472
#
# Static dielectric constant tensor:
#      x y z
#    x 2.156050 0.000000 -0.001500 
#    y 0.000000 2.339660 0.000000 
#    z -0.001500 0.000000 2.397550 
# 
# From -- ./inp_files/11268.got.cif
#   From: 2010.05.17/outbox.cif.g08.bks.cpg/sg13_6_cif.got.tgz:11268.got - 2010.06.03 16:44:36.
