data_PCOD9229797
_publ_section_title
;
Structure prediction by ZEFSAII (Michael W. Deem and Ramdas Pophale) SiO2 
 PCOD9229797
Probable space group: P 2/C
;
_chemical_formula_sum "Si O2"
_cell_formula_units_Z 20
_cell_length_a 11.215252
_cell_length_b 10.004219
_cell_length_c 8.316222
_cell_angle_alpha 90.000000
_cell_angle_beta 61.848409
_cell_angle_gamma 90.000000
_cell_volume 822.697771
_symmetry_space_group_name_H-M "P 2/C"
_symmetry_group_IT_number 13
_symmetry_cell_setting 'monoclinic'
loop_
_space_group_symop_operation_xyz
x,y,z
-x,y,1/2-z
-x,-y,-z
x,-y,1/2+z
loop_
_atom_site_type_symbol
_atom_site_label
_atom_site_fract_x
_atom_site_fract_y
_atom_site_fract_z
Si Si1 0.911193 0.370176 0.063469
Si Si2 0.160626 0.835975 0.116075
Si Si3 0.358191 0.672250 0.571062
Si Si4 0.266012 0.054187 0.209262
Si Si5 0.500000 0.496685 0.250000
Si Si6 0.000000 0.826701 0.750000
O O1 0.789991 0.367524 0.269209
O O2 0.009001 0.258154 0.080608
O O3 0.846484 0.319417 0.937000
O O4 0.000000 0.500000 0.000000
O O5 0.000000 0.858713 0.250000
O O6 0.261613 0.894348 0.187980
O O7 0.226420 0.902141 0.913301
O O8 0.370830 0.834313 0.577401
O O9 0.385335 0.599061 0.385986
O O10 0.457456 0.601774 0.634478
O O11 0.133844 0.089103 0.187646
#
# Coordination Sequence:
#
# PCOD9229797 Si02
#       6
#     4   4   4   4   2   2
#     4  10  23  34  57  93 128 157 194 250 310 371
#     4  10  20  34  56  84 127 167 194 231 303 380
#     4   9  22  38  64  88 119 159 209 258 304 364
#     4  10  20  36  56  85 120 161 200 241 294 367
#     4  10  20  44  64  84 118 164 212 260 310 346
#     4   8  18  32  48  78 128 152 188 238 278 370
#
# _framework density 24.310262999999999
#
# number of rings (size 3 to 8) (size 9 to 14) (size 15 to 20)
#    0.000    2.800    1.000    0.600    9.800    1.600 
#    0.000    8.000    0.000   14.400    0.000    0.000 
#    0.000    0.000    0.000    0.000    0.000    0.000 
#
# Total GULP energy -111343.770506 kJ/mol
# GULP energy per Si atom -5567.188525 kJ/mol
# Density = 2.425493 g / cm^3
# Si number density = 24.310263 Si / 1000 Ang^3
#
#
#
# Elastic Constant Matrix: (Units=GPa)
#
#
# Indices 1 2 3 4 5 6 
#
# 1 15.7607 -0.2238 -11.0837 0.0000 1.3677 0.0000
# 2 -0.2238 101.2756 31.0318 0.0000 0.5436 0.0000
# 3 -11.0837 31.0318 42.6327 0.0000 -12.5730 0.0000
# 4 0.0000 0.0000 0.0000 19.0713 0.0000 5.4507
# 5 1.3677 0.5436 -12.5730 0.0000 22.9959 0.0000
# 6 0.0000 0.0000 0.0000 5.4507 0.0000 15.3166
#
#
#
# Elastic Compliance Matrix: (Units=1/GPa)
#
#
# Indices 1 2 3 4 5 6 
#
# 1 0.085890 -0.010239 0.033797 0.000000 0.013612 0.000000
# 2 -0.010239 0.014768 -0.015898 0.000000 -0.008433 0.000000
# 3 0.033797 -0.015898 0.051664 0.000000 0.026613 0.000000
# 4 0.000000 0.000000 0.000000 0.058372 0.000000 -0.020773
# 5 0.013612 -0.008433 0.026613 0.000000 0.057426 0.000000
# 6 0.000000 0.000000 0.000000 -0.020773 0.000000 0.072681
#
#
# Mechanical properties :
#
#
# Convention : Reuss Voigt Hill
#
# Bulk Modulus (GPa) = 5.96511 22.12415 14.04463
# Shear Modulus (GPa) = 13.11090 20.80639 16.95865
#
# Velocity S-wave (km/s) = 2.32484 2.92870 2.64406
# Velocity P-wave (km/s) = 3.10895 4.53397 3.88731
#
# Compressibility (1/GPa) = 0.16764156
#
# Stress axis : x y z
#
# Youngs Moduli (GPa) = 11.64277 67.71360 19.35598
#
# Poissons Ratio (x) = 0.69332 -0.65418
# Poissons Ratio (y) = 0.11921 0.30773
# Poissons Ratio (z) = -0.39349 1.07653
#
# Static dielectric constant tensor:
#      x y z
#    x 1.959290 0.000000 0.031950 
#    y 0.000000 2.358320 0.000000 
#    z 0.031950 0.000000 1.977000 
# 
# From -- ./inp_files/15759.got.cif
#   From: 2010.05.17/outbox.cif.g08.bks.cpg/sg13_8_cif.got.tgz:15759.got - 2010.06.03 16:44:36.
