data_PCOD9229576
_publ_section_title
;
Structure prediction by ZEFSAII (Michael W. Deem and Ramdas Pophale) SiO2 
 PCOD9229576
Probable space group: P 2/C
;
_chemical_formula_sum "Si O2"
_cell_formula_units_Z 24
_cell_length_a 11.299466
_cell_length_b 6.226466
_cell_length_c 18.121380
_cell_angle_alpha 90.000000
_cell_angle_beta 86.936616
_cell_angle_gamma 90.000000
_cell_volume 1273.121256
_symmetry_space_group_name_H-M "P 2/C"
_symmetry_group_IT_number 13
_symmetry_cell_setting 'monoclinic'
loop_
_space_group_symop_operation_xyz
x,y,z
-x,y,1/2-z
-x,-y,-z
x,-y,1/2+z
loop_
_atom_site_type_symbol
_atom_site_label
_atom_site_fract_x
_atom_site_fract_y
_atom_site_fract_z
Si Si1 0.368901 0.423194 0.225535
Si Si2 0.319652 0.655473 0.488747
Si Si3 0.703861 0.286141 0.117617
Si Si4 0.461164 0.901111 0.596559
Si Si5 0.715241 0.718238 0.391002
Si Si6 0.861428 0.958968 0.501056
O O1 0.500000 0.497145 0.250000
O O2 0.295448 0.320912 0.295253
O O3 0.402055 0.243188 0.163510
O O4 0.292017 0.608200 0.188645
O O5 0.338068 0.514858 0.415257
O O6 0.427456 0.788403 0.520404
O O7 0.294013 0.475711 0.551095
O O8 0.211142 0.820092 0.486087
O O9 0.600336 0.114515 0.104466
O O10 0.816234 0.201648 0.067732
O O11 0.398885 0.128883 0.602186
O O12 0.820370 0.861254 0.422982
O O13 0.000000 0.000000 0.500000
#
# Coordination Sequence:
#
# PCOD9229576 Si02
#       6
#     4   4   4   4   4   4
#     4   9  19  33  52  81 113 143 177 223 287 355
#     4   9  19  34  55  79 106 138 183 231 279 334
#     4  10  20  32  54  84 112 143 182 228 282 345
#     4   9  18  33  52  81 114 142 173 222 287 346
#     4   9  19  35  57  79 111 148 180 227 285 343
#     4  10  22  38  57  79 108 149 198 246 283 321
#
# _framework density 18.851306000000001
#
# number of rings (size 3 to 8) (size 9 to 14) (size 15 to 20)
#    0.000    2.667    0.000    0.500    0.000   17.333 
#    0.000    0.000    0.000   24.000    0.000    0.000 
#    0.000    0.000    0.000    0.000    0.000    0.000 
#
# Total GULP energy -133807.640466 kJ/mol
# GULP energy per Si atom -5575.318353 kJ/mol
# Density = 1.880840 g / cm^3
# Si number density = 18.851306 Si / 1000 Ang^3
#
#
#
# Elastic Constant Matrix: (Units=GPa)
#
#
# Indices 1 2 3 4 5 6 
#
# 1 108.4182 33.8747 55.3560 0.0000 0.7394 0.0000
# 2 33.8747 79.0612 37.5699 0.0000 6.5707 0.0000
# 3 55.3560 37.5699 119.0185 0.0000 -1.6437 0.0000
# 4 0.0000 0.0000 0.0000 32.0194 0.0000 6.3971
# 5 0.7394 6.5707 -1.6437 0.0000 15.8477 0.0000
# 6 0.0000 0.0000 0.0000 6.3971 0.0000 13.9031
#
#
#
# Elastic Compliance Matrix: (Units=1/GPa)
#
#
# Indices 1 2 3 4 5 6 
#
# 1 0.012712 -0.003123 -0.004924 0.000000 0.000191 0.000000
# 2 -0.003123 0.016386 -0.003817 0.000000 -0.007044 0.000000
# 3 -0.004924 -0.003817 0.011939 0.000000 0.003051 0.000000
# 4 0.000000 0.000000 0.000000 0.034393 0.000000 -0.015825
# 5 0.000191 -0.007044 0.003051 0.000000 0.066328 0.000000
# 6 0.000000 0.000000 0.000000 -0.015825 0.000000 0.079208
#
#
# Mechanical properties :
#
#
# Convention : Reuss Voigt Hill
#
# Bulk Modulus (GPa) = 57.77288 62.23322 60.00305
# Shear Modulus (GPa) = 19.96297 24.33387 22.14842
#
# Velocity S-wave (km/s) = 3.25771 3.59671 3.43140
# Velocity P-wave (km/s) = 6.69802 7.09456 6.89914
#
# Compressibility (1/GPa) = 0.01730916
#
# Stress axis : x y z
#
# Youngs Moduli (GPa) = 78.66586 61.02869 83.75623
#
# Poissons Ratio (x) = 0.19056 0.41242
# Poissons Ratio (y) = 0.24564 0.31973
# Poissons Ratio (z) = 0.38736 0.23297
#
# Static dielectric constant tensor:
#      x y z
#    x 1.637350 0.000000 0.006950 
#    y 0.000000 1.697970 0.000000 
#    z 0.006950 0.000000 1.691790 
# 
# From -- ./inp_files/65367.got.cif
#   From: 2010.05.17/outbox.cif.g08.bks.cpg/sg13_33_cif.got.tgz:65367.got - 2010.06.03 16:44:36.
