data_PCOD9229836
_publ_section_title
;
Structure prediction by ZEFSAII (Michael W. Deem and Ramdas Pophale) SiO2 
 PCOD9229836
Probable space group: P 2/C
;
_chemical_formula_sum "Si O2"
_cell_formula_units_Z 22
_cell_length_a 16.383228
_cell_length_b 6.991598
_cell_length_c 7.163468
_cell_angle_alpha 90.000000
_cell_angle_beta 69.679237
_cell_angle_gamma 90.000000
_cell_volume 769.471276
_symmetry_space_group_name_H-M "P 2/C"
_symmetry_group_IT_number 13
_symmetry_cell_setting 'monoclinic'
loop_
_space_group_symop_operation_xyz
x,y,z
-x,y,1/2-z
-x,-y,-z
x,-y,1/2+z
loop_
_atom_site_type_symbol
_atom_site_label
_atom_site_fract_x
_atom_site_fract_y
_atom_site_fract_z
Si Si1 0.931952 0.242638 0.025954
Si Si2 0.603647 0.772202 0.012593
Si Si3 0.704058 0.723825 0.251027
Si Si4 0.741955 0.838020 0.620405
Si Si5 0.500000 0.864623 0.750000
Si Si6 0.103578 0.674393 0.519173
O O1 0.905505 0.246927 0.265608
O O2 0.035961 0.200062 0.946036
O O3 0.845757 0.149780 0.007993
O O4 0.929308 0.457375 0.949290
O O5 0.539784 0.742563 0.887549
O O6 0.698732 0.745778 0.838380
O O7 0.620623 0.662973 0.194538
O O8 0.568188 0.983467 0.103564
O O9 0.700829 0.731895 0.475715
O O10 0.798770 0.644344 0.127060
O O11 0.715234 0.944046 0.176272
#
# Coordination Sequence:
#
# PCOD9229836 Si02
#       6
#     4   4   4   4   2   4
#     4  10  21  38  58  84 119 159 200 237 279 339
#     4  11  20  36  53  88 117 145 191 236 297 356
#     4  12  21  36  58  85 123 151 194 243 289 340
#     4  12  21  36  58  85 123 151 194 243 289 340
#     4  10  20  34  58  80 122 150 180 246 304 352
#     4  10  21  38  58  84 119 159 200 237 279 339
#
# _framework density 28.591059999999999
#
# number of rings (size 3 to 8) (size 9 to 14) (size 15 to 20)
#    0.000    1.091    5.455    1.091    2.545    2.909 
#    0.000    0.000    0.000    0.000    0.000    3.818 
#    0.000    0.000    0.000    0.000    0.000    0.000 
#
# Total GULP energy -122881.582031 kJ/mol
# GULP energy per Si atom -5585.526456 kJ/mol
# Density = 2.852599 g / cm^3
# Si number density = 28.591060 Si / 1000 Ang^3
#
#
#
# Elastic Constant Matrix: (Units=GPa)
#
#
# Indices 1 2 3 4 5 6 
#
# 1 160.2815 17.4948 50.2805 0.0000 17.6608 0.0000
# 2 17.4948 49.9352 14.0728 0.0000 -0.3962 0.0000
# 3 50.2805 14.0728 164.7831 0.0000 1.3040 0.0000
# 4 0.0000 0.0000 0.0000 75.1435 0.0000 43.0949
# 5 17.6608 -0.3962 1.3040 0.0000 61.7375 0.0000
# 6 0.0000 0.0000 0.0000 43.0949 0.0000 105.0105
#
#
#
# Elastic Compliance Matrix: (Units=1/GPa)
#
#
# Indices 1 2 3 4 5 6 
#
# 1 0.007328 -0.002007 -0.002048 0.000000 -0.002066 0.000000
# 2 -0.002007 0.021071 -0.001193 0.000000 0.000734 0.000000
# 3 -0.002048 -0.001193 0.006792 0.000000 0.000435 0.000000
# 4 0.000000 0.000000 0.000000 0.017404 0.000000 -0.007142
# 5 -0.002066 0.000734 0.000435 0.000000 0.016784 0.000000
# 6 0.000000 0.000000 0.000000 -0.007142 0.000000 0.012454
#
#
# Mechanical properties :
#
#
# Convention : Reuss Voigt Hill
#
# Bulk Modulus (GPa) = 40.49344 59.85510 50.17427
# Shear Modulus (GPa) = 49.72093 67.92174 58.82133
#
# Velocity S-wave (km/s) = 4.17470 4.87933 4.54070
# Velocity P-wave (km/s) = 6.11811 7.26114 6.71399
#
# Compressibility (1/GPa) = 0.02469536
#
# Stress axis : x y z
#
# Youngs Moduli (GPa) = 136.45813 47.45852 147.23090
#
# Poissons Ratio (x) = 0.09523 0.30158
# Poissons Ratio (y) = 0.27381 0.17565
# Poissons Ratio (z) = 0.27952 0.05662
#
# Static dielectric constant tensor:
#      x y z
#    x 2.404280 0.000000 0.042660 
#    y 0.000000 2.350550 0.000000 
#    z 0.042660 0.000000 2.197580 
# 
# From -- ./inp_files/20752.got.cif
#   From: 2010.05.17/outbox.cif.g08.bks.cpg/sg13_11_cif.got.tgz:20752.got - 2010.06.03 16:44:36.
