data_PCOD9229638
_publ_section_title
;
Structure prediction by ZEFSAII (Michael W. Deem and Ramdas Pophale) SiO2 
 PCOD9229638
Probable space group: P 2/C
;
_chemical_formula_sum "Si O2"
_cell_formula_units_Z 28
_cell_length_a 6.050021
_cell_length_b 15.030572
_cell_length_c 17.128675
_cell_angle_alpha 90.000000
_cell_angle_beta 116.760663
_cell_angle_gamma 90.000000
_cell_volume 1390.774213
_symmetry_space_group_name_H-M "P 2/C"
_symmetry_group_IT_number 13
_symmetry_cell_setting 'monoclinic'
loop_
_space_group_symop_operation_xyz
x,y,z
-x,y,1/2-z
-x,-y,-z
x,-y,1/2+z
loop_
_atom_site_type_symbol
_atom_site_label
_atom_site_fract_x
_atom_site_fract_y
_atom_site_fract_z
Si Si1 0.916870 0.141196 0.501213
Si Si2 0.783998 0.420665 0.364963
Si Si3 0.213436 0.986864 0.929063
Si Si4 0.500000 0.731213 0.750000
Si Si5 0.343405 0.172208 0.361344
Si Si6 0.795403 0.702097 0.515381
Si Si7 0.528280 0.556166 0.084389
Si Si8 0.000000 0.496847 0.750000
O O1 0.639500 0.159509 0.424996
O O2 0.064783 0.075893 0.465961
O O3 0.069544 0.232122 0.523059
O O4 0.897373 0.085493 0.578596
O O5 0.614624 0.333332 0.333077
O O6 0.652955 0.503219 0.385095
O O7 0.845078 0.444422 0.285747
O O8 0.031888 0.383987 0.443250
O O9 0.225439 0.924992 0.855139
O O10 0.500000 0.000000 0.000000
O O11 0.688195 0.791334 0.731041
O O12 0.247083 0.242386 0.411387
O O13 0.547732 0.657320 0.444349
O O14 0.801533 0.553124 0.164682
O O15 0.500000 0.500000 0.000000
#
# Coordination Sequence:
#
# PCOD9229638 Si02
#       8
#     4   4   4   2   4   4   4   2
#     4   9  17  32  55  79 119 146 186 256 294 362
#     4  12  23  40  57  84 127 167 202 258 320 373
#     4   8  16  32  52  80 118 143 187 242 300 365
#     4  12  20  34  54  82 130 164 190 236 314 384
#     4  10  20  33  52  89 125 154 195 238 311 383
#     4  11  22  35  58  85 119 158 209 255 305 368
#     4  12  25  39  59  85 122 167 217 266 316 378
#     4  12  24  40  58  78 122 168 212 270 324 364
#
# _framework density 20.132670000000001
#
# number of rings (size 3 to 8) (size 9 to 14) (size 15 to 20)
#    0.000    1.429    4.286    2.143    0.000    0.000 
#    0.000    0.000    0.000    0.000    0.000    0.000 
#  355.714    0.000    0.000    0.000    0.000    0.286 
#
# Total GULP energy -156115.003064 kJ/mol
# GULP energy per Si atom -5575.535824 kJ/mol
# Density = 2.008685 g / cm^3
# Si number density = 20.132670 Si / 1000 Ang^3
#
#
#
# Elastic Constant Matrix: (Units=GPa)
#
#
# Indices 1 2 3 4 5 6 
#
# 1 76.4541 26.4938 18.2666 0.0000 -5.9781 0.0000
# 2 26.4938 86.4076 33.5598 0.0000 -6.6468 0.0000
# 3 18.2666 33.5598 63.6876 0.0000 7.8246 0.0000
# 4 0.0000 0.0000 0.0000 16.4792 0.0000 -5.8751
# 5 -5.9781 -6.6468 7.8246 0.0000 40.0901 0.0000
# 6 0.0000 0.0000 0.0000 -5.8751 0.0000 34.2980
#
#
#
# Elastic Compliance Matrix: (Units=1/GPa)
#
#
# Indices 1 2 3 4 5 6 
#
# 1 0.015096 -0.003353 -0.002839 0.000000 0.002249 0.000000
# 2 -0.003353 0.015952 -0.007897 0.000000 0.003686 0.000000
# 3 -0.002839 -0.007897 0.021403 0.000000 -0.005910 0.000000
# 4 0.000000 0.000000 0.000000 0.064630 0.000000 0.011071
# 5 0.002249 0.003686 -0.005910 0.000000 0.027044 0.000000
# 6 0.000000 0.000000 0.000000 0.011071 0.000000 0.031053
#
#
# Mechanical properties :
#
#
# Convention : Reuss Voigt Hill
#
# Bulk Modulus (GPa) = 41.19831 42.57662 41.88747
# Shear Modulus (GPa) = 23.64673 28.05540 25.85107
#
# Velocity S-wave (km/s) = 3.43088 3.73705 3.58723
# Velocity P-wave (km/s) = 6.01685 6.30988 6.16511
#
# Compressibility (1/GPa) = 0.02427284
#
# Stress axis : x y z
#
# Youngs Moduli (GPa) = 66.24330 62.68938 46.72173
#
# Poissons Ratio (x) = 0.21019 0.13266
# Poissons Ratio (y) = 0.22210 0.36895
# Poissons Ratio (z) = 0.18809 0.49505
#
# Static dielectric constant tensor:
#      x y z
#    x 1.837230 0.000000 0.041580 
#    y 0.000000 1.721120 0.000000 
#    z 0.041580 0.000000 1.746230 
# 
# From -- ./inp_files/61710.got.cif
#   From: 2010.05.17/outbox.cif.g08.bks.cpg/sg13_31_cif.got.tgz:61710.got - 2010.06.03 16:44:36.
