data_PCOD9229436
_publ_section_title
;
Structure prediction by ZEFSAII (Michael W. Deem and Ramdas Pophale) SiO2 
 PCOD9229436
Probable space group: P 2/C
;
_chemical_formula_sum "Si O2"
_cell_formula_units_Z 20
_cell_length_a 25.399389
_cell_length_b 8.252960
_cell_length_c 15.603948
_cell_angle_alpha 90.000000
_cell_angle_beta 15.280739
_cell_angle_gamma 90.000000
_cell_volume 862.042181
_symmetry_space_group_name_H-M "P 2/C"
_symmetry_group_IT_number 13
_symmetry_cell_setting 'monoclinic'
loop_
_space_group_symop_operation_xyz
x,y,z
-x,y,1/2-z
-x,-y,-z
x,-y,1/2+z
loop_
_atom_site_type_symbol
_atom_site_label
_atom_site_fract_x
_atom_site_fract_y
_atom_site_fract_z
Si Si1 0.738962 0.862613 0.856702
Si Si2 0.500000 0.703618 0.750000
Si Si3 0.127252 0.506750 0.887029
Si Si4 0.703780 0.948250 0.565498
Si Si5 0.000000 0.317577 0.250000
Si Si6 0.265116 0.013786 0.808087
O O1 0.813201 0.694165 0.702936
O O2 0.803382 0.987467 0.682012
O O3 0.500000 0.854501 0.250000
O O4 0.813946 0.923349 0.831558
O O5 0.668058 0.594333 0.442534
O O6 0.621898 0.809579 0.629571
O O7 0.000000 0.500000 0.000000
O O8 0.009530 0.430791 0.151611
O O9 0.800543 0.907589 0.505824
O O10 0.497546 0.024648 0.924496
O O11 0.810849 0.193681 0.548119
#
# Coordination Sequence:
#
# PCOD9229436 Si02
#       6
#     4   2   4   4   2   4
#     4  10  20  42  67  95 130 171 226 272 329 399
#     4  12  22  46  68  96 134 184 226 276 332 410
#     4  12  27  44  66 100 143 179 217 276 347 404
#     4  10  19  40  67  95 118 176 226 268 326 389
#     4  12  24  44  64 106 140 168 228 280 334 406
#     4  10  21  37  66  93 130 167 221 278 326 383
#
# _framework density 23.200721999999999
#
# number of rings (size 3 to 8) (size 9 to 14) (size 15 to 20)
#    0.000    1.200    6.000    1.200    0.000    4.000 
#    0.000    6.000    0.000    0.000    0.000    0.000 
#    0.000    0.000    0.000    0.000    0.000    0.000 
#
# Total GULP energy -111434.349246 kJ/mol
# GULP energy per Si atom -5571.717462 kJ/mol
# Density = 2.314792 g / cm^3
# Si number density = 23.200722 Si / 1000 Ang^3
#
#
#
# Elastic Constant Matrix: (Units=GPa)
#
#
# Indices 1 2 3 4 5 6 
#
# 1 160.4074 55.0181 52.1947 0.0000 51.9978 0.0000
# 2 55.0181 103.3517 52.9044 0.0000 33.5073 0.0000
# 3 52.1947 52.9044 121.3271 0.0000 32.7756 0.0000
# 4 0.0000 0.0000 0.0000 38.9971 0.0000 19.5500
# 5 51.9978 33.5073 32.7756 0.0000 55.2808 0.0000
# 6 0.0000 0.0000 0.0000 19.5500 0.0000 17.0428
#
#
#
# Elastic Compliance Matrix: (Units=1/GPa)
#
#
# Indices 1 2 3 4 5 6 
#
# 1 0.009688 -0.002220 -0.001312 0.000000 -0.006989 0.000000
# 2 -0.002220 0.014334 -0.004182 0.000000 -0.004121 0.000000
# 3 -0.001312 -0.004182 0.011445 0.000000 -0.003017 0.000000
# 4 0.000000 0.000000 0.000000 0.060346 0.000000 -0.069223
# 5 -0.006989 -0.004121 -0.003017 0.000000 0.028950 0.000000
# 6 0.000000 0.000000 0.000000 -0.069223 0.000000 0.138083
#
#
# Mechanical properties :
#
#
# Convention : Reuss Voigt Hill
#
# Bulk Modulus (GPa) = 49.90048 78.36896 64.13472
# Shear Modulus (GPa) = 17.54670 37.26208 27.40439
#
# Velocity S-wave (km/s) = 2.75307 4.01193 3.44057
# Velocity P-wave (km/s) = 5.62679 7.43726 6.59445
#
# Compressibility (1/GPa) = 0.02003989
#
# Stress axis : x y z
#
# Youngs Moduli (GPa) = 103.22021 69.76308 87.37347
#
# Poissons Ratio (x) = 0.15486 0.11460
# Poissons Ratio (y) = 0.22913 0.36542
# Poissons Ratio (z) = 0.13539 0.29177
#
# Static dielectric constant tensor:
#      x y z
#    x 2.129520 0.000000 -0.143160 
#    y 0.000000 1.922300 0.000000 
#    z -0.143160 0.000000 1.925420 
# 
# From -- ./inp_files/58587.got.cif
#   From: 2010.05.17/outbox.cif.g08.bks.cpg/sg13_30_cif.got.tgz:58587.got - 2010.06.03 16:44:36.
