data_PCOD9229186
_publ_section_title
;
Structure prediction by ZEFSAII (Michael W. Deem and Ramdas Pophale) SiO2 
 PCOD9229186
Probable space group: P 2/C
;
_chemical_formula_sum "Si O2"
_cell_formula_units_Z 20
_cell_length_a 13.168644
_cell_length_b 5.335644
_cell_length_c 13.037287
_cell_angle_alpha 90.000000
_cell_angle_beta 62.386543
_cell_angle_gamma 90.000000
_cell_volume 811.699517
_symmetry_space_group_name_H-M "P 2/C"
_symmetry_group_IT_number 13
_symmetry_cell_setting 'monoclinic'
loop_
_space_group_symop_operation_xyz
x,y,z
-x,y,1/2-z
-x,-y,-z
x,-y,1/2+z
loop_
_atom_site_type_symbol
_atom_site_label
_atom_site_fract_x
_atom_site_fract_y
_atom_site_fract_z
Si Si1 0.190194 0.080531 0.928120
Si Si2 0.555028 0.237320 0.337139
Si Si3 0.638878 0.737587 0.392278
Si Si4 0.002312 0.800742 0.369029
Si Si5 0.215457 0.577137 0.994900
O O1 0.262019 0.305976 0.943302
O O2 0.079292 0.025151 0.052702
O O3 0.247323 0.806903 0.904467
O O4 0.128907 0.172108 0.854099
O O5 0.500000 0.213544 0.250000
O O6 0.613599 0.506549 0.328667
O O7 0.455639 0.242508 0.471894
O O8 0.631930 0.997315 0.333741
O O9 0.748388 0.664997 0.409460
O O10 0.923162 0.570582 0.444312
O O11 0.000000 0.800395 0.250000
#
# Coordination Sequence:
#
# PCOD9229186 Si02
#       5
#     4   4   4   4   4
#     4   9  20  36  53  74 115 144 179 224 273 311
#     4  10  21  40  60  83 114 150 180 228 292 344
#     4  10  21  38  60  84 116 144 185 236 278 329
#     4   9  20  36  55  78 110 151 182 221 273 322
#     4  10  19  38  54  81 110 144 183 231 264 322
#
# _framework density 24.639659999999999
#
# number of rings (size 3 to 8) (size 9 to 14) (size 15 to 20)
#    1.200    1.200    0.000    2.400    0.000    0.800 
#    7.200    0.000    0.000    0.000    0.000    0.000 
#    0.000    0.000    0.000    0.000    0.000    0.000 
#
# Total GULP energy -111626.889620 kJ/mol
# GULP energy per Si atom -5581.344481 kJ/mol
# Density = 2.458358 g / cm^3
# Si number density = 24.639660 Si / 1000 Ang^3
#
#
#
# Elastic Constant Matrix: (Units=GPa)
#
#
# Indices 1 2 3 4 5 6 
#
# 1 79.4382 9.9746 12.3775 0.0000 15.6471 0.0000
# 2 9.9746 159.5589 30.4754 0.0000 9.4255 0.0000
# 3 12.3775 30.4754 102.0290 0.0000 15.9442 0.0000
# 4 0.0000 0.0000 0.0000 18.2683 0.0000 13.8594
# 5 15.6471 9.4255 15.9442 0.0000 34.1152 0.0000
# 6 0.0000 0.0000 0.0000 13.8594 0.0000 27.5714
#
#
#
# Elastic Compliance Matrix: (Units=1/GPa)
#
#
# Indices 1 2 3 4 5 6 
#
# 1 0.013914 -0.000395 -0.000636 0.000000 -0.005975 0.000000
# 2 -0.000395 0.006688 -0.001822 0.000000 -0.000815 0.000000
# 3 -0.000636 -0.001822 0.011110 0.000000 -0.004397 0.000000
# 4 0.000000 0.000000 0.000000 0.088483 0.000000 -0.044478
# 5 -0.005975 -0.000815 -0.004397 0.000000 0.034333 0.000000
# 6 0.000000 0.000000 0.000000 -0.044478 0.000000 0.058627
#
#
# Mechanical properties :
#
#
# Convention : Reuss Voigt Hill
#
# Bulk Modulus (GPa) = 38.45516 49.63121 44.04319
# Shear Modulus (GPa) = 21.97497 35.20424 28.58960
#
# Velocity S-wave (km/s) = 2.98963 3.78400 3.41003
# Velocity P-wave (km/s) = 5.24958 6.26722 5.78084
#
# Compressibility (1/GPa) = 0.02600431
#
# Stress axis : x y z
#
# Youngs Moduli (GPa) = 71.86946 149.51692 90.01072
#
# Poissons Ratio (x) = 0.05911 0.05726
# Poissons Ratio (y) = 0.02841 0.16404
# Poissons Ratio (z) = 0.04572 0.27248
#
# Static dielectric constant tensor:
#      x y z
#    x 2.010240 0.000000 -0.064880 
#    y 0.000000 1.996890 0.000000 
#    z -0.064880 0.000000 1.954110 
# 
# From -- ./inp_files/35414.got.cif
#   From: 2010.05.17/outbox.cif.g08.bks.cpg/sg13_18_cif.got.tgz:35414.got - 2010.06.03 16:44:36.
