data_PCOD9229115
_publ_section_title
;
Structure prediction by ZEFSAII (Michael W. Deem and Ramdas Pophale) SiO2 
 PCOD9229115
Probable space group: P 2/C
;
_chemical_formula_sum "Si O2"
_cell_formula_units_Z 24
_cell_length_a 21.184258
_cell_length_b 12.554197
_cell_length_c 12.665231
_cell_angle_alpha 90.000000
_cell_angle_beta 20.194663
_cell_angle_gamma 90.000000
_cell_volume 1162.785638
_symmetry_space_group_name_H-M "P 2/C"
_symmetry_group_IT_number 13
_symmetry_cell_setting 'monoclinic'
loop_
_space_group_symop_operation_xyz
x,y,z
-x,y,1/2-z
-x,-y,-z
x,-y,1/2+z
loop_
_atom_site_type_symbol
_atom_site_label
_atom_site_fract_x
_atom_site_fract_y
_atom_site_fract_z
Si Si1 0.304375 0.283861 0.640684
Si Si2 0.632751 0.070084 0.640368
Si Si3 0.796527 0.569878 0.021304
Si Si4 0.199290 0.338737 0.578435
Si Si5 0.910748 0.740257 0.682058
Si Si6 0.408771 0.854927 0.695210
O O1 0.315105 0.331456 0.506080
O O2 0.432967 0.188103 0.474609
O O3 0.321983 0.376414 0.700497
O O4 0.093696 0.241248 0.965995
O O5 0.500000 0.056196 0.750000
O O6 0.793135 0.152856 0.360093
O O7 0.690947 0.954443 0.592962
O O8 0.510256 0.115611 0.928605
O O9 0.767105 0.450430 0.029117
O O10 0.795764 0.650212 0.923627
O O11 0.000000 0.568714 0.750000
O O12 0.268726 0.241250 0.399946
O O13 0.995372 0.312055 0.942450
#
# Coordination Sequence:
#
# PCOD9229115 Si02
#       6
#     4   4   4   4   4   4
#     4   9  20  39  65  90 125 165 211 244 319 373
#     4  11  24  43  64  88 129 163 205 260 315 361
#     4  10  19  37  62  90 124 164 204 256 304 372
#     4  10  22  36  64  94 123 162 208 254 309 370
#     4   9  21  39  64  89 121 166 207 245 313 374
#     4  11  23  44  62  92 126 163 207 263 305 370
#
# _framework density 20.640090000000001
#
# number of rings (size 3 to 8) (size 9 to 14) (size 15 to 20)
#    1.000    1.000    1.667    2.000    0.000    2.667 
#    0.000    0.000    0.000    0.000    0.000    0.000 
#    0.000    0.000    0.000    0.000    0.000    0.000 
#
# Total GULP energy -133773.188668 kJ/mol
# GULP energy per Si atom -5573.882861 kJ/mol
# Density = 2.059311 g / cm^3
# Si number density = 20.640090 Si / 1000 Ang^3
#
#
#
# Elastic Constant Matrix: (Units=GPa)
#
#
# Indices 1 2 3 4 5 6 
#
# 1 40.9896 11.5289 8.2415 0.0000 8.5492 0.0000
# 2 11.5289 133.9930 28.1165 0.0000 6.6279 0.0000
# 3 8.2415 28.1165 38.9147 0.0000 9.8289 0.0000
# 4 0.0000 0.0000 0.0000 14.8188 0.0000 -12.6232
# 5 8.5492 6.6279 9.8289 0.0000 16.6907 0.0000
# 6 0.0000 0.0000 0.0000 -12.6232 0.0000 27.5175
#
#
#
# Elastic Compliance Matrix: (Units=1/GPa)
#
#
# Indices 1 2 3 4 5 6 
#
# 1 0.027774 -0.001415 -0.001655 0.000000 -0.012690 0.000000
# 2 -0.001415 0.008870 -0.006346 0.000000 0.000940 0.000000
# 3 -0.001655 -0.006346 0.034986 0.000000 -0.017235 0.000000
# 4 0.000000 0.000000 0.000000 0.110764 0.000000 0.050811
# 5 -0.012690 0.000940 -0.017235 0.000000 0.076190 0.000000
# 6 0.000000 0.000000 0.000000 0.050811 0.000000 0.059649
#
#
# Mechanical properties :
#
#
# Convention : Reuss Voigt Hill
#
# Bulk Modulus (GPa) = 18.94003 34.40790 26.67397
# Shear Modulus (GPa) = 14.09783 22.87277 18.48530
#
# Velocity S-wave (km/s) = 2.61632 3.33253 2.99591
# Velocity P-wave (km/s) = 4.28055 5.61376 4.99186
#
# Compressibility (1/GPa) = 0.05279823
#
# Stress axis : x y z
#
# Youngs Moduli (GPa) = 36.00520 112.73902 28.58261
#
# Poissons Ratio (x) = 0.15950 0.04730
# Poissons Ratio (y) = 0.05094 0.18140
# Poissons Ratio (z) = 0.05958 0.71550
#
# Static dielectric constant tensor:
#      x y z
#    x 1.743480 0.000000 0.029950 
#    y 0.000000 1.726250 0.000000 
#    z 0.029950 0.000000 1.844560 
# 
# From -- ./inp_files/58876.got.cif
#   From: 2010.05.17/outbox.cif.g08.bks.cpg/sg13_30_cif.got.tgz:58876.got - 2010.06.03 16:44:36.
