data_PCOD9229782
_publ_section_title
;
Structure prediction by ZEFSAII (Michael W. Deem and Ramdas Pophale) SiO2 
 PCOD9229782
Probable space group: P 2/C
;
_chemical_formula_sum "Si O2"
_cell_formula_units_Z 28
_cell_length_a 19.427974
_cell_length_b 11.932603
_cell_length_c 16.658637
_cell_angle_alpha 90.000000
_cell_angle_beta 158.318838
_cell_angle_gamma 90.000000
_cell_volume 1426.748938
_symmetry_space_group_name_H-M "P 2/C"
_symmetry_group_IT_number 13
_symmetry_cell_setting 'monoclinic'
loop_
_space_group_symop_operation_xyz
x,y,z
-x,y,1/2-z
-x,-y,-z
x,-y,1/2+z
loop_
_atom_site_type_symbol
_atom_site_label
_atom_site_fract_x
_atom_site_fract_y
_atom_site_fract_z
Si Si1 0.906637 0.091648 0.840852
Si Si2 0.711274 0.541705 0.745407
Si Si3 0.752803 0.308738 0.745825
Si Si4 0.449190 0.959253 0.103062
Si Si5 0.391822 0.240507 0.441016
Si Si6 0.564892 0.669202 0.732129
Si Si7 0.262249 0.114474 0.141395
O O1 0.887371 0.207843 0.868250
O O2 0.707679 0.046075 0.596607
O O3 0.041794 0.107005 0.911142
O O4 0.000000 0.000000 0.000000
O O5 0.500000 0.500000 0.500000
O O6 0.828474 0.430670 0.853498
O O7 0.726975 0.646867 0.701954
O O8 0.702218 0.590793 0.826487
O O9 0.607475 0.271112 0.657387
O O10 0.620752 0.322516 0.523872
O O11 0.500000 0.969933 0.250000
O O12 0.637970 0.996270 0.262700
O O13 0.380358 0.834937 0.006703
O O14 0.331745 0.160688 0.302592
O O15 0.500000 0.633027 0.750000
O O16 0.662136 0.791858 0.838514
#
# Coordination Sequence:
#
# PCOD9229782 Si02
#       7
#     4   4   4   4   4   4   4
#     4  12  22  35  61  86 115 162 200 237 293 355
#     4   7  15  31  55  82 109 145 198 234 281 352
#     4   9  18  34  56  82 114 150 198 241 280 347
#     4  12  23  37  55  85 123 150 192 250 302 346
#     4   9  16  35  56  76 112 150 186 238 287 350
#     4   9  16  32  55  81 117 147 185 250 303 337
#     4  10  20  34  56  80 113 154 194 237 288 359
#
# _framework density 19.625036000000001
#
# number of rings (size 3 to 8) (size 9 to 14) (size 15 to 20)
#    0.000    2.857    4.286    1.714    0.000    0.571 
#    0.000    9.286    0.000    0.000    0.000    0.000 
#    0.000    0.000    0.000    0.000    0.000    0.000 
#
# Total GULP energy -155944.144412 kJ/mol
# GULP energy per Si atom -5569.433729 kJ/mol
# Density = 1.958037 g / cm^3
# Si number density = 19.625036 Si / 1000 Ang^3
#
#
#
# Elastic Constant Matrix: (Units=GPa)
#
#
# Indices 1 2 3 4 5 6 
#
# 1 51.4801 51.8225 25.3985 0.0000 2.4100 0.0000
# 2 51.8225 148.9800 26.1026 0.0000 2.4878 0.0000
# 3 25.3985 26.1026 27.8259 0.0000 10.8940 0.0000
# 4 0.0000 0.0000 0.0000 21.1821 0.0000 11.0788
# 5 2.4100 2.4878 10.8940 0.0000 27.1273 0.0000
# 6 0.0000 0.0000 0.0000 11.0788 0.0000 25.9422
#
#
#
# Elastic Compliance Matrix: (Units=1/GPa)
#
#
# Indices 1 2 3 4 5 6 
#
# 1 0.048779 -0.010185 -0.039913 0.000000 0.012629 0.000000
# 2 -0.010185 0.010332 -0.000449 0.000000 0.000138 0.000000
# 3 -0.039913 -0.000449 0.084703 0.000000 -0.030429 0.000000
# 4 0.000000 0.000000 0.000000 0.060788 0.000000 -0.025960
# 5 0.012629 0.000138 -0.030429 0.000000 0.047948 0.000000
# 6 0.000000 0.000000 0.000000 -0.025960 0.000000 0.049634
#
#
# Mechanical properties :
#
#
# Convention : Reuss Voigt Hill
#
# Bulk Modulus (GPa) = 23.40904 48.32591 35.86747
# Shear Modulus (GPa) = 11.97554 23.18113 17.57833
#
# Velocity S-wave (km/s) = 2.47294 3.44059 2.99609
# Velocity P-wave (km/s) = 4.48419 6.36095 5.50316
#
# Compressibility (1/GPa) = 0.04271854
#
# Stress axis : x y z
#
# Youngs Moduli (GPa) = 20.50074 96.79033 11.80592
#
# Poissons Ratio (x) = 0.98584 0.47121
# Poissons Ratio (y) = 0.20881 0.00530
# Poissons Ratio (z) = 0.81825 0.04344
#
# Static dielectric constant tensor:
#      x y z
#    x 1.736050 0.000000 0.057930 
#    y 0.000000 1.775230 0.000000 
#    z 0.057930 0.000000 1.715920 
# 
# From -- ./inp_files/70722.got.cif
#   From: 2010.05.17/outbox.cif.g08.bks.cpg/sg13_36_cif.got.tgz:70722.got - 2010.06.03 16:44:36.
