data_PCOD9229971
_publ_section_title
;
Structure prediction by ZEFSAII (Michael W. Deem and Ramdas Pophale) SiO2 
 PCOD9229971
Probable space group: P 2/C
;
_chemical_formula_sum "Si O2"
_cell_formula_units_Z 28
_cell_length_a 15.239535
_cell_length_b 8.670446
_cell_length_c 14.165370
_cell_angle_alpha 90.000000
_cell_angle_beta 130.473153
_cell_angle_gamma 90.000000
_cell_volume 1423.837123
_symmetry_space_group_name_H-M "P 2/C"
_symmetry_group_IT_number 13
_symmetry_cell_setting 'monoclinic'
loop_
_space_group_symop_operation_xyz
x,y,z
-x,y,1/2-z
-x,-y,-z
x,-y,1/2+z
loop_
_atom_site_type_symbol
_atom_site_label
_atom_site_fract_x
_atom_site_fract_y
_atom_site_fract_z
Si Si1 0.832185 0.845705 0.501492
Si Si2 0.714778 0.141294 0.358664
Si Si3 0.248649 0.651330 0.897564
Si Si4 0.888337 0.919912 0.214198
Si Si5 0.550987 0.834299 0.565761
Si Si6 0.683359 0.701905 0.039493
Si Si7 0.083745 0.197333 0.132309
O O1 0.779772 0.698829 0.515717
O O2 0.946427 0.791558 0.526177
O O3 0.741322 0.959065 0.389560
O O4 0.869046 0.955103 0.616509
O O5 0.617965 0.156660 0.211836
O O6 0.681387 0.231344 0.430542
O O7 0.836338 0.208137 0.403605
O O8 0.353843 0.761520 0.937393
O O9 0.280734 0.473530 0.921065
O O10 0.141837 0.691611 0.752100
O O11 0.780466 0.811010 0.152798
O O12 0.000000 0.832948 0.250000
O O13 0.903005 0.024014 0.316554
O O14 0.440533 0.726937 0.500981
O O15 0.500000 0.000000 0.500000
#
# Coordination Sequence:
#
# PCOD9229971 Si02
#       7
#     4   4   4   4   4   4   4
#     4   9  17  34  57  82 110 142 185 232 271 319
#     4  10  20  35  56  83 110 142 187 239 281 321
#     4  10  21  35  54  81 113 149 181 218 279 345
#     4   8  16  31  54  79 105 144 189 224 264 323
#     4  11  22  40  61  78 102 146 197 238 276 332
#     4  11  21  35  53  81 117 146 178 230 286 334
#     4   9  17  34  58  82 110 147 185 225 268 326
#
# _framework density 19.66517
#
# number of rings (size 3 to 8) (size 9 to 14) (size 15 to 20)
#    0.000    2.286    0.000    6.000    0.000    1.143 
#    0.000    9.286    0.000    0.000    0.000    0.000 
#    0.000    0.000    0.000    0.000    0.000    0.000 
#
# Total GULP energy -156125.855068 kJ/mol
# GULP energy per Si atom -5575.923395 kJ/mol
# Density = 1.962041 g / cm^3
# Si number density = 19.665170 Si / 1000 Ang^3
#
#
#
# Elastic Constant Matrix: (Units=GPa)
#
#
# Indices 1 2 3 4 5 6 
#
# 1 44.1130 8.0800 12.4018 0.0000 17.6007 0.0000
# 2 8.0800 82.9199 18.0944 0.0000 10.7087 0.0000
# 3 12.4018 18.0944 36.2994 0.0000 13.1813 0.0000
# 4 0.0000 0.0000 0.0000 12.3708 0.0000 5.1863
# 5 17.6007 10.7087 13.1813 0.0000 26.1508 0.0000
# 6 0.0000 0.0000 0.0000 5.1863 0.0000 21.5444
#
#
#
# Elastic Compliance Matrix: (Units=1/GPa)
#
#
# Indices 1 2 3 4 5 6 
#
# 1 0.031406 0.000274 -0.003856 0.000000 -0.019306 0.000000
# 2 0.000274 0.013683 -0.005891 0.000000 -0.002818 0.000000
# 3 -0.003856 -0.005891 0.036702 0.000000 -0.013492 0.000000
# 4 0.000000 0.000000 0.000000 0.089909 0.000000 -0.021643
# 5 -0.019306 -0.002818 -0.013492 0.000000 0.059189 0.000000
# 6 0.000000 0.000000 0.000000 -0.021643 0.000000 0.051626
#
#
# Mechanical properties :
#
#
# Convention : Reuss Voigt Hill
#
# Bulk Modulus (GPa) = 15.91203 26.72051 21.31627
# Shear Modulus (GPa) = 15.50836 20.33028 17.91932
#
# Velocity S-wave (km/s) = 2.81129 3.21880 3.02192
# Velocity P-wave (km/s) = 4.31820 5.23750 4.79991
#
# Compressibility (1/GPa) = 0.06284552
#
# Stress axis : x y z
#
# Youngs Moduli (GPa) = 31.84114 73.08594 27.24666
#
# Poissons Ratio (x) = -0.02006 0.10507
# Poissons Ratio (y) = -0.00874 0.16050
# Poissons Ratio (z) = 0.12278 0.43053
#
# Static dielectric constant tensor:
#      x y z
#    x 1.738250 0.000000 -0.003190 
#    y 0.000000 1.653340 0.000000 
#    z -0.003190 0.000000 1.729600 
# 
# From -- ./inp_files/53103.got.cif
#   From: 2010.05.17/outbox.cif.g08.bks.cpg/sg13_27_cif.got.tgz:53103.got - 2010.06.03 16:44:36.
