data_PCOD9229200
_publ_section_title
;
Structure prediction by ZEFSAII (Michael W. Deem and Ramdas Pophale) SiO2 
 PCOD9229200
Probable space group: P 2/C
;
_chemical_formula_sum "Si O2"
_cell_formula_units_Z 28
_cell_length_a 19.952520
_cell_length_b 9.357395
_cell_length_c 12.825140
_cell_angle_alpha 90.000000
_cell_angle_beta 149.917735
_cell_angle_gamma 90.000000
_cell_volume 1200.226144
_symmetry_space_group_name_H-M "P 2/C"
_symmetry_group_IT_number 13
_symmetry_cell_setting 'monoclinic'
loop_
_space_group_symop_operation_xyz
x,y,z
-x,y,1/2-z
-x,-y,-z
x,-y,1/2+z
loop_
_atom_site_type_symbol
_atom_site_label
_atom_site_fract_x
_atom_site_fract_y
_atom_site_fract_z
Si Si1 0.702797 0.188552 0.793672
Si Si2 0.100708 0.968819 0.480533
Si Si3 0.078904 0.427362 0.454863
Si Si4 0.331792 0.612924 0.841571
Si Si5 0.358718 0.838165 0.065442
Si Si6 0.068391 0.190269 0.126634
Si Si7 0.502907 0.331908 0.378742
O O1 0.828081 0.296574 0.961358
O O2 0.630891 0.225545 0.804656
O O3 0.605897 0.219040 0.567522
O O4 0.754889 0.025712 0.859568
O O5 0.087211 0.825905 0.528582
O O6 0.000000 0.968389 0.250000
O O7 0.052240 0.090906 0.496265
O O8 0.187213 0.536346 0.645432
O O9 0.972410 0.346771 0.386750
O O10 0.000000 0.488824 0.250000
O O11 0.372876 0.668132 0.780540
O O12 0.348657 0.728843 0.955550
O O13 0.431601 0.485774 0.009491
O O14 0.500000 0.923019 0.250000
O O15 0.202831 0.884447 0.854552
O O16 0.500000 0.313646 0.250000
#
# Coordination Sequence:
#
# PCOD9229200 Si02
#       7
#     4   4   4   4   4   4   4
#     4  10  19  38  65  89 119 167 213 259 323 380
#     4  10  19  40  69  91 115 157 215 266 328 378
#     4  10  19  38  59  89 125 164 213 261 313 378
#     4  10  23  34  60  93 122 176 215 246 313 382
#     4  12  21  38  63  92 128 168 213 257 307 394
#     4  10  21  37  65  92 116 161 209 268 321 372
#     4  10  21  37  58  89 128 170 211 255 306 381
#
# _framework density 23.328935999999999
#
# number of rings (size 3 to 8) (size 9 to 14) (size 15 to 20)
#    0.000    1.714    4.286    1.286    4.000    0.571 
#    0.000    9.286    0.000    0.000    0.000    0.000 
#    0.000    0.000    0.000    0.000    0.000    0.000 
#
# Total GULP energy -156004.845352 kJ/mol
# GULP energy per Si atom -5571.601620 kJ/mol
# Density = 2.327584 g / cm^3
# Si number density = 23.328936 Si / 1000 Ang^3
#
#
#
# Elastic Constant Matrix: (Units=GPa)
#
#
# Indices 1 2 3 4 5 6 
#
# 1 141.6867 29.9694 58.5961 0.0000 -24.8466 0.0000
# 2 29.9694 41.2233 15.9898 0.0000 -9.4881 0.0000
# 3 58.5961 15.9898 112.8842 0.0000 -19.3126 0.0000
# 4 0.0000 0.0000 0.0000 14.9432 0.0000 -5.3687
# 5 -24.8466 -9.4881 -19.3126 0.0000 54.4417 0.0000
# 6 0.0000 0.0000 0.0000 -5.3687 0.0000 8.5259
#
#
#
# Elastic Compliance Matrix: (Units=1/GPa)
#
#
# Indices 1 2 3 4 5 6 
#
# 1 0.010334 -0.005351 -0.004215 0.000000 0.002289 0.000000
# 2 -0.005351 0.029041 -0.000945 0.000000 0.002284 0.000000
# 3 -0.004215 -0.000945 0.011522 0.000000 0.001999 0.000000
# 4 0.000000 0.000000 0.000000 0.086485 0.000000 0.054458
# 5 0.002289 0.002284 0.001999 0.000000 0.020520 0.000000
# 6 0.000000 0.000000 0.000000 0.054458 0.000000 0.151581
#
#
# Mechanical properties :
#
#
# Convention : Reuss Voigt Hill
#
# Bulk Modulus (GPa) = 33.47287 56.10053 44.78670
# Shear Modulus (GPa) = 14.68586 28.33144 21.50865
#
# Velocity S-wave (km/s) = 2.51173 3.48865 3.03969
# Velocity P-wave (km/s) = 4.77400 6.35039 5.61776
#
# Compressibility (1/GPa) = 0.02987494
#
# Stress axis : x y z
#
# Youngs Moduli (GPa) = 96.76699 34.43434 86.78828
#
# Poissons Ratio (x) = 0.18427 0.36579
# Poissons Ratio (y) = 0.51783 0.08202
# Poissons Ratio (z) = 0.40784 0.03254
#
# Static dielectric constant tensor:
#      x y z
#    x 1.949430 0.000000 0.038200 
#    y 0.000000 1.924470 0.000000 
#    z 0.038200 0.000000 1.905720 
# 
# From -- ./inp_files/40828.got.cif
#   From: 2010.05.17/outbox.cif.g08.bks.cpg/sg13_21_cif.got.tgz:40828.got - 2010.06.03 16:44:36.
