data_PCOD9229890
_publ_section_title
;
Structure prediction by ZEFSAII (Michael W. Deem and Ramdas Pophale) SiO2 
 PCOD9229890
Probable space group: P 2/C
;
_chemical_formula_sum "Si O2"
_cell_formula_units_Z 24
_cell_length_a 14.204788
_cell_length_b 12.025102
_cell_length_c 10.775935
_cell_angle_alpha 90.000000
_cell_angle_beta 150.041793
_cell_angle_gamma 90.000000
_cell_volume 919.177408
_symmetry_space_group_name_H-M "P 2/C"
_symmetry_group_IT_number 13
_symmetry_cell_setting 'monoclinic'
loop_
_space_group_symop_operation_xyz
x,y,z
-x,y,1/2-z
-x,-y,-z
x,-y,1/2+z
loop_
_atom_site_type_symbol
_atom_site_label
_atom_site_fract_x
_atom_site_fract_y
_atom_site_fract_z
Si Si1 0.247720 0.150608 0.948754
Si Si2 0.787117 0.099694 0.061537
Si Si3 0.873881 0.597912 0.776593
Si Si4 0.362631 0.613761 0.479963
Si Si5 0.284745 0.317620 0.645159
Si Si6 0.165564 0.792985 0.615747
O O1 0.031107 0.155411 0.655363
O O2 0.296414 0.021049 0.005256
O O3 0.319561 0.256001 0.954132
O O4 0.290727 0.183044 0.140301
O O5 0.791790 0.156018 0.202187
O O6 0.000000 0.086672 0.250000
O O7 0.693298 0.185035 0.854738
O O8 0.820583 0.468223 0.722250
O O9 0.721438 0.636614 0.500248
O O10 0.842780 0.661699 0.869717
O O11 0.073162 0.648589 0.953675
O O12 0.500000 0.582659 0.750000
O O13 0.416755 0.620955 0.395345
#
# Coordination Sequence:
#
# PCOD9229890 Si02
#       6
#     4   4   4   4   4   4
#     4  11  23  33  62  97 130 160 209 262 317 377
#     4  11  18  36  64 100 128 159 195 275 324 367
#     4  10  21  40  66  90 123 162 212 270 319 363
#     4  12  27  43  60  88 132 179 215 255 311 381
#     4  10  21  40  69  92 125 160 213 270 324 364
#     4  10  20  34  62  99 124 152 208 269 324 365
#
# _framework density 26.110303999999999
#
# number of rings (size 3 to 8) (size 9 to 14) (size 15 to 20)
#    0.000    1.333    6.667    1.000    4.667    2.000 
#    0.000    0.833    0.000    0.000    0.000    0.000 
#    0.000    0.000    0.000    0.000    0.000    0.000 
#
# Total GULP energy -133851.938795 kJ/mol
# GULP energy per Si atom -5577.164116 kJ/mol
# Density = 2.605088 g / cm^3
# Si number density = 26.110304 Si / 1000 Ang^3
#
#
#
# Elastic Constant Matrix: (Units=GPa)
#
#
# Indices 1 2 3 4 5 6 
#
# 1 29.0386 40.2384 38.5659 0.0000 -7.2937 0.0000
# 2 40.2384 213.3021 80.0552 0.0000 -5.7852 0.0000
# 3 38.5659 80.0552 121.5211 0.0000 -27.3031 0.0000
# 4 0.0000 0.0000 0.0000 84.4032 0.0000 -27.1829
# 5 -7.2937 -5.7852 -27.3031 0.0000 56.4295 0.0000
# 6 0.0000 0.0000 0.0000 -27.1829 0.0000 8.9012
#
#
#
# Elastic Compliance Matrix: (Units=1/GPa)
#
#
# Indices 1 2 3 4 5 6 
#
# 1 0.064817 -0.005963 -0.016714 0.000000 -0.000320 0.000000
# 2 -0.005963 0.006894 -0.002988 0.000000 -0.001510 0.000000
# 3 -0.016714 -0.002988 0.016771 0.000000 0.005648 0.000000
# 4 0.000000 0.000000 0.000000 0.719235 0.000000 2.196441
# 5 -0.000320 -0.001510 0.005648 0.000000 0.020258 0.000000
# 6 0.000000 0.000000 0.000000 2.196441 0.000000 6.819962
#
#
# Mechanical properties :
#
#
# Convention : Reuss Voigt Hill
#
# Bulk Modulus (GPa) = 26.91714 75.73122 51.32418
# Shear Modulus (GPa) = 0.64837 43.61359 22.13098
#
# Velocity S-wave (km/s) = 0.49886 4.09144 2.91451
# Velocity P-wave (km/s) = 3.26546 7.16848 5.57002
#
# Compressibility (1/GPa) = 0.03715105
#
# Stress axis : x y z
#
# Youngs Moduli (GPa) = 15.42804 145.06126 59.62753
#
# Poissons Ratio (x) = 0.86502 0.99661
# Poissons Ratio (y) = 0.09200 0.17817
# Poissons Ratio (z) = 0.25786 0.43346
#
# Static dielectric constant tensor:
#      x y z
#    x 2.114600 0.000000 0.114070 
#    y 0.000000 2.124990 0.000000 
#    z 0.114070 0.000000 2.136470 
# 
# From -- ./inp_files/40730.got.cif
#   From: 2010.05.17/outbox.cif.g08.bks.cpg/sg13_21_cif.got.tgz:40730.got - 2010.06.03 16:44:36.
