data_PCOD9229176
_publ_section_title
;
Structure prediction by ZEFSAII (Michael W. Deem and Ramdas Pophale) SiO2 
 PCOD9229176
Probable space group: P 2/C
;
_chemical_formula_sum "Si O2"
_cell_formula_units_Z 32
_cell_length_a 21.139270
_cell_length_b 5.560821
_cell_length_c 17.065486
_cell_angle_alpha 90.000000
_cell_angle_beta 48.502751
_cell_angle_gamma 90.000000
_cell_volume 1502.526541
_symmetry_space_group_name_H-M "P 2/C"
_symmetry_group_IT_number 13
_symmetry_cell_setting 'monoclinic'
loop_
_space_group_symop_operation_xyz
x,y,z
-x,y,1/2-z
-x,-y,-z
x,-y,1/2+z
loop_
_atom_site_type_symbol
_atom_site_label
_atom_site_fract_x
_atom_site_fract_y
_atom_site_fract_z
Si Si1 0.935692 0.155655 0.241549
Si Si2 0.205032 0.485472 0.619163
Si Si3 0.851513 0.793557 0.190448
Si Si4 0.817351 0.794420 0.515045
Si Si5 0.544888 0.193735 0.908190
Si Si6 0.912689 0.699261 0.978550
Si Si7 0.372232 0.591796 0.555831
Si Si8 0.306439 0.074007 0.253313
O O1 0.864776 0.313724 0.343017
O O2 0.000000 0.031986 0.250000
O O3 0.892816 0.977705 0.216727
O O4 0.998649 0.318412 0.138466
O O5 0.180972 0.418315 0.727932
O O6 0.198898 0.265211 0.563236
O O7 0.300753 0.573588 0.548650
O O8 0.916525 0.726978 0.069195
O O9 0.769669 0.909923 0.216788
O O10 0.864887 0.552153 0.503964
O O11 0.733372 0.802876 0.637735
O O12 0.866994 0.046612 0.489284
O O13 0.603957 0.350047 0.917145
O O14 0.609598 0.075866 0.794929
O O15 0.463141 0.335103 0.945349
O O16 0.500000 0.000000 0.000000
O O17 0.336201 0.762115 0.655373
#
# Coordination Sequence:
#
# PCOD9229176 Si02
#       8
#     4   4   4   4   4   4   4   4
#     4  12  25  43  63  97 142 185 232 289 350 403
#     4  12  24  40  68 100 138 187 232 289 349 421
#     4  11  24  40  70  97 133 181 241 285 338 413
#     4  11  26  44  69 101 144 183 230 286 359 412
#     4   9  19  36  66 102 130 165 218 285 337 409
#     4  11  26  47  66 100 136 189 239 296 341 406
#     4  10  19  37  67 101 132 168 232 277 345 409
#     4  10  20  40  67 101 130 179 228 283 343 414
#
# _framework density 21.297459
#
# number of rings (size 3 to 8) (size 9 to 14) (size 15 to 20)
#    0.000    1.250    3.750    1.875    5.250    1.000 
#    0.000    0.000    0.000    8.250    0.000    0.000 
#    0.000    0.000    0.000    0.000    0.000    0.000 
#
# Total GULP energy -178557.577687 kJ/mol
# GULP energy per Si atom -5579.924303 kJ/mol
# Density = 2.124899 g / cm^3
# Si number density = 21.297459 Si / 1000 Ang^3
#
#
#
# Elastic Constant Matrix: (Units=GPa)
#
#
# Indices 1 2 3 4 5 6 
#
# 1 86.4704 25.3716 50.6254 0.0000 -14.4573 0.0000
# 2 25.3716 81.3101 28.0265 0.0000 -11.1513 0.0000
# 3 50.6254 28.0265 92.0216 0.0000 -13.8571 0.0000
# 4 0.0000 0.0000 0.0000 39.8086 0.0000 -12.7499
# 5 -14.4573 -11.1513 -13.8571 0.0000 40.4198 0.0000
# 6 0.0000 0.0000 0.0000 -12.7499 0.0000 17.6244
#
#
#
# Elastic Compliance Matrix: (Units=1/GPa)
#
#
# Indices 1 2 3 4 5 6 
#
# 1 0.017750 -0.002163 -0.008689 0.000000 0.002773 0.000000
# 2 -0.002163 0.014246 -0.002819 0.000000 0.002190 0.000000
# 3 -0.008689 -0.002819 0.016787 0.000000 0.001870 0.000000
# 4 0.000000 0.000000 0.000000 0.032696 0.000000 0.023653
# 5 0.002773 0.002190 0.001870 0.000000 0.026977 0.000000
# 6 0.000000 0.000000 0.000000 0.023653 0.000000 0.073850
#
#
# Mechanical properties :
#
#
# Convention : Reuss Voigt Hill
#
# Bulk Modulus (GPa) = 46.63929 51.98325 49.31127
# Shear Modulus (GPa) = 23.06332 29.95580 26.50956
#
# Velocity S-wave (km/s) = 3.29434 3.75446 3.53190
# Velocity P-wave (km/s) = 6.03463 6.57691 6.31160
#
# Compressibility (1/GPa) = 0.02144115
#
# Stress axis : x y z
#
# Youngs Moduli (GPa) = 56.33818 70.19713 59.56986
#
# Poissons Ratio (x) = 0.15187 0.51758
# Poissons Ratio (y) = 0.12188 0.16791
# Poissons Ratio (z) = 0.48950 0.19786
#
# Static dielectric constant tensor:
#      x y z
#    x 1.817780 0.000000 -0.030860 
#    y 0.000000 1.833400 0.000000 
#    z -0.030860 0.000000 1.819400 
# 
# From -- ./inp_files/70290.got.cif
#   From: 2010.05.17/outbox.cif.g08.bks.cpg/sg13_36_cif.got.tgz:70290.got - 2010.06.03 16:44:36.
