data_PCOD9229432
_publ_section_title
;
Structure prediction by ZEFSAII (Michael W. Deem and Ramdas Pophale) SiO2 
 PCOD9229432
Probable space group: P 2/C
;
_chemical_formula_sum "Si O2"
_cell_formula_units_Z 16
_cell_length_a 6.890164
_cell_length_b 18.409576
_cell_length_c 5.572133
_cell_angle_alpha 90.000000
_cell_angle_beta 71.919167
_cell_angle_gamma 90.000000
_cell_volume 671.895276
_symmetry_space_group_name_H-M "P 2/C"
_symmetry_group_IT_number 13
_symmetry_cell_setting 'monoclinic'
loop_
_space_group_symop_operation_xyz
x,y,z
-x,y,1/2-z
-x,-y,-z
x,-y,1/2+z
loop_
_atom_site_type_symbol
_atom_site_label
_atom_site_fract_x
_atom_site_fract_y
_atom_site_fract_z
Si Si1 0.196050 0.658228 0.019005
Si Si2 0.730297 0.800331 0.767358
Si Si3 0.252435 0.039304 0.325644
Si Si4 0.500000 0.737348 0.250000
Si Si5 0.500000 0.455958 0.250000
O O1 0.381242 0.684439 0.117704
O O2 0.000000 0.637897 0.250000
O O3 0.154894 0.730605 0.879693
O O4 0.295829 0.593888 0.829299
O O5 0.500000 0.798133 0.750000
O O6 0.819163 0.877185 0.657261
O O7 0.674521 0.788135 0.066561
O O8 0.500000 0.042019 0.250000
O O9 0.197705 0.998182 0.592578
O O10 0.500000 0.500000 0.500000
#
# Coordination Sequence:
#
# PCOD9229432 Si02
#       5
#     4   4   4   2   2
#     4  11  24  44  71 102 134 181 232 276 337 409
#     4   9  19  34  60  91 129 178 228 286 331 396
#     4   9  18  28  49  86 130 174 225 278 339 399
#     4  10  19  40  66  95 136 174 228 294 333 388
#     4  12  27  50  74 105 146 176 218 282 345 418
#
# _framework density 23.813233
#
# number of rings (size 3 to 8) (size 9 to 14) (size 15 to 20)
#    0.000    2.000    3.750    0.750   12.250    2.000 
#    0.000    0.000    0.000    1.500    0.000    0.000 
#    0.000    0.000    0.000    0.000    0.000    0.000 
#
# Total GULP energy -89412.403238 kJ/mol
# GULP energy per Si atom -5588.275202 kJ/mol
# Density = 2.375903 g / cm^3
# Si number density = 23.813233 Si / 1000 Ang^3
#
#
#
# Elastic Constant Matrix: (Units=GPa)
#
#
# Indices 1 2 3 4 5 6 
#
# 1 79.2982 27.9471 38.5670 0.0000 4.3556 0.0000
# 2 27.9471 178.4579 111.9915 0.0000 -3.7550 0.0000
# 3 38.5670 111.9915 169.4830 0.0000 -6.7659 0.0000
# 4 0.0000 0.0000 0.0000 36.5827 0.0000 8.8143
# 5 4.3556 -3.7550 -6.7659 0.0000 54.2512 0.0000
# 6 0.0000 0.0000 0.0000 8.8143 0.0000 -7.9950
#
#
#
# Elastic Compliance Matrix: (Units=1/GPa)
#
#
# Indices 1 2 3 4 5 6 
#
# 1 0.014322 -0.000327 -0.003105 0.000000 -0.001560 0.000000
# 2 -0.000327 0.009582 -0.006261 0.000000 -0.000091 0.000000
# 3 -0.003105 -0.006261 0.010790 0.000000 0.001162 0.000000
# 4 0.000000 0.000000 0.000000 0.021598 0.000000 0.023811
# 5 -0.001560 -0.000091 0.001162 0.000000 0.018697 0.000000
# 6 0.000000 0.000000 0.000000 0.023811 0.000000 -0.098826
#
#
# Mechanical properties :
#
#
# Convention : Reuss Voigt Hill
#
# Bulk Modulus (GPa) = 65.32536 87.13893 76.23215
# Shear Modulus (GPa) = 7683.97803 33.15000 3858.56402
#
# Velocity S-wave (km/s) = 56.86627 3.73511 40.29717
# Velocity P-wave (km/s) = 65.87252 7.43461 46.87464
#
# Compressibility (1/GPa) = 0.01530799
#
# Stress axis : x y z
#
# Youngs Moduli (GPa) = 69.82372 104.36489 92.67612
#
# Poissons Ratio (x) = 0.03412 0.28778
# Poissons Ratio (y) = 0.02283 0.58022
# Poissons Ratio (z) = 0.21682 0.65340
#
# Static dielectric constant tensor:
#      x y z
#    x 1.996530 0.000000 0.030740 
#    y 0.000000 1.911360 0.000000 
#    z 0.030740 0.000000 2.067790 
# 
# From -- ./inp_files/1420.got.cif
#   From: 2010.05.17/outbox.cif.g08.bks.cpg/sg13_1_cif.got.tgz:1420.got - 2010.06.03 16:44:36.
