data_PCOD9229846
_publ_section_title
;
Structure prediction by ZEFSAII (Michael W. Deem and Ramdas Pophale) SiO2 
 PCOD9229846
Probable space group: P 2/C
;
_chemical_formula_sum "Si O2"
_cell_formula_units_Z 28
_cell_length_a 8.878404
_cell_length_b 7.849852
_cell_length_c 30.464683
_cell_angle_alpha 90.000000
_cell_angle_beta 40.965014
_cell_angle_gamma 90.000000
_cell_volume 1391.972638
_symmetry_space_group_name_H-M "P 2/C"
_symmetry_group_IT_number 13
_symmetry_cell_setting 'monoclinic'
loop_
_space_group_symop_operation_xyz
x,y,z
-x,y,1/2-z
-x,-y,-z
x,-y,1/2+z
loop_
_atom_site_type_symbol
_atom_site_label
_atom_site_fract_x
_atom_site_fract_y
_atom_site_fract_z
Si Si1 0.376684 0.833900 0.200381
Si Si2 0.373577 0.771885 0.604671
Si Si3 0.500000 0.402464 0.750000
Si Si4 0.000000 0.083834 0.250000
Si Si5 0.320249 0.644006 0.525132
Si Si6 0.820837 0.426560 0.108015
Si Si7 0.761191 0.939163 0.574564
Si Si8 0.454334 0.598562 0.404434
O O1 0.366466 0.726894 0.247125
O O2 0.360462 0.697809 0.164684
O O3 0.178333 0.970356 0.238329
O O4 0.623526 0.925887 0.135830
O O5 0.320639 0.777548 0.564647
O O6 0.579635 0.891052 0.576174
O O7 0.450970 0.581265 0.600135
O O8 0.151424 0.811484 0.682515
O O9 0.351685 0.520293 0.815129
O O10 0.500000 0.500000 0.500000
O O11 0.386807 0.705949 0.461945
O O12 0.074434 0.557205 0.571400
O O13 0.794918 0.234192 0.095477
O O14 0.757151 0.551374 0.081416
O O15 0.000000 0.000000 0.500000
#
# Coordination Sequence:
#
# PCOD9229846 Si02
#       8
#     4   4   2   2   4   4   4   4
#     4  10  22  39  60  85 116 154 197 248 290 353
#     4   9  21  37  59  87 119 154 192 241 295 362
#     4  10  24  40  58  88 114 154 210 242 286 354
#     4  10  22  40  56  84 124 160 190 234 314 366
#     4  10  20  34  58  89 113 142 193 247 290 337
#     4  10  21  38  61  84 118 158 193 244 298 363
#     4  10  21  40  62  84 116 159 196 239 306 364
#     4   9  19  38  60  84 114 155 201 241 292 350
#
# _framework density 20.11534
#
# number of rings (size 3 to 8) (size 9 to 14) (size 15 to 20)
#    0.000    2.286    0.000    1.286    0.000   14.857 
#    0.000    6.429    0.000    0.000    0.000    0.000 
#    0.000    0.000    0.000    0.000    0.000    0.000 
#
# Total GULP energy -156184.767550 kJ/mol
# GULP energy per Si atom -5578.027412 kJ/mol
# Density = 2.006956 g / cm^3
# Si number density = 20.115340 Si / 1000 Ang^3
#
#
#
# Elastic Constant Matrix: (Units=GPa)
#
#
# Indices 1 2 3 4 5 6 
#
# 1 120.7663 31.7589 78.6460 0.0000 13.3474 0.0000
# 2 31.7589 78.3310 36.3878 0.0000 4.8626 0.0000
# 3 78.6460 36.3878 121.7572 0.0000 14.4462 0.0000
# 4 0.0000 0.0000 0.0000 25.0372 0.0000 7.4617
# 5 13.3474 4.8626 14.4462 0.0000 42.2244 0.0000
# 6 0.0000 0.0000 0.0000 7.4617 0.0000 -10.3123
#
#
#
# Elastic Compliance Matrix: (Units=1/GPa)
#
#
# Indices 1 2 3 4 5 6 
#
# 1 0.014583 -0.001773 -0.008721 0.000000 -0.001422 0.000000
# 2 -0.001773 0.015042 -0.003347 0.000000 -0.000027 0.000000
# 3 -0.008721 -0.003347 0.015086 0.000000 -0.002019 0.000000
# 4 0.000000 0.000000 0.000000 0.032855 0.000000 0.023773
# 5 -0.001422 -0.000027 -0.002019 0.000000 0.024826 0.000000
# 6 0.000000 0.000000 0.000000 0.023773 0.000000 -0.079770
#
#
# Mechanical properties :
#
#
# Convention : Reuss Voigt Hill
#
# Bulk Modulus (GPa) = 58.72382 68.27112 63.49747
# Shear Modulus (GPa) = 89.31550 22.99398 56.15474
#
# Velocity S-wave (km/s) = 6.67069 3.38465 5.28933
# Velocity P-wave (km/s) = 9.41210 7.02054 8.30288
#
# Compressibility (1/GPa) = 0.01702886
#
# Stress axis : x y z
#
# Youngs Moduli (GPa) = 68.57163 66.48219 66.28666
#
# Poissons Ratio (x) = 0.11788 0.57809
# Poissons Ratio (y) = 0.12159 0.22185
# Poissons Ratio (z) = 0.59802 0.22250
#
# Static dielectric constant tensor:
#      x y z
#    x 1.775680 0.000000 0.128740 
#    y 0.000000 1.727970 0.000000 
#    z 0.128740 0.000000 1.997840 
# 
# From -- ./inp_files/95941.got.cif
#   From: 2010.05.17/outbox.cif.g08.bks.cpg/sg13_48_cif.got.tgz:95941.got - 2010.06.03 16:44:36.
