data_PCOD9229967
_publ_section_title
;
Structure prediction by ZEFSAII (Michael W. Deem and Ramdas Pophale) SiO2 
 PCOD9229967
Probable space group: P 2/C
;
_chemical_formula_sum "Si O2"
_cell_formula_units_Z 24
_cell_length_a 4.906497
_cell_length_b 20.496154
_cell_length_c 12.805043
_cell_angle_alpha 90.000000
_cell_angle_beta 71.115598
_cell_angle_gamma 90.000000
_cell_volume 1218.416404
_symmetry_space_group_name_H-M "P 2/C"
_symmetry_group_IT_number 13
_symmetry_cell_setting 'monoclinic'
loop_
_space_group_symop_operation_xyz
x,y,z
-x,y,1/2-z
-x,-y,-z
x,-y,1/2+z
loop_
_atom_site_type_symbol
_atom_site_label
_atom_site_fract_x
_atom_site_fract_y
_atom_site_fract_z
Si Si1 0.338004 0.555466 0.377812
Si Si2 0.335782 0.902162 0.960820
Si Si3 0.181770 0.304417 0.328073
Si Si4 0.320849 0.975817 0.176669
Si Si5 0.294406 0.415638 0.482446
Si Si6 0.893751 0.169527 0.381093
O O1 0.500000 0.569176 0.250000
O O2 0.381089 0.479677 0.405076
O O3 0.465479 0.596078 0.459614
O O4 0.997438 0.567401 0.418469
O O5 0.045275 0.881837 0.939229
O O6 0.554641 0.841589 0.929497
O O7 0.496519 0.961035 0.881006
O O8 0.292027 0.927543 0.082755
O O9 0.500000 0.282939 0.250000
O O10 0.234033 0.357882 0.409818
O O11 0.003251 0.242217 0.390595
O O12 0.000000 0.329858 0.250000
O O13 0.500000 0.945765 0.250000
O O14 0.000000 0.994708 0.250000
O O15 0.000000 0.156768 0.250000
#
# Coordination Sequence:
#
# PCOD9229967 Si02
#       6
#     4   4   4   4   4   4
#     4  10  20  35  56  81 110 144 180 221 270 321
#     4  11  22  36  57  82 110 143 179 225 275 327
#     4  11  22  36  57  84 112 143 180 226 277 326
#     4  11  22  36  56  82 111 143 180 224 275 328
#     4  10  21  35  55  82 111 143 178 223 272 320
#     4  11  21  36  57  82 110 142 179 225 277 326
#
# _framework density 19.697697999999999
#
# number of rings (size 3 to 8) (size 9 to 14) (size 15 to 20)
#    0.000    1.333    0.000    8.000    0.000    5.333 
#    0.000    0.000    0.000   10.000    0.000    0.000 
#    0.000    0.000    0.000    0.000    0.000    0.000 
#
# Total GULP energy -134215.350009 kJ/mol
# GULP energy per Si atom -5592.306250 kJ/mol
# Density = 1.965287 g / cm^3
# Si number density = 19.697698 Si / 1000 Ang^3
#
#
#
# Elastic Constant Matrix: (Units=GPa)
#
#
# Indices 1 2 3 4 5 6 
#
# 1 68.7111 -12.1458 6.1347 0.0000 15.6016 0.0000
# 2 -12.1458 58.2868 22.8640 0.0000 19.2968 0.0000
# 3 6.1347 22.8640 73.5121 0.0000 16.2126 0.0000
# 4 0.0000 0.0000 0.0000 13.8616 0.0000 9.2678
# 5 15.6016 19.2968 16.2126 0.0000 34.1381 0.0000
# 6 0.0000 0.0000 0.0000 9.2678 0.0000 36.7187
#
#
#
# Elastic Compliance Matrix: (Units=1/GPa)
#
#
# Indices 1 2 3 4 5 6 
#
# 1 0.019255 0.008951 -0.001490 0.000000 -0.013152 0.000000
# 2 0.008951 0.026619 -0.005368 0.000000 -0.016588 0.000000
# 3 -0.001490 -0.005368 0.016283 0.000000 -0.004018 0.000000
# 4 0.000000 0.000000 0.000000 0.086788 0.000000 -0.021905
# 5 -0.013152 -0.016588 -0.004018 0.000000 0.046588 0.000000
# 6 0.000000 0.000000 0.000000 -0.021905 0.000000 0.032763
#
#
# Mechanical properties :
#
#
# Convention : Reuss Voigt Hill
#
# Bulk Modulus (GPa) = 15.07301 26.02399 20.54850
# Shear Modulus (GPa) = 20.30665 29.18746 24.74705
#
# Velocity S-wave (km/s) = 3.21427 3.85355 3.54834
# Velocity P-wave (km/s) = 4.63078 5.74806 5.21940
#
# Compressibility (1/GPa) = 0.06634377
#
# Stress axis : x y z
#
# Youngs Moduli (GPa) = 51.93379 37.56690 61.41311
#
# Poissons Ratio (x) = -0.33627 0.09153
# Poissons Ratio (y) = -0.46487 0.32965
# Poissons Ratio (z) = 0.07740 0.20165
#
# Static dielectric constant tensor:
#      x y z
#    x 1.696260 0.000000 0.010160 
#    y 0.000000 1.692530 0.000000 
#    z 0.010160 0.000000 1.672380 
# 
# From -- ./inp_files/26617.got.cif
#   From: 2010.05.17/outbox.cif.g08.bks.cpg/sg13_14_cif.got.tgz:26617.got - 2010.06.03 16:44:36.
