data_PCOD9229615
_publ_section_title
;
Structure prediction by ZEFSAII (Michael W. Deem and Ramdas Pophale) SiO2 
 PCOD9229615
Probable space group: P 2/C
;
_chemical_formula_sum "Si O2"
_cell_formula_units_Z 32
_cell_length_a 16.343240
_cell_length_b 12.629448
_cell_length_c 22.257063
_cell_angle_alpha 90.000000
_cell_angle_beta 21.576104
_cell_angle_gamma 90.000000
_cell_volume 1689.380238
_symmetry_space_group_name_H-M "P 2/C"
_symmetry_group_IT_number 13
_symmetry_cell_setting 'monoclinic'
loop_
_space_group_symop_operation_xyz
x,y,z
-x,y,1/2-z
-x,-y,-z
x,-y,1/2+z
loop_
_atom_site_type_symbol
_atom_site_label
_atom_site_fract_x
_atom_site_fract_y
_atom_site_fract_z
Si Si1 0.244601 0.463712 0.907176
Si Si2 0.768619 0.324217 0.943816
Si Si3 0.647613 0.052532 0.765775
Si Si4 0.127614 0.917437 0.989022
Si Si5 0.368706 0.298862 0.724035
Si Si6 0.923661 0.682423 0.474942
Si Si7 0.240005 0.909886 0.053515
Si Si8 0.214698 0.556060 0.562640
O O1 0.500000 0.485841 0.750000
O O2 0.254422 0.362573 0.857380
O O3 0.151038 0.572732 0.943857
O O4 0.137594 0.442551 0.045382
O O5 0.824001 0.320963 0.976547
O O6 0.668640 0.209769 0.996642
O O7 0.670801 0.441386 0.001350
O O8 0.000000 0.326796 0.750000
O O9 0.601165 0.175415 0.784285
O O10 0.868826 0.050742 0.656418
O O11 0.722115 0.992600 0.654271
O O12 0.430214 0.994124 0.939816
O O13 0.151058 0.796165 0.948648
O O14 0.192640 0.919546 0.014345
O O15 0.601467 0.354937 0.553710
O O16 0.190778 0.312458 0.792126
O O17 0.000000 0.922126 0.250000
O O18 0.000000 0.569062 0.750000
#
# Coordination Sequence:
#
# PCOD9229615 Si02
#       8
#     4   4   4   4   4   4   4   4
#     4   9  18  31  50  74 100 129 163 205 248 292
#     4   8  16  33  52  73 100 126 162 208 251 295
#     4  10  21  36  52  74 105 138 171 209 252 303
#     4   9  20  36  54  76 102 134 172 212 253 300
#     4  10  20  33  50  73 104 133 163 205 249 291
#     4   9  17  32  54  76  97 126 168 210 247 291
#     4  10  20  34  57  80 100 133 171 212 259 299
#     4   9  18  33  51  71 100 135 165 198 243 300
#
# _framework density 18.941858
#
# number of rings (size 3 to 8) (size 9 to 14) (size 15 to 20)
#    0.000    2.750    0.000    0.750    0.000    8.000 
#    0.000    6.875    0.000    7.500    0.000    0.000 
#    0.000    0.000    0.000    0.000    0.000    0.000 
#
# Total GULP energy -178205.164589 kJ/mol
# GULP energy per Si atom -5568.911393 kJ/mol
# Density = 1.889875 g / cm^3
# Si number density = 18.941858 Si / 1000 Ang^3
#
#
#
# Elastic Constant Matrix: (Units=GPa)
#
#
# Indices 1 2 3 4 5 6 
#
# 1 12.3924 12.9811 14.7646 0.0000 -3.9964 0.0000
# 2 12.9811 160.9190 56.7898 0.0000 -13.0501 0.0000
# 3 14.7646 56.7898 79.0511 0.0000 2.4197 0.0000
# 4 0.0000 0.0000 0.0000 36.3418 0.0000 -3.7261
# 5 -3.9964 -13.0501 2.4197 0.0000 21.5893 0.0000
# 6 0.0000 0.0000 0.0000 -3.7261 0.0000 20.2185
#
#
#
# Elastic Compliance Matrix: (Units=1/GPa)
#
#
# Indices 1 2 3 4 5 6 
#
# 1 0.114800 0.000713 -0.022695 0.000000 0.024225 0.000000
# 2 0.000713 0.009099 -0.006866 0.000000 0.006402 0.000000
# 3 -0.022695 -0.006866 0.022153 0.000000 -0.010834 0.000000
# 4 0.000000 0.000000 0.000000 0.028047 0.000000 0.005169
# 5 0.024225 0.006402 -0.010834 0.000000 0.055887 0.000000
# 6 0.000000 0.000000 0.000000 0.005169 0.000000 0.050412
#
#
# Mechanical properties :
#
#
# Convention : Reuss Voigt Hill
#
# Bulk Modulus (GPa) = 11.31788 46.82594 29.07191
# Shear Modulus (GPa) = 13.60377 26.81840 20.21108
#
# Velocity S-wave (km/s) = 2.68281 3.76683 3.27005
# Velocity P-wave (km/s) = 3.94774 6.61009 5.44416
#
# Compressibility (1/GPa) = 0.08835581
#
# Stress axis : x y z
#
# Youngs Moduli (GPa) = 8.71082 109.90338 45.14088
#
# Poissons Ratio (x) = -0.07840 1.02449
# Poissons Ratio (y) = -0.00621 0.30993
# Poissons Ratio (z) = 0.19770 0.75457
#
# Static dielectric constant tensor:
#      x y z
#    x 1.733230 0.000000 -0.055940 
#    y 0.000000 1.706070 0.000000 
#    z -0.055940 0.000000 1.796320 
# 
# From -- ./inp_files/88172.got.cif
#   From: 2010.05.17/outbox.cif.g08.bks.cpg/sg13_45_cif.got.tgz:88172.got - 2010.06.03 16:44:36.
