data_PCOD9229299
_publ_section_title
;
Structure prediction by ZEFSAII (Michael W. Deem and Ramdas Pophale) SiO2 
 PCOD9229299
Probable space group: P 2/C
;
_chemical_formula_sum "Si O2"
_cell_formula_units_Z 32
_cell_length_a 8.967440
_cell_length_b 12.213350
_cell_length_c 31.474234
_cell_angle_alpha 90.000000
_cell_angle_beta 29.136157
_cell_angle_gamma 90.000000
_cell_volume 1678.364751
_symmetry_space_group_name_H-M "P 2/C"
_symmetry_group_IT_number 13
_symmetry_cell_setting 'monoclinic'
loop_
_space_group_symop_operation_xyz
x,y,z
-x,y,1/2-z
-x,-y,-z
x,-y,1/2+z
loop_
_atom_site_type_symbol
_atom_site_label
_atom_site_fract_x
_atom_site_fract_y
_atom_site_fract_z
Si Si1 0.856195 0.022396 0.489997
Si Si2 0.868174 0.757973 0.610084
Si Si3 0.136033 0.016436 0.171337
Si Si4 0.131826 0.888554 0.342705
Si Si5 0.150759 0.759358 0.783357
Si Si6 0.129407 0.515425 0.921004
Si Si7 0.132198 0.512284 0.762605
Si Si8 0.873423 0.634739 0.156177
O O1 0.923291 0.147949 0.461175
O O2 0.498255 0.997450 0.580416
O O3 0.000000 0.000000 0.500000
O O4 0.011739 0.948495 0.414777
O O5 0.513707 0.776390 0.684410
O O6 0.880307 0.763793 0.657991
O O7 0.953720 0.636172 0.574722
O O8 0.000000 0.976988 0.250000
O O9 0.040373 0.142905 0.189235
O O10 0.994796 0.950782 0.166949
O O11 0.500000 0.893972 0.250000
O O12 0.034255 0.761369 0.366158
O O13 0.054522 0.639052 0.791774
O O14 0.498586 0.508202 0.830621
O O15 0.025449 0.426498 0.911995
O O16 0.000000 0.500000 0.000000
O O17 0.026661 0.434244 0.827373
O O18 0.000000 0.479678 0.750000
O O19 0.500000 0.632335 0.250000
#
# Coordination Sequence:
#
# PCOD9229299 Si02
#       8
#     4   4   4   4   4   4   4   4
#     4  12  26  42  63  93 126 163 209 256 310 374
#     4  10  20  38  67  91 120 162 205 252 311 371
#     4  12  25  43  63  91 126 162 209 259 311 368
#     4  11  23  42  65  91 127 166 205 252 312 374
#     4  10  19  38  67  91 120 158 205 258 308 362
#     4  10  21  40  62  90 122 159 203 253 303 361
#     4  10  20  39  62  91 119 159 206 249 303 363
#     4   9  20  40  62  85 121 163 199 241 303 371
#
# _framework density 19.066177
#
# number of rings (size 3 to 8) (size 9 to 14) (size 15 to 20)
#    0.000    1.500    2.500    3.000    1.750    1.500 
#    4.500    0.625    0.000    0.000    0.000    0.000 
#    0.000    0.000    0.000    0.000    0.000    0.000 
#
# Total GULP energy -178869.455888 kJ/mol
# GULP energy per Si atom -5589.670496 kJ/mol
# Density = 1.902278 g / cm^3
# Si number density = 19.066177 Si / 1000 Ang^3
#
#
#
# Elastic Constant Matrix: (Units=GPa)
#
#
# Indices 1 2 3 4 5 6 
#
# 1 137.5451 69.5409 48.6648 0.0000 24.6289 0.0000
# 2 69.5409 134.1591 57.4509 0.0000 11.9582 0.0000
# 3 48.6648 57.4509 101.5328 0.0000 22.7010 0.0000
# 4 0.0000 0.0000 0.0000 4.5495 0.0000 8.2704
# 5 24.6289 11.9582 22.7010 0.0000 34.5618 0.0000
# 6 0.0000 0.0000 0.0000 8.2704 0.0000 22.8115
#
#
#
# Elastic Compliance Matrix: (Units=1/GPa)
#
#
# Indices 1 2 3 4 5 6 
#
# 1 0.011098 -0.004632 -0.001510 0.000000 -0.005314 0.000000
# 2 -0.004632 0.011774 -0.005004 0.000000 0.002514 0.000000
# 3 -0.001510 -0.005004 0.014976 0.000000 -0.007029 0.000000
# 4 0.000000 0.000000 0.000000 0.644744 0.000000 -0.233755
# 5 -0.005314 0.002514 -0.007029 0.000000 0.036467 0.000000
# 6 0.000000 0.000000 0.000000 -0.233755 0.000000 0.128587
#
#
# Mechanical properties :
#
#
# Convention : Reuss Voigt Hill
#
# Bulk Modulus (GPa) = 64.28754 80.50560 72.39657
# Shear Modulus (GPa) = 5.71348 25.55660 15.63504
#
# Velocity S-wave (km/s) = 1.73296 3.66514 2.86674
# Velocity P-wave (km/s) = 6.14781 7.76060 7.00080
#
# Compressibility (1/GPa) = 0.01555511
#
# Stress axis : x y z
#
# Youngs Moduli (GPa) = 90.10439 84.93515 66.77488
#
# Poissons Ratio (x) = 0.39345 0.10084
# Poissons Ratio (y) = 0.41740 0.33412
# Poissons Ratio (z) = 0.13607 0.42499
#
# Static dielectric constant tensor:
#      x y z
#    x 1.643920 0.000000 -0.007350 
#    y 0.000000 1.650810 0.000000 
#    z -0.007350 0.000000 1.662550 
# 
# From -- ./inp_files/96105.got.cif
#   From: 2010.05.17/outbox.cif.g08.bks.cpg/sg13_49_cif.got.tgz:96105.got - 2010.06.03 16:44:36.
