data_PCOD9229921
_publ_section_title
;
Structure prediction by ZEFSAII (Michael W. Deem and Ramdas Pophale) SiO2 
 PCOD9229921
Probable space group: P 2/C
;
_chemical_formula_sum "Si O2"
_cell_formula_units_Z 20
_cell_length_a 8.121505
_cell_length_b 5.646251
_cell_length_c 15.877676
_cell_angle_alpha 90.000000
_cell_angle_beta 89.628540
_cell_angle_gamma 90.000000
_cell_volume 728.072294
_symmetry_space_group_name_H-M "P 2/C"
_symmetry_group_IT_number 13
_symmetry_cell_setting 'monoclinic'
loop_
_space_group_symop_operation_xyz
x,y,z
-x,y,1/2-z
-x,-y,-z
x,-y,1/2+z
loop_
_atom_site_type_symbol
_atom_site_label
_atom_site_fract_x
_atom_site_fract_y
_atom_site_fract_z
Si Si1 0.761884 0.279770 0.710184
Si Si2 0.128647 0.815814 0.959660
Si Si3 0.540191 0.952687 0.636073
Si Si4 0.520770 0.462302 0.901461
Si Si5 0.930228 0.565529 0.373044
O O1 0.649509 0.446880 0.652543
O O2 0.929870 0.248824 0.658040
O O3 0.804465 0.409817 0.796515
O O4 0.653370 0.040856 0.715240
O O5 0.305122 0.916081 0.930242
O O6 0.029356 0.677229 0.886360
O O7 0.148825 0.625648 0.036705
O O8 0.000000 0.000000 0.000000
O O9 0.426871 0.722206 0.631602
O O10 0.437512 0.184975 0.611214
O O11 0.500000 0.500000 0.000000
#
# Coordination Sequence:
#
# PCOD9229921 Si02
#       5
#     4   4   4   4   4
#     4   9  20  35  54  87 110 152 185 239 275 338
#     4  11  19  33  54  85 119 154 180 221 297 348
#     4  10  20  36  57  85 110 145 192 236 275 340
#     4  10  20  37  59  83 106 148 197 241 278 319
#     4  10  20  35  53  85 123 148 182 230 287 355
#
# _framework density 27.469798000000001
#
# number of rings (size 3 to 8) (size 9 to 14) (size 15 to 20)
#    1.200    0.800    4.000    0.600    2.800    1.600 
#    0.000    0.000    0.000    1.200    0.000    0.000 
#    0.000    0.000    0.000    0.000    0.000    0.000 
#
# Total GULP energy -111569.457878 kJ/mol
# GULP energy per Si atom -5578.472894 kJ/mol
# Density = 2.740728 g / cm^3
# Si number density = 27.469798 Si / 1000 Ang^3
#
#
#
# Elastic Constant Matrix: (Units=GPa)
#
#
# Indices 1 2 3 4 5 6 
#
# 1 93.5990 38.9339 10.6679 0.0000 -30.6290 0.0000
# 2 38.9339 185.4886 50.2303 0.0000 -3.0474 0.0000
# 3 10.6679 50.2303 168.7131 0.0000 25.0221 0.0000
# 4 0.0000 0.0000 0.0000 44.6066 0.0000 -10.6337
# 5 -30.6290 -3.0474 25.0221 0.0000 46.4929 0.0000
# 6 0.0000 0.0000 0.0000 -10.6337 0.0000 33.6586
#
#
#
# Elastic Compliance Matrix: (Units=1/GPa)
#
#
# Indices 1 2 3 4 5 6 
#
# 1 0.015612 -0.002589 -0.001865 0.000000 0.011119 0.000000
# 2 -0.002589 0.006383 -0.001680 0.000000 -0.000383 0.000000
# 3 -0.001865 -0.001680 0.007329 0.000000 -0.005283 0.000000
# 4 0.000000 0.000000 0.000000 0.024244 0.000000 0.007659
# 5 0.011119 -0.000383 -0.005283 0.000000 0.031652 0.000000
# 6 0.000000 0.000000 0.000000 0.007659 0.000000 0.032130
#
#
# Mechanical properties :
#
#
# Convention : Reuss Voigt Hill
#
# Bulk Modulus (GPa) = 58.63277 71.94057 65.28667
# Shear Modulus (GPa) = 36.95359 48.14952 42.55156
#
# Velocity S-wave (km/s) = 3.67174 4.19121 3.94004
# Velocity P-wave (km/s) = 6.27426 7.04751 6.67210
#
# Compressibility (1/GPa) = 0.01705531
#
# Stress axis : x y z
#
# Youngs Moduli (GPa) = 64.05271 156.65999 136.44572
#
# Poissons Ratio (x) = 0.40561 0.25453
# Poissons Ratio (y) = 0.16584 0.22922
# Poissons Ratio (z) = 0.11949 0.26318
#
# Static dielectric constant tensor:
#      x y z
#    x 2.265860 0.000000 -0.041920 
#    y 0.000000 2.207940 0.000000 
#    z -0.041920 0.000000 2.250720 
# 
# From -- ./inp_files/64909.got.cif
#   From: 2010.05.17/outbox.cif.g08.bks.cpg/sg13_33_cif.got.tgz:64909.got - 2010.06.03 16:44:36.
