data_PCOD9229273
_publ_section_title
;
Structure prediction by ZEFSAII (Michael W. Deem and Ramdas Pophale) SiO2 
 PCOD9229273
Probable space group: P 2/C
;
_chemical_formula_sum "Si O2"
_cell_formula_units_Z 16
_cell_length_a 12.237877
_cell_length_b 9.687059
_cell_length_c 8.341823
_cell_angle_alpha 90.000000
_cell_angle_beta 136.817956
_cell_angle_gamma 90.000000
_cell_volume 676.733002
_symmetry_space_group_name_H-M "P 2/C"
_symmetry_group_IT_number 13
_symmetry_cell_setting 'monoclinic'
loop_
_space_group_symop_operation_xyz
x,y,z
-x,y,1/2-z
-x,-y,-z
x,-y,1/2+z
loop_
_atom_site_type_symbol
_atom_site_label
_atom_site_fract_x
_atom_site_fract_y
_atom_site_fract_z
Si Si1 0.815393 0.458272 0.836885
Si Si2 0.681496 0.045804 0.184849
Si Si3 0.183290 0.814940 0.983920
Si Si4 0.804949 0.289064 0.519366
O O1 0.750556 0.372393 0.618018
O O2 0.800392 0.347501 0.964429
O O3 0.751166 0.605491 0.820816
O O4 0.000000 0.500000 0.000000
O O5 0.717871 0.126160 0.059708
O O6 0.732357 0.144991 0.386769
O O7 0.779400 0.904966 0.318236
O O8 0.500000 0.000000 0.000000
O O9 0.000000 0.839548 0.750000
O O10 0.000000 0.275810 0.750000
#
# Coordination Sequence:
#
# PCOD9229273 Si02
#       4
#     4   4   4   4
#     4  10  20  37  68 105 136 170 229 296 347 405
#     4  12  26  43  65 101 146 190 234 286 345 415
#     4  12  23  42  69 100 134 184 237 291 348 414
#     4  10  19  38  65 100 136 180 231 287 344 412
#
# _framework density 23.643003
#
# number of rings (size 3 to 8) (size 9 to 14) (size 15 to 20)
#    0.000    1.000    0.000   10.500    0.000    0.000 
#    0.000    1.250    0.000    6.000    0.000    0.000 
#    0.000    0.000    0.000    0.000    0.000    0.000 
#
# Total GULP energy -89447.901497 kJ/mol
# GULP energy per Si atom -5590.493844 kJ/mol
# Density = 2.358919 g / cm^3
# Si number density = 23.643003 Si / 1000 Ang^3
#
#
#
# Elastic Constant Matrix: (Units=GPa)
#
#
# Indices 1 2 3 4 5 6 
#
# 1 80.6841 28.8347 21.2724 0.0000 -11.8921 0.0000
# 2 28.8347 175.1613 43.5568 0.0000 0.3749 0.0000
# 3 21.2724 43.5568 65.8150 0.0000 -10.5326 0.0000
# 4 0.0000 0.0000 0.0000 -11.2417 0.0000 -43.3487
# 5 -11.8921 0.3749 -10.5326 0.0000 33.2410 0.0000
# 6 0.0000 0.0000 0.0000 -43.3487 0.0000 22.3995
#
#
#
# Elastic Compliance Matrix: (Units=1/GPa)
#
#
# Indices 1 2 3 4 5 6 
#
# 1 0.014370 -0.001663 -0.002864 0.000000 0.004252 0.000000
# 2 -0.001663 0.007107 -0.004502 0.000000 -0.002101 0.000000
# 3 -0.002864 -0.004502 0.019955 0.000000 0.005349 0.000000
# 4 0.000000 0.000000 0.000000 -0.010512 0.000000 -0.020343
# 5 0.004252 -0.002101 0.005349 0.000000 0.033323 0.000000
# 6 0.000000 0.000000 0.000000 -0.020343 0.000000 0.005275
#
#
# Mechanical properties :
#
#
# Convention : Reuss Voigt Hill
#
# Bulk Modulus (GPa) = 42.78085 56.55424 49.66755
# Shear Modulus (GPa) = 52.42849 24.07954 38.25402
#
# Velocity S-wave (km/s) = 4.71415 3.19480 4.02678
# Velocity P-wave (km/s) = 6.91120 6.13033 6.53245
#
# Compressibility (1/GPa) = 0.02337494
#
# Stress axis : x y z
#
# Youngs Moduli (GPa) = 69.58963 140.71097 50.11173
#
# Poissons Ratio (x) = 0.23394 0.14351
# Poissons Ratio (y) = 0.11569 0.22562
# Poissons Ratio (z) = 0.19929 0.63352
#
# Static dielectric constant tensor:
#      x y z
#    x 1.943690 0.000000 -0.073700 
#    y 0.000000 1.888010 0.000000 
#    z -0.073700 0.000000 1.836540 
# 
# From -- ./inp_files/10850.got.cif
#   From: 2010.05.17/outbox.cif.g08.bks.cpg/sg13_6_cif.got.tgz:10850.got - 2010.06.03 16:44:36.
