data_PCOD9229678
_publ_section_title
;
Structure prediction by ZEFSAII (Michael W. Deem and Ramdas Pophale) SiO2 
 PCOD9229678
Probable space group: P 2/C
;
_chemical_formula_sum "Si O2"
_cell_formula_units_Z 30
_cell_length_a 16.584073
_cell_length_b 11.241962
_cell_length_c 14.275725
_cell_angle_alpha 90.000000
_cell_angle_beta 35.188791
_cell_angle_gamma 90.000000
_cell_volume 1533.766826
_symmetry_space_group_name_H-M "P 2/C"
_symmetry_group_IT_number 13
_symmetry_cell_setting 'monoclinic'
loop_
_space_group_symop_operation_xyz
x,y,z
-x,y,1/2-z
-x,-y,-z
x,-y,1/2+z
loop_
_atom_site_type_symbol
_atom_site_label
_atom_site_fract_x
_atom_site_fract_y
_atom_site_fract_z
Si Si1 0.835633 0.151097 0.886926
Si Si2 0.594972 0.168178 0.422116
Si Si3 0.111374 0.234639 0.861194
Si Si4 0.795311 0.297276 0.107239
Si Si5 0.000000 0.708385 0.750000
Si Si6 0.101583 0.448407 0.983347
Si Si7 0.682737 0.918580 0.249412
Si Si8 0.734357 0.884064 0.986133
O O1 0.830731 0.229122 0.798357
O O2 0.000000 0.133410 0.750000
O O3 0.774299 0.021109 0.928493
O O4 0.773394 0.219337 0.034890
O O5 0.670997 0.276304 0.298361
O O6 0.428086 0.159803 0.586584
O O7 0.645060 0.157085 0.481929
O O8 0.647700 0.052691 0.313102
O O9 0.160756 0.116188 0.867594
O O10 0.178308 0.342188 0.856384
O O11 0.943411 0.251478 0.012120
O O12 0.815049 0.435821 0.062768
O O13 0.021955 0.620612 0.641305
O O14 0.133100 0.795308 0.634043
O O15 0.000000 0.500000 0.000000
O O16 0.668594 0.891709 0.152668
#
# Coordination Sequence:
#
# PCOD9229678 Si02
#       8
#     4   4   4   4   2   4   4   4
#     4  10  20  33  59  92 121 151 191 250 304 358
#     4  11  24  39  59  87 124 166 192 254 302 364
#     4  10  20  39  60  88 119 158 198 250 295 360
#     4  10  22  39  61  88 121 158 203 242 303 357
#     4  12  24  36  64  98 122 150 204 252 310 358
#     4  10  22  38  58  89 122 158 196 252 291 350
#     4  11  23  39  58  89 126 156 204 245 309 354
#     4  12  21  37  59  91 122 154 196 250 309 364
#
# _framework density 19.559688000000001
#
# number of rings (size 3 to 8) (size 9 to 14) (size 15 to 20)
#    0.000    1.333    4.667    2.000    4.667    0.533 
#    0.000    1.333    0.000    0.000    0.000    0.000 
#    0.000    0.000    0.000    0.000    0.000    0.000 
#
# Total GULP energy -167322.604667 kJ/mol
# GULP energy per Si atom -5577.420156 kJ/mol
# Density = 1.951517 g / cm^3
# Si number density = 19.559688 Si / 1000 Ang^3
#
#
#
# Elastic Constant Matrix: (Units=GPa)
#
#
# Indices 1 2 3 4 5 6 
#
# 1 43.2416 -6.4383 13.1609 0.0000 13.6504 0.0000
# 2 -6.4383 70.2340 28.9043 0.0000 1.6940 0.0000
# 3 13.1609 28.9043 75.3079 0.0000 15.0368 0.0000
# 4 0.0000 0.0000 0.0000 26.1394 0.0000 11.9199
# 5 13.6504 1.6940 15.0368 0.0000 26.8607 0.0000
# 6 0.0000 0.0000 0.0000 11.9199 0.0000 18.4116
#
#
#
# Elastic Compliance Matrix: (Units=1/GPa)
#
#
# Indices 1 2 3 4 5 6 
#
# 1 0.029180 0.004796 -0.004412 0.000000 -0.012661 0.000000
# 2 0.004796 0.017899 -0.007876 0.000000 0.000843 0.000000
# 3 -0.004412 -0.007876 0.018606 0.000000 -0.007677 0.000000
# 4 0.000000 0.000000 0.000000 0.054282 0.000000 -0.035143
# 5 -0.012661 0.000843 -0.007677 0.000000 0.047908 0.000000
# 6 0.000000 0.000000 0.000000 -0.035143 0.000000 0.077065
#
#
# Mechanical properties :
#
#
# Convention : Reuss Voigt Hill
#
# Bulk Modulus (GPa) = 19.72407 28.89305 24.30856
# Shear Modulus (GPa) = 18.06199 24.49279 21.27739
#
# Velocity S-wave (km/s) = 3.04209 3.54249 3.30179
# Velocity P-wave (km/s) = 4.73762 5.61571 5.19525
#
# Compressibility (1/GPa) = 0.05069948
#
# Stress axis : x y z
#
# Youngs Moduli (GPa) = 34.27033 55.86934 53.74676
#
# Poissons Ratio (x) = -0.26795 0.23714
# Poissons Ratio (y) = -0.16436 0.42333
# Poissons Ratio (z) = 0.15121 0.44005
#
# Static dielectric constant tensor:
#      x y z
#    x 1.713010 0.000000 -0.001030 
#    y 0.000000 1.782720 0.000000 
#    z -0.001030 0.000000 1.721650 
# 
# From -- ./inp_files/55669.got.cif
#   From: 2010.05.17/outbox.cif.g08.bks.cpg/sg13_28_cif.got.tgz:55669.got - 2010.06.03 16:44:36.
