data_PCOD9229029
_publ_section_title
;
Structure prediction by ZEFSAII (Michael W. Deem and Ramdas Pophale) SiO2 
 PCOD9229029
Probable space group: P 2/C
;
_chemical_formula_sum "Si O2"
_cell_formula_units_Z 32
_cell_length_a 19.382960
_cell_length_b 5.739019
_cell_length_c 18.743706
_cell_angle_alpha 90.000000
_cell_angle_beta 43.353852
_cell_angle_gamma 90.000000
_cell_volume 1431.380455
_symmetry_space_group_name_H-M "P 2/C"
_symmetry_group_IT_number 13
_symmetry_cell_setting 'monoclinic'
loop_
_space_group_symop_operation_xyz
x,y,z
-x,y,1/2-z
-x,-y,-z
x,-y,1/2+z
loop_
_atom_site_type_symbol
_atom_site_label
_atom_site_fract_x
_atom_site_fract_y
_atom_site_fract_z
Si Si1 0.575885 0.619253 0.135476
Si Si2 0.247338 0.098487 0.063988
Si Si3 0.744549 0.716948 0.551516
Si Si4 0.891196 0.334972 0.447557
Si Si5 0.497108 0.314781 0.439169
Si Si6 0.958330 0.250288 0.063766
Si Si7 0.221383 0.974883 0.351809
Si Si8 0.330088 0.989163 0.140464
O O1 0.500000 0.724762 0.250000
O O2 0.659981 0.476074 0.114905
O O3 0.520996 0.444539 0.121779
O O4 0.644689 0.792870 0.038800
O O5 0.248250 0.096697 0.148194
O O6 0.159136 0.231699 0.086452
O O7 0.247824 0.841801 0.030151
O O8 0.853813 0.600320 0.480319
O O9 0.715791 0.902182 0.633064
O O10 0.006245 0.279555 0.380261
O O11 0.839770 0.207369 0.554213
O O12 0.500000 0.500000 0.500000
O O13 0.599158 0.169206 0.370309
O O14 0.403845 0.153780 0.533405
O O15 0.842409 0.189214 0.135116
O O16 0.000000 0.500000 0.000000
O O17 0.000000 0.000000 0.000000
O O18 0.276667 0.852323 0.244782
#
# Coordination Sequence:
#
# PCOD9229029 Si02
#       8
#     4   4   4   4   4   4   4   4
#     4  11  22  36  56  82 112 154 212 261 308 367
#     4  10  21  38  56  83 117 160 196 251 315 376
#     4  10  19  37  57  83 112 154 201 247 311 363
#     4   9  20  37  60  90 121 152 199 255 311 365
#     4  11  23  40  58  80 121 164 203 260 319 369
#     4  10  19  38  64  98 132 158 204 264 323 372
#     4  10  21  36  63  93 116 157 205 261 305 384
#     4  11  23  40  58  84 122 164 210 250 320 388
#
# _framework density 22.35604
#
# number of rings (size 3 to 8) (size 9 to 14) (size 15 to 20)
#    0.000    1.750    3.750    0.750    0.000    4.500 
#    0.000    0.625    0.000    0.000    0.000    0.000 
#    0.000    0.000    0.000    0.000    0.000    0.000 
#
# Total GULP energy -178238.276077 kJ/mol
# GULP energy per Si atom -5569.946127 kJ/mol
# Density = 2.230516 g / cm^3
# Si number density = 22.356040 Si / 1000 Ang^3
#
#
#
# Elastic Constant Matrix: (Units=GPa)
#
#
# Indices 1 2 3 4 5 6 
#
# 1 108.5683 9.5781 7.2541 0.0000 14.5226 0.0000
# 2 9.5781 63.4373 -2.1614 0.0000 1.4657 0.0000
# 3 7.2541 -2.1614 38.0306 0.0000 17.6992 0.0000
# 4 0.0000 0.0000 0.0000 11.6955 0.0000 4.2767
# 5 14.5226 1.4657 17.6992 0.0000 16.4195 0.0000
# 6 0.0000 0.0000 0.0000 4.2767 0.0000 44.2925
#
#
#
# Elastic Compliance Matrix: (Units=1/GPa)
#
#
# Indices 1 2 3 4 5 6 
#
# 1 0.010953 -0.001159 0.004626 0.000000 -0.014571 0.000000
# 2 -0.001159 0.016105 0.002665 0.000000 -0.003285 0.000000
# 3 0.004626 0.002665 0.055341 0.000000 -0.063984 0.000000
# 4 0.000000 0.000000 0.000000 0.088633 0.000000 -0.008558
# 5 -0.014571 -0.003285 -0.063984 0.000000 0.143055 0.000000
# 6 0.000000 0.000000 0.000000 -0.008558 0.000000 0.023403
#
#
# Mechanical properties :
#
#
# Convention : Reuss Voigt Hill
#
# Bulk Modulus (GPa) = 10.56371 26.59752 18.58062
# Shear Modulus (GPa) = 14.01416 27.50586 20.76001
#
# Velocity S-wave (km/s) = 2.50644 3.51145 3.05061
# Velocity P-wave (km/s) = 3.62102 5.32573 4.55386
#
# Compressibility (1/GPa) = 0.09466374
#
# Stress axis : x y z
#
# Youngs Moduli (GPa) = 91.29892 62.09108 18.06963
#
# Poissons Ratio (x) = 0.07199 -0.08359
# Poissons Ratio (y) = 0.10586 -0.04816
# Poissons Ratio (z) = -0.42235 -0.16550
#
# Static dielectric constant tensor:
#      x y z
#    x 2.011580 0.000000 -0.118330 
#    y 0.000000 1.941730 0.000000 
#    z -0.118330 0.000000 1.891680 
# 
# From -- ./inp_files/70277.got.cif
#   From: 2010.05.17/outbox.cif.g08.bks.cpg/sg13_36_cif.got.tgz:70277.got - 2010.06.03 16:44:36.
