data_PCOD9229614
_publ_section_title
;
Structure prediction by ZEFSAII (Michael W. Deem and Ramdas Pophale) SiO2 
 PCOD9229614
Probable space group: P 2/C
;
_chemical_formula_sum "Si O2"
_cell_formula_units_Z 30
_cell_length_a 16.868842
_cell_length_b 13.609995
_cell_length_c 8.783941
_cell_angle_alpha 90.000000
_cell_angle_beta 60.671340
_cell_angle_gamma 90.000000
_cell_volume 1758.173177
_symmetry_space_group_name_H-M "P 2/C"
_symmetry_group_IT_number 13
_symmetry_cell_setting 'monoclinic'
loop_
_space_group_symop_operation_xyz
x,y,z
-x,y,1/2-z
-x,-y,-z
x,-y,1/2+z
loop_
_atom_site_type_symbol
_atom_site_label
_atom_site_fract_x
_atom_site_fract_y
_atom_site_fract_z
Si Si1 0.900313 0.427115 0.277929
Si Si2 0.212618 0.374963 0.586697
Si Si3 0.409369 0.567631 0.928478
Si Si4 0.788013 0.716486 0.084016
Si Si5 0.929019 0.138199 0.565200
Si Si6 0.000000 0.013314 0.750000
Si Si7 0.061498 0.689062 0.046248
Si Si8 0.405850 0.640608 0.282347
O O1 0.835832 0.518869 0.375390
O O2 0.850881 0.332494 0.397005
O O3 0.000000 0.440161 0.250000
O O4 0.919324 0.400293 0.085314
O O5 0.318640 0.381399 0.450014
O O6 0.204232 0.349067 0.771659
O O7 0.159440 0.296210 0.533360
O O8 0.500000 0.594545 0.750000
O O9 0.393435 0.451970 0.908663
O O10 0.416387 0.594855 0.100999
O O11 0.835167 0.816137 0.094979
O O12 0.682824 0.709308 0.135033
O O13 0.957635 0.057728 0.415200
O O14 0.006229 0.224402 0.511962
O O15 0.929958 0.084359 0.727514
O O16 0.000000 0.663884 0.250000
O O17 0.500000 0.688298 0.250000
#
# Coordination Sequence:
#
# PCOD9229614 Si02
#       8
#     4   4   4   4   4   2   4   4
#     4  12  22  31  48  71 108 148 189 211 247 298
#     4  11  22  33  48  73 104 154 185 219 254 285
#     4  10  20  33  50  68 101 141 198 226 251 291
#     4  11  21  36  51  77 107 136 181 223 254 304
#     4  11  20  39  53  81 100 136 166 214 265 322
#     4  10  22  36  62  72 104 132 166 202 272 342
#     4  12  22  35  51  72 110 139 179 220 254 299
#     4  10  20  34  52  72 102 141 183 227 261 289
#
# _framework density 17.063165999999999
#
# number of rings (size 3 to 8) (size 9 to 14) (size 15 to 20)
#    0.000    1.067    4.667    3.600    1.867    2.667 
#    0.000    0.000    0.000    0.000    0.000    0.933 
#    0.000    4.267    0.000    0.267    0.000    0.000 
#
# Total GULP energy -167257.528765 kJ/mol
# GULP energy per Si atom -5575.250959 kJ/mol
# Density = 1.702433 g / cm^3
# Si number density = 17.063166 Si / 1000 Ang^3
#
#
#
# Elastic Constant Matrix: (Units=GPa)
#
#
# Indices 1 2 3 4 5 6 
#
# 1 156.4167 44.2399 37.2724 0.0000 -14.3305 0.0000
# 2 44.2399 55.8754 33.7753 0.0000 -2.6315 0.0000
# 3 37.2724 33.7753 57.9127 0.0000 -6.4905 0.0000
# 4 0.0000 0.0000 0.0000 17.9417 0.0000 4.6635
# 5 -14.3305 -2.6315 -6.4905 0.0000 24.7898 0.0000
# 6 0.0000 0.0000 0.0000 4.6635 0.0000 21.0066
#
#
#
# Elastic Compliance Matrix: (Units=1/GPa)
#
#
# Indices 1 2 3 4 5 6 
#
# 1 0.008810 -0.005607 -0.001953 0.000000 0.003986 0.000000
# 2 -0.005607 0.031252 -0.015051 0.000000 -0.003864 0.000000
# 3 -0.001953 -0.015051 0.027813 0.000000 0.004555 0.000000
# 4 0.000000 0.000000 0.000000 0.059149 0.000000 -0.013131
# 5 0.003986 -0.003864 0.004555 0.000000 0.043426 0.000000
# 6 0.000000 0.000000 0.000000 -0.013131 0.000000 0.050519
#
#
# Mechanical properties :
#
#
# Convention : Reuss Voigt Hill
#
# Bulk Modulus (GPa) = 44.14524 55.64224 49.89374
# Shear Modulus (GPa) = 18.26532 23.07542 20.67037
#
# Velocity S-wave (km/s) = 3.27533 3.68142 3.48430
# Velocity P-wave (km/s) = 6.34283 7.12396 6.74472
#
# Compressibility (1/GPa) = 0.02265250
#
# Stress axis : x y z
#
# Youngs Moduli (GPa) = 113.51315 31.99763 35.95431
#
# Poissons Ratio (x) = 0.17940 0.07023
# Poissons Ratio (y) = 0.63643 0.54116
# Poissons Ratio (z) = 0.22171 0.48161
#
# Static dielectric constant tensor:
#      x y z
#    x 1.642500 0.000000 0.015980 
#    y 0.000000 1.590750 0.000000 
#    z 0.015980 0.000000 1.623630 
# 
# From -- ./inp_files/21720.got.cif
#   From: 2010.05.17/outbox.cif.g08.bks.cpg/sg13_11_cif.got.tgz:21720.got - 2010.06.03 16:44:36.
