data_PCOD9229391
_publ_section_title
;
Structure prediction by ZEFSAII (Michael W. Deem and Ramdas Pophale) SiO2 
 PCOD9229391
Probable space group: P 2/C
;
_chemical_formula_sum "Si O2"
_cell_formula_units_Z 32
_cell_length_a 20.431153
_cell_length_b 8.516256
_cell_length_c 19.062300
_cell_angle_alpha 90.000000
_cell_angle_beta 20.989221
_cell_angle_gamma 90.000000
_cell_volume 1188.045685
_symmetry_space_group_name_H-M "P 2/C"
_symmetry_group_IT_number 13
_symmetry_cell_setting 'monoclinic'
loop_
_space_group_symop_operation_xyz
x,y,z
-x,y,1/2-z
-x,-y,-z
x,-y,1/2+z
loop_
_atom_site_type_symbol
_atom_site_label
_atom_site_fract_x
_atom_site_fract_y
_atom_site_fract_z
Si Si1 0.259417 0.003354 0.546498
Si Si2 0.347238 0.643833 0.991208
Si Si3 0.488911 0.915041 0.098967
Si Si4 0.275945 0.802926 0.204131
Si Si5 0.905996 0.332633 0.112170
Si Si6 0.753376 0.611630 0.621113
Si Si7 0.140099 0.051101 0.514829
Si Si8 0.059491 0.387454 0.266011
O O1 0.335356 0.181241 0.472093
O O2 0.412018 0.892206 0.426458
O O3 0.209876 0.974829 0.516596
O O4 0.070419 0.004063 0.779570
O O5 0.290718 0.675092 0.128487
O O6 0.206197 0.522203 0.100248
O O7 0.555680 0.593480 0.785806
O O8 0.294994 0.003463 0.304877
O O9 0.415070 0.768923 0.128934
O O10 0.632475 0.035059 0.917458
O O11 0.063644 0.796907 0.437911
O O12 0.753537 0.337037 0.203427
O O13 0.859468 0.317215 0.241136
O O14 0.000000 0.500000 0.000000
O O15 0.854843 0.761182 0.484814
O O16 0.875291 0.462185 0.482259
O O17 0.000000 0.314956 0.250000
#
# Coordination Sequence:
#
# PCOD9229391 Si02
#       8
#     4   4   4   4   4   4   4   4
#     4  10  20  33  53  89 129 157 202 255 314 389
#     4  11  20  35  59  91 121 151 204 260 321 380
#     4  10  21  35  58  86 123 164 202 260 314 384
#     4  10  19  40  58  86 121 157 207 256 314 376
#     4  10  21  41  62  86 122 162 207 267 321 378
#     4  11  20  34  60  92 119 158 197 262 325 371
#     4  11  19  33  58  87 123 165 202 250 321 382
#     4  11  23  40  62  87 121 162 205 264 321 385
#
# _framework density 26.934989000000002
#
# number of rings (size 3 to 8) (size 9 to 14) (size 15 to 20)
#    0.000    1.500    6.250    1.875    0.000    2.000 
#    2.250    3.750    2.750    1.500    0.000    0.000 
#    0.000    0.000    0.000    0.000    0.000    0.000 
#
# Total GULP energy -178908.948556 kJ/mol
# GULP energy per Si atom -5590.904642 kJ/mol
# Density = 2.687368 g / cm^3
# Si number density = 26.934989 Si / 1000 Ang^3
#
#
#
# Elastic Constant Matrix: (Units=GPa)
#
#
# Indices 1 2 3 4 5 6 
#
# 1 149.8817 17.2568 27.5004 0.0000 -9.7680 0.0000
# 2 17.2568 53.2374 11.8103 0.0000 4.9747 0.0000
# 3 27.5004 11.8103 143.0571 0.0000 -2.6493 0.0000
# 4 0.0000 0.0000 0.0000 15.0351 0.0000 5.7667
# 5 -9.7680 4.9747 -2.6493 0.0000 50.2154 0.0000
# 6 0.0000 0.0000 0.0000 5.7667 0.0000 5.5436
#
#
#
# Elastic Compliance Matrix: (Units=1/GPa)
#
#
# Indices 1 2 3 4 5 6 
#
# 1 0.007248 -0.002234 -0.001180 0.000000 0.001569 0.000000
# 2 -0.002234 0.020022 -0.001269 0.000000 -0.002485 0.000000
# 3 -0.001180 -0.001269 0.007327 0.000000 0.000283 0.000000
# 4 0.000000 0.000000 0.000000 0.110665 0.000000 -0.115119
# 5 0.001569 -0.002485 0.000283 0.000000 0.020481 0.000000
# 6 0.000000 0.000000 0.000000 -0.115119 0.000000 0.300142
#
#
# Mechanical properties :
#
#
# Convention : Reuss Voigt Hill
#
# Bulk Modulus (GPa) = 39.63569 51.03458 45.33513
# Shear Modulus (GPa) = 10.33782 33.46606 21.90194
#
# Velocity S-wave (km/s) = 1.96122 3.52870 2.85466
# Velocity P-wave (km/s) = 4.45823 5.96580 5.26624
#
# Compressibility (1/GPa) = 0.02522979
#
# Stress axis : x y z
#
# Youngs Moduli (GPa) = 137.97113 49.94537 136.48065
#
# Poissons Ratio (x) = 0.11159 0.16102
# Poissons Ratio (y) = 0.30827 0.17326
# Poissons Ratio (z) = 0.16278 0.06340
#
# Static dielectric constant tensor:
#      x y z
#    x 2.354150 0.000000 0.035260 
#    y 0.000000 2.093230 0.000000 
#    z 0.035260 0.000000 2.052500 
# 
# From -- ./inp_files/81799.got.cif
#   From: 2010.05.17/outbox.cif.g08.bks.cpg/sg13_41_cif.got.tgz:81799.got - 2010.06.03 16:44:36.
