data_PCOD9229788
_publ_section_title
;
Structure prediction by ZEFSAII (Michael W. Deem and Ramdas Pophale) SiO2 
 PCOD9229788
Probable space group: P 2/C
;
_chemical_formula_sum "Si O2"
_cell_formula_units_Z 30
_cell_length_a 27.974628
_cell_length_b 9.144131
_cell_length_c 17.232840
_cell_angle_alpha 90.000000
_cell_angle_beta 158.686162
_cell_angle_gamma 90.000000
_cell_volume 1602.284541
_symmetry_space_group_name_H-M "P 2/C"
_symmetry_group_IT_number 13
_symmetry_cell_setting 'monoclinic'
loop_
_space_group_symop_operation_xyz
x,y,z
-x,y,1/2-z
-x,-y,-z
x,-y,1/2+z
loop_
_atom_site_type_symbol
_atom_site_label
_atom_site_fract_x
_atom_site_fract_y
_atom_site_fract_z
Si Si1 0.457041 0.958800 0.056282
Si Si2 0.503992 0.240237 0.474158
Si Si3 0.213693 0.676545 0.552083
Si Si4 0.192527 0.191299 0.191883
Si Si5 0.718439 0.166379 0.013066
Si Si6 0.769904 0.649891 0.434991
Si Si7 0.914651 0.073186 0.750642
Si Si8 0.000000 0.150245 0.250000
O O1 0.569633 0.893099 0.281849
O O2 0.479415 0.128587 0.071854
O O3 0.485258 0.865778 0.020526
O O4 0.304566 0.931883 0.845576
O O5 0.368148 0.324860 0.265371
O O6 0.630812 0.339461 0.680347
O O7 0.191590 0.717766 0.609625
O O8 0.170690 0.511742 0.470220
O O9 0.151006 0.801809 0.402896
O O10 0.248593 0.251687 0.357880
O O11 0.043870 0.141595 0.984843
O O12 0.809553 0.019916 0.141361
O O13 0.747342 0.272748 0.984142
O O14 0.872892 0.751143 0.545926
O O15 0.974252 0.953350 0.783039
#
# Coordination Sequence:
#
# PCOD9229788 Si02
#       8
#     4   4   4   4   4   4   4   2
#     4   9  17  32  58  85 109 143 190 238 275 329
#     4   9  17  33  57  85 110 142 191 235 274 330
#     4  11  21  36  61  85 113 150 197 238 281 339
#     4  11  21  33  60  84 114 146 191 239 287 339
#     4  10  21  38  56  83 117 148 186 236 296 336
#     4  10  22  35  58  83 117 151 190 231 287 349
#     4  11  20  37  58  83 113 149 191 240 283 336
#     4  10  20  34  56  84 110 146 188 244 268 324
#
# _framework density 18.723265999999999
#
# number of rings (size 3 to 8) (size 9 to 14) (size 15 to 20)
#    0.000    1.867    2.667    2.000    5.600    0.000 
#    0.000    0.667    5.867    0.000    0.000    0.000 
#    0.000    0.000    0.000    0.000    0.000    0.000 
#
# Total GULP energy -167106.706784 kJ/mol
# GULP energy per Si atom -5570.223559 kJ/mol
# Density = 1.868065 g / cm^3
# Si number density = 18.723266 Si / 1000 Ang^3
#
#
#
# Elastic Constant Matrix: (Units=GPa)
#
#
# Indices 1 2 3 4 5 6 
#
# 1 46.1386 17.2392 22.6811 0.0000 -0.2975 0.0000
# 2 17.2392 86.0666 18.4846 0.0000 -4.4606 0.0000
# 3 22.6811 18.4846 101.0361 0.0000 -1.3887 0.0000
# 4 0.0000 0.0000 0.0000 7.3564 0.0000 0.1657
# 5 -0.2975 -4.4606 -1.3887 0.0000 26.2885 0.0000
# 6 0.0000 0.0000 0.0000 0.1657 0.0000 4.2697
#
#
#
# Elastic Compliance Matrix: (Units=1/GPa)
#
#
# Indices 1 2 3 4 5 6 
#
# 1 0.025669 -0.004098 -0.005022 0.000000 -0.000670 0.000000
# 2 -0.004098 0.012848 -0.001402 0.000000 0.002060 0.000000
# 3 -0.005022 -0.001402 0.011285 0.000000 0.000301 0.000000
# 4 0.000000 0.000000 0.000000 0.136055 0.000000 -0.005280
# 5 -0.000670 0.002060 0.000301 0.000000 0.038397 0.000000
# 6 0.000000 0.000000 0.000000 -0.005280 0.000000 0.234412
#
#
# Mechanical properties :
#
#
# Convention : Reuss Voigt Hill
#
# Bulk Modulus (GPa) = 34.77230 38.89457 36.83343
# Shear Modulus (GPa) = 10.21875 19.23868 14.72871
#
# Velocity S-wave (km/s) = 2.33872 3.20898 2.80778
# Velocity P-wave (km/s) = 5.08968 5.87781 5.49788
#
# Compressibility (1/GPa) = 0.02875852
#
# Stress axis : x y z
#
# Youngs Moduli (GPa) = 38.95706 77.83554 88.60941
#
# Poissons Ratio (x) = 0.31895 0.44499
# Poissons Ratio (y) = 0.15964 0.12426
# Poissons Ratio (z) = 0.19564 0.10915
#
# Static dielectric constant tensor:
#      x y z
#    x 1.682250 0.000000 0.004830 
#    y 0.000000 1.647840 0.000000 
#    z 0.004830 0.000000 1.688540 
# 
# From -- ./inp_files/67940.got.cif
#   From: 2010.05.17/outbox.cif.g08.bks.cpg/sg13_34_cif.got.tgz:67940.got - 2010.06.03 16:44:36.
