data_PCOD9229266
_publ_section_title
;
Structure prediction by ZEFSAII (Michael W. Deem and Ramdas Pophale) SiO2 
 PCOD9229266
Probable space group: P 2/C
;
_chemical_formula_sum "Si O2"
_cell_formula_units_Z 20
_cell_length_a 8.805623
_cell_length_b 12.842485
_cell_length_c 10.216286
_cell_angle_alpha 90.000000
_cell_angle_beta 105.808583
_cell_angle_gamma 90.000000
_cell_volume 1111.622315
_symmetry_space_group_name_H-M "P 2/C"
_symmetry_group_IT_number 13
_symmetry_cell_setting 'monoclinic'
loop_
_space_group_symop_operation_xyz
x,y,z
-x,y,1/2-z
-x,-y,-z
x,-y,1/2+z
loop_
_atom_site_type_symbol
_atom_site_label
_atom_site_fract_x
_atom_site_fract_y
_atom_site_fract_z
Si Si1 0.621182 0.392541 0.398765
Si Si2 0.610636 0.999608 0.899326
Si Si3 0.193297 0.801963 0.646235
Si Si4 0.821277 0.814260 0.543363
Si Si5 0.600411 0.368707 0.905294
O O1 0.500000 0.387333 0.250000
O O2 0.755621 0.310385 0.396064
O O3 0.524395 0.361629 0.505203
O O4 0.668103 0.513490 0.422291
O O5 0.500000 0.025589 0.750000
O O6 0.694961 0.889454 0.891447
O O7 0.500000 0.000000 0.000000
O O8 0.742841 0.085658 0.958356
O O9 0.213930 0.809585 0.808597
O O10 0.009338 0.818371 0.573150
O O11 0.737873 0.714237 0.459583
O O12 0.500000 0.352092 0.750000
#
# Coordination Sequence:
#
# PCOD9229266 Si02
#       5
#     4   4   4   4   4
#     4  10  19  38  64  87 118 159 203 240 289 353
#     4  12  23  41  65  89 117 157 204 246 291 355
#     4  11  23  40  62  88 124 159 194 243 305 360
#     4  11  23  40  61  90 123 157 196 245 303 353
#     4  10  21  37  62  92 118 154 202 249 287 345
#
# _framework density 17.991723
#
# number of rings (size 3 to 8) (size 9 to 14) (size 15 to 20)
#    0.000    1.200    4.000    3.000    0.000    0.800 
#    0.000    3.000    0.000    0.000    0.000    0.000 
#    0.000    0.000    0.000    0.000    0.000    0.000 
#
# Total GULP energy -111729.980104 kJ/mol
# GULP energy per Si atom -5586.499005 kJ/mol
# Density = 1.795077 g / cm^3
# Si number density = 17.991723 Si / 1000 Ang^3
#
#
#
# Elastic Constant Matrix: (Units=GPa)
#
#
# Indices 1 2 3 4 5 6 
#
# 1 94.2865 60.0133 45.9507 0.0000 4.1594 0.0000
# 2 60.0133 90.2708 30.2462 0.0000 10.4184 0.0000
# 3 45.9507 30.2462 117.6620 0.0000 -0.7759 0.0000
# 4 0.0000 0.0000 0.0000 24.2111 0.0000 -6.3044
# 5 4.1594 10.4184 -0.7759 0.0000 31.5495 0.0000
# 6 0.0000 0.0000 0.0000 -6.3044 0.0000 9.5334
#
#
#
# Elastic Compliance Matrix: (Units=1/GPa)
#
#
# Indices 1 2 3 4 5 6 
#
# 1 0.020800 -0.012307 -0.004951 0.000000 0.001200 0.000000
# 2 -0.012307 0.019953 -0.000356 0.000000 -0.004975 0.000000
# 3 -0.004951 -0.000356 0.010531 0.000000 0.001029 0.000000
# 4 0.000000 0.000000 0.000000 0.049895 0.000000 0.032996
# 5 0.001200 -0.004975 0.001029 0.000000 0.033206 0.000000
# 6 0.000000 0.000000 0.000000 0.032996 0.000000 0.126715
#
#
# Mechanical properties :
#
#
# Convention : Reuss Voigt Hill
#
# Bulk Modulus (GPa) = 62.28529 63.84883 63.06706
# Shear Modulus (GPa) = 16.57383 24.12608 20.34996
#
# Velocity S-wave (km/s) = 3.03841 3.66588 3.36679
# Velocity P-wave (km/s) = 6.85589 7.31322 7.08824
#
# Compressibility (1/GPa) = 0.01605516
#
# Stress axis : x y z
#
# Youngs Moduli (GPa) = 48.07755 50.11702 94.96020
#
# Poissons Ratio (x) = 0.61682 0.47017
# Poissons Ratio (y) = 0.59171 0.03376
# Poissons Ratio (z) = 0.23804 0.01782
#
# Static dielectric constant tensor:
#      x y z
#    x 1.578860 0.000000 -0.025900 
#    y 0.000000 1.628450 0.000000 
#    z -0.025900 0.000000 1.610910 
# 
# From -- ./inp_files/11671.got.cif
#   From: 2010.05.17/outbox.cif.g08.bks.cpg/sg13_6_cif.got.tgz:11671.got - 2010.06.03 16:44:36.
