data_PCOD9229842
_publ_section_title
;
Structure prediction by ZEFSAII (Michael W. Deem and Ramdas Pophale) SiO2 
 PCOD9229842
Probable space group: P 2/C
;
_chemical_formula_sum "Si O2"
_cell_formula_units_Z 30
_cell_length_a 19.659625
_cell_length_b 9.474806
_cell_length_c 14.321231
_cell_angle_alpha 90.000000
_cell_angle_beta 26.606044
_cell_angle_gamma 90.000000
_cell_volume 1194.708047
_symmetry_space_group_name_H-M "P 2/C"
_symmetry_group_IT_number 13
_symmetry_cell_setting 'monoclinic'
loop_
_space_group_symop_operation_xyz
x,y,z
-x,y,1/2-z
-x,-y,-z
x,-y,1/2+z
loop_
_atom_site_type_symbol
_atom_site_label
_atom_site_fract_x
_atom_site_fract_y
_atom_site_fract_z
Si Si1 0.100648 0.101269 0.268466
Si Si2 0.689481 0.242304 0.970491
Si Si3 0.083675 0.650549 0.545558
Si Si4 0.186780 0.072154 0.366379
Si Si5 0.022079 0.335077 0.610385
Si Si6 0.450510 0.941454 0.685119
Si Si7 0.649342 0.231396 0.675546
Si Si8 0.500000 0.513222 0.250000
O O1 0.169748 0.039256 0.277989
O O2 0.013804 0.245866 0.397685
O O3 0.228052 0.148298 0.039626
O O4 0.961475 0.003174 0.405630
O O5 0.645224 0.143055 0.115490
O O6 0.597617 0.158709 0.002801
O O7 0.618701 0.400231 0.062340
O O8 0.867124 0.272576 0.757680
O O9 0.249556 0.716083 0.360675
O O10 0.000000 0.651562 0.750000
O O11 0.067694 0.493558 0.529190
O O12 0.340688 0.044555 0.231469
O O13 0.160251 0.236827 0.413037
O O14 0.000000 0.331256 0.750000
O O15 0.479551 0.109294 0.665256
O O16 0.585533 0.377410 0.712840
#
# Coordination Sequence:
#
# PCOD9229842 Si02
#       8
#     4   4   4   4   4   4   4   2
#     4  10  22  37  56  87 122 156 194 252 299 358
#     4  10  21  35  59  92 122 143 206 250 293 346
#     4   9  19  33  57  85 113 146 200 243 290 344
#     4  11  22  36  60  87 124 154 199 242 307 357
#     4  11  20  35  63  93 112 155 199 254 293 344
#     4  10  20  35  59  88 114 159 193 247 291 359
#     4  11  20  36  61  86 119 155 202 249 302 352
#     4  10  20  34  58  86 118 154 192 256 292 354
#
# _framework density 25.110738000000001
#
# number of rings (size 3 to 8) (size 9 to 14) (size 15 to 20)
#    0.000    1.867    2.667    4.000    1.867    0.533 
#    0.000    0.000    2.933   11.200    0.000    0.000 
#    0.000    0.000    0.000    0.000    0.000    0.000 
#
# Total GULP energy -167633.639515 kJ/mol
# GULP energy per Si atom -5587.787984 kJ/mol
# Density = 2.505358 g / cm^3
# Si number density = 25.110738 Si / 1000 Ang^3
#
#
#
# Elastic Constant Matrix: (Units=GPa)
#
#
# Indices 1 2 3 4 5 6 
#
# 1 118.9352 38.1754 43.0352 0.0000 -26.6827 0.0000
# 2 38.1754 217.0085 45.2639 0.0000 -23.9253 0.0000
# 3 43.0352 45.2639 77.8942 0.0000 -18.6554 0.0000
# 4 0.0000 0.0000 0.0000 28.2016 0.0000 -17.2849
# 5 -26.6827 -23.9253 -18.6554 0.0000 44.0974 0.0000
# 6 0.0000 0.0000 0.0000 -17.2849 0.0000 33.7685
#
#
#
# Elastic Compliance Matrix: (Units=1/GPa)
#
#
# Indices 1 2 3 4 5 6 
#
# 1 0.011355 -0.000473 -0.004912 0.000000 0.004536 0.000000
# 2 -0.000473 0.005385 -0.002489 0.000000 0.001583 0.000000
# 3 -0.004912 -0.002489 0.017763 0.000000 0.003192 0.000000
# 4 0.000000 0.000000 0.000000 0.051669 0.000000 0.026447
# 5 0.004536 0.001583 0.003192 0.000000 0.027631 0.000000
# 6 0.000000 0.000000 0.000000 0.026447 0.000000 0.043151
#
#
# Mechanical properties :
#
#
# Convention : Reuss Voigt Hill
#
# Bulk Modulus (GPa) = 53.32088 74.08741 63.70415
# Shear Modulus (GPa) = 27.94055 40.37107 34.15581
#
# Velocity S-wave (km/s) = 3.33932 4.01399 3.69210
# Velocity P-wave (km/s) = 6.01236 7.14501 6.60302
#
# Compressibility (1/GPa) = 0.01875438
#
# Stress axis : x y z
#
# Youngs Moduli (GPa) = 88.06888 185.70425 56.29824
#
# Poissons Ratio (x) = 0.08780 0.27655
# Poissons Ratio (y) = 0.04164 0.14012
# Poissons Ratio (z) = 0.43261 0.46220
#
# Static dielectric constant tensor:
#      x y z
#    x 2.064290 0.000000 0.062870 
#    y 0.000000 1.949660 0.000000 
#    z 0.062870 0.000000 2.092150 
# 
# From -- ./inp_files/70575.got.cif
#   From: 2010.05.17/outbox.cif.g08.bks.cpg/sg13_36_cif.got.tgz:70575.got - 2010.06.03 16:44:36.
