data_PCOD9229146
_publ_section_title
;
Structure prediction by ZEFSAII (Michael W. Deem and Ramdas Pophale) SiO2 
 PCOD9229146
Probable space group: P 2/C
;
_chemical_formula_sum "Si O2"
_cell_formula_units_Z 32
_cell_length_a 23.256691
_cell_length_b 8.697200
_cell_length_c 23.285295
_cell_angle_alpha 90.000000
_cell_angle_beta 18.719755
_cell_angle_gamma 90.000000
_cell_volume 1511.584316
_symmetry_space_group_name_H-M "P 2/C"
_symmetry_group_IT_number 13
_symmetry_cell_setting 'monoclinic'
loop_
_space_group_symop_operation_xyz
x,y,z
-x,y,1/2-z
-x,-y,-z
x,-y,1/2+z
loop_
_atom_site_type_symbol
_atom_site_label
_atom_site_fract_x
_atom_site_fract_y
_atom_site_fract_z
Si Si1 0.873851 0.262591 0.447697
Si Si2 0.471379 0.267344 0.020659
Si Si3 0.706534 0.872678 0.715264
Si Si4 0.981240 0.364769 0.970476
Si Si5 0.442064 0.034653 0.746186
Si Si6 0.307904 0.517894 0.101888
Si Si7 0.723332 0.682164 0.973821
Si Si8 0.174907 0.805915 0.381775
O O1 0.755990 0.106182 0.555563
O O2 0.771816 0.359307 0.494279
O O3 0.859158 0.298363 0.529547
O O4 0.083700 0.258613 0.233333
O O5 0.557946 0.368634 0.990737
O O6 0.624443 0.228852 0.830268
O O7 0.380166 0.128805 0.139818
O O8 0.324084 0.365448 0.126171
O O9 0.796829 0.705910 0.622531
O O10 0.565191 0.920477 0.800292
O O11 0.840669 0.016939 0.586502
O O12 0.114447 0.406427 0.793256
O O13 0.055733 0.228422 0.939945
O O14 0.000000 0.500000 0.000000
O O15 0.500000 0.955595 0.750000
O O16 0.575501 0.181212 0.610956
O O17 0.337250 0.457970 0.009809
#
# Coordination Sequence:
#
# PCOD9229146 Si02
#       8
#     4   4   4   4   4   4   4   4
#     4   9  19  35  61  94 116 150 202 258 304 358
#     4  10  21  36  58  83 125 162 199 247 313 365
#     4  11  21  38  59  89 118 163 210 248 306 372
#     4  11  21  36  56  84 126 164 188 248 308 365
#     4   9  20  40  64  89 123 154 206 262 309 359
#     4  10  20  36  55  83 121 161 201 240 306 369
#     4  10  19  37  64  90 118 157 201 258 310 357
#     4  10  21  37  58  92 122 152 206 262 301 366
#
# _framework density 21.169841000000002
#
# number of rings (size 3 to 8) (size 9 to 14) (size 15 to 20)
#    0.000    2.000    1.250    3.000    0.000    0.000 
#   11.250    0.000    8.250    0.000    0.000    0.000 
#    0.000    0.000    0.000    0.000    0.000    0.000 
#
# Total GULP energy -178194.205157 kJ/mol
# GULP energy per Si atom -5568.568911 kJ/mol
# Density = 2.112166 g / cm^3
# Si number density = 21.169841 Si / 1000 Ang^3
#
#
#
# Elastic Constant Matrix: (Units=GPa)
#
#
# Indices 1 2 3 4 5 6 
#
# 1 85.4739 27.2115 12.9179 0.0000 8.1875 0.0000
# 2 27.2115 48.9595 10.9312 0.0000 -1.5156 0.0000
# 3 12.9179 10.9312 73.8456 0.0000 0.7293 0.0000
# 4 0.0000 0.0000 0.0000 22.0993 0.0000 0.9458
# 5 8.1875 -1.5156 0.7293 0.0000 29.3427 0.0000
# 6 0.0000 0.0000 0.0000 0.9458 0.0000 34.3112
#
#
#
# Elastic Compliance Matrix: (Units=1/GPa)
#
#
# Indices 1 2 3 4 5 6 
#
# 1 0.014932 -0.008136 -0.001363 0.000000 -0.004553 0.000000
# 2 -0.008136 0.025596 -0.002402 0.000000 0.003652 0.000000
# 3 -0.001363 -0.002402 0.014137 0.000000 -0.000095 0.000000
# 4 0.000000 0.000000 0.000000 0.045304 0.000000 -0.001249
# 5 -0.004553 0.003652 -0.000095 0.000000 0.035541 0.000000
# 6 0.000000 0.000000 0.000000 -0.001249 0.000000 0.029179
#
#
# Mechanical properties :
#
#
# Convention : Reuss Voigt Hill
#
# Bulk Modulus (GPa) = 32.40024 34.48891 33.44457
# Shear Modulus (GPa) = 25.15379 27.63185 26.39282
#
# Velocity S-wave (km/s) = 3.45075 3.61674 3.53472
# Velocity P-wave (km/s) = 5.58704 5.81102 5.70013
#
# Compressibility (1/GPa) = 0.03086397
#
# Stress axis : x y z
#
# Youngs Moduli (GPa) = 66.97214 39.06845 70.73814
#
# Poissons Ratio (x) = 0.31784 0.09640
# Poissons Ratio (y) = 0.54486 0.16990
# Poissons Ratio (z) = 0.09127 0.09384
#
# Static dielectric constant tensor:
#      x y z
#    x 1.815700 0.000000 -0.011070 
#    y 0.000000 1.813690 0.000000 
#    z -0.011070 0.000000 1.825520 
# 
# From -- ./inp_files/88939.got.cif
#   From: 2010.05.17/outbox.cif.g08.bks.cpg/sg13_45_cif.got.tgz:88939.got - 2010.06.03 16:44:36.
