data_PCOD9229324
_publ_section_title
;
Structure prediction by ZEFSAII (Michael W. Deem and Ramdas Pophale) SiO2 
 PCOD9229324
Probable space group: P 2/C
;
_chemical_formula_sum "Si O2"
_cell_formula_units_Z 28
_cell_length_a 19.891485
_cell_length_b 9.635561
_cell_length_c 14.426444
_cell_angle_alpha 90.000000
_cell_angle_beta 146.848134
_cell_angle_gamma 90.000000
_cell_volume 1512.097229
_symmetry_space_group_name_H-M "P 2/C"
_symmetry_group_IT_number 13
_symmetry_cell_setting 'monoclinic'
loop_
_space_group_symop_operation_xyz
x,y,z
-x,y,1/2-z
-x,-y,-z
x,-y,1/2+z
loop_
_atom_site_type_symbol
_atom_site_label
_atom_site_fract_x
_atom_site_fract_y
_atom_site_fract_z
Si Si1 0.327610 0.390337 0.785950
Si Si2 0.988476 0.110460 0.128796
Si Si3 0.400411 0.885327 0.708354
Si Si4 0.068323 0.358277 0.556071
Si Si5 0.702166 0.925644 0.252116
Si Si6 0.509992 0.574457 0.656500
Si Si7 0.191374 0.879763 0.317927
O O1 0.182047 0.401829 0.622607
O O2 0.351276 0.228294 0.793910
O O3 0.390281 0.486120 0.783113
O O4 0.386142 0.430451 0.952856
O O5 0.000000 0.143431 0.250000
O O6 0.011907 0.245279 0.092246
O O7 0.846007 0.069819 0.948164
O O8 0.081136 0.987766 0.208074
O O9 0.500000 0.946605 0.750000
O O10 0.450644 0.734637 0.793408
O O11 0.274175 0.865884 0.504640
O O12 0.373213 0.970619 0.770302
O O13 0.131990 0.264738 0.711371
O O14 0.000000 0.500000 0.500000
O O15 0.718380 0.936990 0.159654
O O16 0.500000 0.524512 0.750000
#
# Coordination Sequence:
#
# PCOD9229324 Si02
#       7
#     4   4   4   4   4   4   4
#     4   9  21  39  56  80 115 149 185 231 283 334
#     4  10  19  39  60  83 115 152 185 234 289 338
#     4  11  22  36  58  87 112 146 194 233 278 336
#     4  10  21  39  58  85 117 148 190 236 280 339
#     4  10  20  37  58  82 115 142 187 236 279 335
#     4  10  20  38  59  79 111 151 188 229 282 336
#     4  10  21  39  60  84 115 152 185 234 290 341
#
# _framework density 18.517327999999999
#
# number of rings (size 3 to 8) (size 9 to 14) (size 15 to 20)
#    0.000    2.286    1.429    5.143    0.000    5.143 
#   10.286    2.857    0.000    0.000    0.000    0.000 
#    0.000    0.000    0.000    0.000    0.000    0.000 
#
# Total GULP energy -156101.226679 kJ/mol
# GULP energy per Si atom -5575.043810 kJ/mol
# Density = 1.847518 g / cm^3
# Si number density = 18.517328 Si / 1000 Ang^3
#
#
#
# Elastic Constant Matrix: (Units=GPa)
#
#
# Indices 1 2 3 4 5 6 
#
# 1 83.6571 52.9097 18.8799 0.0000 -11.2632 0.0000
# 2 52.9097 68.1581 10.3215 0.0000 6.8397 0.0000
# 3 18.8799 10.3215 37.9842 0.0000 -4.5675 0.0000
# 4 0.0000 0.0000 0.0000 14.5658 0.0000 7.5011
# 5 -11.2632 6.8397 -4.5675 0.0000 28.2755 0.0000
# 6 0.0000 0.0000 0.0000 7.5011 0.0000 40.6445
#
#
#
# Elastic Compliance Matrix: (Units=1/GPa)
#
#
# Indices 1 2 3 4 5 6 
#
# 1 0.032222 -0.025779 -0.006851 0.000000 0.017965 0.000000
# 2 -0.025779 0.036497 0.000611 0.000000 -0.018998 0.000000
# 3 -0.006851 0.000611 0.029799 0.000000 0.001937 0.000000
# 4 0.000000 0.000000 0.000000 0.075864 0.000000 -0.014001
# 5 0.017965 -0.018998 0.001937 0.000000 0.047431 0.000000
# 6 0.000000 0.000000 0.000000 -0.014001 0.000000 0.027187
#
#
# Mechanical properties :
#
#
# Convention : Reuss Voigt Hill
#
# Bulk Modulus (GPa) = 29.00107 39.33576 34.16842
# Shear Modulus (GPa) = 15.40680 23.87638 19.64159
#
# Velocity S-wave (km/s) = 2.88761 3.59473 3.26039
# Velocity P-wave (km/s) = 5.17815 6.20630 5.71540
#
# Compressibility (1/GPa) = 0.03448149
#
# Stress axis : x y z
#
# Youngs Moduli (GPa) = 31.03423 27.39923 33.55845
#
# Poissons Ratio (x) = 0.70632 0.22991
# Poissons Ratio (y) = 0.80003 -0.02051
# Poissons Ratio (z) = 0.21261 -0.01675
#
# Static dielectric constant tensor:
#      x y z
#    x 1.641090 0.000000 -0.018710 
#    y 0.000000 1.629830 0.000000 
#    z -0.018710 0.000000 1.672030 
# 
# From -- ./inp_files/57323.got.cif
#   From: 2010.05.17/outbox.cif.g08.bks.cpg/sg13_29_cif.got.tgz:57323.got - 2010.06.03 16:44:36.
