data_PCOD9229326
_publ_section_title
;
Structure prediction by ZEFSAII (Michael W. Deem and Ramdas Pophale) SiO2 
 PCOD9229326
Probable space group: P 2/C
;
_chemical_formula_sum "Si O2"
_cell_formula_units_Z 32
_cell_length_a 21.180039
_cell_length_b 5.708489
_cell_length_c 17.528614
_cell_angle_alpha 90.000000
_cell_angle_beta 126.440140
_cell_angle_gamma 90.000000
_cell_volume 1704.941966
_symmetry_space_group_name_H-M "P 2/C"
_symmetry_group_IT_number 13
_symmetry_cell_setting 'monoclinic'
loop_
_space_group_symop_operation_xyz
x,y,z
-x,y,1/2-z
-x,-y,-z
x,-y,1/2+z
loop_
_atom_site_type_symbol
_atom_site_label
_atom_site_fract_x
_atom_site_fract_y
_atom_site_fract_z
Si Si1 0.678877 0.237033 0.330362
Si Si2 0.313145 0.040694 0.518780
Si Si3 0.206790 0.384710 0.535527
Si Si4 0.404479 0.539986 0.339214
Si Si5 0.093450 0.619655 0.820630
Si Si6 0.747598 0.856139 0.277147
Si Si7 0.167357 0.878506 0.320542
Si Si8 0.549374 0.195666 0.991662
O O1 0.756812 0.368456 0.415070
O O2 0.613329 0.409996 0.252465
O O3 0.651694 0.083943 0.381667
O O4 0.705568 0.090151 0.276156
O O5 0.268915 0.266574 0.521740
O O6 0.378995 0.098200 0.505190
O O7 0.245261 0.889966 0.429188
O O8 0.126674 0.388190 0.431223
O O9 0.208302 0.239858 0.615509
O O10 0.325130 0.687401 0.295952
O O11 0.418113 0.372950 0.421395
O O12 0.484486 0.684058 0.391613
O O13 0.125402 0.373401 0.806522
O O14 0.000000 0.616301 0.750000
O O15 0.122733 0.873141 0.807309
O O16 0.804097 0.885500 0.246353
O O17 0.500000 0.000000 0.000000
#
# Coordination Sequence:
#
# PCOD9229326 Si02
#       8
#     4   4   4   4   4   4   4   4
#     4  10  19  39  60  85 119 160 214 269 320 380
#     4  10  21  37  61  88 119 165 223 257 326 381
#     4   9  21  39  63  90 123 167 209 268 314 393
#     4  10  22  37  58  84 123 162 207 274 329 370
#     4  11  24  44  67 101 137 170 210 265 329 390
#     4  10  22  39  64  91 122 166 221 268 315 386
#     4  11  23  40  70  98 127 175 218 264 314 396
#     4  11  23  39  56  86 124 164 210 274 327 383
#
# _framework density 18.768967
#
# number of rings (size 3 to 8) (size 9 to 14) (size 15 to 20)
#    0.000    1.750    1.250    2.625    7.000    2.000 
#    0.000   16.250    0.000    0.000    0.000    0.000 
#    0.000    0.000    0.000    0.000    0.000    0.000 
#
# Total GULP energy -178473.462970 kJ/mol
# GULP energy per Si atom -5577.295718 kJ/mol
# Density = 1.872625 g / cm^3
# Si number density = 18.768967 Si / 1000 Ang^3
#
#
#
# Elastic Constant Matrix: (Units=GPa)
#
#
# Indices 1 2 3 4 5 6 
#
# 1 100.2121 47.1444 61.9518 0.0000 8.2582 0.0000
# 2 47.1444 96.0499 45.0944 0.0000 12.1343 0.0000
# 3 61.9518 45.0944 120.0307 0.0000 23.1441 0.0000
# 4 0.0000 0.0000 0.0000 22.9324 0.0000 -0.2841
# 5 8.2582 12.1343 23.1441 0.0000 23.6290 0.0000
# 6 0.0000 0.0000 0.0000 -0.2841 0.0000 -13.3984
#
#
#
# Elastic Compliance Matrix: (Units=1/GPa)
#
#
# Indices 1 2 3 4 5 6 
#
# 1 0.016706 -0.005221 -0.007461 0.000000 0.004151 0.000000
# 2 -0.005221 0.014372 -0.002014 0.000000 -0.003583 0.000000
# 3 -0.007461 -0.002014 0.015086 0.000000 -0.011134 0.000000
# 4 0.000000 0.000000 0.000000 0.043595 0.000000 -0.000924
# 5 0.004151 -0.003583 -0.011134 0.000000 0.053616 0.000000
# 6 0.000000 0.000000 0.000000 -0.000924 0.000000 -0.074616
#
#
# Mechanical properties :
#
#
# Convention : Reuss Voigt Hill
#
# Bulk Modulus (GPa) = 59.62556 69.40821 64.51688
# Shear Modulus (GPa) = 48.19711 17.43939 32.81825
#
# Velocity S-wave (km/s) = 5.07296 3.05152 4.18609
# Velocity P-wave (km/s) = 8.13329 7.03394 7.60351
#
# Compressibility (1/GPa) = 0.01677133
#
# Stress axis : x y z
#
# Youngs Moduli (GPa) = 59.86046 69.57947 66.28857
#
# Poissons Ratio (x) = 0.36328 0.49459
# Poissons Ratio (y) = 0.31254 0.13349
# Poissons Ratio (z) = 0.44662 0.14011
#
# Static dielectric constant tensor:
#      x y z
#    x 1.594350 0.000000 0.002780 
#    y 0.000000 1.732920 0.000000 
#    z 0.002780 0.000000 1.645900 
# 
# From -- ./inp_files/70296.got.cif
#   From: 2010.05.17/outbox.cif.g08.bks.cpg/sg13_36_cif.got.tgz:70296.got - 2010.06.03 16:44:36.
