data_PCOD9229028
_publ_section_title
;
Structure prediction by ZEFSAII (Michael W. Deem and Ramdas Pophale) SiO2 
 PCOD9229028
Probable space group: P 2/C
;
_chemical_formula_sum "Si O2"
_cell_formula_units_Z 30
_cell_length_a 12.104979
_cell_length_b 6.028376
_cell_length_c 22.667876
_cell_angle_alpha 90.000000
_cell_angle_beta 77.956330
_cell_angle_gamma 90.000000
_cell_volume 1617.741416
_symmetry_space_group_name_H-M "P 2/C"
_symmetry_group_IT_number 13
_symmetry_cell_setting 'monoclinic'
loop_
_space_group_symop_operation_xyz
x,y,z
-x,y,1/2-z
-x,-y,-z
x,-y,1/2+z
loop_
_atom_site_type_symbol
_atom_site_label
_atom_site_fract_x
_atom_site_fract_y
_atom_site_fract_z
Si Si1 0.500000 0.396119 0.250000
Si Si2 0.310743 0.082589 0.320581
Si Si3 0.861884 0.659338 0.738680
Si Si4 0.860752 0.916682 0.079476
Si Si5 0.177875 0.985792 0.155849
Si Si6 0.004614 0.610375 0.139127
Si Si7 0.085985 0.223598 0.056105
Si Si8 0.679190 0.286296 0.780627
O O1 0.428022 0.552956 0.214148
O O2 0.418740 0.238434 0.298056
O O3 0.261931 0.009866 0.389188
O O4 0.325624 0.871017 0.276216
O O5 0.206734 0.221962 0.306042
O O6 0.785154 0.453336 0.767254
O O7 0.970117 0.558706 0.694142
O O8 0.862795 0.848367 0.788235
O O9 0.896336 0.734438 0.124332
O O10 0.866511 0.808850 0.014420
O O11 0.964213 0.095527 0.070816
O O12 0.086656 0.793326 0.156364
O O13 0.293903 0.874846 0.166863
O O14 0.170494 0.116663 0.095021
O O15 0.062768 0.473255 0.079983
#
# Coordination Sequence:
#
# PCOD9229028 Si02
#       8
#     2   4   4   4   4   4   4   4
#     4  10  22  36  60  86 110 142 192 248 308 348
#     4  10  19  37  57  83 110 146 189 243 297 345
#     4  10  20  34  52  77 115 148 186 232 289 343
#     4  10  20  36  56  79 116 157 201 239 280 341
#     4  10  23  34  51  81 118 157 190 232 287 350
#     4  11  20  35  52  81 117 159 195 230 284 346
#     4  10  21  35  52  81 117 162 202 232 271 345
#     4  10  20  37  55  81 112 148 184 240 299 358
#
# _framework density 18.544373
#
# number of rings (size 3 to 8) (size 9 to 14) (size 15 to 20)
#    0.000    1.867    2.667    1.600    0.000    3.200 
#    2.400    0.000    0.000    0.800    0.000   17.733 
#    0.000    0.000    0.000    0.000    0.000    0.000 
#
# Total GULP energy -167320.111439 kJ/mol
# GULP energy per Si atom -5577.337048 kJ/mol
# Density = 1.850217 g / cm^3
# Si number density = 18.544373 Si / 1000 Ang^3
#
#
#
# Elastic Constant Matrix: (Units=GPa)
#
#
# Indices 1 2 3 4 5 6 
#
# 1 69.1873 25.5394 30.4387 0.0000 -2.9367 0.0000
# 2 25.5394 80.2031 9.9281 0.0000 -5.5111 0.0000
# 3 30.4387 9.9281 74.1585 0.0000 0.1917 0.0000
# 4 0.0000 0.0000 0.0000 16.8666 0.0000 10.0137
# 5 -2.9367 -5.5111 0.1917 0.0000 16.0092 0.0000
# 6 0.0000 0.0000 0.0000 10.0137 0.0000 40.3132
#
#
#
# Elastic Compliance Matrix: (Units=1/GPa)
#
#
# Indices 1 2 3 4 5 6 
#
# 1 0.019721 -0.005233 -0.007399 0.000000 0.001905 0.000000
# 2 -0.005233 0.014383 0.000212 0.000000 0.003989 0.000000
# 3 -0.007399 0.000212 0.016497 0.000000 -0.001482 0.000000
# 4 0.000000 0.000000 0.000000 0.069545 0.000000 -0.017275
# 5 0.001905 0.003989 -0.001482 0.000000 0.064204 0.000000
# 6 0.000000 0.000000 0.000000 -0.017275 0.000000 0.029097
#
#
# Mechanical properties :
#
#
# Convention : Reuss Voigt Hill
#
# Bulk Modulus (GPa) = 38.81854 39.48458 39.15156
# Shear Modulus (GPa) = 20.25330 25.14733 22.70031
#
# Velocity S-wave (km/s) = 3.30836 3.68647 3.50252
# Velocity P-wave (km/s) = 5.96422 6.28158 6.12495
#
# Compressibility (1/GPa) = 0.02576088
#
# Stress axis : x y z
#
# Youngs Moduli (GPa) = 50.70671 69.52858 60.61703
#
# Poissons Ratio (x) = 0.36385 0.44851
# Poissons Ratio (y) = 0.26536 -0.01286
# Poissons Ratio (z) = 0.37518 -0.01475
#
# Static dielectric constant tensor:
#      x y z
#    x 1.699850 0.000000 0.025420 
#    y 0.000000 1.695900 0.000000 
#    z 0.025420 0.000000 1.638480 
# 
# From -- ./inp_files/85812.got.cif
#   From: 2010.05.17/outbox.cif.g08.bks.cpg/sg13_43_cif.got.tgz:85812.got - 2010.06.03 16:44:36.
