data_PCOD9229218
_publ_section_title
;
Structure prediction by ZEFSAII (Michael W. Deem and Ramdas Pophale) SiO2 
 PCOD9229218
Probable space group: P 2/C
;
_chemical_formula_sum "Si O2"
_cell_formula_units_Z 24
_cell_length_a 8.915922
_cell_length_b 9.701692
_cell_length_c 29.098043
_cell_angle_alpha 90.000000
_cell_angle_beta 26.077085
_cell_angle_gamma 90.000000
_cell_volume 1106.408300
_symmetry_space_group_name_H-M "P 2/C"
_symmetry_group_IT_number 13
_symmetry_cell_setting 'monoclinic'
loop_
_space_group_symop_operation_xyz
x,y,z
-x,y,1/2-z
-x,-y,-z
x,-y,1/2+z
loop_
_atom_site_type_symbol
_atom_site_label
_atom_site_fract_x
_atom_site_fract_y
_atom_site_fract_z
Si Si1 0.488282 0.625780 0.306851
Si Si2 0.589580 0.837762 0.612154
Si Si3 0.601516 0.156526 0.591143
Si Si4 0.492176 0.330603 0.535489
Si Si5 0.223879 0.661160 0.785354
Si Si6 0.273970 0.616590 0.999850
O O1 0.500000 0.668858 0.250000
O O2 0.537550 0.748922 0.329006
O O3 0.716737 0.490994 0.252224
O O4 0.092056 0.578519 0.420553
O O5 0.326114 0.776453 0.721005
O O6 0.576073 0.739181 0.571514
O O7 0.982640 0.828544 0.522490
O O8 0.522888 0.996597 0.619668
O O9 0.461188 0.213958 0.581826
O O10 0.506556 0.477705 0.557409
O O11 0.236508 0.333286 0.563029
O O12 0.857146 0.321144 0.409069
O O13 0.500000 0.667049 0.750000
#
# Coordination Sequence:
#
# PCOD9229218 Si02
#       6
#     4   4   4   4   4   4
#     4  10  19  38  61  86 109 145 194 238 271 332
#     4  10  21  37  57  83 114 153 187 229 277 344
#     4  10  21  37  58  84 113 152 190 224 284 339
#     4  11  21  37  60  87 112 149 187 239 283 331
#     4  11  19  35  61  86 112 143 196 236 275 323
#     4  10  21  37  60  83 115 145 188 233 291 326
#
# _framework density 21.691811999999999
#
# number of rings (size 3 to 8) (size 9 to 14) (size 15 to 20)
#    0.000    1.667    5.000    1.000    0.000    4.667 
#    3.000    0.833    3.667    0.000    0.000    0.000 
#    0.000    0.000    0.000    0.000    0.000    0.000 
#
# Total GULP energy -134209.528099 kJ/mol
# GULP energy per Si atom -5592.063671 kJ/mol
# Density = 2.164244 g / cm^3
# Si number density = 21.691812 Si / 1000 Ang^3
#
#
#
# Elastic Constant Matrix: (Units=GPa)
#
#
# Indices 1 2 3 4 5 6 
#
# 1 52.7065 54.2697 28.7312 0.0000 6.3114 0.0000
# 2 54.2697 145.6101 56.0054 0.0000 27.6297 0.0000
# 3 28.7312 56.0054 72.3454 0.0000 3.3755 0.0000
# 4 0.0000 0.0000 0.0000 16.1609 0.0000 6.3421
# 5 6.3114 27.6297 3.3755 0.0000 30.0583 0.0000
# 6 0.0000 0.0000 0.0000 6.3421 0.0000 24.2281
#
#
#
# Elastic Compliance Matrix: (Units=1/GPa)
#
#
# Indices 1 2 3 4 5 6 
#
# 1 0.032342 -0.011083 -0.004446 0.000000 0.003896 0.000000
# 2 -0.011083 0.016095 -0.007516 0.000000 -0.011623 0.000000
# 3 -0.004446 -0.007516 0.021151 0.000000 0.005467 0.000000
# 4 0.000000 0.000000 0.000000 0.068962 0.000000 -0.018052
# 5 0.003896 -0.011623 0.005467 0.000000 0.042521 0.000000
# 6 0.000000 0.000000 0.000000 -0.018052 0.000000 0.046000
#
#
# Mechanical properties :
#
#
# Convention : Reuss Voigt Hill
#
# Bulk Modulus (GPa) = 42.55656 60.96384 51.76020
# Shear Modulus (GPa) = 17.79403 22.86652 20.33028
#
# Velocity S-wave (km/s) = 2.86721 3.25030 3.06475
# Velocity P-wave (km/s) = 5.53376 6.50011 6.03631
#
# Compressibility (1/GPa) = 0.02349814
#
# Stress axis : x y z
#
# Youngs Moduli (GPa) = 30.91947 62.13243 47.27832
#
# Poissons Ratio (x) = 0.68863 0.21020
# Poissons Ratio (y) = 0.34269 0.35532
# Poissons Ratio (z) = 0.13747 0.46696
#
# Static dielectric constant tensor:
#      x y z
#    x 1.797410 0.000000 -0.028190 
#    y 0.000000 1.741490 0.000000 
#    z -0.028190 0.000000 1.836610 
# 
# From -- ./inp_files/95891.got.cif
#   From: 2010.05.17/outbox.cif.g08.bks.cpg/sg13_48_cif.got.tgz:95891.got - 2010.06.03 16:44:36.
