data_PCOD9229248
_publ_section_title
;
Structure prediction by ZEFSAII (Michael W. Deem and Ramdas Pophale) SiO2 
 PCOD9229248
Probable space group: P 2/C
;
_chemical_formula_sum "Si O2"
_cell_formula_units_Z 28
_cell_length_a 5.168223
_cell_length_b 17.037322
_cell_length_c 16.030902
_cell_angle_alpha 90.000000
_cell_angle_beta 65.168799
_cell_angle_gamma 90.000000
_cell_volume 1281.063280
_symmetry_space_group_name_H-M "P 2/C"
_symmetry_group_IT_number 13
_symmetry_cell_setting 'monoclinic'
loop_
_space_group_symop_operation_xyz
x,y,z
-x,y,1/2-z
-x,-y,-z
x,-y,1/2+z
loop_
_atom_site_type_symbol
_atom_site_label
_atom_site_fract_x
_atom_site_fract_y
_atom_site_fract_z
Si Si1 0.811641 0.901224 0.171895
Si Si2 0.109122 0.720778 0.368849
Si Si3 0.815064 0.476732 0.103614
Si Si4 0.459167 0.073359 0.564895
Si Si5 0.000000 0.447188 0.250000
Si Si6 0.528756 0.747692 0.013365
Si Si7 0.500000 0.590938 0.250000
Si Si8 0.494052 0.323149 0.161502
O O1 0.500000 0.926256 0.250000
O O2 0.829113 0.806735 0.178702
O O3 0.736296 0.923197 0.087018
O O4 0.134661 0.930362 0.148092
O O5 0.251046 0.725449 0.442702
O O6 0.244593 0.652922 0.295114
O O7 0.773254 0.709786 0.421872
O O8 0.987084 0.491353 0.165250
O O9 0.545554 0.533393 0.163400
O O10 0.754893 0.383076 0.106808
O O11 0.000000 0.500000 0.000000
O O12 0.471004 0.158944 0.520919
O O13 0.500000 0.000000 0.500000
O O14 0.739024 0.388185 0.287832
O O15 0.592079 0.722327 0.910065
O O16 0.500000 0.277760 0.250000
#
# Coordination Sequence:
#
# PCOD9229248 Si02
#       8
#     4   4   4   4   2   4   2   4
#     4  10  19  38  62  90 128 167 198 254 316 377
#     4  10  23  38  61  95 125 159 209 261 318 382
#     4  11  24  40  60  86 122 164 212 271 332 378
#     4  10  21  38  64  94 128 163 205 254 313 383
#     4  10  22  42  60  80 114 162 216 268 324 372
#     4  10  23  41  65  91 123 170 208 254 323 385
#     4  12  22  40  58  96 128 156 224 270 314 386
#     4  10  22  41  59  83 117 163 215 261 316 378
#
# _framework density 21.856842
#
# number of rings (size 3 to 8) (size 9 to 14) (size 15 to 20)
#    0.000    1.714    2.857    1.714    6.000    3.429 
#    0.000    0.714    3.143    0.000    0.000    0.000 
#    0.000    0.000    0.000    0.000    0.000    0.000 
#
# Total GULP energy -155938.861455 kJ/mol
# GULP energy per Si atom -5569.245052 kJ/mol
# Density = 2.180709 g / cm^3
# Si number density = 21.856842 Si / 1000 Ang^3
#
#
#
# Elastic Constant Matrix: (Units=GPa)
#
#
# Indices 1 2 3 4 5 6 
#
# 1 103.6614 3.9749 12.6039 0.0000 6.9679 0.0000
# 2 3.9749 59.4920 22.6801 0.0000 -1.9729 0.0000
# 3 12.6039 22.6801 122.5445 0.0000 1.7039 0.0000
# 4 0.0000 0.0000 0.0000 24.0262 0.0000 1.9534
# 5 6.9679 -1.9729 1.7039 0.0000 30.1098 0.0000
# 6 0.0000 0.0000 0.0000 1.9534 0.0000 -10.2812
#
#
#
# Elastic Compliance Matrix: (Units=1/GPa)
#
#
# Indices 1 2 3 4 5 6 
#
# 1 0.009926 -0.000389 -0.000917 0.000000 -0.002271 0.000000
# 2 -0.000389 0.018157 -0.003341 0.000000 0.001469 0.000000
# 3 -0.000917 -0.003341 0.008880 0.000000 -0.000509 0.000000
# 4 0.000000 0.000000 0.000000 0.040988 0.000000 0.007787
# 5 -0.002271 0.001469 -0.000509 0.000000 0.033862 0.000000
# 6 0.000000 0.000000 0.000000 0.007787 0.000000 -0.095785
#
#
# Mechanical properties :
#
#
# Convention : Reuss Voigt Hill
#
# Bulk Modulus (GPa) = 36.14135 40.46843 38.30489
# Shear Modulus (GPa) = 144.73634 25.20022 84.96828
#
# Velocity S-wave (km/s) = 8.14640 3.39922 6.24174
# Velocity P-wave (km/s) = 10.24971 5.82767 8.33721
#
# Compressibility (1/GPa) = 0.02766914
#
# Stress axis : x y z
#
# Youngs Moduli (GPa) = 100.74689 55.07416 112.61183
#
# Poissons Ratio (x) = 0.02141 0.10331
# Poissons Ratio (y) = 0.03917 0.37623
# Poissons Ratio (z) = 0.09242 0.18400
#
# Static dielectric constant tensor:
#      x y z
#    x 1.962070 0.000000 -0.005270 
#    y 0.000000 1.796260 0.000000 
#    z -0.005270 0.000000 1.880410 
# 
# From -- ./inp_files/44395.got.cif
#   From: 2010.05.17/outbox.cif.g08.bks.cpg/sg13_23_cif.got.tgz:44395.got - 2010.06.03 16:44:36.
