data_PCOD9229041
_publ_section_title
;
Structure prediction by ZEFSAII (Michael W. Deem and Ramdas Pophale) SiO2 
 PCOD9229041
Probable space group: P 2/C
;
_chemical_formula_sum "Si O2"
_cell_formula_units_Z 30
_cell_length_a 14.917662
_cell_length_b 20.183564
_cell_length_c 14.682328
_cell_angle_alpha 90.000000
_cell_angle_beta 19.678973
_cell_angle_gamma 90.000000
_cell_volume 1488.678070
_symmetry_space_group_name_H-M "P 2/C"
_symmetry_group_IT_number 13
_symmetry_cell_setting 'monoclinic'
loop_
_space_group_symop_operation_xyz
x,y,z
-x,y,1/2-z
-x,-y,-z
x,-y,1/2+z
loop_
_atom_site_type_symbol
_atom_site_label
_atom_site_fract_x
_atom_site_fract_y
_atom_site_fract_z
Si Si1 0.559475 0.126745 0.440310
Si Si2 0.500000 0.320099 0.750000
Si Si3 0.047903 0.641307 0.453955
Si Si4 0.832389 0.444068 0.501738
Si Si5 0.239612 0.589698 0.949172
Si Si6 0.745815 0.950325 0.944437
Si Si7 0.976029 0.941725 0.096852
Si Si8 0.578812 0.722716 0.977872
O O1 0.648732 0.090942 0.449298
O O2 0.259822 0.105952 0.707237
O O3 0.565436 0.204975 0.448096
O O4 0.749134 0.098373 0.178054
O O5 0.697328 0.374306 0.605249
O O6 0.429988 0.276101 0.903706
O O7 0.892065 0.626478 0.510147
O O8 0.043972 0.574687 0.519426
O O9 0.343436 0.673645 0.165663
O O10 0.864109 0.692870 0.682240
O O11 0.682607 0.514083 0.655589
O O12 0.000000 0.454883 0.250000
O O13 0.500000 0.618476 0.750000
O O14 0.000000 0.588164 0.250000
O O15 0.000000 0.916519 0.750000
O O16 0.871294 0.019053 0.785527
O O17 0.500000 0.958913 0.250000
O O18 0.000000 0.000000 0.000000
#
# Coordination Sequence:
#
# PCOD9229041 Si02
#       8
#     4   2   4   4   4   4   4   4
#     4  11  22  39  60  88 122 172 202 241 298 391
#     4  10  20  38  54  90 132 164 190 244 310 382
#     4  11  23  40  61  89 123 168 209 259 313 375
#     4  10  19  37  58  90 126 161 200 250 323 382
#     4  11  23  39  64  90 118 156 216 273 318 363
#     4  11  21  35  59  93 124 152 199 261 311 355
#     4  10  20  39  60  84 122 162 201 245 307 348
#     4  11  24  39  62  88 128 168 207 242 305 387
#
# _framework density 20.152107000000001
#
# number of rings (size 3 to 8) (size 9 to 14) (size 15 to 20)
#    0.000    1.333    2.000    6.000    0.933    0.000 
#    2.400    4.000    0.000   12.000    0.000    0.000 
#    0.000    0.000    0.000    0.000    0.000    0.000 
#
# Total GULP energy -167132.520250 kJ/mol
# GULP energy per Si atom -5571.084008 kJ/mol
# Density = 2.010624 g / cm^3
# Si number density = 20.152107 Si / 1000 Ang^3
#
#
#
# Elastic Constant Matrix: (Units=GPa)
#
#
# Indices 1 2 3 4 5 6 
#
# 1 80.3848 -0.4679 3.3045 0.0000 4.3633 0.0000
# 2 -0.4679 52.6873 -1.1658 0.0000 7.3050 0.0000
# 3 3.3045 -1.1658 85.1924 0.0000 9.8292 0.0000
# 4 0.0000 0.0000 0.0000 36.7821 0.0000 -5.1041
# 5 4.3633 7.3050 9.8292 0.0000 19.0364 0.0000
# 6 0.0000 0.0000 0.0000 -5.1041 0.0000 18.6498
#
#
#
# Elastic Compliance Matrix: (Units=1/GPa)
#
#
# Indices 1 2 3 4 5 6 
#
# 1 0.012613 0.000528 -0.000133 0.000000 -0.003025 0.000000
# 2 0.000528 0.020192 0.001237 0.000000 -0.008508 0.000000
# 3 -0.000133 0.001237 0.012560 0.000000 -0.006929 0.000000
# 4 0.000000 0.000000 0.000000 0.028260 0.000000 0.007734
# 5 -0.003025 -0.008508 -0.006929 0.000000 0.060067 0.000000
# 6 0.000000 0.000000 0.000000 0.007734 0.000000 0.055737
#
#
# Mechanical properties :
#
#
# Convention : Reuss Voigt Hill
#
# Bulk Modulus (GPa) = 20.56331 24.62291 22.59311
# Shear Modulus (GPa) = 24.70691 29.33325 27.02008
#
# Velocity S-wave (km/s) = 3.50526 3.81936 3.66567
# Velocity P-wave (km/s) = 5.15836 5.62984 5.39925
#
# Compressibility (1/GPa) = 0.04863031
#
# Stress axis : x y z
#
# Youngs Moduli (GPa) = 79.28386 49.52537 79.61959
#
# Poissons Ratio (x) = -0.02617 0.01059
# Poissons Ratio (y) = -0.04190 -0.09853
# Poissons Ratio (z) = 0.01054 -0.06129
#
# Static dielectric constant tensor:
#      x y z
#    x 1.793860 0.000000 -0.004770 
#    y 0.000000 1.773850 0.000000 
#    z -0.004770 0.000000 1.731470 
# 
# From -- ./inp_files/53955.got.cif
#   From: 2010.05.17/outbox.cif.g08.bks.cpg/sg13_27_cif.got.tgz:53955.got - 2010.06.03 16:44:36.
