data_PCOD9229410
_publ_section_title
;
Structure prediction by ZEFSAII (Michael W. Deem and Ramdas Pophale) SiO2 
 PCOD9229410
Probable space group: P 2/C
;
_chemical_formula_sum "Si O2"
_cell_formula_units_Z 28
_cell_length_a 11.974122
_cell_length_b 13.188591
_cell_length_c 9.555397
_cell_angle_alpha 90.000000
_cell_angle_beta 52.795500
_cell_angle_gamma 90.000000
_cell_volume 1201.896345
_symmetry_space_group_name_H-M "P 2/C"
_symmetry_group_IT_number 13
_symmetry_cell_setting 'monoclinic'
loop_
_space_group_symop_operation_xyz
x,y,z
-x,y,1/2-z
-x,-y,-z
x,-y,1/2+z
loop_
_atom_site_type_symbol
_atom_site_label
_atom_site_fract_x
_atom_site_fract_y
_atom_site_fract_z
Si Si1 0.860569 0.721009 0.635847
Si Si2 0.000000 0.792286 0.250000
Si Si3 0.667177 0.666181 0.281186
Si Si4 0.367118 0.733201 0.498813
Si Si5 0.000000 0.136772 0.250000
Si Si6 0.273451 0.115502 0.651414
Si Si7 0.106960 0.501861 0.293765
Si Si8 0.697530 0.945554 0.061541
O O1 0.704705 0.755359 0.796325
O O2 0.965287 0.791070 0.645019
O O3 0.845335 0.614085 0.729895
O O4 0.916259 0.728643 0.434723
O O5 0.110526 0.864612 0.241953
O O6 0.498618 0.656877 0.411233
O O7 0.680351 0.769812 0.357289
O O8 0.766649 0.580330 0.272523
O O9 0.709216 0.689227 0.086532
O O10 0.389955 0.849398 0.429412
O O11 0.142062 0.077135 0.109915
O O12 0.342601 0.051753 0.475696
O O13 0.297360 0.054999 0.776029
O O14 0.000000 0.522660 0.250000
O O15 0.000000 0.500000 0.500000
#
# Coordination Sequence:
#
# PCOD9229410 Si02
#       8
#     4   2   4   4   2   4   4   4
#     4  11  23  42  69 102 138 185 237 295 358 431
#     4  12  25  40  69 102 148 188 233 309 368 408
#     4  10  23  46  72 100 143 188 235 295 357 427
#     4   9  22  47  72  96 140 195 236 288 355 434
#     4  10  19  40  63  96 136 182 235 291 362 422
#     4  11  24  39  64 101 139 184 236 299 353 427
#     4  12  26  42  72 109 138 180 232 294 364 427
#     4  10  22  38  66 100 135 186 237 290 360 425
#
# _framework density 23.296517999999999
#
# number of rings (size 3 to 8) (size 9 to 14) (size 15 to 20)
#    0.000    1.429    2.143    2.143   10.000    2.286 
#    0.000    0.714    0.000    0.000    0.000    0.000 
#    0.000    0.000    0.000    0.000    0.000    0.000 
#
# Total GULP energy -156024.436869 kJ/mol
# GULP energy per Si atom -5572.301317 kJ/mol
# Density = 2.324349 g / cm^3
# Si number density = 23.296518 Si / 1000 Ang^3
#
#
#
# Elastic Constant Matrix: (Units=GPa)
#
#
# Indices 1 2 3 4 5 6 
#
# 1 108.5944 38.1117 43.9763 0.0000 9.7320 0.0000
# 2 38.1117 102.6281 30.8973 0.0000 16.9811 0.0000
# 3 43.9763 30.8973 144.8677 0.0000 11.8039 0.0000
# 4 0.0000 0.0000 0.0000 23.8653 0.0000 -1.5340
# 5 9.7320 16.9811 11.8039 0.0000 39.2594 0.0000
# 6 0.0000 0.0000 0.0000 -1.5340 0.0000 23.5624
#
#
#
# Elastic Compliance Matrix: (Units=1/GPa)
#
#
# Indices 1 2 3 4 5 6 
#
# 1 0.011553 -0.003369 -0.002741 0.000000 -0.000583 0.000000
# 2 -0.003369 0.012023 -0.001216 0.000000 -0.004000 0.000000
# 3 -0.002741 -0.001216 0.008094 0.000000 -0.001228 0.000000
# 4 0.000000 0.000000 0.000000 0.042078 0.000000 0.002739
# 5 -0.000583 -0.004000 -0.001228 0.000000 0.027715 0.000000
# 6 0.000000 0.000000 0.000000 0.002739 0.000000 0.042619
#
#
# Mechanical properties :
#
#
# Convention : Reuss Voigt Hill
#
# Bulk Modulus (GPa) = 58.75751 64.67342 61.71546
# Shear Modulus (GPa) = 30.41249 33.54443 31.97846
#
# Velocity S-wave (km/s) = 3.61702 3.79871 3.70898
# Velocity P-wave (km/s) = 6.53607 6.86014 6.70006
#
# Compressibility (1/GPa) = 0.01701910
#
# Stress axis : x y z
#
# Youngs Moduli (GPa) = 86.55689 83.17608 123.54341
#
# Poissons Ratio (x) = 0.28019 0.33865
# Poissons Ratio (y) = 0.29158 0.15019
# Poissons Ratio (z) = 0.23726 0.10112
#
# Static dielectric constant tensor:
#      x y z
#    x 2.012000 0.000000 -0.070120 
#    y 0.000000 1.826220 0.000000 
#    z -0.070120 0.000000 1.855390 
# 
# From -- ./inp_files/16696.got.cif
#   From: 2010.05.17/outbox.cif.g08.bks.cpg/sg13_9_cif.got.tgz:16696.got - 2010.06.03 16:44:36.
