data_PCOD9229240
_publ_section_title
;
Structure prediction by ZEFSAII (Michael W. Deem and Ramdas Pophale) SiO2 
 PCOD9229240
Probable space group: P 2/C
;
_chemical_formula_sum "Si O2"
_cell_formula_units_Z 32
_cell_length_a 15.472465
_cell_length_b 8.412401
_cell_length_c 25.585011
_cell_angle_alpha 90.000000
_cell_angle_beta 28.241849
_cell_angle_gamma 90.000000
_cell_volume 1575.812820
_symmetry_space_group_name_H-M "P 2/C"
_symmetry_group_IT_number 13
_symmetry_cell_setting 'monoclinic'
loop_
_space_group_symop_operation_xyz
x,y,z
-x,y,1/2-z
-x,-y,-z
x,-y,1/2+z
loop_
_atom_site_type_symbol
_atom_site_label
_atom_site_fract_x
_atom_site_fract_y
_atom_site_fract_z
Si Si1 0.484860 0.202513 0.460276
Si Si2 0.346335 0.280385 0.878200
Si Si3 0.625971 0.298029 0.223407
Si Si4 0.801048 0.202649 0.720523
Si Si5 0.011387 0.314182 0.981670
Si Si6 0.815735 0.019815 0.815171
Si Si7 0.459907 0.507458 0.139216
Si Si8 0.480122 0.012634 0.357756
O O1 0.322806 0.151102 0.585618
O O2 0.485948 0.383650 0.436136
O O3 0.681727 0.134497 0.376809
O O4 0.445388 0.090123 0.431720
O O5 0.500000 0.273628 0.750000
O O6 0.164102 0.271385 0.941934
O O7 0.389620 0.415372 0.900155
O O8 0.342976 0.120112 0.913535
O O9 0.500000 0.393701 0.250000
O O10 0.659146 0.400375 0.257517
O O11 0.499089 0.153863 0.307512
O O12 0.815237 0.244090 0.099210
O O13 0.935531 0.275182 0.605959
O O14 0.877459 0.102709 0.728048
O O15 0.664285 0.344192 0.812029
O O16 0.672540 0.078864 0.758345
O O17 0.000000 0.500000 0.000000
O O18 0.000000 0.987393 0.750000
#
# Coordination Sequence:
#
# PCOD9229240 Si02
#       8
#     4   4   4   4   4   4   4   4
#     4   9  21  42  65  89 122 160 208 261 330 363
#     4  11  19  37  60  87 130 165 201 245 309 368
#     4  11  22  35  54  84 126 167 210 241 295 367
#     4  10  21  38  61  87 124 156 205 254 316 370
#     4  12  22  36  59  91 127 172 203 253 312 370
#     4  10  22  43  65  88 120 161 209 274 321 367
#     4  10  19  38  62  87 125 160 197 253 306 384
#     4   9  20  39  57  87 121 164 201 256 303 378
#
# _framework density 20.306981
#
# number of rings (size 3 to 8) (size 9 to 14) (size 15 to 20)
#    0.000    1.750    3.750    1.500    0.000    4.000 
#    6.750    0.625    0.000    0.000    0.000    0.000 
#    0.000    0.000    0.000    0.000    0.000    0.000 
#
# Total GULP energy -178195.359736 kJ/mol
# GULP energy per Si atom -5568.604992 kJ/mol
# Density = 2.026076 g / cm^3
# Si number density = 20.306981 Si / 1000 Ang^3
#
#
#
# Elastic Constant Matrix: (Units=GPa)
#
#
# Indices 1 2 3 4 5 6 
#
# 1 122.1951 21.4584 33.5081 0.0000 -18.7048 0.0000
# 2 21.4584 63.4789 -5.1580 0.0000 -0.6897 0.0000
# 3 33.5081 -5.1580 59.7679 0.0000 -6.5082 0.0000
# 4 0.0000 0.0000 0.0000 0.4412 0.0000 -7.6249
# 5 -18.7048 -0.6897 -6.5082 0.0000 28.1051 0.0000
# 6 0.0000 0.0000 0.0000 -7.6249 0.0000 1.5703
#
#
#
# Elastic Compliance Matrix: (Units=1/GPa)
#
#
# Indices 1 2 3 4 5 6 
#
# 1 0.011595 -0.004357 -0.006204 0.000000 0.006173 0.000000
# 2 -0.004357 0.017516 0.003781 0.000000 -0.001594 0.000000
# 3 -0.006204 0.003781 0.020616 0.000000 0.000738 0.000000
# 4 0.000000 0.000000 0.000000 -0.027334 0.000000 -0.132730
# 5 0.006173 -0.001594 0.000738 0.000000 0.039821 0.000000
# 6 0.000000 0.000000 0.000000 -0.132730 0.000000 -0.007679
#
#
# Mechanical properties :
#
#
# Convention : Reuss Voigt Hill
#
# Bulk Modulus (GPa) = 27.65009 38.33987 32.99498
# Shear Modulus (GPa) = 62.38243 19.06553 40.72398
#
# Velocity S-wave (km/s) = 5.54855 3.06742 4.48305
# Velocity P-wave (km/s) = 7.39555 5.60950 6.56356
#
# Compressibility (1/GPa) = 0.03616625
#
# Stress axis : x y z
#
# Youngs Moduli (GPa) = 86.24413 57.09120 48.50518
#
# Poissons Ratio (x) = 0.24873 0.30094
# Poissons Ratio (y) = 0.37573 -0.18337
# Poissons Ratio (z) = 0.53509 -0.21583
#
# Static dielectric constant tensor:
#      x y z
#    x 1.787290 0.000000 0.004940 
#    y 0.000000 1.777710 0.000000 
#    z 0.004940 0.000000 1.768980 
# 
# From -- ./inp_files/87398.got.cif
#   From: 2010.05.17/outbox.cif.g08.bks.cpg/sg13_44_cif.got.tgz:87398.got - 2010.06.03 16:44:36.
