data_PCOD9229256
_publ_section_title
;
Structure prediction by ZEFSAII (Michael W. Deem and Ramdas Pophale) SiO2 
 PCOD9229256
Probable space group: P 2/C
;
_chemical_formula_sum "Si O2"
_cell_formula_units_Z 28
_cell_length_a 10.949684
_cell_length_b 9.041319
_cell_length_c 14.418771
_cell_angle_alpha 90.000000
_cell_angle_beta 85.556052
_cell_angle_gamma 90.000000
_cell_volume 1423.160885
_symmetry_space_group_name_H-M "P 2/C"
_symmetry_group_IT_number 13
_symmetry_cell_setting 'monoclinic'
loop_
_space_group_symop_operation_xyz
x,y,z
-x,y,1/2-z
-x,-y,-z
x,-y,1/2+z
loop_
_atom_site_type_symbol
_atom_site_label
_atom_site_fract_x
_atom_site_fract_y
_atom_site_fract_z
Si Si1 0.270811 0.255297 0.853546
Si Si2 0.500000 0.339039 0.750000
Si Si3 0.039965 0.958462 0.350771
Si Si4 0.554917 0.599665 0.884452
Si Si5 0.851593 0.826823 0.505831
Si Si6 0.500000 0.843054 0.750000
Si Si7 0.292612 0.537785 0.968016
Si Si8 0.389349 0.001072 0.436423
O O1 0.373343 0.253494 0.767708
O O2 0.151278 0.160060 0.839424
O O3 0.254482 0.423176 0.888966
O O4 0.340679 0.165019 0.929242
O O5 0.523905 0.447187 0.834100
O O6 0.000000 0.998195 0.250000
O O7 0.932703 0.877359 0.414373
O O8 0.081467 0.102124 0.407725
O O9 0.579834 0.729353 0.808856
O O10 0.420396 0.626558 0.938161
O O11 0.664465 0.561530 0.947262
O O12 0.815908 0.654480 0.510146
O O13 0.721562 0.908019 0.514193
O O14 0.572576 0.937222 0.668105
O O15 0.500000 0.000000 0.500000
#
# Coordination Sequence:
#
# PCOD9229256 Si02
#       8
#     4   2   4   4   4   2   4   4
#     4  10  22  37  58  92 122 161 212 269 316 395
#     4   9  19  32  56  90 124 152 204 260 322 380
#     4  10  24  45  65  86 126 173 230 273 319 380
#     4   9  19  32  58  91 128 169 195 264 329 395
#     4  10  23  43  65  89 125 176 215 273 327 391
#     4  11  19  36  54  94 136 172 222 252 312 420
#     4  10  19  38  63  88 129 164 209 263 345 380
#     4  11  23  36  60  95 130 169 211 266 335 395
#
# _framework density 19.674516000000001
#
# number of rings (size 3 to 8) (size 9 to 14) (size 15 to 20)
#    0.000    2.000    1.429    1.286    6.000    2.857 
#    0.000    3.571    0.000    0.000    0.000    0.000 
#    0.000    0.000    0.000    0.000    0.000    0.000 
#
# Total GULP energy -156045.384961 kJ/mol
# GULP energy per Si atom -5573.049463 kJ/mol
# Density = 1.962974 g / cm^3
# Si number density = 19.674516 Si / 1000 Ang^3
#
#
#
# Elastic Constant Matrix: (Units=GPa)
#
#
# Indices 1 2 3 4 5 6 
#
# 1 89.0615 33.9485 56.4855 0.0000 -9.2994 0.0000
# 2 33.9485 95.1854 33.1750 0.0000 -5.5292 0.0000
# 3 56.4855 33.1750 102.1956 0.0000 -0.0214 0.0000
# 4 0.0000 0.0000 0.0000 16.7632 0.0000 -8.8308
# 5 -9.2994 -5.5292 -0.0214 0.0000 32.9302 0.0000
# 6 0.0000 0.0000 0.0000 -8.8308 0.0000 53.5188
#
#
#
# Elastic Compliance Matrix: (Units=1/GPa)
#
#
# Indices 1 2 3 4 5 6 
#
# 1 0.018920 -0.003185 -0.009422 0.000000 0.004802 0.000000
# 2 -0.003185 0.012514 -0.002302 0.000000 0.001200 0.000000
# 3 -0.009422 -0.002302 0.015740 0.000000 -0.003037 0.000000
# 4 0.000000 0.000000 0.000000 0.065333 0.000000 0.010780
# 5 0.004802 0.001200 -0.003037 0.000000 0.031923 0.000000
# 6 0.000000 0.000000 0.000000 0.010780 0.000000 0.020464
#
#
# Mechanical properties :
#
#
# Convention : Reuss Voigt Hill
#
# Bulk Modulus (GPa) = 57.61985 59.29563 58.45774
# Shear Modulus (GPa) = 24.93822 31.49800 28.21811
#
# Velocity S-wave (km/s) = 3.56411 4.00553 3.79125
# Velocity P-wave (km/s) = 6.80348 7.18304 6.99584
#
# Compressibility (1/GPa) = 0.01735513
#
# Stress axis : x y z
#
# Youngs Moduli (GPa) = 52.85546 79.91286 63.53414
#
# Poissons Ratio (x) = 0.25451 0.59864
# Poissons Ratio (y) = 0.16834 0.14623
# Poissons Ratio (z) = 0.49802 0.18393
#
# Static dielectric constant tensor:
#      x y z
#    x 1.715920 0.000000 -0.008160 
#    y 0.000000 1.840390 0.000000 
#    z -0.008160 0.000000 1.751930 
# 
# From -- ./inp_files/49674.got.cif
#   From: 2010.05.17/outbox.cif.g08.bks.cpg/sg13_25_cif.got.tgz:49674.got - 2010.06.03 16:44:36.
