data_PCOD9229864
_publ_section_title
;
Structure prediction by ZEFSAII (Michael W. Deem and Ramdas Pophale) SiO2 
 PCOD9229864
Probable space group: P 2/C
;
_chemical_formula_sum "Si O2"
_cell_formula_units_Z 26
_cell_length_a 6.391471
_cell_length_b 7.081811
_cell_length_c 30.133557
_cell_angle_alpha 90.000000
_cell_angle_beta 121.570886
_cell_angle_gamma 90.000000
_cell_volume 1162.068212
_symmetry_space_group_name_H-M "P 2/C"
_symmetry_group_IT_number 13
_symmetry_cell_setting 'monoclinic'
loop_
_space_group_symop_operation_xyz
x,y,z
-x,y,1/2-z
-x,-y,-z
x,-y,1/2+z
loop_
_atom_site_type_symbol
_atom_site_label
_atom_site_fract_x
_atom_site_fract_y
_atom_site_fract_z
Si Si1 0.773017 0.339617 0.018781
Si Si2 0.074500 0.725137 0.054126
Si Si3 0.514592 0.526654 0.151614
Si Si4 0.741979 0.700508 0.796900
Si Si5 0.638802 0.877235 0.052734
Si Si6 0.751736 0.197955 0.117182
Si Si7 0.000000 0.447852 0.750000
O O1 0.775498 0.277033 0.069764
O O2 0.910551 0.536190 0.032179
O O3 0.901769 0.211874 0.994526
O O4 0.497646 0.323130 0.968160
O O5 0.328890 0.659279 0.104252
O O6 0.919740 0.857126 0.069325
O O7 0.355635 0.430365 0.173650
O O8 0.612429 0.351311 0.132029
O O9 0.760140 0.633200 0.197404
O O10 0.500000 0.797977 0.750000
O O11 0.969642 0.828918 0.835748
O O12 0.860470 0.570776 0.771752
O O13 0.620630 0.996649 0.095671
O O14 0.500000 0.000000 0.000000
#
# Coordination Sequence:
#
# PCOD9229864 Si02
#       7
#     4   4   4   4   4   4   2
#     4  10  23  36  56  80 118 156 201 236 282 347
#     4  11  23  36  58  83 113 162 199 236 289 349
#     4  10  20  34  60  87 113 147 196 245 296 348
#     4   9  17  34  59  86 113 140 192 244 290 347
#     4  10  24  37  51  78 120 153 190 236 287 338
#     4  10  21  36  56  84 115 151 193 242 294 345
#     4   8  18  34  56  90 112 138 180 254 296 334
#
# _framework density 22.373899000000002
#
# number of rings (size 3 to 8) (size 9 to 14) (size 15 to 20)
#    0.000    2.154    1.538    0.462   10.769    3.692 
#    0.000    0.000    0.000    4.615    0.000    4.308 
#    0.000    0.000    0.000    0.000    0.000    0.000 
#
# Total GULP energy -144774.456932 kJ/mol
# GULP energy per Si atom -5568.248344 kJ/mol
# Density = 2.232297 g / cm^3
# Si number density = 22.373899 Si / 1000 Ang^3
#
#
#
# Elastic Constant Matrix: (Units=GPa)
#
#
# Indices 1 2 3 4 5 6 
#
# 1 111.5271 26.3681 63.3151 0.0000 5.7762 0.0000
# 2 26.3681 45.2057 36.1781 0.0000 11.6365 0.0000
# 3 63.3151 36.1781 110.2548 0.0000 14.7620 0.0000
# 4 0.0000 0.0000 0.0000 18.9831 0.0000 6.9696
# 5 5.7762 11.6365 14.7620 0.0000 56.6022 0.0000
# 6 0.0000 0.0000 0.0000 6.9696 0.0000 33.6745
#
#
#
# Elastic Compliance Matrix: (Units=1/GPa)
#
#
# Indices 1 2 3 4 5 6 
#
# 1 0.013522 -0.002467 -0.007086 0.000000 0.000975 0.000000
# 2 -0.002467 0.031229 -0.008294 0.000000 -0.004005 0.000000
# 3 -0.007086 -0.008294 0.016098 0.000000 -0.001770 0.000000
# 4 0.000000 0.000000 0.000000 0.057011 0.000000 -0.011799
# 5 0.000975 -0.004005 -0.001770 0.000000 0.018853 0.000000
# 6 0.000000 0.000000 0.000000 -0.011799 0.000000 0.032138
#
#
# Mechanical properties :
#
#
# Convention : Reuss Voigt Hill
#
# Bulk Modulus (GPa) = 39.75560 57.63445 48.69502
# Shear Modulus (GPa) = 23.48184 31.26037 27.37111
#
# Velocity S-wave (km/s) = 3.24314 3.74194 3.50144
# Velocity P-wave (km/s) = 5.64192 6.66972 6.17723
#
# Compressibility (1/GPa) = 0.02515369
#
# Stress axis : x y z
#
# Youngs Moduli (GPa) = 73.95235 32.02151 62.12018
#
# Poissons Ratio (x) = 0.07901 0.44020
# Poissons Ratio (y) = 0.18246 0.51523
# Poissons Ratio (z) = 0.52405 0.26559
#
# Static dielectric constant tensor:
#      x y z
#    x 1.944740 0.000000 0.013790 
#    y 0.000000 1.853620 0.000000 
#    z 0.013790 0.000000 1.867780 
# 
# From -- ./inp_files/94941.got.cif
#   From: 2010.05.17/outbox.cif.g08.bks.cpg/sg13_48_cif.got.tgz:94941.got - 2010.06.03 16:44:36.
