data_PCOD9229484
_publ_section_title
;
Structure prediction by ZEFSAII (Michael W. Deem and Ramdas Pophale) SiO2 
 PCOD9229484
Probable space group: P 2/C
;
_chemical_formula_sum "Si O2"
_cell_formula_units_Z 20
_cell_length_a 10.335273
_cell_length_b 11.224024
_cell_length_c 13.225465
_cell_angle_alpha 90.000000
_cell_angle_beta 137.860929
_cell_angle_gamma 90.000000
_cell_volume 1029.343375
_symmetry_space_group_name_H-M "P 2/C"
_symmetry_group_IT_number 13
_symmetry_cell_setting 'monoclinic'
loop_
_space_group_symop_operation_xyz
x,y,z
-x,y,1/2-z
-x,-y,-z
x,-y,1/2+z
loop_
_atom_site_type_symbol
_atom_site_label
_atom_site_fract_x
_atom_site_fract_y
_atom_site_fract_z
Si Si1 0.715610 0.691860 0.336558
Si Si2 0.208752 0.438442 0.422729
Si Si3 0.546969 0.075134 0.429873
Si Si4 0.216544 0.973645 0.099235
Si Si5 0.588293 0.663848 0.039971
O O1 0.500000 0.669190 0.250000
O O2 0.827306 0.615010 0.485615
O O3 0.748890 0.833159 0.366364
O O4 0.715740 0.661370 0.217594
O O5 0.319815 0.565354 0.481053
O O6 0.367922 0.361150 0.450746
O O7 0.000000 0.444391 0.250000
O O8 0.587447 0.209634 0.484717
O O9 0.500000 0.000000 0.500000
O O10 0.362113 0.052034 0.251500
O O11 0.728534 0.014358 0.480909
O O12 0.000000 0.000000 0.000000
#
# Coordination Sequence:
#
# PCOD9229484 Si02
#       5
#     4   4   4   4   4
#     4  10  19  43  63  84 134 168 208 273 339 379
#     4  10  23  40  63  94 124 174 223 270 325 387
#     4  11  21  44  66  91 131 173 213 265 336 391
#     4  11  24  39  64 102 126 168 219 272 330 391
#     4  10  22  42  64  89 127 174 216 269 327 396
#
# _framework density 19.429860999999999
#
# number of rings (size 3 to 8) (size 9 to 14) (size 15 to 20)
#    0.000    1.600    4.000    1.200    2.800    3.200 
#   18.000    0.000    0.000    0.000    0.000    0.000 
#    0.000    0.000    0.000    0.000    0.000    0.000 
#
# Total GULP energy -111489.056294 kJ/mol
# GULP energy per Si atom -5574.452815 kJ/mol
# Density = 1.938564 g / cm^3
# Si number density = 19.429861 Si / 1000 Ang^3
#
#
#
# Elastic Constant Matrix: (Units=GPa)
#
#
# Indices 1 2 3 4 5 6 
#
# 1 95.2845 20.9326 44.1194 0.0000 -1.8062 0.0000
# 2 20.9326 105.1849 33.4201 0.0000 -19.2264 0.0000
# 3 44.1194 33.4201 76.1349 0.0000 2.5788 0.0000
# 4 0.0000 0.0000 0.0000 26.3789 0.0000 -12.9149
# 5 -1.8062 -19.2264 2.5788 0.0000 30.8504 0.0000
# 6 0.0000 0.0000 0.0000 -12.9149 0.0000 17.5430
#
#
#
# Elastic Compliance Matrix: (Units=1/GPa)
#
#
# Indices 1 2 3 4 5 6 
#
# 1 0.014418 0.000116 -0.008461 0.000000 0.001623 0.000000
# 2 0.000116 0.012981 -0.006057 0.000000 0.008603 0.000000
# 3 -0.008461 -0.006057 0.020900 0.000000 -0.006017 0.000000
# 4 0.000000 0.000000 0.000000 0.059272 0.000000 0.043635
# 5 0.001623 0.008603 -0.006017 0.000000 0.038374 0.000000
# 6 0.000000 0.000000 0.000000 0.043635 0.000000 0.089126
#
#
# Mechanical properties :
#
#
# Convention : Reuss Voigt Hill
#
# Bulk Modulus (GPa) = 51.29408 52.61647 51.95527
# Shear Modulus (GPa) = 18.49300 26.82995 22.66147
#
# Velocity S-wave (km/s) = 3.08844 3.72003 3.41885
# Velocity P-wave (km/s) = 6.25899 6.75207 6.51020
#
# Compressibility (1/GPa) = 0.01949543
#
# Stress axis : x y z
#
# Youngs Moduli (GPa) = 69.35867 77.03649 47.84719
#
# Poissons Ratio (x) = -0.00891 0.40482
# Poissons Ratio (y) = -0.00803 0.28979
# Poissons Ratio (z) = 0.58683 0.46657
#
# Static dielectric constant tensor:
#      x y z
#    x 1.661650 0.000000 -0.017280 
#    y 0.000000 1.627810 0.000000 
#    z -0.017280 0.000000 1.699090 
# 
# From -- ./inp_files/29634.got.cif
#   From: 2010.05.17/outbox.cif.g08.bks.cpg/sg13_15_cif.got.tgz:29634.got - 2010.06.03 16:44:36.
