data_PCOD9229905
_publ_section_title
;
Structure prediction by ZEFSAII (Michael W. Deem and Ramdas Pophale) SiO2 
 PCOD9229905
Probable space group: P 2/C
;
_chemical_formula_sum "Si O2"
_cell_formula_units_Z 18
_cell_length_a 10.742518
_cell_length_b 9.557350
_cell_length_c 9.570625
_cell_angle_alpha 90.000000
_cell_angle_beta 61.682852
_cell_angle_gamma 90.000000
_cell_volume 865.031771
_symmetry_space_group_name_H-M "P 2/C"
_symmetry_group_IT_number 13
_symmetry_cell_setting 'monoclinic'
loop_
_space_group_symop_operation_xyz
x,y,z
-x,y,1/2-z
-x,-y,-z
x,-y,1/2+z
loop_
_atom_site_type_symbol
_atom_site_label
_atom_site_fract_x
_atom_site_fract_y
_atom_site_fract_z
Si Si1 0.661511 0.316745 0.633167
Si Si2 0.734830 0.228361 0.907298
Si Si3 0.099314 0.522952 0.076903
Si Si4 0.500000 0.794389 0.750000
Si Si5 0.653156 0.071557 0.407944
O O1 0.500000 0.357308 0.750000
O O2 0.720479 0.275792 0.754072
O O3 0.756164 0.438874 0.519428
O O4 0.666153 0.189080 0.519705
O O5 0.857772 0.317908 0.912964
O O6 0.753344 0.060375 0.886384
O O7 0.589856 0.266825 0.071614
O O8 0.000000 0.463720 0.250000
O O9 0.000000 0.500000 0.000000
O O10 0.367199 0.868919 0.738387
O O11 0.500000 0.000000 0.500000
#
# Coordination Sequence:
#
# PCOD9229905 Si02
#       5
#     4   4   4   2   4
#     4  12  24  44  74 104 139 176 231 286 345 407
#     4  11  23  41  69 100 141 177 223 279 349 400
#     4  12  29  51  66  93 144 193 231 280 339 408
#     4  10  20  34  70 110 138 164 220 290 348 402
#     4  10  20  39  67 110 142 166 215 296 353 400
#
# _framework density 20.808482999999999
#
# number of rings (size 3 to 8) (size 9 to 14) (size 15 to 20)
#    0.000    0.889    6.667    2.667    6.222    0.889 
#    0.000    2.222    0.000    0.000    0.000    0.000 
#    0.000    0.000    0.000    0.000    0.000    0.000 
#
# Total GULP energy -100240.252102 kJ/mol
# GULP energy per Si atom -5568.902895 kJ/mol
# Density = 2.076112 g / cm^3
# Si number density = 20.808483 Si / 1000 Ang^3
#
#
#
# Elastic Constant Matrix: (Units=GPa)
#
#
# Indices 1 2 3 4 5 6 
#
# 1 107.9524 70.6264 35.8921 0.0000 19.1458 0.0000
# 2 70.6264 110.7147 50.3961 0.0000 0.0171 0.0000
# 3 35.8921 50.3961 125.9652 0.0000 17.7465 0.0000
# 4 0.0000 0.0000 0.0000 12.5111 0.0000 -9.2801
# 5 19.1458 0.0171 17.7465 0.0000 46.4584 0.0000
# 6 0.0000 0.0000 0.0000 -9.2801 0.0000 20.1388
#
#
#
# Elastic Compliance Matrix: (Units=1/GPa)
#
#
# Indices 1 2 3 4 5 6 
#
# 1 0.018220 -0.011928 0.000674 0.000000 -0.007762 0.000000
# 2 -0.011928 0.018994 -0.005170 0.000000 0.006884 0.000000
# 3 0.000674 -0.005170 0.010414 0.000000 -0.004254 0.000000
# 4 0.000000 0.000000 0.000000 0.121436 0.000000 0.055958
# 5 -0.007762 0.006884 -0.004254 0.000000 0.026346 0.000000
# 6 0.000000 0.000000 0.000000 0.055958 0.000000 0.075441
#
#
# Mechanical properties :
#
#
# Convention : Reuss Voigt Hill
#
# Bulk Modulus (GPa) = 67.66025 73.16240 70.41133
# Shear Modulus (GPa) = 16.20089 28.33616 22.26852
#
# Velocity S-wave (km/s) = 2.79332 3.69421 3.27489
# Velocity P-wave (km/s) = 6.55666 7.30975 6.94342
#
# Compressibility (1/GPa) = 0.01477973
#
# Stress axis : x y z
#
# Youngs Moduli (GPa) = 54.88592 52.64909 96.02178
#
# Poissons Ratio (x) = 0.62801 -0.06475
# Poissons Ratio (y) = 0.65469 0.49643
# Poissons Ratio (z) = -0.03701 0.27219
#
# Static dielectric constant tensor:
#      x y z
#    x 1.763180 0.000000 0.014930 
#    y 0.000000 1.654100 0.000000 
#    z 0.014930 0.000000 1.814800 
# 
# From -- ./inp_files/14766.got.cif
#   From: 2010.05.17/outbox.cif.g08.bks.cpg/sg13_8_cif.got.tgz:14766.got - 2010.06.03 16:44:36.
