data_PCOD9229364
_publ_section_title
;
Structure prediction by ZEFSAII (Michael W. Deem and Ramdas Pophale) SiO2 
 PCOD9229364
Probable space group: P 2/C
;
_chemical_formula_sum "Si O2"
_cell_formula_units_Z 22
_cell_length_a 9.255265
_cell_length_b 13.061409
_cell_length_c 8.593303
_cell_angle_alpha 90.000000
_cell_angle_beta 88.689642
_cell_angle_gamma 90.000000
_cell_volume 1038.545255
_symmetry_space_group_name_H-M "P 2/C"
_symmetry_group_IT_number 13
_symmetry_cell_setting 'monoclinic'
loop_
_space_group_symop_operation_xyz
x,y,z
-x,y,1/2-z
-x,-y,-z
x,-y,1/2+z
loop_
_atom_site_type_symbol
_atom_site_label
_atom_site_fract_x
_atom_site_fract_y
_atom_site_fract_z
Si Si1 0.844783 0.123933 0.765211
Si Si2 0.165648 0.301771 0.222994
Si Si3 0.435173 0.397825 0.076792
Si Si4 0.500000 0.916121 0.750000
Si Si5 0.218350 0.925720 0.583387
Si Si6 0.646320 0.762383 0.504546
O O1 0.784654 0.091077 0.599675
O O2 0.000000 0.178875 0.750000
O O3 0.878144 0.021828 0.865484
O O4 0.729249 0.192015 0.857834
O O5 0.265861 0.372876 0.108926
O O6 0.174940 0.184068 0.158320
O O7 0.240205 0.299495 0.390991
O O8 0.000000 0.331650 0.250000
O O9 0.500000 0.389896 0.250000
O O10 0.507311 0.306895 0.975662
O O11 0.500000 0.500000 0.000000
O O12 0.373321 0.962839 0.648564
O O13 0.586636 0.848726 0.622440
#
# Coordination Sequence:
#
# PCOD9229364 Si02
#       6
#     4   4   4   2   4   4
#     4  12  25  38  58  91 126 167 207 255 307 362
#     4  10  19  39  65  88 118 162 206 252 306 360
#     4  10  21  41  63  88 119 156 197 254 313 369
#     4  10  20  42  60  88 114 166 206 250 306 358
#     4  11  22  38  61  87 125 162 210 252 304 360
#     4  10  20  41  61  83 127 156 202 253 303 367
#
# _framework density 21.183477
#
# number of rings (size 3 to 8) (size 9 to 14) (size 15 to 20)
#    0.000    1.455    4.545    4.364    0.000    5.091 
#    0.000    4.545    0.000    0.000    0.000    0.000 
#    0.000    0.000    0.000    0.000    0.000    0.000 
#
# Total GULP energy -122755.180116 kJ/mol
# GULP energy per Si atom -5579.780914 kJ/mol
# Density = 2.113526 g / cm^3
# Si number density = 21.183477 Si / 1000 Ang^3
#
#
#
# Elastic Constant Matrix: (Units=GPa)
#
#
# Indices 1 2 3 4 5 6 
#
# 1 154.6418 30.6123 52.9799 0.0000 -37.0778 0.0000
# 2 30.6123 65.4559 33.8967 0.0000 -26.7488 0.0000
# 3 52.9799 33.8967 116.7507 0.0000 -23.0489 0.0000
# 4 0.0000 0.0000 0.0000 23.7710 0.0000 -1.1293
# 5 -37.0778 -26.7488 -23.0489 0.0000 39.9218 0.0000
# 6 0.0000 0.0000 0.0000 -1.1293 0.0000 5.8427
#
#
#
# Elastic Compliance Matrix: (Units=1/GPa)
#
#
# Indices 1 2 3 4 5 6 
#
# 1 0.009044 -0.000028 -0.002755 0.000000 0.006790 0.000000
# 2 -0.000028 0.022603 -0.004024 0.000000 0.012796 0.000000
# 3 -0.002755 -0.004024 0.011226 0.000000 0.001226 0.000000
# 4 0.000000 0.000000 0.000000 0.042458 0.000000 0.008206
# 5 0.006790 0.012796 0.001226 0.000000 0.040637 0.000000
# 6 0.000000 0.000000 0.000000 0.008206 0.000000 0.172739
#
#
# Mechanical properties :
#
#
# Convention : Reuss Voigt Hill
#
# Bulk Modulus (GPa) = 34.17732 63.53627 48.85680
# Shear Modulus (GPa) = 15.52435 28.53108 22.02771
#
# Velocity S-wave (km/s) = 2.71006 3.67393 3.22817
# Velocity P-wave (km/s) = 5.09525 6.93221 6.08346
#
# Compressibility (1/GPa) = 0.02925917
#
# Stress axis : x y z
#
# Youngs Moduli (GPa) = 110.56825 44.24138 89.07948
#
# Poissons Ratio (x) = 0.00124 0.24546
# Poissons Ratio (y) = 0.00309 0.35843
# Poissons Ratio (z) = 0.30467 0.17801
#
# Static dielectric constant tensor:
#      x y z
#    x 1.867300 0.000000 -0.051250 
#    y 0.000000 1.806740 0.000000 
#    z -0.051250 0.000000 1.873850 
# 
# From -- ./inp_files/12415.got.cif
#   From: 2010.05.17/outbox.cif.g08.bks.cpg/sg13_7_cif.got.tgz:12415.got - 2010.06.03 16:44:36.
