data_PCOD9229831
_publ_section_title
;
Structure prediction by ZEFSAII (Michael W. Deem and Ramdas Pophale) SiO2 
 PCOD9229831
Probable space group: P 2/C
;
_chemical_formula_sum "Si O2"
_cell_formula_units_Z 28
_cell_length_a 19.423374
_cell_length_b 11.497219
_cell_length_c 23.002442
_cell_angle_alpha 90.000000
_cell_angle_beta 17.346342
_cell_angle_gamma 90.000000
_cell_volume 1531.517186
_symmetry_space_group_name_H-M "P 2/C"
_symmetry_group_IT_number 13
_symmetry_cell_setting 'monoclinic'
loop_
_space_group_symop_operation_xyz
x,y,z
-x,y,1/2-z
-x,-y,-z
x,-y,1/2+z
loop_
_atom_site_type_symbol
_atom_site_label
_atom_site_fract_x
_atom_site_fract_y
_atom_site_fract_z
Si Si1 0.022491 0.781584 0.882294
Si Si2 0.190432 0.788168 0.174297
Si Si3 0.246158 0.973871 0.227340
Si Si4 0.512438 0.637738 0.993840
Si Si5 0.387324 0.211501 0.704649
Si Si6 0.279108 0.878111 0.471089
Si Si7 0.703108 0.849086 0.537749
O O1 0.231153 0.691541 0.719692
O O2 0.110901 0.905664 0.836179
O O3 0.801803 0.744465 0.097503
O O4 0.926595 0.809496 0.894865
O O5 0.154680 0.887494 0.251847
O O6 0.923116 0.766814 0.373596
O O7 0.338316 0.689530 0.086204
O O8 0.335724 0.826282 0.999891
O O9 0.280815 0.902457 0.258564
O O10 0.500000 0.000000 0.000000
O O11 0.500000 0.500000 0.000000
O O12 0.432798 0.692674 0.119290
O O13 0.619680 0.173142 0.550853
O O14 0.500000 0.873241 0.250000
O O15 0.223635 0.014802 0.520599
O O16 0.500000 0.834296 0.750000
#
# Coordination Sequence:
#
# PCOD9229831 Si02
#       7
#     4   4   4   4   4   4   4
#     4  11  21  37  60  90 123 158 191 243 299 352
#     4  10  21  35  56  85 121 148 196 233 286 362
#     4  11  18  34  54  93 127 155 184 231 298 363
#     4  11  26  44  59  80 111 159 215 257 291 330
#     4  10  22  37  60  89 123 155 198 240 294 362
#     4   9  19  33  55  92 125 151 183 226 296 372
#     4  10  20  34  57  90 127 155 175 226 298 369
#
# _framework density 18.282525
#
# number of rings (size 3 to 8) (size 9 to 14) (size 15 to 20)
#    0.000    1.714    4.286    1.286    0.000    3.429 
#    0.000    2.857    0.000    1.714    0.000    0.000 
#    0.000    0.000    0.000    0.000    0.000    0.000 
#
# Total GULP energy -156041.647387 kJ/mol
# GULP energy per Si atom -5572.915978 kJ/mol
# Density = 1.824091 g / cm^3
# Si number density = 18.282525 Si / 1000 Ang^3
#
#
#
# Elastic Constant Matrix: (Units=GPa)
#
#
# Indices 1 2 3 4 5 6 
#
# 1 114.8079 55.7557 40.5242 0.0000 -7.7090 0.0000
# 2 55.7557 112.1466 37.8956 0.0000 -14.3939 0.0000
# 3 40.5242 37.8956 108.8295 0.0000 4.4963 0.0000
# 4 0.0000 0.0000 0.0000 6.4567 0.0000 -1.9199
# 5 -7.7090 -14.3939 4.4963 0.0000 31.9849 0.0000
# 6 0.0000 0.0000 0.0000 -1.9199 0.0000 11.0143
#
#
#
# Elastic Compliance Matrix: (Units=1/GPa)
#
#
# Indices 1 2 3 4 5 6 
#
# 1 0.012203 -0.004956 -0.002864 0.000000 0.001113 0.000000
# 2 -0.004956 0.013009 -0.002894 0.000000 0.005067 0.000000
# 3 -0.002864 -0.002894 0.011411 0.000000 -0.003597 0.000000
# 4 0.000000 0.000000 0.000000 0.163344 0.000000 0.028472
# 5 0.001113 0.005067 -0.003597 0.000000 0.034319 0.000000
# 6 0.000000 0.000000 0.000000 0.028472 0.000000 0.095754
#
#
# Mechanical properties :
#
#
# Convention : Reuss Voigt Hill
#
# Bulk Modulus (GPa) = 65.80972 67.12610 66.46791
# Shear Modulus (GPa) = 14.02396 23.33176 18.67786
#
# Velocity S-wave (km/s) = 2.77261 3.57624 3.19975
# Velocity P-wave (km/s) = 6.80617 7.33814 7.07715
#
# Compressibility (1/GPa) = 0.01519532
#
# Stress axis : x y z
#
# Youngs Moduli (GPa) = 81.94818 76.86954 87.63166
#
# Poissons Ratio (x) = 0.38098 0.25099
# Poissons Ratio (y) = 0.40615 0.25358
# Poissons Ratio (z) = 0.23471 0.22244
#
# Static dielectric constant tensor:
#      x y z
#    x 1.697940 0.000000 -0.007500 
#    y 0.000000 1.675440 0.000000 
#    z -0.007500 0.000000 1.658390 
# 
# From -- ./inp_files/81047.got.cif
#   From: 2010.05.17/outbox.cif.g08.bks.cpg/sg13_41_cif.got.tgz:81047.got - 2010.06.03 16:44:36.
