data_PCOD9229237
_publ_section_title
;
Structure prediction by ZEFSAII (Michael W. Deem and Ramdas Pophale) SiO2 
 PCOD9229237
Probable space group: P 2/C
;
_chemical_formula_sum "Si O2"
_cell_formula_units_Z 20
_cell_length_a 20.781053
_cell_length_b 5.392778
_cell_length_c 13.903372
_cell_angle_alpha 90.000000
_cell_angle_beta 153.216743
_cell_angle_gamma 90.000000
_cell_volume 702.113798
_symmetry_space_group_name_H-M "P 2/C"
_symmetry_group_IT_number 13
_symmetry_cell_setting 'monoclinic'
loop_
_space_group_symop_operation_xyz
x,y,z
-x,y,1/2-z
-x,-y,-z
x,-y,1/2+z
loop_
_atom_site_type_symbol
_atom_site_label
_atom_site_fract_x
_atom_site_fract_y
_atom_site_fract_z
Si Si1 0.204221 0.241627 0.961100
Si Si2 0.901551 0.574884 0.997645
Si Si3 0.671478 0.216854 0.688534
Si Si4 0.466480 0.614738 0.313064
Si Si5 0.162537 0.905458 0.738556
O O1 0.176160 0.222520 0.037134
O O2 0.198270 0.988850 0.893231
O O3 0.065648 0.394126 0.740084
O O4 0.341520 0.410578 0.130318
O O5 0.827829 0.320936 0.926719
O O6 0.857673 0.632483 0.830172
O O7 0.588461 0.447026 0.526297
O O8 0.584376 0.187243 0.672758
O O9 0.711009 0.026847 0.656741
O O10 0.500000 0.708799 0.250000
O O11 0.000000 0.000000 0.500000
#
# Coordination Sequence:
#
# PCOD9229237 Si02
#       5
#     4   4   4   4   4
#     4   9  18  37  60  82 124 161 196 258 314 359
#     4   9  20  38  59  90 116 158 209 255 309 367
#     4  10  21  38  64  88 121 162 210 261 307 373
#     4  10  19  38  62  86 125 168 202 250 321 372
#     4  10  20  37  61  87 121 155 203 260 312 364
#
# _framework density 28.485410999999999
#
# number of rings (size 3 to 8) (size 9 to 14) (size 15 to 20)
#    0.000    2.400    2.000    0.000    0.000    3.200 
#    3.600   23.000    0.000    0.000    0.000    0.000 
#    0.000    0.000    0.000    0.000    0.000    0.000 
#
# Total GULP energy -111924.453073 kJ/mol
# GULP energy per Si atom -5596.222654 kJ/mol
# Density = 2.842058 g / cm^3
# Si number density = 28.485411 Si / 1000 Ang^3
#
#
#
# Elastic Constant Matrix: (Units=GPa)
#
#
# Indices 1 2 3 4 5 6 
#
# 1 209.5125 49.2524 40.8516 0.0000 -22.9784 0.0000
# 2 49.2524 56.8485 19.8953 0.0000 -3.0308 0.0000
# 3 40.8516 19.8953 122.3199 0.0000 6.7957 0.0000
# 4 0.0000 0.0000 0.0000 43.9589 0.0000 -8.5373
# 5 -22.9784 -3.0308 6.7957 0.0000 62.1765 0.0000
# 6 0.0000 0.0000 0.0000 -8.5373 0.0000 55.7938
#
#
#
# Elastic Compliance Matrix: (Units=1/GPa)
#
#
# Indices 1 2 3 4 5 6 
#
# 1 0.006487 -0.004976 -0.001486 0.000000 0.002317 0.000000
# 2 -0.004976 0.022567 -0.001979 0.000000 -0.000523 0.000000
# 3 -0.001486 -0.001979 0.009084 0.000000 -0.001638 0.000000
# 4 0.000000 0.000000 0.000000 0.023445 0.000000 0.003587
# 5 0.002317 -0.000523 -0.001638 0.000000 0.017093 0.000000
# 6 0.000000 0.000000 0.000000 0.003587 0.000000 0.018472
#
#
# Mechanical properties :
#
#
# Convention : Reuss Voigt Hill
#
# Bulk Modulus (GPa) = 47.04797 67.63106 57.33951
# Shear Modulus (GPa) = 41.28250 50.96461 46.12355
#
# Velocity S-wave (km/s) = 3.81103 4.23442 4.02829
# Velocity P-wave (km/s) = 5.99313 6.90659 6.46601
#
# Compressibility (1/GPa) = 0.02125490
#
# Stress axis : x y z
#
# Youngs Moduli (GPa) = 154.16260 44.31252 110.07817
#
# Poissons Ratio (x) = 0.22052 0.16354
# Poissons Ratio (y) = 0.76718 0.21790
# Poissons Ratio (z) = 0.22904 0.08772
#
# Static dielectric constant tensor:
#      x y z
#    x 2.263140 0.000000 0.040640 
#    y 0.000000 2.298980 0.000000 
#    z 0.040640 0.000000 2.141290 
# 
# From -- ./inp_files/56400.got.cif
#   From: 2010.05.17/outbox.cif.g08.bks.cpg/sg13_29_cif.got.tgz:56400.got - 2010.06.03 16:44:36.
