data_PCOD9229811
_publ_section_title
;
Structure prediction by ZEFSAII (Michael W. Deem and Ramdas Pophale) SiO2 
 PCOD9229811
Probable space group: P 2/C
;
_chemical_formula_sum "Si O2"
_cell_formula_units_Z 30
_cell_length_a 9.546607
_cell_length_b 8.970764
_cell_length_c 29.209560
_cell_angle_alpha 90.000000
_cell_angle_beta 34.620857
_cell_angle_gamma 90.000000
_cell_volume 1421.220350
_symmetry_space_group_name_H-M "P 2/C"
_symmetry_group_IT_number 13
_symmetry_cell_setting 'monoclinic'
loop_
_space_group_symop_operation_xyz
x,y,z
-x,y,1/2-z
-x,-y,-z
x,-y,1/2+z
loop_
_atom_site_type_symbol
_atom_site_label
_atom_site_fract_x
_atom_site_fract_y
_atom_site_fract_z
Si Si1 0.403904 0.407186 0.569294
Si Si2 0.764757 0.901479 0.077434
Si Si3 0.500000 0.875416 0.750000
Si Si4 0.316330 0.875006 0.496719
Si Si5 0.378651 0.434691 0.889140
Si Si6 0.099089 0.924291 0.356716
Si Si7 0.144432 0.591081 0.305129
Si Si8 0.851748 0.349630 0.113777
O O1 0.500000 0.500000 0.500000
O O2 0.469698 0.232562 0.542556
O O3 0.533411 0.452490 0.582194
O O4 0.112621 0.431210 0.651983
O O5 0.759525 0.722538 0.079326
O O6 0.754271 0.932529 0.134046
O O7 0.599218 0.930748 0.076583
O O8 0.000000 0.000000 0.000000
O O9 0.370321 0.763786 0.820046
O O10 0.722433 0.960423 0.716881
O O11 0.092868 0.753560 0.551730
O O12 0.174186 0.007148 0.561840
O O13 0.618434 0.425662 0.791175
O O14 0.204217 0.563809 0.917504
O O15 0.124677 0.758783 0.330806
O O16 0.150669 0.472314 0.345010
#
# Coordination Sequence:
#
# PCOD9229811 Si02
#       8
#     4   4   2   4   4   4   4   4
#     4  11  24  41  60  86 129 168 206 257 315 376
#     4   9  18  34  56  88 124 153 199 253 311 368
#     4  10  20  34  56  94 126 152 190 274 314 356
#     4   9  21  38  57  88 123 162 203 258 309 369
#     4  11  22  37  62  93 123 161 212 260 312 376
#     4  10  20  34  59  88 123 160 198 256 320 370
#     4  12  22  38  63  93 122 164 212 251 315 386
#     4  11  20  36  64  93 121 153 209 261 313 363
#
# _framework density 21.108619000000001
#
# number of rings (size 3 to 8) (size 9 to 14) (size 15 to 20)
#    0.000    1.600    4.000    1.200    0.000    3.733 
#    0.000    0.000    0.000    3.200    3.467    0.000 
#    0.000    0.000    0.000    0.000    0.000    0.000 
#
# Total GULP energy -167074.703922 kJ/mol
# GULP energy per Si atom -5569.156797 kJ/mol
# Density = 2.106058 g / cm^3
# Si number density = 21.108619 Si / 1000 Ang^3
#
#
#
# Elastic Constant Matrix: (Units=GPa)
#
#
# Indices 1 2 3 4 5 6 
#
# 1 89.7280 45.9954 16.2499 0.0000 10.4442 0.0000
# 2 45.9954 91.9173 8.9267 0.0000 3.5388 0.0000
# 3 16.2499 8.9267 70.4647 0.0000 7.2240 0.0000
# 4 0.0000 0.0000 0.0000 22.0395 0.0000 -4.1728
# 5 10.4442 3.5388 7.2240 0.0000 23.0143 0.0000
# 6 0.0000 0.0000 0.0000 -4.1728 0.0000 36.8633
#
#
#
# Elastic Compliance Matrix: (Units=1/GPa)
#
#
# Indices 1 2 3 4 5 6 
#
# 1 0.016083 -0.007626 -0.002185 0.000000 -0.005440 0.000000
# 2 -0.007626 0.014669 -0.000231 0.000000 0.001278 0.000000
# 3 -0.002185 -0.000231 0.015105 0.000000 -0.003714 0.000000
# 4 0.000000 0.000000 0.000000 0.046367 0.000000 0.005249
# 5 -0.005440 0.001278 -0.003714 0.000000 0.046889 0.000000
# 6 0.000000 0.000000 0.000000 0.005249 0.000000 0.027721
#
#
# Mechanical properties :
#
#
# Convention : Reuss Voigt Hill
#
# Bulk Modulus (GPa) = 38.79984 43.82822 41.31403
# Shear Modulus (GPa) = 25.57416 28.44596 27.01006
#
# Velocity S-wave (km/s) = 3.48451 3.67495 3.58100
# Velocity P-wave (km/s) = 5.88303 6.23019 6.05910
#
# Compressibility (1/GPa) = 0.02577330
#
# Stress axis : x y z
#
# Youngs Moduli (GPa) = 62.17721 68.17219 66.20143
#
# Poissons Ratio (x) = 0.51990 0.14466
# Poissons Ratio (y) = 0.47418 0.01526
# Poissons Ratio (z) = 0.13586 0.01572
#
# Static dielectric constant tensor:
#      x y z
#    x 1.799780 0.000000 0.024500 
#    y 0.000000 1.807700 0.000000 
#    z 0.024500 0.000000 1.907060 
# 
# From -- ./inp_files/95956.got.cif
#   From: 2010.05.17/outbox.cif.g08.bks.cpg/sg13_48_cif.got.tgz:95956.got - 2010.06.03 16:44:36.
