data_PCOD9229363
_publ_section_title
;
Structure prediction by ZEFSAII (Michael W. Deem and Ramdas Pophale) SiO2 
 PCOD9229363
Probable space group: P 2/C
;
_chemical_formula_sum "Si O2"
_cell_formula_units_Z 30
_cell_length_a 19.104753
_cell_length_b 9.452917
_cell_length_c 16.490646
_cell_angle_alpha 90.000000
_cell_angle_beta 23.465290
_cell_angle_gamma 90.000000
_cell_volume 1185.875342
_symmetry_space_group_name_H-M "P 2/C"
_symmetry_group_IT_number 13
_symmetry_cell_setting 'monoclinic'
loop_
_space_group_symop_operation_xyz
x,y,z
-x,y,1/2-z
-x,-y,-z
x,-y,1/2+z
loop_
_atom_site_type_symbol
_atom_site_label
_atom_site_fract_x
_atom_site_fract_y
_atom_site_fract_z
Si Si1 0.280044 0.696165 0.637176
Si Si2 0.770305 0.388158 0.740325
Si Si3 0.423579 0.222463 0.153982
Si Si4 0.000000 0.169244 0.750000
Si Si5 0.965189 0.853751 0.995110
Si Si6 0.701961 0.631995 0.562523
Si Si7 0.275590 0.962054 0.376150
Si Si8 0.332309 0.340927 0.838115
O O1 0.216830 0.541944 0.734723
O O2 0.342393 0.784498 0.650853
O O3 0.457710 0.665271 0.399329
O O4 0.121309 0.792970 0.772825
O O5 0.926960 0.279956 0.592432
O O6 0.745405 0.387382 0.668369
O O7 0.598271 0.313577 0.959821
O O8 0.298166 0.314833 0.344531
O O9 0.433574 0.069887 0.187921
O O10 0.144033 0.273021 0.639231
O O11 0.116725 0.061880 0.572755
O O12 0.783237 0.889591 0.144422
O O13 0.000000 0.000000 0.000000
O O14 0.500000 0.660647 0.750000
O O15 0.729717 0.464271 0.535592
O O16 0.294918 0.819520 0.407002
#
# Coordination Sequence:
#
# PCOD9229363 Si02
#       8
#     4   4   4   2   4   4   4   4
#     4  11  19  38  61  97 133 163 203 261 327 386
#     4  10  20  36  63  90 132 168 200 257 326 382
#     4  10  19  39  65  87 130 162 207 253 319 394
#     4  10  26  50  68  84 130 174 220 280 320 376
#     4  11  23  34  57  99 130 167 209 256 322 390
#     4  11  23  46  68  97 116 174 229 270 317 381
#     4  10  23  43  62  90 130 172 210 260 332 382
#     4  10  21  40  64  93 125 163 213 263 327 384
#
# _framework density 25.297768999999999
#
# number of rings (size 3 to 8) (size 9 to 14) (size 15 to 20)
#    0.000    1.600    4.000    1.200    1.867    3.200 
#    9.600    0.667    0.000    0.000    0.000    0.000 
#    0.000    0.000    0.000    0.000    0.000    0.000 
#
# Total GULP energy -167405.837148 kJ/mol
# GULP energy per Si atom -5580.194572 kJ/mol
# Density = 2.524019 g / cm^3
# Si number density = 25.297769 Si / 1000 Ang^3
#
#
#
# Elastic Constant Matrix: (Units=GPa)
#
#
# Indices 1 2 3 4 5 6 
#
# 1 36.8384 13.8752 -1.0171 0.0000 6.1069 0.0000
# 2 13.8752 240.5478 67.5967 0.0000 -8.2142 0.0000
# 3 -1.0171 67.5967 72.5220 0.0000 0.8757 0.0000
# 4 0.0000 0.0000 0.0000 55.0946 0.0000 -13.6917
# 5 6.1069 -8.2142 0.8757 0.0000 26.0585 0.0000
# 6 0.0000 0.0000 0.0000 -13.6917 0.0000 16.6615
#
#
#
# Elastic Compliance Matrix: (Units=1/GPa)
#
#
# Indices 1 2 3 4 5 6 
#
# 1 0.029638 -0.002879 0.003196 0.000000 -0.007961 0.000000
# 2 -0.002879 0.006013 -0.005679 0.000000 0.002761 0.000000
# 3 0.003196 -0.005679 0.019165 0.000000 -0.003183 0.000000
# 4 0.000000 0.000000 0.000000 0.022808 0.000000 0.018743
# 5 -0.007961 0.002761 -0.003183 0.000000 0.041218 0.000000
# 6 0.000000 0.000000 0.000000 0.018743 0.000000 0.075421
#
#
# Mechanical properties :
#
#
# Convention : Reuss Voigt Hill
#
# Bulk Modulus (GPa) = 22.67998 56.75753 39.71876
# Shear Modulus (GPa) = 22.75977 37.52648 30.14312
#
# Velocity S-wave (km/s) = 3.00271 3.85566 3.45560
# Velocity P-wave (km/s) = 4.58327 6.50430 5.62638
#
# Compressibility (1/GPa) = 0.04409174
#
# Stress axis : x y z
#
# Youngs Moduli (GPa) = 33.74035 166.29736 52.17799
#
# Poissons Ratio (x) = 0.47884 -0.16674
# Poissons Ratio (y) = 0.09715 0.29630
# Poissons Ratio (z) = -0.10782 0.94435
#
# Static dielectric constant tensor:
#      x y z
#    x 2.167850 0.000000 0.021730 
#    y 0.000000 2.056080 0.000000 
#    z 0.021730 0.000000 2.079140 
# 
# From -- ./inp_files/82187.got.cif
#   From: 2010.05.17/outbox.cif.g08.bks.cpg/sg13_42_cif.got.tgz:82187.got - 2010.06.03 16:44:36.
