data_PCOD9229167
_publ_section_title
;
Structure prediction by ZEFSAII (Michael W. Deem and Ramdas Pophale) SiO2 
 PCOD9229167
Probable space group: P 2/C
;
_chemical_formula_sum "Si O2"
_cell_formula_units_Z 18
_cell_length_a 9.417943
_cell_length_b 11.892428
_cell_length_c 9.991275
_cell_angle_alpha 90.000000
_cell_angle_beta 47.129557
_cell_angle_gamma 90.000000
_cell_volume 820.141230
_symmetry_space_group_name_H-M "P 2/C"
_symmetry_group_IT_number 13
_symmetry_cell_setting 'monoclinic'
loop_
_space_group_symop_operation_xyz
x,y,z
-x,y,1/2-z
-x,-y,-z
x,-y,1/2+z
loop_
_atom_site_type_symbol
_atom_site_label
_atom_site_fract_x
_atom_site_fract_y
_atom_site_fract_z
Si Si1 0.809010 0.642745 0.041845
Si Si2 0.230018 0.685793 0.740128
Si Si3 0.367713 0.151965 0.703777
Si Si4 0.500000 0.552546 0.750000
Si Si5 0.351172 0.908640 0.723487
O O1 0.744395 0.730476 0.200204
O O2 0.678279 0.532151 0.115890
O O3 0.772588 0.697425 0.918362
O O4 0.036587 0.617921 0.901403
O O5 0.423772 0.629474 0.676488
O O6 0.202213 0.806917 0.827190
O O7 0.500000 0.147707 0.750000
O O8 0.512062 0.132793 0.486806
O O9 0.256784 0.031658 0.770392
O O10 0.500000 0.910485 0.750000
#
# Coordination Sequence:
#
# PCOD9229167 Si02
#       5
#     4   4   4   2   4
#     4  11  23  40  64  91 123 164 209 250 313 367
#     4  11  23  39  63  93 122 163 208 257 305 367
#     4  10  19  37  65  89 121 168 200 246 315 375
#     4  12  22  42  62  86 126 164 208 262 304 362
#     4  10  20  37  63  93 123 158 205 253 309 364
#
# _framework density 21.947437999999998
#
# number of rings (size 3 to 8) (size 9 to 14) (size 15 to 20)
#    0.000    1.333    4.444    1.333    0.000    0.889 
#    0.000    1.111    0.000    0.000    0.000    0.000 
#    0.000    0.000    0.000    0.000    0.000    0.000 
#
# Total GULP energy -100236.230005 kJ/mol
# GULP energy per Si atom -5568.679445 kJ/mol
# Density = 2.189748 g / cm^3
# Si number density = 21.947438 Si / 1000 Ang^3
#
#
#
# Elastic Constant Matrix: (Units=GPa)
#
#
# Indices 1 2 3 4 5 6 
#
# 1 75.9979 23.0253 22.7943 0.0000 -0.5222 0.0000
# 2 23.0253 99.5393 8.4123 0.0000 -10.2741 0.0000
# 3 22.7943 8.4123 77.0875 0.0000 7.2256 0.0000
# 4 0.0000 0.0000 0.0000 32.6621 0.0000 4.6735
# 5 -0.5222 -10.2741 7.2256 0.0000 25.4363 0.0000
# 6 0.0000 0.0000 0.0000 4.6735 0.0000 30.2576
#
#
#
# Elastic Compliance Matrix: (Units=1/GPa)
#
#
# Indices 1 2 3 4 5 6 
#
# 1 0.015390 -0.003179 -0.004226 0.000000 0.000232 0.000000
# 2 -0.003179 0.011331 -0.000739 0.000000 0.004722 0.000000
# 3 -0.004226 -0.000739 0.014731 0.000000 -0.004570 0.000000
# 4 0.000000 0.000000 0.000000 0.031308 0.000000 -0.004836
# 5 0.000232 0.004722 -0.004570 0.000000 0.042524 0.000000
# 6 0.000000 0.000000 0.000000 -0.004836 0.000000 0.033796
#
#
# Mechanical properties :
#
#
# Convention : Reuss Voigt Hill
#
# Bulk Modulus (GPa) = 39.73772 40.12094 39.92933
# Shear Modulus (GPa) = 28.77572 30.89739 29.83655
#
# Velocity S-wave (km/s) = 3.62487 3.75612 3.69108
# Velocity P-wave (km/s) = 5.97199 6.09356 6.03308
#
# Compressibility (1/GPa) = 0.02516501
#
# Stress axis : x y z
#
# Youngs Moduli (GPa) = 64.97548 88.24990 67.88505
#
# Poissons Ratio (x) = 0.28055 0.28686
# Poissons Ratio (y) = 0.20656 0.05018
# Poissons Ratio (z) = 0.27457 0.06523
#
# Static dielectric constant tensor:
#      x y z
#    x 1.777290 0.000000 -0.027600 
#    y 0.000000 1.977750 0.000000 
#    z -0.027600 0.000000 1.869020 
# 
# From -- ./inp_files/11620.got.cif
#   From: 2010.05.17/outbox.cif.g08.bks.cpg/sg13_6_cif.got.tgz:11620.got - 2010.06.03 16:44:36.
