data_PCOD9229457
_publ_section_title
;
Structure prediction by ZEFSAII (Michael W. Deem and Ramdas Pophale) SiO2 
 PCOD9229457
Probable space group: P 2/C
;
_chemical_formula_sum "Si O2"
_cell_formula_units_Z 24
_cell_length_a 7.610745
_cell_length_b 22.746202
_cell_length_c 7.811329
_cell_angle_alpha 90.000000
_cell_angle_beta 54.697068
_cell_angle_gamma 90.000000
_cell_volume 1103.592238
_symmetry_space_group_name_H-M "P 2/C"
_symmetry_group_IT_number 13
_symmetry_cell_setting 'monoclinic'
loop_
_space_group_symop_operation_xyz
x,y,z
-x,y,1/2-z
-x,-y,-z
x,-y,1/2+z
loop_
_atom_site_type_symbol
_atom_site_label
_atom_site_fract_x
_atom_site_fract_y
_atom_site_fract_z
Si Si1 0.177481 0.921798 0.907029
Si Si2 0.500000 0.635536 0.250000
Si Si3 0.500000 0.177287 0.250000
Si Si4 0.056784 0.433434 0.016370
Si Si5 0.274806 0.051688 0.959337
Si Si6 0.169864 0.328238 0.520526
Si Si7 0.386720 0.716427 0.591918
O O1 0.297804 0.864368 0.902003
O O2 0.255345 0.930271 0.666847
O O3 0.242523 0.981015 0.969360
O O4 0.920671 0.920413 0.038059
O O5 0.299480 0.589354 0.334818
O O6 0.352852 0.686159 0.431010
O O7 0.540887 0.218485 0.393464
O O8 0.000000 0.425061 0.250000
O O9 0.000000 0.500000 0.000000
O O10 0.899820 0.392831 0.992059
O O11 0.500000 0.066981 0.750000
O O12 0.405667 0.323742 0.470767
O O13 0.000000 0.303260 0.750000
O O14 0.190874 0.293951 0.330959
#
# Coordination Sequence:
#
# PCOD9229457 Si02
#       7
#     4   2   2   4   4   4   4
#     4  10  21  38  62  93 134 169 216 278 323 411
#     4  12  24  46  71  97 132 178 228 262 342 400
#     4  10  22  44  61  95 132 166 228 290 326 378
#     4  12  26  41  67 104 136 171 213 273 329 399
#     4  10  20  37  63  92 129 177 209 256 356 409
#     4  10  19  41  67  92 133 172 212 258 337 392
#     4  10  24  42  69  92 124 179 226 276 325 395
#
# _framework density 21.747161999999999
#
# number of rings (size 3 to 8) (size 9 to 14) (size 15 to 20)
#    0.000    1.667    4.167    1.000    0.000    2.000 
#    1.500   13.333    0.000    0.000    0.000    0.000 
#    0.000    0.000    0.000    0.000    0.000    0.000 
#
# Total GULP energy -133715.842982 kJ/mol
# GULP energy per Si atom -5571.493458 kJ/mol
# Density = 2.169766 g / cm^3
# Si number density = 21.747162 Si / 1000 Ang^3
#
#
#
# Elastic Constant Matrix: (Units=GPa)
#
#
# Indices 1 2 3 4 5 6 
#
# 1 51.4474 49.8587 21.8584 0.0000 -31.8875 0.0000
# 2 49.8587 145.7036 25.2399 0.0000 -20.0894 0.0000
# 3 21.8584 25.2399 135.4767 0.0000 -25.0733 0.0000
# 4 0.0000 0.0000 0.0000 16.9480 0.0000 18.0930
# 5 -31.8875 -20.0894 -25.0733 0.0000 27.6116 0.0000
# 6 0.0000 0.0000 0.0000 18.0930 0.0000 -0.5533
#
#
#
# Elastic Compliance Matrix: (Units=1/GPa)
#
#
# Indices 1 2 3 4 5 6 
#
# 1 0.116900 -0.024247 0.008867 0.000000 0.125414 0.000000
# 2 -0.024247 0.012683 -0.002314 0.000000 -0.020875 0.000000
# 3 0.008867 -0.002314 0.009575 0.000000 0.017251 0.000000
# 4 0.000000 0.000000 0.000000 0.001643 0.000000 0.053731
# 5 0.125414 -0.020875 0.017251 0.000000 0.181528 0.000000
# 6 0.000000 0.000000 0.000000 0.053731 0.000000 -0.050330
#
#
# Mechanical properties :
#
#
# Convention : Reuss Voigt Hill
#
# Bulk Modulus (GPa) = 9.63671 58.50462 34.07067
# Shear Modulus (GPa) = 14.62089 24.51264 19.56677
#
# Velocity S-wave (km/s) = 2.59571 3.36097 3.00282
# Velocity P-wave (km/s) = 3.66395 6.48244 5.26529
#
# Compressibility (1/GPa) = 0.10376982
#
# Stress axis : x y z
#
# Youngs Moduli (GPa) = 8.55430 78.84618 104.44396
#
# Poissons Ratio (x) = 1.91175 -0.92610
# Poissons Ratio (y) = 0.20741 0.24171
# Poissons Ratio (z) = -0.07585 0.18247
#
# Static dielectric constant tensor:
#      x y z
#    x 1.912190 0.000000 0.068090 
#    y 0.000000 1.772380 0.000000 
#    z 0.068090 0.000000 1.848930 
# 
# From -- ./inp_files/13475.got.cif
#   From: 2010.05.17/outbox.cif.g08.bks.cpg/sg13_7_cif.got.tgz:13475.got - 2010.06.03 16:44:36.
