data_PCOD9229609
_publ_section_title
;
Structure prediction by ZEFSAII (Michael W. Deem and Ramdas Pophale) SiO2 
 PCOD9229609
Probable space group: P 2/C
;
_chemical_formula_sum "Si O2"
_cell_formula_units_Z 32
_cell_length_a 20.610278
_cell_length_b 12.833490
_cell_length_c 7.473192
_cell_angle_alpha 90.000000
_cell_angle_beta 122.037686
_cell_angle_gamma 90.000000
_cell_volume 1675.624194
_symmetry_space_group_name_H-M "P 2/C"
_symmetry_group_IT_number 13
_symmetry_cell_setting 'monoclinic'
loop_
_space_group_symop_operation_xyz
x,y,z
-x,y,1/2-z
-x,-y,-z
x,-y,1/2+z
loop_
_atom_site_type_symbol
_atom_site_label
_atom_site_fract_x
_atom_site_fract_y
_atom_site_fract_z
Si Si1 0.062613 0.550657 0.221485
Si Si2 0.667306 0.594443 0.361760
Si Si3 0.346498 0.646085 0.738891
Si Si4 0.179122 0.713008 0.485230
Si Si5 0.088828 0.143120 0.345501
Si Si6 0.163945 0.649575 0.891048
Si Si7 0.089382 0.088069 0.935012
Si Si8 0.491837 0.623847 0.451682
O O1 0.130758 0.631893 0.294544
O O2 0.107753 0.446736 0.350768
O O3 0.000000 0.611991 0.250000
O O4 0.000000 0.500000 0.000000
O O5 0.659936 0.631664 0.555359
O O6 0.660703 0.469558 0.352724
O O7 0.751427 0.621883 0.421996
O O8 0.597946 0.643732 0.145224
O O9 0.269919 0.709357 0.577737
O O10 0.436067 0.677925 0.845422
O O11 0.167023 0.670657 0.676635
O O12 0.141519 0.827221 0.410497
O O13 0.136746 0.245942 0.447218
O O14 0.000000 0.165006 0.250000
O O15 0.112331 0.033278 0.464554
O O16 0.094502 0.122018 0.144925
O O17 0.000000 0.092439 0.750000
O O18 0.500000 0.639944 0.250000
O O19 0.500000 0.500000 0.500000
#
# Coordination Sequence:
#
# PCOD9229609 Si02
#       8
#     4   4   4   4   4   4   4   4
#     4  12  22  33  45  64  94 130 158 185 228 279
#     4   9  16  28  43  65  92 121 149 184 222 268
#     4   9  16  28  43  65  92 120 150 182 223 272
#     4  10  20  33  48  67  94 124 153 192 233 269
#     4  10  20  36  51  69  87 117 158 199 238 270
#     4  10  20  33  48  67  95 123 155 192 227 275
#     4  10  20  35  52  66  89 118 156 200 236 272
#     4   8  14  24  42  62  87 118 149 179 218 267
#
# _framework density 19.097360999999999
#
# number of rings (size 3 to 8) (size 9 to 14) (size 15 to 20)
#    0.000    2.250    2.500    2.250    1.750    0.000 
#    2.250    0.000    0.000    0.000    0.000    0.875 
#    0.000    0.000    0.000    0.000    0.000    0.000 
#
# Total GULP energy -178233.176210 kJ/mol
# GULP energy per Si atom -5569.786757 kJ/mol
# Density = 1.905389 g / cm^3
# Si number density = 19.097361 Si / 1000 Ang^3
#
#
#
# Elastic Constant Matrix: (Units=GPa)
#
#
# Indices 1 2 3 4 5 6 
#
# 1 74.6041 40.7326 45.3416 0.0000 46.3048 0.0000
# 2 40.7326 81.5175 33.3566 0.0000 29.9557 0.0000
# 3 45.3416 33.3566 78.6841 0.0000 37.5016 0.0000
# 4 0.0000 0.0000 0.0000 34.6149 0.0000 -7.8519
# 5 46.3048 29.9557 37.5016 0.0000 47.2465 0.0000
# 6 0.0000 0.0000 0.0000 -7.8519 0.0000 22.8180
#
#
#
# Elastic Compliance Matrix: (Units=1/GPa)
#
#
# Indices 1 2 3 4 5 6 
#
# 1 0.038218 -0.006108 -0.005513 0.000000 -0.029207 0.000000
# 2 -0.006108 0.017464 -0.002348 0.000000 -0.003224 0.000000
# 3 -0.005513 -0.002348 0.021870 0.000000 -0.010467 0.000000
# 4 0.000000 0.000000 0.000000 0.031335 0.000000 0.010783
# 5 -0.029207 -0.003224 -0.010467 0.000000 0.060143 0.000000
# 6 0.000000 0.000000 0.000000 0.010783 0.000000 0.047536
#
#
# Mechanical properties :
#
#
# Convention : Reuss Voigt Hill
#
# Bulk Modulus (GPa) = 20.15513 52.62971 36.39242
# Shear Modulus (GPa) = 19.15403 28.62755 23.89079
#
# Velocity S-wave (km/s) = 3.17040 3.87593 3.54078
# Velocity P-wave (km/s) = 4.89681 6.90282 5.98447
#
# Compressibility (1/GPa) = 0.04961517
#
# Stress axis : x y z
#
# Youngs Moduli (GPa) = 26.16591 57.25913 45.72436
#
# Poissons Ratio (x) = 0.34972 0.25208
# Poissons Ratio (y) = 0.15981 0.10735
# Poissons Ratio (z) = 0.14426 0.13444
#
# Static dielectric constant tensor:
#      x y z
#    x 1.730290 0.000000 -0.075460 
#    y 0.000000 1.691080 0.000000 
#    z -0.075460 0.000000 1.730410 
# 
# From -- ./inp_files/24074.got.cif
#   From: 2010.05.17/outbox.cif.g08.bks.cpg/sg13_13_cif.got.tgz:24074.got - 2010.06.03 16:44:36.
