data_PCOD9229561
_publ_section_title
;
Structure prediction by ZEFSAII (Michael W. Deem and Ramdas Pophale) SiO2 
 PCOD9229561
Probable space group: P 2/C
;
_chemical_formula_sum "Si O2"
_cell_formula_units_Z 28
_cell_length_a 13.530858
_cell_length_b 19.367640
_cell_length_c 5.551349
_cell_angle_alpha 90.000000
_cell_angle_beta 116.709423
_cell_angle_gamma 90.000000
_cell_volume 1299.561032
_symmetry_space_group_name_H-M "P 2/C"
_symmetry_group_IT_number 13
_symmetry_cell_setting 'monoclinic'
loop_
_space_group_symop_operation_xyz
x,y,z
-x,y,1/2-z
-x,-y,-z
x,-y,1/2+z
loop_
_atom_site_type_symbol
_atom_site_label
_atom_site_fract_x
_atom_site_fract_y
_atom_site_fract_z
Si Si1 0.387178 0.252752 0.006450
Si Si2 0.500000 0.848138 0.250000
Si Si3 0.883180 0.041345 0.682903
Si Si4 0.866784 0.535420 0.629901
Si Si5 0.000000 0.291407 0.750000
Si Si6 0.890881 0.806724 0.736954
Si Si7 0.184863 0.326360 0.623524
Si Si8 0.302068 0.871771 0.726574
O O1 0.500000 0.277550 0.250000
O O2 0.327389 0.201242 0.127797
O O3 0.423400 0.202870 0.825577
O O4 0.307047 0.315058 0.854142
O O5 0.582541 0.890455 0.516297
O O6 0.765135 0.080079 0.530115
O O7 0.000000 0.081572 0.750000
O O8 0.885688 0.989500 0.454666
O O9 0.829608 0.501260 0.335455
O O10 0.826110 0.614499 0.584424
O O11 0.000000 0.535232 0.750000
O O12 0.929805 0.240420 0.502908
O O13 0.911961 0.339261 0.789734
O O14 0.847205 0.749615 0.504580
O O15 0.793756 0.858621 0.684539
O O16 0.000000 0.841081 0.750000
#
# Coordination Sequence:
#
# PCOD9229561 Si02
#       8
#     4   2   4   4   2   4   4   4
#     4  10  22  39  62  91 120 159 205 266 328 374
#     4  10  22  42  60  94 122 160 210 268 320 392
#     4  10  25  45  66  96 133 174 215 257 310 380
#     4  10  23  38  57  85 125 173 211 250 304 376
#     4  10  20  32  50  90 122 146 192 252 312 386
#     4  10  21  32  55  93 121 155 193 256 324 384
#     4  11  21  36  59  86 125 160 204 255 319 383
#     4  11  22  39  67  89 129 165 210 261 319 384
#
# _framework density 21.545739000000001
#
# number of rings (size 3 to 8) (size 9 to 14) (size 15 to 20)
#    0.000    1.714    2.857    1.286    8.000    1.714 
#    0.000    0.714    0.000    0.857    0.000    0.000 
#    0.000    0.000    0.000    0.000    0.000    0.000 
#
# Total GULP energy -156329.602453 kJ/mol
# GULP energy per Si atom -5583.200088 kJ/mol
# Density = 2.149670 g / cm^3
# Si number density = 21.545739 Si / 1000 Ang^3
#
#
#
# Elastic Constant Matrix: (Units=GPa)
#
#
# Indices 1 2 3 4 5 6 
#
# 1 78.8194 12.1437 28.0509 0.0000 9.9847 0.0000
# 2 12.1437 32.4783 12.3721 0.0000 0.6451 0.0000
# 3 28.0509 12.3721 92.9719 0.0000 7.7714 0.0000
# 4 0.0000 0.0000 0.0000 39.8270 0.0000 3.7748
# 5 9.9847 0.6451 7.7714 0.0000 35.3553 0.0000
# 6 0.0000 0.0000 0.0000 3.7748 0.0000 8.0177
#
#
#
# Elastic Compliance Matrix: (Units=1/GPa)
#
#
# Indices 1 2 3 4 5 6 
#
# 1 0.015076 -0.004155 -0.003714 0.000000 -0.003365 0.000000
# 2 -0.004155 0.033584 -0.003323 0.000000 0.001291 0.000000
# 3 -0.003714 -0.003323 0.012455 0.000000 -0.001628 0.000000
# 4 0.000000 0.000000 0.000000 0.026281 0.000000 -0.012373
# 5 -0.003365 0.001291 -0.001628 0.000000 0.029569 0.000000
# 6 0.000000 0.000000 0.000000 -0.012373 0.000000 0.130549
#
#
# Mechanical properties :
#
#
# Convention : Reuss Voigt Hill
#
# Bulk Modulus (GPa) = 25.82057 34.37809 30.09933
# Shear Modulus (GPa) = 17.67978 26.75353 22.21665
#
# Velocity S-wave (km/s) = 2.86767 3.52761 3.21462
# Velocity P-wave (km/s) = 4.79320 5.70811 5.27055
#
# Compressibility (1/GPa) = 0.03872881
#
# Stress axis : x y z
#
# Youngs Moduli (GPa) = 66.33249 29.77634 80.28944
#
# Poissons Ratio (x) = 0.12372 0.29822
# Poissons Ratio (y) = 0.27561 0.26683
# Poissons Ratio (z) = 0.24638 0.09896
#
# Static dielectric constant tensor:
#      x y z
#    x 1.833970 0.000000 -0.019380 
#    y 0.000000 1.766030 0.000000 
#    z -0.019380 0.000000 1.895450 
# 
# From -- ./inp_files/5412.got.cif
#   From: 2010.05.17/outbox.cif.g08.bks.cpg/sg13_3_cif.got.tgz:5412.got - 2010.06.03 16:44:36.
