data_PCOD9229349
_publ_section_title
;
Structure prediction by ZEFSAII (Michael W. Deem and Ramdas Pophale) SiO2 
 PCOD9229349
Probable space group: P 2/C
;
_chemical_formula_sum "Si O2"
_cell_formula_units_Z 32
_cell_length_a 21.402049
_cell_length_b 9.356687
_cell_length_c 26.888379
_cell_angle_alpha 90.000000
_cell_angle_beta 162.801012
_cell_angle_gamma 90.000000
_cell_volume 1592.137029
_symmetry_space_group_name_H-M "P 2/C"
_symmetry_group_IT_number 13
_symmetry_cell_setting 'monoclinic'
loop_
_space_group_symop_operation_xyz
x,y,z
-x,y,1/2-z
-x,-y,-z
x,-y,1/2+z
loop_
_atom_site_type_symbol
_atom_site_label
_atom_site_fract_x
_atom_site_fract_y
_atom_site_fract_z
Si Si1 0.022241 0.850584 0.544927
Si Si2 0.432623 0.669826 0.858629
Si Si3 0.892029 0.800743 0.217228
Si Si4 0.955504 0.078035 0.322580
Si Si5 0.006528 0.493553 0.314169
Si Si6 0.334078 0.741410 0.079222
Si Si7 0.636961 0.651540 0.221910
Si Si8 0.625086 0.323390 0.068178
O O1 0.251949 0.784348 0.709316
O O2 0.995783 0.888993 0.582917
O O3 0.853788 0.727756 0.402117
O O4 0.000000 0.000000 0.500000
O O5 0.385338 0.521516 0.793717
O O6 0.411401 0.645900 0.902007
O O7 0.663773 0.737934 0.028035
O O8 0.000000 0.863070 0.250000
O O9 0.025024 0.662031 0.334809
O O10 0.893146 0.918583 0.260629
O O11 0.160277 0.132966 0.447851
O O12 0.754543 0.177626 0.158971
O O13 0.192531 0.401002 0.479356
O O14 0.000000 0.464092 0.250000
O O15 0.784731 0.441587 0.167768
O O16 0.500000 0.759858 0.250000
O O17 0.460154 0.719068 0.123898
O O18 0.581331 0.685345 0.122434
#
# Coordination Sequence:
#
# PCOD9229349 Si02
#       8
#     4   4   4   4   4   4   4   4
#     4  11  27  44  63  94 139 175 212 260 330 405
#     4  11  25  45  66  99 128 168 219 276 328 383
#     4  11  24  41  67  96 131 165 223 279 323 381
#     4  10  25  42  62  99 128 174 217 261 321 399
#     4  10  19  39  63  98 126 162 220 272 319 375
#     4  11  22  42  65  92 134 168 217 265 321 391
#     4  12  22  42  70  95 126 173 215 270 325 387
#     4  10  22  38  70  95 127 166 221 269 321 382
#
# _framework density 20.098772
#
# number of rings (size 3 to 8) (size 9 to 14) (size 15 to 20)
#    0.000    1.250    3.750    1.500    5.250    1.000 
#    2.250    0.625    0.000    0.000    0.000    0.000 
#    0.000    0.000    0.000    0.000    0.000    0.000 
#
# Total GULP energy -178763.287149 kJ/mol
# GULP energy per Si atom -5586.352723 kJ/mol
# Density = 2.005303 g / cm^3
# Si number density = 20.098772 Si / 1000 Ang^3
#
#
#
# Elastic Constant Matrix: (Units=GPa)
#
#
# Indices 1 2 3 4 5 6 
#
# 1 52.8030 23.6951 13.3083 0.0000 8.0091 0.0000
# 2 23.6951 102.7026 52.2696 0.0000 -10.3366 0.0000
# 3 13.3083 52.2696 101.8408 0.0000 4.3827 0.0000
# 4 0.0000 0.0000 0.0000 20.6820 0.0000 -8.3457
# 5 8.0091 -10.3366 4.3827 0.0000 31.3568 0.0000
# 6 0.0000 0.0000 0.0000 -8.3457 0.0000 27.5678
#
#
#
# Elastic Compliance Matrix: (Units=1/GPa)
#
#
# Indices 1 2 3 4 5 6 
#
# 1 0.022876 -0.006420 0.000652 0.000000 -0.008050 0.000000
# 2 -0.006420 0.015927 -0.007678 0.000000 0.007963 0.000000
# 3 0.000652 -0.007678 0.013875 0.000000 -0.004637 0.000000
# 4 0.000000 0.000000 0.000000 0.055080 0.000000 0.016675
# 5 -0.008050 0.007963 -0.004637 0.000000 0.037220 0.000000
# 6 0.000000 0.000000 0.000000 0.016675 0.000000 0.041322
#
#
# Mechanical properties :
#
#
# Convention : Reuss Voigt Hill
#
# Bulk Modulus (GPa) = 38.78184 48.43248 43.60716
# Shear Modulus (GPa) = 22.54403 27.12621 24.83512
#
# Velocity S-wave (km/s) = 3.35276 3.67774 3.51900
# Velocity P-wave (km/s) = 5.85879 6.49491 6.18504
#
# Compressibility (1/GPa) = 0.02578526
#
# Stress axis : x y z
#
# Youngs Moduli (GPa) = 43.71400 62.78477 72.07440
#
# Poissons Ratio (x) = 0.40308 -0.04700
# Poissons Ratio (y) = 0.28064 0.55342
# Poissons Ratio (z) = -0.02851 0.48209
#
# Static dielectric constant tensor:
#      x y z
#    x 1.720980 0.000000 0.005920 
#    y 0.000000 1.724700 0.000000 
#    z 0.005920 0.000000 1.713190 
# 
# From -- ./inp_files/93594.got.cif
#   From: 2010.05.17/outbox.cif.g08.bks.cpg/sg13_47_cif.got.tgz:93594.got - 2010.06.03 16:44:36.
