data_PCOD9229530
_publ_section_title
;
Structure prediction by ZEFSAII (Michael W. Deem and Ramdas Pophale) SiO2 
 PCOD9229530
Probable space group: P 2/C
;
_chemical_formula_sum "Si O2"
_cell_formula_units_Z 32
_cell_length_a 27.396699
_cell_length_b 15.542303
_cell_length_c 8.995356
_cell_angle_alpha 90.000000
_cell_angle_beta 145.169061
_cell_angle_gamma 90.000000
_cell_volume 2187.698097
_symmetry_space_group_name_H-M "P 2/C"
_symmetry_group_IT_number 13
_symmetry_cell_setting 'monoclinic'
loop_
_space_group_symop_operation_xyz
x,y,z
-x,y,1/2-z
-x,-y,-z
x,-y,1/2+z
loop_
_atom_site_type_symbol
_atom_site_label
_atom_site_fract_x
_atom_site_fract_y
_atom_site_fract_z
Si Si1 0.898677 0.267170 0.173860
Si Si2 0.224978 0.405309 0.134829
Si Si3 0.583495 0.404913 0.886038
Si Si4 0.896083 0.912349 0.161335
Si Si5 0.416518 0.405010 0.968481
Si Si6 0.101299 0.267170 0.680436
Si Si7 0.224993 0.405333 0.490132
Si Si8 0.103922 0.912347 0.680936
O O1 0.844159 0.341557 0.114238
O O2 0.872484 0.174173 0.173000
O O3 0.999987 0.278592 0.457844
O O4 0.887010 0.268834 0.967513
O O5 0.321388 0.369746 0.347543
O O6 0.214764 0.412989 0.286927
O O7 0.155803 0.341556 0.893398
O O8 0.217900 0.499988 0.044761
O O9 0.500000 0.361601 0.750000
O O10 0.571667 0.411646 0.679229
O O11 0.586863 0.499929 0.967305
O O12 0.872499 0.825825 0.189448
O O13 0.000003 0.914909 0.421205
O O14 0.866784 0.999999 0.166958
O O15 0.868175 0.908616 0.920438
O O16 0.321422 0.369819 0.759489
O O17 0.500000 0.361744 0.250000
#
# Coordination Sequence:
#
# PCOD9229530 Si02
#       8
#     4   4   4   4   4   4   4   4
#     4  10  20  32  45  62  85 115 150 184 217 254
#     4  10  20  32  45  62  85 115 149 182 216 255
#     4   9  16  26  42  62  82 105 135 172 215 259
#     4   9  16  27  44  64  85 109 138 175 218 260
#     4   9  16  26  42  62  82 105 135 172 215 259
#     4  10  20  32  45  62  85 115 150 184 217 254
#     4  10  20  32  45  62  85 115 149 182 216 255
#     4   9  16  27  44  64  85 109 138 175 218 260
#
# _framework density 14.627247000000001
#
# number of rings (size 3 to 8) (size 9 to 14) (size 15 to 20)
#    0.000    2.500    0.000    3.750    0.000    8.000 
#    0.000    0.000    0.000    0.000    0.000    0.000 
#    0.000    1.000    0.000   10.500    0.000    6.250 
#
# Total GULP energy -178223.080683 kJ/mol
# GULP energy per Si atom -5569.471271 kJ/mol
# Density = 1.459396 g / cm^3
# Si number density = 14.627247 Si / 1000 Ang^3
#
#
#
# Elastic Constant Matrix: (Units=GPa)
#
#
# Indices 1 2 3 4 5 6 
#
# 1 100.4690 55.1697 55.1038 0.0000 -4.2251 0.0000
# 2 55.1697 93.6234 55.7806 0.0000 0.9785 0.0000
# 3 55.1038 55.7806 92.8015 0.0000 -8.4257 0.0000
# 4 0.0000 0.0000 0.0000 8.5803 0.0000 -13.2590
# 5 -4.2251 0.9785 -8.4257 0.0000 14.5790 0.0000
# 6 0.0000 0.0000 0.0000 -13.2590 0.0000 16.7134
#
#
#
# Elastic Compliance Matrix: (Units=1/GPa)
#
#
# Indices 1 2 3 4 5 6 
#
# 1 0.016806 -0.006350 -0.005996 0.000000 0.001832 0.000000
# 2 -0.006350 0.019805 -0.008888 0.000000 -0.008306 0.000000
# 3 -0.005996 -0.008888 0.020659 0.000000 0.010798 0.000000
# 4 0.000000 0.000000 0.000000 -0.515940 0.000000 -0.409301
# 5 0.001832 -0.008306 0.010798 0.000000 0.075921 0.000000
# 6 0.000000 0.000000 0.000000 -0.409301 0.000000 -0.264872
#
#
# Mechanical properties :
#
#
# Convention : Reuss Voigt Hill
#
# Bulk Modulus (GPa) = 67.55893 68.77803 68.16848
# Shear Modulus (GPa) = -8.33030 16.03051 3.85011
#
# Velocity S-wave (km/s) = -2.38902 3.31408 1.62415
# Velocity P-wave (km/s) = 6.21912 7.85918 7.08675
#
# Compressibility (1/GPa) = 0.01480189
#
# Stress axis : x y z
#
# Youngs Moduli (GPa) = 59.50326 50.49148 48.40568
#
# Poissons Ratio (x) = 0.32062 0.29023
# Poissons Ratio (y) = 0.37785 0.43023
# Poissons Ratio (z) = 0.35677 0.44877
#
# Static dielectric constant tensor:
#      x y z
#    x 1.494860 0.000000 0.009770 
#    y 0.000000 1.453690 0.000000 
#    z 0.009770 0.000000 1.500810 
# 
# From -- ./inp_files/24960.got.cif
#   From: 2010.05.17/outbox.cif.g08.bks.cpg/sg13_13_cif.got.tgz:24960.got - 2010.06.03 16:44:36.
