data_PCOD9229639
_publ_section_title
;
Structure prediction by ZEFSAII (Michael W. Deem and Ramdas Pophale) SiO2 
 PCOD9229639
Probable space group: P 2/C
;
_chemical_formula_sum "Si O2"
_cell_formula_units_Z 20
_cell_length_a 8.700749
_cell_length_b 5.357829
_cell_length_c 26.955237
_cell_angle_alpha 90.000000
_cell_angle_beta 139.704680
_cell_angle_gamma 90.000000
_cell_volume 812.662013
_symmetry_space_group_name_H-M "P 2/C"
_symmetry_group_IT_number 13
_symmetry_cell_setting 'monoclinic'
loop_
_space_group_symop_operation_xyz
x,y,z
-x,y,1/2-z
-x,-y,-z
x,-y,1/2+z
loop_
_atom_site_type_symbol
_atom_site_label
_atom_site_fract_x
_atom_site_fract_y
_atom_site_fract_z
Si Si1 0.885096 0.665936 0.275210
Si Si2 0.690013 0.787299 0.429090
Si Si3 0.695690 0.902872 0.087381
Si Si4 0.187154 0.292647 0.096892
Si Si5 0.823936 0.837824 0.793239
O O1 0.099254 0.688312 0.369652
O O2 0.761420 0.402060 0.246403
O O3 0.000000 0.705804 0.250000
O O4 0.722710 0.900490 0.249415
O O5 0.453243 0.803013 0.403003
O O6 0.720708 0.563919 0.397092
O O7 0.902631 0.718919 0.519511
O O8 0.728785 0.064578 0.417182
O O9 0.889825 0.121180 0.144429
O O10 0.500000 0.000000 0.000000
O O11 0.237263 0.221435 0.165654
#
# Coordination Sequence:
#
# PCOD9229639 Si02
#       5
#     4   4   4   4   4
#     4  10  22  38  61  86 116 154 200 250 295 355
#     4  10  20  33  53  81 124 150 189 234 302 347
#     4  10  22  37  61  92 118 150 199 256 294 350
#     4  10  20  34  52  83 118 159 182 236 296 363
#     4  10  21  37  61  82 116 155 198 240 295 354
#
# _framework density 24.610476999999999
#
# number of rings (size 3 to 8) (size 9 to 14) (size 15 to 20)
#    1.200    0.800    2.000    1.800    2.800    2.400 
#    0.000    0.000    0.000    7.200    0.000    0.000 
#    0.000    0.000    0.000    0.000    0.000    0.000 
#
# Total GULP energy -111615.272786 kJ/mol
# GULP energy per Si atom -5580.763639 kJ/mol
# Density = 2.455446 g / cm^3
# Si number density = 24.610477 Si / 1000 Ang^3
#
#
#
# Elastic Constant Matrix: (Units=GPa)
#
#
# Indices 1 2 3 4 5 6 
#
# 1 62.4652 6.2672 6.8182 0.0000 -1.2523 0.0000
# 2 6.2672 157.5006 -13.0672 0.0000 -19.7302 0.0000
# 3 6.8182 -13.0672 72.1386 0.0000 19.5653 0.0000
# 4 0.0000 0.0000 0.0000 21.2460 0.0000 -9.4381
# 5 -1.2523 -19.7302 19.5653 0.0000 57.3531 0.0000
# 6 0.0000 0.0000 0.0000 -9.4381 0.0000 30.7461
#
#
#
# Elastic Compliance Matrix: (Units=1/GPa)
#
#
# Indices 1 2 3 4 5 6 
#
# 1 0.016300 -0.000710 -0.001873 0.000000 0.000751 0.000000
# 2 -0.000710 0.006693 0.000726 0.000000 0.002039 0.000000
# 3 -0.001873 0.000726 0.015553 0.000000 -0.005097 0.000000
# 4 0.000000 0.000000 0.000000 0.054499 0.000000 0.016730
# 5 0.000751 0.002039 -0.005097 0.000000 0.019892 0.000000
# 6 0.000000 0.000000 0.000000 0.016730 0.000000 0.037660
#
#
# Mechanical properties :
#
#
# Convention : Reuss Voigt Hill
#
# Bulk Modulus (GPa) = 28.70808 32.46009 30.58409
# Shear Modulus (GPa) = 30.13474 41.34144 35.73809
#
# Velocity S-wave (km/s) = 3.50304 4.10302 3.81484
# Velocity P-wave (km/s) = 5.29641 5.97198 5.64431
#
# Compressibility (1/GPa) = 0.03483340
#
# Stress axis : x y z
#
# Youngs Moduli (GPa) = 61.35117 149.40634 64.29579
#
# Poissons Ratio (x) = 0.10607 0.12041
# Poissons Ratio (y) = 0.04356 -0.04671
# Poissons Ratio (z) = 0.11489 -0.10853
#
# Static dielectric constant tensor:
#      x y z
#    x 1.903810 0.000000 0.084340 
#    y 0.000000 1.970570 0.000000 
#    z 0.084340 0.000000 2.054660 
# 
# From -- ./inp_files/90586.got.cif
#   From: 2010.05.17/outbox.cif.g08.bks.cpg/sg13_46_cif.got.tgz:90586.got - 2010.06.03 16:44:36.
