data_PCOD9229826
_publ_section_title
;
Structure prediction by ZEFSAII (Michael W. Deem and Ramdas Pophale) SiO2 
 PCOD9229826
Probable space group: P 2/C
;
_chemical_formula_sum "Si O2"
_cell_formula_units_Z 26
_cell_length_a 14.401964
_cell_length_b 9.476979
_cell_length_c 12.950774
_cell_angle_alpha 90.000000
_cell_angle_beta 43.886028
_cell_angle_gamma 90.000000
_cell_volume 1225.355959
_symmetry_space_group_name_H-M "P 2/C"
_symmetry_group_IT_number 13
_symmetry_cell_setting 'monoclinic'
loop_
_space_group_symop_operation_xyz
x,y,z
-x,y,1/2-z
-x,-y,-z
x,-y,1/2+z
loop_
_atom_site_type_symbol
_atom_site_label
_atom_site_fract_x
_atom_site_fract_y
_atom_site_fract_z
Si Si1 0.356481 0.726295 0.857378
Si Si2 0.373134 0.518173 0.177354
Si Si3 0.645256 0.239959 0.650162
Si Si4 0.731398 0.487369 0.438414
Si Si5 0.055707 0.130678 0.092939
Si Si6 0.000000 0.590902 0.250000
Si Si7 0.939463 0.190552 0.969216
O O1 0.500000 0.803873 0.750000
O O2 0.381546 0.595423 0.760326
O O3 0.221068 0.797285 0.924168
O O4 0.323648 0.644080 0.990111
O O5 0.357207 0.669745 0.241951
O O6 0.254967 0.476933 0.194540
O O7 0.500000 0.500000 0.000000
O O8 0.500000 0.168276 0.750000
O O9 0.653001 0.359450 0.553445
O O10 0.783073 0.153662 0.537115
O O11 0.875672 0.492206 0.373522
O O12 0.000000 0.170876 0.250000
O O13 0.985510 0.206247 0.051047
O O14 0.022959 0.965728 0.099512
O O15 0.011290 0.694402 0.339035
#
# Coordination Sequence:
#
# PCOD9229826 Si02
#       7
#     4   4   4   4   4   2   4
#     4  10  20  35  59  92 119 158 205 251 300 370
#     4  11  18  34  59  86 128 164 186 239 316 372
#     4  11  23  37  59  95 126 157 203 252 307 369
#     4  10  20  34  57  87 126 159 194 242 305 367
#     4  11  25  44  65  84 124 169 209 261 316 361
#     4  10  20  38  62  88 120 160 210 250 296 374
#     4  10  23  43  63  85 118 164 213 258 308 366
#
# _framework density 21.218323000000002
#
# number of rings (size 3 to 8) (size 9 to 14) (size 15 to 20)
#    0.000    1.538    3.846    1.846    3.231    0.615 
#    0.000    4.615    0.000    3.692    0.000    0.000 
#    0.000    0.000    0.000    0.000    0.000    0.000 
#
# Total GULP energy -144960.703112 kJ/mol
# GULP energy per Si atom -5575.411658 kJ/mol
# Density = 2.117003 g / cm^3
# Si number density = 21.218323 Si / 1000 Ang^3
#
#
#
# Elastic Constant Matrix: (Units=GPa)
#
#
# Indices 1 2 3 4 5 6 
#
# 1 115.0082 13.8667 35.0260 0.0000 9.4495 0.0000
# 2 13.8667 36.2504 14.2150 0.0000 2.8602 0.0000
# 3 35.0260 14.2150 90.3765 0.0000 -0.4899 0.0000
# 4 0.0000 0.0000 0.0000 12.8869 0.0000 -6.0643
# 5 9.4495 2.8602 -0.4899 0.0000 49.7941 0.0000
# 6 0.0000 0.0000 0.0000 -6.0643 0.0000 12.3621
#
#
#
# Elastic Compliance Matrix: (Units=1/GPa)
#
#
# Indices 1 2 3 4 5 6 
#
# 1 0.010228 -0.002354 -0.003603 0.000000 -0.001841 0.000000
# 2 -0.002354 0.030091 -0.003828 0.000000 -0.001319 0.000000
# 3 -0.003603 -0.003828 0.013069 0.000000 0.001032 0.000000
# 4 0.000000 0.000000 0.000000 0.100888 0.000000 0.049492
# 5 -0.001841 -0.001319 0.001032 0.000000 0.020518 0.000000
# 6 0.000000 0.000000 0.000000 0.049492 0.000000 0.105171
#
#
# Mechanical properties :
#
#
# Convention : Reuss Voigt Hill
#
# Bulk Modulus (GPa) = 29.57052 40.87228 35.22140
# Shear Modulus (GPa) = 16.08706 26.91043 21.49875
#
# Velocity S-wave (km/s) = 2.75647 3.56513 3.18656
# Velocity P-wave (km/s) = 4.90891 6.02092 5.49313
#
# Compressibility (1/GPa) = 0.03381746
#
# Stress axis : x y z
#
# Youngs Moduli (GPa) = 97.77486 33.23199 76.51670
#
# Poissons Ratio (x) = 0.07823 0.27573
# Poissons Ratio (y) = 0.23016 0.29289
# Poissons Ratio (z) = 0.35233 0.12721
#
# Static dielectric constant tensor:
#      x y z
#    x 1.919930 0.000000 -0.047350 
#    y 0.000000 1.728790 0.000000 
#    z -0.047350 0.000000 1.805470 
# 
# From -- ./inp_files/33742.got.cif
#   From: 2010.05.17/outbox.cif.g08.bks.cpg/sg13_17_cif.got.tgz:33742.got - 2010.06.03 16:44:36.
