data_PCOD9229472
_publ_section_title
;
Structure prediction by ZEFSAII (Michael W. Deem and Ramdas Pophale) SiO2 
 PCOD9229472
Probable space group: P 2/C
;
_chemical_formula_sum "Si O2"
_cell_formula_units_Z 22
_cell_length_a 10.810065
_cell_length_b 8.959267
_cell_length_c 16.137004
_cell_angle_alpha 90.000000
_cell_angle_beta 143.431681
_cell_angle_gamma 90.000000
_cell_volume 931.129851
_symmetry_space_group_name_H-M "P 2/C"
_symmetry_group_IT_number 13
_symmetry_cell_setting 'monoclinic'
loop_
_space_group_symop_operation_xyz
x,y,z
-x,y,1/2-z
-x,-y,-z
x,-y,1/2+z
loop_
_atom_site_type_symbol
_atom_site_label
_atom_site_fract_x
_atom_site_fract_y
_atom_site_fract_z
Si Si1 0.858818 0.801450 0.422370
Si Si2 0.843660 0.262029 0.097910
Si Si3 0.653172 0.553158 0.005836
Si Si4 0.710200 0.871310 0.810851
Si Si5 0.492421 0.170437 0.470306
Si Si6 0.500000 0.440141 0.750000
O O1 0.867756 0.823053 0.526397
O O2 0.695584 0.666090 0.329053
O O3 0.105851 0.783931 0.541278
O O4 0.778186 0.954413 0.339744
O O5 0.612004 0.236423 0.004039
O O6 0.000000 0.203861 0.250000
O O7 0.849379 0.442476 0.099800
O O8 0.685805 0.726534 0.047725
O O9 0.549052 0.533775 0.858971
O O10 0.500000 0.500000 0.000000
O O11 0.500000 0.869366 0.750000
O O12 0.658415 0.813186 0.690922
O O13 0.500000 0.000000 0.500000
#
# Coordination Sequence:
#
# PCOD9229472 Si02
#       6
#     4   4   4   4   4   2
#     4  10  21  38  65  93 125 185 220 282 337 403
#     4  10  19  42  65  89 124 175 227 273 337 398
#     4   9  22  39  64  93 126 171 230 275 335 411
#     4  11  22  37  60  97 139 167 226 278 340 408
#     4  11  23  39  65  93 132 175 214 285 342 401
#     4  10  20  42  70  92 134 184 238 274 350 410
#
# _framework density 23.627208
#
# number of rings (size 3 to 8) (size 9 to 14) (size 15 to 20)
#    0.000    1.818    2.727    1.091    6.364    0.000 
#    0.000    5.455    0.000    0.000    0.000    0.000 
#    0.000    0.000    0.000    0.000    0.000    0.000 
#
# Total GULP energy -122527.384865 kJ/mol
# GULP energy per Si atom -5569.426585 kJ/mol
# Density = 2.357343 g / cm^3
# Si number density = 23.627208 Si / 1000 Ang^3
#
#
#
# Elastic Constant Matrix: (Units=GPa)
#
#
# Indices 1 2 3 4 5 6 
#
# 1 83.8081 4.6199 13.4734 0.0000 2.2136 0.0000
# 2 4.6199 99.1426 -6.2496 0.0000 4.4688 0.0000
# 3 13.4734 -6.2496 60.7817 0.0000 -6.6897 0.0000
# 4 0.0000 0.0000 0.0000 14.0090 0.0000 -7.5328
# 5 2.2136 4.4688 -6.6897 0.0000 41.9059 0.0000
# 6 0.0000 0.0000 0.0000 -7.5328 0.0000 32.9093
#
#
#
# Elastic Compliance Matrix: (Units=1/GPa)
#
#
# Indices 1 2 3 4 5 6 
#
# 1 0.012475 -0.000720 -0.002955 0.000000 -0.001054 0.000000
# 2 -0.000720 0.010230 0.001115 0.000000 -0.000875 0.000000
# 3 -0.002955 0.001115 0.017534 0.000000 0.002836 0.000000
# 4 0.000000 0.000000 0.000000 0.081402 0.000000 0.018632
# 5 -0.001054 -0.000875 0.002836 0.000000 0.024465 0.000000
# 6 0.000000 0.000000 0.000000 0.018632 0.000000 0.034651
#
#
# Mechanical properties :
#
#
# Convention : Reuss Voigt Hill
#
# Bulk Modulus (GPa) = 28.47521 29.71332 29.09426
# Shear Modulus (GPa) = 25.30582 33.22408 29.26495
#
# Velocity S-wave (km/s) = 3.27623 3.75397 3.52321
# Velocity P-wave (km/s) = 5.13709 5.60294 5.37506
#
# Compressibility (1/GPa) = 0.03511826
#
# Stress axis : x y z
#
# Youngs Moduli (GPa) = 80.16256 97.75390 57.03127
#
# Poissons Ratio (x) = 0.07039 0.16854
# Poissons Ratio (y) = 0.05772 -0.06360
# Poissons Ratio (z) = 0.23690 -0.10901
#
# Static dielectric constant tensor:
#      x y z
#    x 1.941530 0.000000 0.090570 
#    y 0.000000 2.190350 0.000000 
#    z 0.090570 0.000000 1.967870 
# 
# From -- ./inp_files/66169.got.cif
#   From: 2010.05.17/outbox.cif.g08.bks.cpg/sg13_34_cif.got.tgz:66169.got - 2010.06.03 16:44:36.
