data_PCOD9229765
_publ_section_title
;
Structure prediction by ZEFSAII (Michael W. Deem and Ramdas Pophale) SiO2 
 PCOD9229765
Probable space group: P 2/C
;
_chemical_formula_sum "Si O2"
_cell_formula_units_Z 28
_cell_length_a 6.728703
_cell_length_b 10.084595
_cell_length_c 20.960929
_cell_angle_alpha 90.000000
_cell_angle_beta 65.423580
_cell_angle_gamma 90.000000
_cell_volume 1293.477291
_symmetry_space_group_name_H-M "P 2/C"
_symmetry_group_IT_number 13
_symmetry_cell_setting 'monoclinic'
loop_
_space_group_symop_operation_xyz
x,y,z
-x,y,1/2-z
-x,-y,-z
x,-y,1/2+z
loop_
_atom_site_type_symbol
_atom_site_label
_atom_site_fract_x
_atom_site_fract_y
_atom_site_fract_z
Si Si1 0.753138 0.471482 0.474779
Si Si2 0.571711 0.103589 0.838165
Si Si3 0.093606 0.292494 0.467464
Si Si4 0.175882 0.909285 0.854653
Si Si5 0.500000 0.661939 0.250000
Si Si6 0.000000 0.066461 0.250000
Si Si7 0.155549 0.142775 0.591117
Si Si8 0.028810 0.403727 0.821773
O O1 0.500000 0.500000 0.500000
O O2 0.809030 0.566114 0.527238
O O3 0.843526 0.326779 0.481796
O O4 0.883224 0.515504 0.392674
O O5 0.557605 0.239831 0.801083
O O6 0.603820 0.129152 0.909599
O O7 0.379309 0.008910 0.838122
O O8 0.798496 0.028361 0.794756
O O9 0.204315 0.214148 0.396220
O O10 0.133920 0.206881 0.524926
O O11 0.107397 0.856628 0.794195
O O12 0.969371 0.003642 0.898016
O O13 0.712714 0.580661 0.201752
O O14 0.029535 0.249718 0.653386
O O15 0.000000 0.429663 0.750000
#
# Coordination Sequence:
#
# PCOD9229765 Si02
#       8
#     4   4   4   4   2   2   4   4
#     4  10  25  49  71  89 132 184 243 298 349 390
#     4  11  19  33  59  95 136 175 200 266 342 419
#     4  10  24  44  63  93 126 178 227 278 336 414
#     4  11  21  36  63  95 137 169 217 263 346 419
#     4  12  18  34  64  96 138 158 214 276 346 404
#     4  10  20  34  54  88 134 176 206 254 326 416
#     4  10  21  36  60 100 135 164 214 267 341 425
#     4  11  22  37  68 104 125 169 232 291 347 403
#
# _framework density 21.647075000000001
#
# number of rings (size 3 to 8) (size 9 to 14) (size 15 to 20)
#    0.000    1.429    4.286    1.286    1.000    8.571 
#    1.286    0.000    3.143    0.000    0.000    0.000 
#    0.000    0.000    0.000    0.000    0.000    0.000 
#
# Total GULP energy -156095.236846 kJ/mol
# GULP energy per Si atom -5574.829887 kJ/mol
# Density = 2.159781 g / cm^3
# Si number density = 21.647075 Si / 1000 Ang^3
#
#
#
# Elastic Constant Matrix: (Units=GPa)
#
#
# Indices 1 2 3 4 5 6 
#
# 1 148.8207 15.0161 58.7477 0.0000 5.1264 0.0000
# 2 15.0161 27.3775 27.1957 0.0000 6.9721 0.0000
# 3 58.7477 27.1957 110.7978 0.0000 23.6359 0.0000
# 4 0.0000 0.0000 0.0000 25.4046 0.0000 4.3157
# 5 5.1264 6.9721 23.6359 0.0000 34.4509 0.0000
# 6 0.0000 0.0000 0.0000 4.3157 0.0000 6.7259
#
#
#
# Elastic Compliance Matrix: (Units=1/GPa)
#
#
# Indices 1 2 3 4 5 6 
#
# 1 0.008638 -0.000373 -0.004956 0.000000 0.002190 0.000000
# 2 -0.000373 0.048429 -0.011258 0.000000 -0.002021 0.000000
# 3 -0.004956 -0.011258 0.016135 0.000000 -0.008054 0.000000
# 4 0.000000 0.000000 0.000000 0.044179 0.000000 -0.028348
# 5 0.002190 -0.002021 -0.008054 0.000000 0.034635 0.000000
# 6 0.000000 0.000000 0.000000 -0.028348 0.000000 0.166869
#
#
# Mechanical properties :
#
#
# Convention : Reuss Voigt Hill
#
# Bulk Modulus (GPa) = 24.98238 54.32388 39.65313
# Shear Modulus (GPa) = 13.68361 25.71871 19.70116
#
# Velocity S-wave (km/s) = 2.51693 3.45061 3.02007
# Velocity P-wave (km/s) = 4.47352 6.40510 5.52439
#
# Compressibility (1/GPa) = 0.04002820
#
# Stress axis : x y z
#
# Youngs Moduli (GPa) = 115.76778 20.64875 61.97871
#
# Poissons Ratio (x) = 0.00769 0.30715
# Poissons Ratio (y) = 0.04314 0.69777
# Poissons Ratio (z) = 0.57372 0.23247
#
# Static dielectric constant tensor:
#      x y z
#    x 1.893690 0.000000 0.039060 
#    y 0.000000 1.805150 0.000000 
#    z 0.039060 0.000000 1.903540 
# 
# From -- ./inp_files/73627.got.cif
#   From: 2010.05.17/outbox.cif.g08.bks.cpg/sg13_37_cif.got.tgz:73627.got - 2010.06.03 16:44:36.
