data_PCOD9229737
_publ_section_title
;
Structure prediction by ZEFSAII (Michael W. Deem and Ramdas Pophale) SiO2 
 PCOD9229737
Probable space group: P 2/C
;
_chemical_formula_sum "Si O2"
_cell_formula_units_Z 26
_cell_length_a 12.285991
_cell_length_b 8.302787
_cell_length_c 17.668561
_cell_angle_alpha 90.000000
_cell_angle_beta 132.634031
_cell_angle_gamma 90.000000
_cell_volume 1325.967959
_symmetry_space_group_name_H-M "P 2/C"
_symmetry_group_IT_number 13
_symmetry_cell_setting 'monoclinic'
loop_
_space_group_symop_operation_xyz
x,y,z
-x,y,1/2-z
-x,-y,-z
x,-y,1/2+z
loop_
_atom_site_type_symbol
_atom_site_label
_atom_site_fract_x
_atom_site_fract_y
_atom_site_fract_z
Si Si1 0.674601 0.156446 0.461598
Si Si2 0.146890 0.409561 0.351017
Si Si3 0.372029 0.778710 0.060891
Si Si4 0.616025 0.633348 0.083588
Si Si5 0.500000 0.352528 0.250000
Si Si6 0.241906 0.426448 0.637723
Si Si7 0.054610 0.347511 0.940272
O O1 0.640331 0.240854 0.526132
O O2 0.580518 0.248960 0.352619
O O3 0.848762 0.188378 0.528330
O O4 0.637288 0.969701 0.440832
O O5 0.261003 0.287678 0.443500
O O6 0.236428 0.526876 0.336354
O O7 0.087226 0.532106 0.386593
O O8 0.000000 0.327925 0.250000
O O9 0.536878 0.723480 0.115154
O O10 0.315248 0.691049 0.109919
O O11 0.500000 0.500000 0.000000
O O12 0.622405 0.466944 0.268045
O O13 0.138755 0.562010 0.548647
O O14 0.119433 0.329978 0.627593
#
# Coordination Sequence:
#
# PCOD9229737 Si02
#       7
#     4   4   4   4   2   4   4
#     4  10  20  35  54  81 112 140 172 223 281 316
#     4   9  18  33  55  77 100 142 192 223 255 320
#     4  10  20  34  54  81 114 141 169 224 286 317
#     4   9  18  35  56  76 104 142 179 217 266 322
#     4  10  20  34  54  78 104 142 192 222 250 324
#     4   9  18  33  53  74 100 139 181 215 256 317
#     4   8  17  34  52  72 102 138 173 215 266 317
#
# _framework density 19.608318000000001
#
# number of rings (size 3 to 8) (size 9 to 14) (size 15 to 20)
#    0.000    2.769    0.000    3.231    0.000    4.923 
#    0.000    3.077    0.000    7.385    0.000    0.000 
#    0.000    0.000    0.000    0.000    0.000    0.000 
#
# Total GULP energy -144888.955644 kJ/mol
# GULP energy per Si atom -5572.652140 kJ/mol
# Density = 1.956369 g / cm^3
# Si number density = 19.608318 Si / 1000 Ang^3
#
#
#
# Elastic Constant Matrix: (Units=GPa)
#
#
# Indices 1 2 3 4 5 6 
#
# 1 114.4019 46.4652 39.7534 0.0000 33.5765 0.0000
# 2 46.4652 123.7674 32.4770 0.0000 13.9628 0.0000
# 3 39.7534 32.4770 76.5671 0.0000 22.6680 0.0000
# 4 0.0000 0.0000 0.0000 14.1464 0.0000 4.5020
# 5 33.5765 13.9628 22.6680 0.0000 29.6215 0.0000
# 6 0.0000 0.0000 0.0000 4.5020 0.0000 21.2519
#
#
#
# Elastic Compliance Matrix: (Units=1/GPa)
#
#
# Indices 1 2 3 4 5 6 
#
# 1 0.014911 -0.003478 -0.002260 0.000000 -0.013533 0.000000
# 2 -0.003478 0.009972 -0.002844 0.000000 0.001418 0.000000
# 3 -0.002260 -0.002844 0.018469 0.000000 -0.010231 0.000000
# 4 0.000000 0.000000 0.000000 0.075800 0.000000 -0.016057
# 5 -0.013533 0.001418 -0.010231 0.000000 0.056260 0.000000
# 6 0.000000 0.000000 0.000000 -0.016057 0.000000 0.050456
#
#
# Mechanical properties :
#
#
# Convention : Reuss Voigt Hill
#
# Bulk Modulus (GPa) = 38.18535 61.34750 49.76643
# Shear Modulus (GPa) = 19.86016 26.07334 22.96675
#
# Velocity S-wave (km/s) = 3.18597 3.65047 3.42610
# Velocity P-wave (km/s) = 5.74893 7.00873 6.40986
#
# Compressibility (1/GPa) = 0.02618805
#
# Stress axis : x y z
#
# Youngs Moduli (GPa) = 67.06487 100.28442 54.14473
#
# Poissons Ratio (x) = 0.34881 0.12236
# Poissons Ratio (y) = 0.23326 0.15397
# Poissons Ratio (z) = 0.15156 0.28517
#
# Static dielectric constant tensor:
#      x y z
#    x 1.755620 0.000000 -0.010370 
#    y 0.000000 1.637420 0.000000 
#    z -0.010370 0.000000 1.752490 
# 
# From -- ./inp_files/71874.got.cif
#   From: 2010.05.17/outbox.cif.g08.bks.cpg/sg13_36_cif.got.tgz:71874.got - 2010.06.03 16:44:36.
