data_PCOD9229951
_publ_section_title
;
Structure prediction by ZEFSAII (Michael W. Deem and Ramdas Pophale) SiO2 
 PCOD9229951
Probable space group: P 2/C
;
_chemical_formula_sum "Si O2"
_cell_formula_units_Z 32
_cell_length_a 11.775687
_cell_length_b 10.450701
_cell_length_c 16.546102
_cell_angle_alpha 90.000000
_cell_angle_beta 33.890816
_cell_angle_gamma 90.000000
_cell_volume 1135.427817
_symmetry_space_group_name_H-M "P 2/C"
_symmetry_group_IT_number 13
_symmetry_cell_setting 'monoclinic'
loop_
_space_group_symop_operation_xyz
x,y,z
-x,y,1/2-z
-x,-y,-z
x,-y,1/2+z
loop_
_atom_site_type_symbol
_atom_site_label
_atom_site_fract_x
_atom_site_fract_y
_atom_site_fract_z
Si Si1 0.725728 0.719790 0.621104
Si Si2 0.914377 0.904801 0.880281
Si Si3 0.673083 0.569896 0.983092
Si Si4 0.255007 0.684367 0.407019
Si Si5 0.345373 0.654611 0.670286
Si Si6 0.274330 0.819459 0.049702
Si Si7 0.216051 0.023105 0.328747
Si Si8 0.296743 0.759641 0.217012
O O1 0.500000 0.659917 0.750000
O O2 0.794709 0.659271 0.666707
O O3 0.799803 0.738853 0.485396
O O4 0.697642 0.867670 0.666013
O O5 0.871851 0.939519 0.705568
O O6 0.000000 0.836838 0.750000
O O7 0.788798 0.033264 0.931342
O O8 0.805329 0.812426 0.008374
O O9 0.787811 0.575982 0.000651
O O10 0.532321 0.445769 0.064258
O O11 0.505179 0.684284 0.081410
O O12 0.773643 0.599379 0.837257
O O13 0.500000 0.676756 0.250000
O O14 0.174856 0.687414 0.361657
O O15 0.482303 0.786214 0.587836
O O16 0.204197 0.781515 0.182196
O O17 0.336976 0.894986 0.237771
O O18 0.000000 0.000000 0.500000
#
# Coordination Sequence:
#
# PCOD9229951 Si02
#       8
#     4   4   4   4   4   4   4   4
#     4  10  22  37  59  89 121 160 212 262 312 372
#     4  12  24  38  60  90 129 172 208 257 323 393
#     4   9  20  38  61  88 116 157 215 274 320 363
#     4  10  22  38  60  90 124 163 212 263 318 374
#     4   9  20  38  61  87 118 157 213 274 318 369
#     4  10  20  35  55  84 117 157 207 248 311 372
#     4  12  22  38  59  85 129 165 204 256 318 391
#     4  10  20  35  56  82 117 158 203 253 312 372
#
# _framework density 28.183209000000002
#
# number of rings (size 3 to 8) (size 9 to 14) (size 15 to 20)
#    0.000    1.750    3.750    0.000    1.750   11.500 
#    0.000    6.250    0.000    3.000    0.000    0.000 
#    0.000    0.000    0.000    0.000    0.000    0.000 
#
# Total GULP energy -178494.233084 kJ/mol
# GULP energy per Si atom -5577.944784 kJ/mol
# Density = 2.811906 g / cm^3
# Si number density = 28.183209 Si / 1000 Ang^3
#
#
#
# Elastic Constant Matrix: (Units=GPa)
#
#
# Indices 1 2 3 4 5 6 
#
# 1 105.3710 30.6373 52.6281 0.0000 50.2676 0.0000
# 2 30.6373 81.2504 6.4415 0.0000 -1.3533 0.0000
# 3 52.6281 6.4415 203.7306 0.0000 60.2293 0.0000
# 4 0.0000 0.0000 0.0000 19.3768 0.0000 10.1130
# 5 50.2676 -1.3533 60.2293 0.0000 75.8553 0.0000
# 6 0.0000 0.0000 0.0000 10.1130 0.0000 30.2163
#
#
#
# Elastic Compliance Matrix: (Units=1/GPa)
#
#
# Indices 1 2 3 4 5 6 
#
# 1 0.016892 -0.006459 -0.001066 0.000000 -0.010463 0.000000
# 2 -0.006459 0.014836 -0.000188 0.000000 0.004695 0.000000
# 3 -0.001066 -0.000188 0.006510 0.000000 -0.004466 0.000000
# 4 0.000000 0.000000 0.000000 0.062531 0.000000 -0.020928
# 5 -0.010463 0.004695 -0.004466 0.000000 0.023746 0.000000
# 6 0.000000 0.000000 0.000000 -0.020928 0.000000 0.040099
#
#
# Mechanical properties :
#
#
# Convention : Reuss Voigt Hill
#
# Bulk Modulus (GPa) = 43.83933 63.30733 53.57333
# Shear Modulus (GPa) = 26.64589 45.13269 35.88929
#
# Velocity S-wave (km/s) = 3.07816 4.00610 3.57238
# Velocity P-wave (km/s) = 5.31247 6.62646 6.00551
#
# Compressibility (1/GPa) = 0.02281057
#
# Stress axis : x y z
#
# Youngs Moduli (GPa) = 59.19890 67.40179 153.60821
#
# Poissons Ratio (x) = 0.43537 0.16379
# Poissons Ratio (y) = 0.38239 0.02894
# Poissons Ratio (z) = 0.06312 0.01270
#
# Static dielectric constant tensor:
#      x y z
#    x 2.288590 0.000000 -0.157650 
#    y 0.000000 2.343040 0.000000 
#    z -0.157650 0.000000 2.357860 
# 
# From -- ./inp_files/53700.got.cif
#   From: 2010.05.17/outbox.cif.g08.bks.cpg/sg13_27_cif.got.tgz:53700.got - 2010.06.03 16:44:36.
