data_PCOD9229185
_publ_section_title
;
Structure prediction by ZEFSAII (Michael W. Deem and Ramdas Pophale) SiO2 
 PCOD9229185
Probable space group: P 2/C
;
_chemical_formula_sum "Si O2"
_cell_formula_units_Z 32
_cell_length_a 10.603425
_cell_length_b 8.743594
_cell_length_c 22.192051
_cell_angle_alpha 90.000000
_cell_angle_beta 39.895263
_cell_angle_gamma 90.000000
_cell_volume 1319.633122
_symmetry_space_group_name_H-M "P 2/C"
_symmetry_group_IT_number 13
_symmetry_cell_setting 'monoclinic'
loop_
_space_group_symop_operation_xyz
x,y,z
-x,y,1/2-z
-x,-y,-z
x,-y,1/2+z
loop_
_atom_site_type_symbol
_atom_site_label
_atom_site_fract_x
_atom_site_fract_y
_atom_site_fract_z
Si Si1 0.855175 0.977314 0.473118
Si Si2 0.907419 0.759482 0.345807
Si Si3 0.656346 0.436945 0.005485
Si Si4 0.703885 0.335665 0.729951
Si Si5 0.004999 0.681276 0.025475
Si Si6 0.677981 0.348348 0.293376
Si Si7 0.464873 0.990993 0.692778
Si Si8 0.941951 0.684560 0.913180
O O1 0.839261 0.893761 0.414478
O O2 0.652801 0.001407 0.581285
O O3 0.980610 0.864440 0.469294
O O4 0.945141 0.137221 0.422999
O O5 0.729245 0.639622 0.416314
O O6 0.000000 0.814436 0.250000
O O7 0.091542 0.673529 0.308473
O O8 0.804877 0.369203 0.003880
O O9 0.728044 0.611835 0.980617
O O10 0.439944 0.382921 0.102154
O O11 0.785199 0.345597 0.631981
O O12 0.606019 0.498079 0.782496
O O13 0.619427 0.166461 0.775476
O O14 0.019648 0.629271 0.951003
O O15 0.631282 0.171606 0.292993
O O16 0.910816 0.354443 0.194929
O O17 0.500000 0.961164 0.750000
#
# Coordination Sequence:
#
# PCOD9229185 Si02
#       8
#     4   4   4   4   4   4   4   4
#     4  10  21  39  58  90 124 161 213 257 310 388
#     4  10  21  47  67  77 117 167 207 279 342 358
#     4  10  22  38  56  90 120 154 211 259 312 381
#     4  10  23  40  61  92 127 167 218 255 311 390
#     4  10  19  38  51  85 128 169 204 238 310 376
#     4  12  22  37  63  86 129 163 211 258 309 369
#     4  12  23  37  60  97 138 170 202 253 316 387
#     4  12  21  35  63  86 128 168 208 257 310 384
#
# _framework density 24.249164
#
# number of rings (size 3 to 8) (size 9 to 14) (size 15 to 20)
#    0.000    1.500    5.000    4.500    0.000    0.500 
#    0.000    1.875    0.000    0.000    0.000    0.000 
#    0.000    0.000    0.000    0.000    0.000    0.000 
#
# Total GULP energy -178242.632577 kJ/mol
# GULP energy per Si atom -5570.082268 kJ/mol
# Density = 2.419397 g / cm^3
# Si number density = 24.249164 Si / 1000 Ang^3
#
#
#
# Elastic Constant Matrix: (Units=GPa)
#
#
# Indices 1 2 3 4 5 6 
#
# 1 17.3437 9.8125 18.6090 0.0000 4.8638 0.0000
# 2 9.8125 150.3854 42.7644 0.0000 -7.5777 0.0000
# 3 18.6090 42.7644 196.3718 0.0000 10.8384 0.0000
# 4 0.0000 0.0000 0.0000 44.4389 0.0000 -1.8242
# 5 4.8638 -7.5777 10.8384 0.0000 6.7183 0.0000
# 6 0.0000 0.0000 0.0000 -1.8242 0.0000 7.8925
#
#
#
# Elastic Compliance Matrix: (Units=1/GPa)
#
#
# Indices 1 2 3 4 5 6 
#
# 1 0.083165 -0.007982 -0.002550 0.000000 -0.065098 0.000000
# 2 -0.007982 0.008770 -0.002216 0.000000 0.019245 0.000000
# 3 -0.002550 -0.002216 0.006425 0.000000 -0.011018 0.000000
# 4 0.000000 0.000000 0.000000 0.022718 0.000000 0.005251
# 5 -0.065098 0.019245 -0.011018 0.000000 0.235459 0.000000
# 6 0.000000 0.000000 0.000000 0.005251 0.000000 0.127917
#
#
# Mechanical properties :
#
#
# Convention : Reuss Voigt Hill
#
# Bulk Modulus (GPa) = 13.72388 56.27478 34.99933
# Shear Modulus (GPa) = 9.35914 31.33758 20.34836
#
# Velocity S-wave (km/s) = 1.96671 3.59878 2.89993
# Velocity P-wave (km/s) = 3.29076 6.36597 5.06728
#
# Compressibility (1/GPa) = 0.07286571
#
# Stress axis : x y z
#
# Youngs Moduli (GPa) = 12.02424 114.02276 155.65016
#
# Poissons Ratio (x) = 0.91008 0.39690
# Poissons Ratio (y) = 0.09597 0.34488
# Poissons Ratio (z) = 0.03066 0.25264
#
# Static dielectric constant tensor:
#      x y z
#    x 1.968360 0.000000 -0.001760 
#    y 0.000000 2.094910 0.000000 
#    z -0.001760 0.000000 1.957520 
# 
# From -- ./inp_files/53096.got.cif
#   From: 2010.05.17/outbox.cif.g08.bks.cpg/sg13_27_cif.got.tgz:53096.got - 2010.06.03 16:44:36.
