data_PCOD9229687
_publ_section_title
;
Structure prediction by ZEFSAII (Michael W. Deem and Ramdas Pophale) SiO2 
 PCOD9229687
Probable space group: P 2/C
;
_chemical_formula_sum "Si O2"
_cell_formula_units_Z 26
_cell_length_a 15.313173
_cell_length_b 10.381811
_cell_length_c 8.795170
_cell_angle_alpha 90.000000
_cell_angle_beta 106.548310
_cell_angle_gamma 90.000000
_cell_volume 1340.327331
_symmetry_space_group_name_H-M "P 2/C"
_symmetry_group_IT_number 13
_symmetry_cell_setting 'monoclinic'
loop_
_space_group_symop_operation_xyz
x,y,z
-x,y,1/2-z
-x,-y,-z
x,-y,1/2+z
loop_
_atom_site_type_symbol
_atom_site_label
_atom_site_fract_x
_atom_site_fract_y
_atom_site_fract_z
Si Si1 0.360189 0.567305 0.429658
Si Si2 0.188983 0.924482 0.727947
Si Si3 0.328334 0.731488 0.942577
Si Si4 0.066808 0.047579 0.901322
Si Si5 0.487384 0.861169 0.424631
Si Si6 0.286339 0.201833 0.771996
Si Si7 0.500000 0.515172 0.750000
O O1 0.323785 0.420947 0.417904
O O2 0.275120 0.661160 0.351621
O O3 0.423674 0.587133 0.610579
O O4 0.435836 0.568836 0.330442
O O5 0.265775 0.822138 0.807823
O O6 0.112854 0.934313 0.823407
O O7 0.147116 0.891691 0.542233
O O8 0.225646 0.073185 0.747082
O O9 0.433419 0.771153 0.971729
O O10 0.300665 0.766689 0.101629
O O11 0.000000 0.121051 0.750000
O O12 0.000000 0.000000 0.000000
O O13 0.500000 0.865803 0.250000
O O14 0.382762 0.829801 0.398315
O O15 0.500000 0.000000 0.500000
#
# Coordination Sequence:
#
# PCOD9229687 Si02
#       7
#     4   4   4   4   4   4   2
#     4  11  22  38  54  76 112 164 210 259 284 333
#     4  11  20  37  64  91 120 147 183 246 300 350
#     4  11  22  38  54  83 120 158 204 247 289 328
#     4   9  20  38  62  94 120 142 181 229 298 373
#     4  10  20  34  49  74 116 160 194 241 285 319
#     4  11  22  38  54  83 120 158 205 247 285 332
#     4  10  20  36  54  72 100 166 228 252 280 318
#
# _framework density 19.398247000000001
#
# number of rings (size 3 to 8) (size 9 to 14) (size 15 to 20)
#    0.000    1.538    4.615    1.846    2.154    1.231 
#    5.538    0.000    0.000    0.000    0.000   21.538 
#    0.000    0.000    0.000    0.000    0.000    0.000 
#
# Total GULP energy -144830.719064 kJ/mol
# GULP energy per Si atom -5570.412272 kJ/mol
# Density = 1.935410 g / cm^3
# Si number density = 19.398247 Si / 1000 Ang^3
#
#
#
# Elastic Constant Matrix: (Units=GPa)
#
#
# Indices 1 2 3 4 5 6 
#
# 1 55.1414 24.5714 23.0203 0.0000 6.7486 0.0000
# 2 24.5714 118.9578 37.3107 0.0000 18.5915 0.0000
# 3 23.0203 37.3107 142.5592 0.0000 33.5410 0.0000
# 4 0.0000 0.0000 0.0000 20.8901 0.0000 -3.3971
# 5 6.7486 18.5915 33.5410 0.0000 35.1920 0.0000
# 6 0.0000 0.0000 0.0000 -3.3971 0.0000 8.2954
#
#
#
# Elastic Compliance Matrix: (Units=1/GPa)
#
#
# Indices 1 2 3 4 5 6 
#
# 1 0.020717 -0.003542 -0.002480 0.000000 0.000262 0.000000
# 2 -0.003542 0.010070 -0.001252 0.000000 -0.003447 0.000000
# 3 -0.002480 -0.001252 0.009636 0.000000 -0.008047 0.000000
# 4 0.000000 0.000000 0.000000 0.051285 0.000000 0.021002
# 5 0.000262 -0.003447 -0.008047 0.000000 0.037855 0.000000
# 6 0.000000 0.000000 0.000000 0.021002 0.000000 0.129149
#
#
# Mechanical properties :
#
#
# Convention : Reuss Voigt Hill
#
# Bulk Modulus (GPa) = 38.65022 54.05146 46.35084
# Shear Modulus (GPa) = 17.73766 28.32589 23.03178
#
# Velocity S-wave (km/s) = 3.02718 3.82544 3.44948
# Velocity P-wave (km/s) = 5.67329 6.88742 6.30963
#
# Compressibility (1/GPa) = 0.02587307
#
# Stress axis : x y z
#
# Youngs Moduli (GPa) = 48.26971 99.30959 103.77614
#
# Poissons Ratio (x) = 0.35179 0.25736
# Poissons Ratio (y) = 0.17099 0.12998
# Poissons Ratio (z) = 0.11970 0.12438
#
# Static dielectric constant tensor:
#      x y z
#    x 1.713660 0.000000 -0.002550 
#    y 0.000000 1.813130 0.000000 
#    z -0.002550 0.000000 1.737480 
# 
# From -- ./inp_files/18626.got.cif
#   From: 2010.05.17/outbox.cif.g08.bks.cpg/sg13_10_cif.got.tgz:18626.got - 2010.06.03 16:44:36.
