data_PCOD9229011
_publ_section_title
;
Structure prediction by ZEFSAII (Michael W. Deem and Ramdas Pophale) SiO2 
 PCOD9229011
Probable space group: P 2/C
;
_chemical_formula_sum "Si O2"
_cell_formula_units_Z 16
_cell_length_a 8.993734
_cell_length_b 11.071301
_cell_length_c 8.174790
_cell_angle_alpha 90.000000
_cell_angle_beta 131.516486
_cell_angle_gamma 90.000000
_cell_volume 609.481960
_symmetry_space_group_name_H-M "P 2/C"
_symmetry_group_IT_number 13
_symmetry_cell_setting 'monoclinic'
loop_
_space_group_symop_operation_xyz
x,y,z
-x,y,1/2-z
-x,-y,-z
x,-y,1/2+z
loop_
_atom_site_type_symbol
_atom_site_label
_atom_site_fract_x
_atom_site_fract_y
_atom_site_fract_z
Si Si1 0.734033 0.182465 0.450558
Si Si2 0.731594 0.970221 0.646996
Si Si3 0.781124 0.737768 0.532373
Si Si4 0.406622 0.367208 0.926247
O O1 0.500000 0.160324 0.250000
O O2 0.821014 0.114494 0.354896
O O3 0.719934 0.320159 0.509088
O O4 0.806363 0.102880 0.656689
O O5 0.760732 0.883191 0.509373
O O6 0.500000 0.000000 0.500000
O O7 0.723656 0.664348 0.328344
O O8 0.608647 0.708224 0.539137
O O9 0.000000 0.703288 0.750000
O O10 0.500000 0.500000 0.000000
#
# Coordination Sequence:
#
# PCOD9229011 Si02
#       4
#     4   4   4   4
#     4  10  19  36  68  97 128 181 228 282 343 414
#     4  10  19  36  71  94 136 177 220 287 353 406
#     4  11  25  44  70 104 142 175 232 293 351 408
#     4  11  25  44  72  95 139 191 235 279 348 408
#
# _framework density 26.251805000000001
#
# number of rings (size 3 to 8) (size 9 to 14) (size 15 to 20)
#    0.000    1.500    5.000    1.500   10.500    1.000 
#    0.000    6.250    0.000    0.000    0.000    0.000 
#    0.000    0.000    0.000    0.000    0.000    0.000 
#
# Total GULP energy -89175.109807 kJ/mol
# GULP energy per Si atom -5573.444363 kJ/mol
# Density = 2.619205 g / cm^3
# Si number density = 26.251805 Si / 1000 Ang^3
#
#
#
# Elastic Constant Matrix: (Units=GPa)
#
#
# Indices 1 2 3 4 5 6 
#
# 1 103.5047 14.5592 55.8712 0.0000 3.9944 0.0000
# 2 14.5592 183.7799 51.5375 0.0000 -24.3408 0.0000
# 3 55.8712 51.5375 166.0166 0.0000 10.8527 0.0000
# 4 0.0000 0.0000 0.0000 16.0168 0.0000 -19.7476
# 5 3.9944 -24.3408 10.8527 0.0000 62.3305 0.0000
# 6 0.0000 0.0000 0.0000 -19.7476 0.0000 0.6386
#
#
#
# Elastic Compliance Matrix: (Units=1/GPa)
#
#
# Indices 1 2 3 4 5 6 
#
# 1 0.011813 0.000200 -0.004039 0.000000 0.000024 0.000000
# 2 0.000200 0.006442 -0.002256 0.000000 0.002896 0.000000
# 3 -0.004039 -0.002256 0.008217 0.000000 -0.002053 0.000000
# 4 0.000000 0.000000 0.000000 -0.001682 0.000000 -0.052003
# 5 0.000024 0.002896 -0.002053 0.000000 0.017530 0.000000
# 6 0.000000 0.000000 0.000000 -0.052003 0.000000 -0.042178
#
#
# Mechanical properties :
#
#
# Convention : Reuss Voigt Hill
#
# Bulk Modulus (GPa) = 70.02292 77.47078 73.74685
# Shear Modulus (GPa) = 292.51627 37.88607 165.20117
#
# Velocity S-wave (km/s) = 10.56736 3.80304 7.94141
# Velocity P-wave (km/s) = 13.25230 6.98991 10.59439
#
# Compressibility (1/GPa) = 0.01428104
#
# Stress axis : x y z
#
# Youngs Moduli (GPa) = 84.65530 155.23849 121.69158
#
# Poissons Ratio (x) = -0.03107 0.49153
# Poissons Ratio (y) = -0.01694 0.27458
# Poissons Ratio (z) = 0.34193 0.35028
#
# Static dielectric constant tensor:
#      x y z
#    x 2.197970 0.000000 -0.104870 
#    y 0.000000 2.194200 0.000000 
#    z -0.104870 0.000000 2.252560 
# 
# From -- ./inp_files/15703.got.cif
#   From: 2010.05.17/outbox.cif.g08.bks.cpg/sg13_8_cif.got.tgz:15703.got - 2010.06.03 16:44:36.
