data_PCOD9229304
_publ_section_title
;
Structure prediction by ZEFSAII (Michael W. Deem and Ramdas Pophale) SiO2 
 PCOD9229304
Probable space group: P 2/C
;
_chemical_formula_sum "Si O2"
_cell_formula_units_Z 28
_cell_length_a 8.983602
_cell_length_b 14.953770
_cell_length_c 19.172815
_cell_angle_alpha 90.000000
_cell_angle_beta 29.048682
_cell_angle_gamma 90.000000
_cell_volume 1250.614166
_symmetry_space_group_name_H-M "P 2/C"
_symmetry_group_IT_number 13
_symmetry_cell_setting 'monoclinic'
loop_
_space_group_symop_operation_xyz
x,y,z
-x,y,1/2-z
-x,-y,-z
x,-y,1/2+z
loop_
_atom_site_type_symbol
_atom_site_label
_atom_site_fract_x
_atom_site_fract_y
_atom_site_fract_z
Si Si1 0.423132 0.414082 0.602786
Si Si2 0.753172 0.264099 0.054799
Si Si3 0.841853 0.960064 0.239212
Si Si4 0.312887 0.611208 0.654676
Si Si5 0.200644 0.587692 0.426112
Si Si6 0.156223 0.772659 0.257338
Si Si7 0.751278 0.939198 0.559652
O O1 0.259882 0.505948 0.693544
O O2 0.456605 0.401278 0.506454
O O3 0.734785 0.417490 0.517735
O O4 0.295004 0.323365 0.686999
O O5 0.461101 0.326688 0.153627
O O6 0.731035 0.163926 0.093884
O O7 0.997012 0.325577 0.994585
O O8 0.909652 0.243427 0.917030
O O9 0.658227 0.863874 0.306845
O O10 0.000000 0.981964 0.250000
O O11 0.597954 0.027989 0.306344
O O12 0.120250 0.946671 0.071862
O O13 0.000000 0.649122 0.750000
O O14 0.500000 0.587648 0.250000
O O15 0.000000 0.500000 0.500000
O O16 0.000000 0.798333 0.250000
O O17 0.000000 0.000000 0.500000
#
# Coordination Sequence:
#
# PCOD9229304 Si02
#       7
#     4   4   4   4   4   4   4
#     4  11  23  39  67  92 132 172 218 263 325 381
#     4  11  24  43  63  97 129 172 220 270 326 409
#     4  10  23  44  71 100 129 171 227 283 343 404
#     4  11  25  41  64  97 134 175 220 272 325 390
#     4  12  26  41  65  97 136 177 221 269 326 395
#     4  10  19  38  68  94 122 163 221 265 314 393
#     4  11  25  45  70  97 136 172 224 284 350 415
#
# _framework density 22.388999999999999
#
# number of rings (size 3 to 8) (size 9 to 14) (size 15 to 20)
#    0.000    1.143    4.286    1.286    6.000    0.571 
#    2.571    2.857    0.000    0.000    0.000    0.000 
#    0.000    0.000    0.000    0.000    0.000    0.000 
#
# Total GULP energy -155876.918167 kJ/mol
# GULP energy per Si atom -5567.032792 kJ/mol
# Density = 2.233804 g / cm^3
# Si number density = 22.389000 Si / 1000 Ang^3
#
#
#
# Elastic Constant Matrix: (Units=GPa)
#
#
# Indices 1 2 3 4 5 6 
#
# 1 75.8883 19.0028 7.9373 0.0000 -13.1547 0.0000
# 2 19.0028 165.1571 34.2683 0.0000 -27.4450 0.0000
# 3 7.9373 34.2683 55.0888 0.0000 -8.4444 0.0000
# 4 0.0000 0.0000 0.0000 24.1239 0.0000 -17.3882
# 5 -13.1547 -27.4450 -8.4444 0.0000 42.2722 0.0000
# 6 0.0000 0.0000 0.0000 -17.3882 0.0000 33.5185
#
#
#
# Elastic Compliance Matrix: (Units=1/GPa)
#
#
# Indices 1 2 3 4 5 6 
#
# 1 0.014119 -0.000814 -0.000965 0.000000 0.003672 0.000000
# 2 -0.000814 0.007633 -0.004034 0.000000 0.003897 0.000000
# 3 -0.000965 -0.004034 0.020996 0.000000 0.001275 0.000000
# 4 0.000000 0.000000 0.000000 0.066210 0.000000 0.034347
# 5 0.003672 0.003897 0.001275 0.000000 0.027584 0.000000
# 6 0.000000 0.000000 0.000000 0.034347 0.000000 0.047652
#
#
# Mechanical properties :
#
#
# Convention : Reuss Voigt Hill
#
# Bulk Modulus (GPa) = 32.13098 46.50568 39.31833
# Shear Modulus (GPa) = 24.24918 35.64465 29.94692
#
# Velocity S-wave (km/s) = 3.29460 3.99439 3.66125
# Velocity P-wave (km/s) = 5.37167 6.48771 5.95589
#
# Compressibility (1/GPa) = 0.03112261
#
# Stress axis : x y z
#
# Youngs Moduli (GPa) = 70.82866 131.01132 47.62787
#
# Poissons Ratio (x) = 0.10664 0.04596
# Poissons Ratio (y) = 0.05766 0.19211
# Poissons Ratio (z) = 0.06835 0.52844
#
# Static dielectric constant tensor:
#      x y z
#    x 2.908870 0.000000 1.708750 
#    y 0.000000 1.653510 0.000000 
#    z 1.708750 0.000000 4.679140 
# 
# From -- ./inp_files/76694.got.cif
#   From: 2010.05.17/outbox.cif.g08.bks.cpg/sg13_39_cif.got.tgz:76694.got - 2010.06.03 16:44:36.
