data_PCOD9229169
_publ_section_title
;
Structure prediction by ZEFSAII (Michael W. Deem and Ramdas Pophale) SiO2 
 PCOD9229169
Probable space group: P 2/C
;
_chemical_formula_sum "Si O2"
_cell_formula_units_Z 18
_cell_length_a 17.601666
_cell_length_b 8.428180
_cell_length_c 5.487008
_cell_angle_alpha 90.000000
_cell_angle_beta 76.176698
_cell_angle_gamma 90.000000
_cell_volume 790.422027
_symmetry_space_group_name_H-M "P 2/C"
_symmetry_group_IT_number 13
_symmetry_cell_setting 'monoclinic'
loop_
_space_group_symop_operation_xyz
x,y,z
-x,y,1/2-z
-x,-y,-z
x,-y,1/2+z
loop_
_atom_site_type_symbol
_atom_site_label
_atom_site_fract_x
_atom_site_fract_y
_atom_site_fract_z
Si Si1 0.398764 0.574885 0.462784
Si Si2 0.589176 0.938945 0.936116
Si Si3 0.217905 0.354167 0.071298
Si Si4 0.000000 0.896130 0.250000
Si Si5 0.159650 0.701445 0.115856
O O1 0.424818 0.463702 0.667419
O O2 0.416559 0.752184 0.528951
O O3 0.304154 0.572274 0.520482
O O4 0.626725 0.988656 0.651319
O O5 0.500000 0.000000 0.000000
O O6 0.160450 0.507756 0.110358
O O7 0.201026 0.256654 0.328566
O O8 0.205777 0.261049 0.829819
O O9 0.923629 0.784602 0.309750
O O10 0.000000 0.000000 0.500000
#
# Coordination Sequence:
#
# PCOD9229169 Si02
#       5
#     4   4   4   2   4
#     4  12  21  40  71 103 129 166 230 289 321 388
#     4  10  23  45  64  92 142 178 213 257 339 417
#     4  10  19  37  65  91 117 146 209 282 322 356
#     4  12  26  42  56  84 132 176 214 244 316 414
#     4  10  20  38  61  87 123 153 207 264 320 368
#
# _framework density 22.772645000000001
#
# number of rings (size 3 to 8) (size 9 to 14) (size 15 to 20)
#    0.000    1.333    4.444    2.667    0.000    3.556 
#    0.000   20.000    0.000    0.000    0.000    0.000 
#    0.000    0.000    0.000    0.000    0.000    0.000 
#
# Total GULP energy -100547.219195 kJ/mol
# GULP energy per Si atom -5585.956622 kJ/mol
# Density = 2.272081 g / cm^3
# Si number density = 22.772645 Si / 1000 Ang^3
#
#
#
# Elastic Constant Matrix: (Units=GPa)
#
#
# Indices 1 2 3 4 5 6 
#
# 1 51.1013 5.5051 21.1581 0.0000 4.3980 0.0000
# 2 5.5051 73.2802 6.0802 0.0000 8.1586 0.0000
# 3 21.1581 6.0802 233.9919 0.0000 21.5683 0.0000
# 4 0.0000 0.0000 0.0000 31.5674 0.0000 7.4999
# 5 4.3980 8.1586 21.5683 0.0000 34.4193 0.0000
# 6 0.0000 0.0000 0.0000 7.4999 0.0000 7.7238
#
#
#
# Elastic Compliance Matrix: (Units=1/GPa)
#
#
# Indices 1 2 3 4 5 6 
#
# 1 0.020519 -0.001260 -0.001707 0.000000 -0.001253 0.000000
# 2 -0.001260 0.014094 0.000043 0.000000 -0.003207 0.000000
# 3 -0.001707 0.000043 0.004678 0.000000 -0.002723 0.000000
# 4 0.000000 0.000000 0.000000 0.041178 0.000000 -0.039984
# 5 -0.001253 -0.003207 -0.002723 0.000000 0.031680 0.000000
# 6 0.000000 0.000000 0.000000 -0.039984 0.000000 0.168295
#
#
# Mechanical properties :
#
#
# Convention : Reuss Voigt Hill
#
# Bulk Modulus (GPa) = 29.90114 47.09557 38.49836
# Shear Modulus (GPa) = 16.81004 36.45075 26.63040
#
# Velocity S-wave (km/s) = 2.71987 4.00514 3.42336
# Velocity P-wave (km/s) = 4.79817 6.48952 5.70685
#
# Compressibility (1/GPa) = 0.03344354
#
# Stress axis : x y z
#
# Youngs Moduli (GPa) = 48.73424 70.95021 213.76980
#
# Poissons Ratio (x) = 0.08942 0.36493
# Poissons Ratio (y) = 0.06142 -0.00926
# Poissons Ratio (z) = 0.08320 -0.00307
#
# Static dielectric constant tensor:
#      x y z
#    x 1.751330 0.000000 0.024770 
#    y 0.000000 1.798200 0.000000 
#    z 0.024770 0.000000 1.963460 
# 
# From -- ./inp_files/5857.got.cif
#   From: 2010.05.17/outbox.cif.g08.bks.cpg/sg13_3_cif.got.tgz:5857.got - 2010.06.03 16:44:36.
