data_PCOD9229634
_publ_section_title
;
Structure prediction by ZEFSAII (Michael W. Deem and Ramdas Pophale) SiO2 
 PCOD9229634
Probable space group: P 2/C
;
_chemical_formula_sum "Si O2"
_cell_formula_units_Z 24
_cell_length_a 16.450303
_cell_length_b 12.054531
_cell_length_c 12.085833
_cell_angle_alpha 90.000000
_cell_angle_beta 31.704411
_cell_angle_gamma 90.000000
_cell_volume 1259.517571
_symmetry_space_group_name_H-M "P 2/C"
_symmetry_group_IT_number 13
_symmetry_cell_setting 'monoclinic'
loop_
_space_group_symop_operation_xyz
x,y,z
-x,y,1/2-z
-x,-y,-z
x,-y,1/2+z
loop_
_atom_site_type_symbol
_atom_site_label
_atom_site_fract_x
_atom_site_fract_y
_atom_site_fract_z
Si Si1 0.364244 0.181051 0.491430
Si Si2 0.680849 0.942270 0.004970
Si Si3 0.150773 0.359394 0.846038
Si Si4 0.791310 0.612717 0.753485
Si Si5 0.263195 0.727262 0.446840
Si Si6 0.564406 0.785622 0.966790
O O1 0.245680 0.276705 0.658743
O O2 0.461794 0.160228 0.490661
O O3 0.275919 0.070043 0.555065
O O4 0.500000 0.213291 0.250000
O O5 0.500000 0.947925 0.250000
O O6 0.769447 0.855917 0.981485
O O7 0.670773 0.878410 0.900253
O O8 0.222604 0.481739 0.748775
O O9 0.167391 0.318577 0.954103
O O10 0.970891 0.361318 0.024029
O O11 0.676987 0.683797 0.808241
O O12 0.756178 0.653311 0.920508
O O13 0.439432 0.734732 0.197766
#
# Coordination Sequence:
#
# PCOD9229634 Si02
#       6
#     4   4   4   4   4   4
#     4  10  20  33  52  79 108 139 179 223 263 314
#     4   8  15  31  55  79 102 133 175 221 269 314
#     4  10  22  35  53  80 111 147 180 217 270 319
#     4  10  20  36  54  78 111 144 178 222 270 318
#     4   9  18  35  58  79 101 140 184 220 264 323
#     4   9  18  33  56  79 103 139 180 221 265 318
#
# _framework density 19.054914
#
# number of rings (size 3 to 8) (size 9 to 14) (size 15 to 20)
#    0.000    2.667    0.000    2.500    0.000    6.667 
#    0.000    5.833    0.000   12.000    0.000    0.000 
#    0.000    0.000    0.000    0.000    0.000    0.000 
#
# Total GULP energy -133664.341887 kJ/mol
# GULP energy per Si atom -5569.347579 kJ/mol
# Density = 1.901154 g / cm^3
# Si number density = 19.054914 Si / 1000 Ang^3
#
#
#
# Elastic Constant Matrix: (Units=GPa)
#
#
# Indices 1 2 3 4 5 6 
#
# 1 32.3127 36.7843 7.8388 0.0000 2.8706 0.0000
# 2 36.7843 145.9578 34.7709 0.0000 1.3572 0.0000
# 3 7.8388 34.7709 43.3029 0.0000 11.8051 0.0000
# 4 0.0000 0.0000 0.0000 141.1188 0.0000 -40.7842
# 5 2.8706 1.3572 11.8051 0.0000 21.7734 0.0000
# 6 0.0000 0.0000 0.0000 -40.7842 0.0000 31.0384
#
#
#
# Elastic Compliance Matrix: (Units=1/GPa)
#
#
# Indices 1 2 3 4 5 6 
#
# 1 0.044302 -0.011923 0.003455 0.000000 -0.006971 0.000000
# 2 -0.011923 0.011944 -0.008986 0.000000 0.005699 0.000000
# 3 0.003455 -0.008986 0.034798 0.000000 -0.018762 0.000000
# 4 0.000000 0.000000 0.000000 0.011425 0.000000 0.015012
# 5 -0.006971 0.005699 -0.018762 0.000000 0.056664 0.000000
# 6 0.000000 0.000000 0.000000 0.015012 0.000000 0.051944
#
#
# Mechanical properties :
#
#
# Convention : Reuss Voigt Hill
#
# Bulk Modulus (GPa) = 17.81423 42.26239 30.03831
# Shear Modulus (GPa) = 18.88948 48.26474 33.57711
#
# Velocity S-wave (km/s) = 3.15194 5.03828 4.20232
# Velocity P-wave (km/s) = 4.75557 7.48820 6.27250
#
# Compressibility (1/GPa) = 0.05613490
#
# Stress axis : x y z
#
# Youngs Moduli (GPa) = 22.57236 83.72493 28.73708
#
# Poissons Ratio (x) = 0.99826 -0.09927
# Poissons Ratio (y) = 0.26913 0.25823
# Poissons Ratio (z) = -0.07798 0.75235
#
# Static dielectric constant tensor:
#      x y z
#    x 1.717240 0.000000 0.025140 
#    y 0.000000 1.685940 0.000000 
#    z 0.025140 0.000000 1.665580 
# 
# From -- ./inp_files/39101.got.cif
#   From: 2010.05.17/outbox.cif.g08.bks.cpg/sg13_20_cif.got.tgz:39101.got - 2010.06.03 16:44:36.
