data_PCOD9229487
_publ_section_title
;
Structure prediction by ZEFSAII (Michael W. Deem and Ramdas Pophale) SiO2 
 PCOD9229487
Probable space group: P 2/C
;
_chemical_formula_sum "Si O2"
_cell_formula_units_Z 32
_cell_length_a 13.042080
_cell_length_b 11.528314
_cell_length_c 16.573269
_cell_angle_alpha 90.000000
_cell_angle_beta 36.506238
_cell_angle_gamma 90.000000
_cell_volume 1482.423619
_symmetry_space_group_name_H-M "P 2/C"
_symmetry_group_IT_number 13
_symmetry_cell_setting 'monoclinic'
loop_
_space_group_symop_operation_xyz
x,y,z
-x,y,1/2-z
-x,-y,-z
x,-y,1/2+z
loop_
_atom_site_type_symbol
_atom_site_label
_atom_site_fract_x
_atom_site_fract_y
_atom_site_fract_z
Si Si1 0.122349 0.878126 0.110631
Si Si2 0.797672 0.453835 0.026166
Si Si3 0.734345 0.700630 0.719006
Si Si4 0.927600 0.307204 0.387792
Si Si5 0.867103 0.682956 0.190614
Si Si6 0.195699 0.958264 0.895507
Si Si7 0.691811 0.195723 0.651375
Si Si8 0.635171 0.689562 0.482247
O O1 0.000000 0.945254 0.250000
O O2 0.990858 0.782122 0.153359
O O3 0.202459 0.943791 0.986654
O O4 0.276672 0.814369 0.058803
O O5 0.803400 0.585456 0.991917
O O6 0.998787 0.419563 0.906559
O O7 0.719912 0.396399 0.156942
O O8 0.709570 0.385806 0.008441
O O9 0.753865 0.832329 0.671283
O O10 0.567580 0.693917 0.880716
O O11 0.904269 0.682483 0.663143
O O12 0.814940 0.200566 0.494363
O O13 0.000000 0.305249 0.250000
O O14 0.785414 0.726000 0.159599
O O15 0.716620 0.648275 0.347084
O O16 0.314206 0.068584 0.802922
O O17 0.000000 0.000000 0.000000
O O18 0.500000 0.232564 0.750000
#
# Coordination Sequence:
#
# PCOD9229487 Si02
#       8
#     4   4   4   4   4   4   4   4
#     4   9  18  35  63  93 124 161 213 275 328 372
#     4  11  21  45  73  98 131 173 222 273 342 395
#     4  12  24  42  72 101 131 172 228 281 328 389
#     4  12  27  48  67  97 139 181 218 271 341 411
#     4  10  19  43  64  94 132 172 218 267 333 393
#     4  12  21  44  65  92 131 179 224 267 330 395
#     4  12  28  43  66  95 138 188 220 268 337 401
#     4  10  22  37  70 104 125 157 225 292 317 379
#
# _framework density 21.586272000000001
#
# number of rings (size 3 to 8) (size 9 to 14) (size 15 to 20)
#    0.000    1.000    6.250    2.625    3.500    1.500 
#    0.000    1.875    0.000    0.000    0.000    0.000 
#    0.000    0.000    0.000    0.000    0.000    0.000 
#
# Total GULP energy -178548.259602 kJ/mol
# GULP energy per Si atom -5579.633113 kJ/mol
# Density = 2.153714 g / cm^3
# Si number density = 21.586272 Si / 1000 Ang^3
#
#
#
# Elastic Constant Matrix: (Units=GPa)
#
#
# Indices 1 2 3 4 5 6 
#
# 1 42.0313 -16.7193 10.7927 0.0000 -2.1310 0.0000
# 2 -16.7193 33.8162 -9.6212 0.0000 -5.9885 0.0000
# 3 10.7927 -9.6212 114.4603 0.0000 -8.3186 0.0000
# 4 0.0000 0.0000 0.0000 6.8607 0.0000 -4.0300
# 5 -2.1310 -5.9885 -8.3186 0.0000 38.6527 0.0000
# 6 0.0000 0.0000 0.0000 -4.0300 0.0000 15.2369
#
#
#
# Elastic Compliance Matrix: (Units=1/GPa)
#
#
# Indices 1 2 3 4 5 6 
#
# 1 0.030419 0.015336 -0.001305 0.000000 0.003772 0.000000
# 2 0.015336 0.039147 0.002384 0.000000 0.007424 0.000000
# 3 -0.001305 0.002384 0.009226 0.000000 0.002283 0.000000
# 4 0.000000 0.000000 0.000000 0.172569 0.000000 0.045642
# 5 0.003772 0.007424 0.002283 0.000000 0.027721 0.000000
# 6 0.000000 0.000000 0.000000 0.045642 0.000000 0.077702
#
#
# Mechanical properties :
#
#
# Convention : Reuss Voigt Hill
#
# Bulk Modulus (GPa) = 8.95880 17.69025 13.32453
# Shear Modulus (GPa) = 13.84429 25.87375 19.85902
#
# Velocity S-wave (km/s) = 2.53523 3.46587 3.03641
# Velocity P-wave (km/s) = 3.56779 4.92232 4.29874
#
# Compressibility (1/GPa) = 0.11162205
#
# Stress axis : x y z
#
# Youngs Moduli (GPa) = 32.87462 25.54476 108.38922
#
# Poissons Ratio (x) = -0.39176 0.14144
# Poissons Ratio (y) = -0.50417 -0.25840
# Poissons Ratio (z) = 0.04290 -0.06090
#
# Static dielectric constant tensor:
#      x y z
#    x 1.779570 0.000000 -0.019590 
#    y 0.000000 1.904210 0.000000 
#    z -0.019590 0.000000 1.845160 
# 
# From -- ./inp_files/68650.got.cif
#   From: 2010.05.17/outbox.cif.g08.bks.cpg/sg13_35_cif.got.tgz:68650.got - 2010.06.03 16:44:36.
