data_PCOD9229428
_publ_section_title
;
Structure prediction by ZEFSAII (Michael W. Deem and Ramdas Pophale) SiO2 
 PCOD9229428
Probable space group: P 2/C
;
_chemical_formula_sum "Si O2"
_cell_formula_units_Z 30
_cell_length_a 11.135584
_cell_length_b 12.197380
_cell_length_c 14.165241
_cell_angle_alpha 90.000000
_cell_angle_beta 51.587127
_cell_angle_gamma 90.000000
_cell_volume 1507.552294
_symmetry_space_group_name_H-M "P 2/C"
_symmetry_group_IT_number 13
_symmetry_cell_setting 'monoclinic'
loop_
_space_group_symop_operation_xyz
x,y,z
-x,y,1/2-z
-x,-y,-z
x,-y,1/2+z
loop_
_atom_site_type_symbol
_atom_site_label
_atom_site_fract_x
_atom_site_fract_y
_atom_site_fract_z
Si Si1 0.311784 0.038991 0.202929
Si Si2 0.500000 0.446827 0.750000
Si Si3 0.942601 0.127607 0.674216
Si Si4 0.945099 0.506491 0.680244
Si Si5 0.539875 0.852412 0.486733
Si Si6 0.217206 0.402587 0.423144
Si Si7 0.290007 0.682264 0.207661
Si Si8 0.739177 0.144830 0.073576
O O1 0.320058 0.082928 0.304929
O O2 0.145578 0.986567 0.270449
O O3 0.420904 0.937696 0.116360
O O4 0.366152 0.134570 0.105476
O O5 0.629811 0.524646 0.641111
O O6 0.596580 0.369849 0.772115
O O7 0.821136 0.220058 0.700807
O O8 0.000000 0.163902 0.750000
O O9 0.085478 0.116008 0.535975
O O10 0.858204 0.578337 0.643829
O O11 0.824471 0.412477 0.769096
O O12 0.000000 0.562711 0.750000
O O13 0.087196 0.446543 0.558348
O O14 0.603812 0.736113 0.423671
O O15 0.639627 0.883194 0.530204
O O16 0.260164 0.275961 0.413789
#
# Coordination Sequence:
#
# PCOD9229428 Si02
#       8
#     4   2   4   4   4   4   4   4
#     4  10  23  39  59  97 125 157 213 269 317 370
#     4  10  24  42  58 100 138 162 212 274 314 380
#     4  11  20  41  69  93 123 168 222 260 311 392
#     4  10  19  40  66  91 126 169 215 264 307 379
#     4  10  22  42  63  93 126 164 217 258 323 390
#     4  10  23  38  65  96 128 164 217 261 320 380
#     4  10  19  40  67  90 125 172 214 250 319 383
#     4  12  21  40  69  89 127 171 214 263 324 383
#
# _framework density 19.899808
#
# number of rings (size 3 to 8) (size 9 to 14) (size 15 to 20)
#    0.000    1.600    4.000    2.000    1.867    0.000 
#   16.800    2.667    0.000    0.000    0.000    0.000 
#    0.000    0.000    0.000    0.000    0.000    0.000 
#
# Total GULP energy -167347.487160 kJ/mol
# GULP energy per Si atom -5578.249572 kJ/mol
# Density = 1.985451 g / cm^3
# Si number density = 19.899808 Si / 1000 Ang^3
#
#
#
# Elastic Constant Matrix: (Units=GPa)
#
#
# Indices 1 2 3 4 5 6 
#
# 1 92.6463 49.5778 46.6737 0.0000 -12.2653 0.0000
# 2 49.5778 68.2140 53.3884 0.0000 -6.9450 0.0000
# 3 46.6737 53.3884 120.5872 0.0000 -5.1758 0.0000
# 4 0.0000 0.0000 0.0000 36.9672 0.0000 -5.2290
# 5 -12.2653 -6.9450 -5.1758 0.0000 26.9030 0.0000
# 6 0.0000 0.0000 0.0000 -5.2290 0.0000 18.4307
#
#
#
# Elastic Compliance Matrix: (Units=1/GPa)
#
#
# Indices 1 2 3 4 5 6 
#
# 1 0.018579 -0.011514 -0.001873 0.000000 0.005138 0.000000
# 2 -0.011514 0.029985 -0.008784 0.000000 0.000801 0.000000
# 3 -0.001873 -0.008784 0.012879 0.000000 -0.000644 0.000000
# 4 0.000000 0.000000 0.000000 0.028182 0.000000 0.007996
# 5 0.005138 0.000801 -0.000644 0.000000 0.039596 0.000000
# 6 0.000000 0.000000 0.000000 0.007996 0.000000 0.056526
#
#
# Mechanical properties :
#
#
# Convention : Reuss Voigt Hill
#
# Bulk Modulus (GPa) = 58.47886 64.52527 61.50206
# Shear Modulus (GPa) = 21.20529 25.24737 23.22633
#
# Velocity S-wave (km/s) = 3.26790 3.56578 3.42008
# Velocity P-wave (km/s) = 6.60979 7.03196 6.82414
#
# Compressibility (1/GPa) = 0.01710020
#
# Stress axis : x y z
#
# Youngs Moduli (GPa) = 53.82398 33.34970 77.64474
#
# Poissons Ratio (x) = 0.38400 0.14540
# Poissons Ratio (y) = 0.61976 0.68207
# Poissons Ratio (z) = 0.10080 0.29296
#
# Static dielectric constant tensor:
#      x y z
#    x 1.715120 0.000000 -0.013460 
#    y 0.000000 1.707640 0.000000 
#    z -0.013460 0.000000 1.725770 
# 
# From -- ./inp_files/51158.got.cif
#   From: 2010.05.17/outbox.cif.g08.bks.cpg/sg13_26_cif.got.tgz:51158.got - 2010.06.03 16:44:36.
