data_PCOD9229321
_publ_section_title
;
Structure prediction by ZEFSAII (Michael W. Deem and Ramdas Pophale) SiO2 
 PCOD9229321
Probable space group: P 2/C
;
_chemical_formula_sum "Si O2"
_cell_formula_units_Z 26
_cell_length_a 16.125738
_cell_length_b 17.871673
_cell_length_c 8.909980
_cell_angle_alpha 90.000000
_cell_angle_beta 34.109588
_cell_angle_gamma 90.000000
_cell_volume 1439.965748
_symmetry_space_group_name_H-M "P 2/C"
_symmetry_group_IT_number 13
_symmetry_cell_setting 'monoclinic'
loop_
_space_group_symop_operation_xyz
x,y,z
-x,y,1/2-z
-x,-y,-z
x,-y,1/2+z
loop_
_atom_site_type_symbol
_atom_site_label
_atom_site_fract_x
_atom_site_fract_y
_atom_site_fract_z
Si Si1 0.599062 0.242447 0.806101
Si Si2 0.500000 0.484077 0.750000
Si Si3 0.135490 0.302523 0.625755
Si Si4 0.580196 0.392232 0.372122
Si Si5 0.114311 0.789938 0.441778
Si Si6 0.711948 0.189532 0.322177
Si Si7 0.964956 0.920366 0.478811
O O1 0.718723 0.212661 0.745467
O O2 0.678382 0.235945 0.524657
O O3 0.545501 0.327275 0.923375
O O4 0.449150 0.191977 0.016917
O O5 0.604953 0.427997 0.499352
O O6 0.445325 0.540316 0.704496
O O7 0.280635 0.350368 0.401700
O O8 0.098272 0.277062 0.847831
O O9 0.175466 0.231863 0.457913
O O10 0.000000 0.342842 0.750000
O O11 0.068424 0.862357 0.414474
O O12 0.000000 0.783915 0.750000
O O13 0.796915 0.113348 0.240361
O O14 0.000000 0.000000 0.500000
O O15 0.000000 0.924247 0.250000
#
# Coordination Sequence:
#
# PCOD9229321 Si02
#       7
#     4   2   4   4   4   4   4
#     4  10  21  35  65  92 117 149 207 263 292 334
#     4  10  20  38  56  84 124 160 194 232 298 388
#     4  11  19  36  59  87 119 153 205 253 301 339
#     4  10  21  36  60  87 119 159 197 242 301 357
#     4  12  21  36  60  92 119 151 207 260 295 352
#     4  10  19  39  59  87 122 156 199 253 299 347
#     4  12  24  42  63  86 124 167 195 236 308 370
#
# _framework density 18.055986000000001
#
# number of rings (size 3 to 8) (size 9 to 14) (size 15 to 20)
#    0.000    1.231    4.615    3.231    0.000    1.846 
#    0.000    1.538    0.000    3.692    0.000    0.000 
#    0.000    0.000    0.000    0.000    0.000    0.000 
#
# Total GULP energy -144800.033088 kJ/mol
# GULP energy per Si atom -5569.232042 kJ/mol
# Density = 1.801489 g / cm^3
# Si number density = 18.055986 Si / 1000 Ang^3
#
#
#
# Elastic Constant Matrix: (Units=GPa)
#
#
# Indices 1 2 3 4 5 6 
#
# 1 123.9810 39.4628 35.5123 0.0000 -1.2223 0.0000
# 2 39.4628 96.9149 37.0251 0.0000 4.4328 0.0000
# 3 35.5123 37.0251 73.8358 0.0000 18.6863 0.0000
# 4 0.0000 0.0000 0.0000 28.9181 0.0000 1.5132
# 5 -1.2223 4.4328 18.6863 0.0000 37.1605 0.0000
# 6 0.0000 0.0000 0.0000 1.5132 0.0000 33.1599
#
#
#
# Elastic Compliance Matrix: (Units=1/GPa)
#
#
# Indices 1 2 3 4 5 6 
#
# 1 0.010154 -0.002630 -0.004273 0.000000 0.002796 0.000000
# 2 -0.002630 0.013568 -0.005852 0.000000 0.001238 0.000000
# 3 -0.004273 -0.005852 0.021074 0.000000 -0.010040 0.000000
# 4 0.000000 0.000000 0.000000 0.034663 0.000000 -0.001582
# 5 0.002796 0.001238 -0.010040 0.000000 0.031903 0.000000
# 6 0.000000 0.000000 0.000000 -0.001582 0.000000 0.030229
#
#
# Mechanical properties :
#
#
# Convention : Reuss Voigt Hill
#
# Bulk Modulus (GPa) = 51.84915 57.63691 54.74303
# Shear Modulus (GPa) = 28.81334 32.02982 30.42158
#
# Velocity S-wave (km/s) = 3.99905 4.21636 4.10914
# Velocity P-wave (km/s) = 7.07823 7.46285 7.27308
#
# Compressibility (1/GPa) = 0.01928672
#
# Stress axis : x y z
#
# Youngs Moduli (GPa) = 98.47993 73.70020 47.45227
#
# Poissons Ratio (x) = 0.19386 0.20274
# Poissons Ratio (y) = 0.25904 0.27769
# Poissons Ratio (z) = 0.42076 0.43130
#
# Static dielectric constant tensor:
#      x y z
#    x 1.665480 0.000000 0.002610 
#    y 0.000000 1.641330 0.000000 
#    z 0.002610 0.000000 1.636570 
# 
# From -- ./inp_files/22057.got.cif
#   From: 2010.05.17/outbox.cif.g08.bks.cpg/sg13_12_cif.got.tgz:22057.got - 2010.06.03 16:44:36.
