data_PCOD9229531
_publ_section_title
;
Structure prediction by ZEFSAII (Michael W. Deem and Ramdas Pophale) SiO2 
 PCOD9229531
Probable space group: P 2/C
;
_chemical_formula_sum "Si O2"
_cell_formula_units_Z 22
_cell_length_a 5.914788
_cell_length_b 4.738079
_cell_length_c 28.628651
_cell_angle_alpha 90.000000
_cell_angle_beta 78.346367
_cell_angle_gamma 90.000000
_cell_volume 785.771950
_symmetry_space_group_name_H-M "P 2/C"
_symmetry_group_IT_number 13
_symmetry_cell_setting 'monoclinic'
loop_
_space_group_symop_operation_xyz
x,y,z
-x,y,1/2-z
-x,-y,-z
x,-y,1/2+z
loop_
_atom_site_type_symbol
_atom_site_label
_atom_site_fract_x
_atom_site_fract_y
_atom_site_fract_z
Si Si1 0.000000 0.860251 0.250000
Si Si2 0.137826 0.867716 0.340844
Si Si3 0.294711 0.271333 0.116757
Si Si4 0.430586 0.740327 0.705642
Si Si5 0.148502 0.305853 0.027099
Si Si6 0.272773 0.104413 0.931461
O O1 0.216471 0.059295 0.228007
O O2 0.070077 0.706631 0.295659
O O3 0.210687 0.718347 0.386741
O O4 0.353549 0.065122 0.317916
O O5 0.919785 0.068685 0.361534
O O6 0.360455 0.427352 0.162004
O O7 0.236684 0.435577 0.071773
O O8 0.515319 0.089432 0.092337
O O9 0.500000 0.579855 0.750000
O O10 0.334997 0.216256 0.980535
O O11 0.965200 0.065682 0.049521
O O12 0.000000 0.500000 0.000000
#
# Coordination Sequence:
#
# PCOD9229531 Si02
#       6
#     2   4   4   4   4   4
#     4   8  12  20  38  66  94 118 150 190 234 282
#     4   8  14  24  41  65  92 120 153 193 234 282
#     4   9  16  28  45  65  94 127 157 196 243 287
#     4   8  13  22  39  66  96 121 153 196 236 284
#     4  10  20  32  47  68  94 124 161 201 239 284
#     4   9  18  32  47  66  94 125 159 197 239 286
#
# _framework density 27.997948000000001
#
# number of rings (size 3 to 8) (size 9 to 14) (size 15 to 20)
#    0.000    3.273    0.000    0.545    0.000    0.727 
#    0.000    0.000    0.000    0.000    0.000   19.091 
#    0.000  226.909    0.000    0.000    0.000    0.000 
#
# Total GULP energy -122854.671389 kJ/mol
# GULP energy per Si atom -5584.303245 kJ/mol
# Density = 2.793422 g / cm^3
# Si number density = 27.997948 Si / 1000 Ang^3
#
#
#
# Elastic Constant Matrix: (Units=GPa)
#
#
# Indices 1 2 3 4 5 6 
#
# 1 131.3505 34.5919 100.1073 0.0000 -23.7640 0.0000
# 2 34.5919 40.4441 35.2117 0.0000 -9.8012 0.0000
# 3 100.1073 35.2117 291.5093 0.0000 62.5571 0.0000
# 4 0.0000 0.0000 0.0000 -8.8383 0.0000 -48.4986
# 5 -23.7640 -9.8012 62.5571 0.0000 95.4882 0.0000
# 6 0.0000 0.0000 0.0000 -48.4986 0.0000 45.2859
#
#
#
# Elastic Compliance Matrix: (Units=1/GPa)
#
#
# Indices 1 2 3 4 5 6 
#
# 1 0.014951 -0.005944 -0.005916 0.000000 0.006986 0.000000
# 2 -0.005944 0.033114 -0.002758 0.000000 0.003727 0.000000
# 3 -0.005916 -0.002758 0.007181 0.000000 -0.006460 0.000000
# 4 0.000000 0.000000 0.000000 -0.016453 0.000000 -0.017621
# 5 0.006986 0.003727 -0.006460 0.000000 0.016826 0.000000
# 6 0.000000 0.000000 0.000000 -0.017621 0.000000 0.003211
#
#
# Mechanical properties :
#
#
# Convention : Reuss Voigt Hill
#
# Bulk Modulus (GPa) = 38.44632 89.23620 63.84126
# Shear Modulus (GPa) = 51.68658 45.94669 48.81663
#
# Velocity S-wave (km/s) = 4.30127 4.05541 4.18015
# Velocity P-wave (km/s) = 6.19916 7.33962 6.79337
#
# Compressibility (1/GPa) = 0.02601029
#
# Stress axis : x y z
#
# Youngs Moduli (GPa) = 66.88458 30.19842 139.24955
#
# Poissons Ratio (x) = 0.17951 0.82374
# Poissons Ratio (y) = 0.39759 0.38408
# Poissons Ratio (z) = 0.39566 0.08329
#
# Static dielectric constant tensor:
#      x y z
#    x 2.064900 0.000000 0.361200 
#    y 0.000000 10.601920 0.000000 
#    z 0.361200 0.000000 1.764560 
# 
# From -- ./inp_files/94579.got.cif
#   From: 2010.05.17/outbox.cif.g08.bks.cpg/sg13_48_cif.got.tgz:94579.got - 2010.06.03 16:44:36.
