data_PCOD9229628
_publ_section_title
;
Structure prediction by ZEFSAII (Michael W. Deem and Ramdas Pophale) SiO2 
 PCOD9229628
Probable space group: P 2/C
;
_chemical_formula_sum "Si O2"
_cell_formula_units_Z 26
_cell_length_a 24.840247
_cell_length_b 10.455681
_cell_length_c 5.243950
_cell_angle_alpha 90.000000
_cell_angle_beta 67.539910
_cell_angle_gamma 90.000000
_cell_volume 1258.656735
_symmetry_space_group_name_H-M "P 2/C"
_symmetry_group_IT_number 13
_symmetry_cell_setting 'monoclinic'
loop_
_space_group_symop_operation_xyz
x,y,z
-x,y,1/2-z
-x,-y,-z
x,-y,1/2+z
loop_
_atom_site_type_symbol
_atom_site_label
_atom_site_fract_x
_atom_site_fract_y
_atom_site_fract_z
Si Si1 0.744627 0.967929 0.460116
Si Si2 0.750612 0.682759 0.342218
Si Si3 0.166125 0.797843 0.706105
Si Si4 0.624633 0.583895 0.456537
Si Si5 0.064437 0.084441 0.093005
Si Si6 0.500000 0.410260 0.250000
Si Si7 0.148257 0.427074 0.581005
O O1 0.757885 0.820114 0.465221
O O2 0.710921 0.980154 0.259576
O O3 0.800253 0.064941 0.318838
O O4 0.684088 0.657213 0.404331
O O5 0.782372 0.582326 0.470556
O O6 0.787184 0.705533 0.016784
O O7 0.116063 0.825098 0.589758
O O8 0.138422 0.716133 0.987127
O O9 0.625310 0.530256 0.166814
O O10 0.563258 0.655836 0.619960
O O11 0.000000 0.140907 0.250000
O O12 0.068397 0.970353 0.299597
O O13 0.500000 0.500000 0.500000
O O14 0.126881 0.480368 0.892138
#
# Coordination Sequence:
#
# PCOD9229628 Si02
#       7
#     4   4   4   4   4   2   4
#     4  10  20  33  51  78 108 143 180 219 286 336
#     4  11  22  35  55  86 115 153 185 239 288 351
#     4  11  23  38  60  83 120 153 184 241 292 350
#     4  10  21  33  54  78 116 151 194 240 289 337
#     4  10  22  39  63  93 119 148 192 245 297 344
#     4   8  16  34  50  74 104 152 194 238 286 332
#     4  12  24  37  52  81 117 152 191 225 283 343
#
# _framework density 20.656942999999998
#
# number of rings (size 3 to 8) (size 9 to 14) (size 15 to 20)
#    0.000    1.538    3.077    2.769    4.308    0.000 
#    0.000    0.000    0.000    0.923    0.000    4.308 
#    0.000    0.000    0.000    0.000    0.000    0.000 
#
# Total GULP energy -144737.586806 kJ/mol
# GULP energy per Si atom -5566.830262 kJ/mol
# Density = 2.060993 g / cm^3
# Si number density = 20.656943 Si / 1000 Ang^3
#
#
#
# Elastic Constant Matrix: (Units=GPa)
#
#
# Indices 1 2 3 4 5 6 
#
# 1 74.8302 10.2103 2.4386 0.0000 -9.4547 0.0000
# 2 10.2103 67.9703 7.0292 0.0000 -7.3295 0.0000
# 3 2.4386 7.0292 72.6212 0.0000 16.8824 0.0000
# 4 0.0000 0.0000 0.0000 29.0323 0.0000 8.6271
# 5 -9.4547 -7.3295 16.8824 0.0000 31.8606 0.0000
# 6 0.0000 0.0000 0.0000 8.6271 0.0000 23.8769
#
#
#
# Elastic Compliance Matrix: (Units=1/GPa)
#
#
# Indices 1 2 3 4 5 6 
#
# 1 0.014196 -0.001490 -0.001405 0.000000 0.004615 0.000000
# 2 -0.001490 0.015681 -0.002513 0.000000 0.004497 0.000000
# 3 -0.001405 -0.002513 0.016300 0.000000 -0.009632 0.000000
# 4 0.000000 0.000000 0.000000 0.038587 0.000000 -0.013942
# 5 0.004615 0.004497 -0.009632 0.000000 0.038895 0.000000
# 6 0.000000 0.000000 0.000000 -0.013942 0.000000 0.046919
#
#
# Mechanical properties :
#
#
# Convention : Reuss Voigt Hill
#
# Bulk Modulus (GPa) = 28.28030 28.30867 28.29449
# Shear Modulus (GPa) = 25.88260 30.00353 27.94307
#
# Velocity S-wave (km/s) = 3.54358 3.81526 3.68192
# Velocity P-wave (km/s) = 5.51931 5.75693 5.63937
#
# Compressibility (1/GPa) = 0.03536030
#
# Stress axis : x y z
#
# Youngs Moduli (GPa) = 70.44397 63.77189 61.35067
#
# Poissons Ratio (x) = 0.09499 0.08621
# Poissons Ratio (y) = 0.10493 0.15419
# Poissons Ratio (z) = 0.09899 0.16027
#
# Static dielectric constant tensor:
#      x y z
#    x 1.773000 0.000000 0.044190 
#    y 0.000000 1.831260 0.000000 
#    z 0.044190 0.000000 1.862500 
# 
# From -- ./inp_files/7406.got.cif
#   From: 2010.05.17/outbox.cif.g08.bks.cpg/sg13_4_cif.got.tgz:7406.got - 2010.06.03 16:44:36.
