data_PCOD9229873
_publ_section_title
;
Structure prediction by ZEFSAII (Michael W. Deem and Ramdas Pophale) SiO2 
 PCOD9229873
Probable space group: P 2/C
;
_chemical_formula_sum "Si O2"
_cell_formula_units_Z 20
_cell_length_a 10.373231
_cell_length_b 5.029214
_cell_length_c 16.095375
_cell_angle_alpha 90.000000
_cell_angle_beta 57.342574
_cell_angle_gamma 90.000000
_cell_volume 706.939020
_symmetry_space_group_name_H-M "P 2/C"
_symmetry_group_IT_number 13
_symmetry_cell_setting 'monoclinic'
loop_
_space_group_symop_operation_xyz
x,y,z
-x,y,1/2-z
-x,-y,-z
x,-y,1/2+z
loop_
_atom_site_type_symbol
_atom_site_label
_atom_site_fract_x
_atom_site_fract_y
_atom_site_fract_z
Si Si1 0.365936 0.854306 0.156741
Si Si2 0.773209 0.627126 0.553458
Si Si3 0.714512 0.139352 0.476481
Si Si4 0.000000 0.994660 0.250000
Si Si5 0.500000 0.213618 0.250000
Si Si6 0.113093 0.504187 0.310426
O O1 0.393319 0.024865 0.230246
O O2 0.531569 0.828513 0.056213
O O3 0.278460 0.587392 0.212124
O O4 0.262333 0.010764 0.123110
O O5 0.779235 0.426925 0.474327
O O6 0.601733 0.615158 0.652644
O O7 0.870444 0.528653 0.597017
O O8 0.778539 0.929828 0.520992
O O9 0.055089 0.228413 0.296254
O O10 0.017197 0.758187 0.315850
#
# Coordination Sequence:
#
# PCOD9229873 Si02
#       6
#     4   4   4   2   2   4
#     4  10  21  38  61  90 128 159 192 240 299 364
#     4  11  21  37  59  86 124 158 194 242 299 358
#     4  10  23  36  57  95 129 158 187 228 303 389
#     4  10  24  38  62  90 108 148 222 272 296 330
#     4  10  20  34  60  96 124 164 204 230 288 380
#     4  11  21  40  64  85 115 158 208 260 299 343
#
# _framework density 28.290984999999999
#
# number of rings (size 3 to 8) (size 9 to 14) (size 15 to 20)
#    0.000    1.600    0.000    6.000    0.000   12.800 
#    0.000    0.000    0.000   24.000    0.000    0.000 
#    0.000    0.000    0.000    0.000    0.000    0.000 
#
# Total GULP energy -111995.155216 kJ/mol
# GULP energy per Si atom -5599.757761 kJ/mol
# Density = 2.822659 g / cm^3
# Si number density = 28.290985 Si / 1000 Ang^3
#
#
#
# Elastic Constant Matrix: (Units=GPa)
#
#
# Indices 1 2 3 4 5 6 
#
# 1 95.2257 84.2464 23.6081 0.0000 35.9854 0.0000
# 2 84.2464 263.4577 63.1399 0.0000 20.5572 0.0000
# 3 23.6081 63.1399 85.0557 0.0000 12.8949 0.0000
# 4 0.0000 0.0000 0.0000 50.0564 0.0000 7.2617
# 5 35.9854 20.5572 12.8949 0.0000 69.8166 0.0000
# 6 0.0000 0.0000 0.0000 7.2617 0.0000 62.1010
#
#
#
# Elastic Compliance Matrix: (Units=1/GPa)
#
#
# Indices 1 2 3 4 5 6 
#
# 1 0.017984 -0.005147 0.000005 0.000000 -0.007755 0.000000
# 2 -0.005147 0.006128 -0.003343 0.000000 0.001466 0.000000
# 3 0.000005 -0.003343 0.014494 0.000000 -0.001695 0.000000
# 4 0.000000 0.000000 0.000000 0.020322 0.000000 -0.002376
# 5 -0.007755 0.001466 -0.001695 0.000000 0.018202 0.000000
# 6 0.000000 0.000000 0.000000 -0.002376 0.000000 0.016381
#
#
# Mechanical properties :
#
#
# Convention : Reuss Voigt Hill
#
# Bulk Modulus (GPa) = 46.21801 87.30310 66.76055
# Shear Modulus (GPa) = 42.48311 54.57778 48.53045
#
# Velocity S-wave (km/s) = 3.87931 4.39698 4.14624
# Velocity P-wave (km/s) = 6.03635 7.53020 6.82428
#
# Compressibility (1/GPa) = 0.02163659
#
# Stress axis : x y z
#
# Youngs Moduli (GPa) = 55.60430 163.17787 68.99285
#
# Poissons Ratio (x) = 0.83985 -0.00032
# Poissons Ratio (y) = 0.28619 0.23064
# Poissons Ratio (z) = -0.00026 0.54549
#
# Static dielectric constant tensor:
#      x y z
#    x 0.290100 0.000000 0.797710 
#    y 0.000000 1.995800 0.000000 
#    z 0.797710 0.000000 1.726670 
# 
# From -- ./inp_files/64901.got.cif
#   From: 2010.05.17/outbox.cif.g08.bks.cpg/sg13_33_cif.got.tgz:64901.got - 2010.06.03 16:44:36.
