data_PCOD9229913
_publ_section_title
;
Structure prediction by ZEFSAII (Michael W. Deem and Ramdas Pophale) SiO2 
 PCOD9229913
Probable space group: P 2/C
;
_chemical_formula_sum "Si O2"
_cell_formula_units_Z 28
_cell_length_a 11.449183
_cell_length_b 11.430427
_cell_length_c 21.482316
_cell_angle_alpha 90.000000
_cell_angle_beta 143.808788
_cell_angle_gamma 90.000000
_cell_volume 1660.063245
_symmetry_space_group_name_H-M "P 2/C"
_symmetry_group_IT_number 13
_symmetry_cell_setting 'monoclinic'
loop_
_space_group_symop_operation_xyz
x,y,z
-x,y,1/2-z
-x,-y,-z
x,-y,1/2+z
loop_
_atom_site_type_symbol
_atom_site_label
_atom_site_fract_x
_atom_site_fract_y
_atom_site_fract_z
Si Si1 0.771806 0.425089 0.656894
Si Si2 0.920081 0.243841 0.943879
Si Si3 0.386769 0.068944 0.634599
Si Si4 0.675614 0.757240 0.219044
Si Si5 0.370722 0.565160 0.141487
Si Si6 0.554565 0.600877 0.933732
Si Si7 0.376702 0.203966 0.132985
O O1 0.750122 0.311684 0.691505
O O2 0.645164 0.531470 0.632649
O O3 0.680153 0.392159 0.550697
O O4 0.000000 0.458035 0.750000
O O5 0.812406 0.145126 0.940465
O O6 0.850797 0.218598 0.843192
O O7 0.823613 0.368943 0.919225
O O8 0.153284 0.245589 0.049635
O O9 0.500000 0.077923 0.750000
O O10 0.537410 0.129815 0.651093
O O11 0.358033 0.933419 0.608420
O O12 0.523028 0.668078 0.187402
O O13 0.500000 0.499664 0.250000
O O14 0.335519 0.484898 0.067478
O O15 0.533578 0.719938 0.885261
O O16 0.500000 0.213323 0.250000
#
# Coordination Sequence:
#
# PCOD9229913 Si02
#       7
#     4   4   4   4   4   4   4
#     4  10  20  35  53  67  86 123 166 201 229 263
#     4   9  16  29  51  73  94 123 157 188 223 272
#     4   8  16  31  50  72  96 120 149 191 236 276
#     4   8  15  31  53  71  87 114 161 206 228 255
#     4   8  15  29  49  72  94 119 153 194 232 268
#     4  10  21  33  46  70  99 124 154 192 235 278
#     4  11  21  30  44  71 105 130 146 176 233 295
#
# _framework density 16.866828000000002
#
# number of rings (size 3 to 8) (size 9 to 14) (size 15 to 20)
#    0.000    2.857    0.000    3.429    0.000    1.714 
#    0.000    0.714    0.000    0.857    0.000    0.000 
#    0.000    0.000    0.000    0.000    0.000    0.000 
#
# Total GULP energy -155936.239787 kJ/mol
# GULP energy per Si atom -5569.151421 kJ/mol
# Density = 1.682844 g / cm^3
# Si number density = 16.866828 Si / 1000 Ang^3
#
#
#
# Elastic Constant Matrix: (Units=GPa)
#
#
# Indices 1 2 3 4 5 6 
#
# 1 87.8341 46.5860 56.7955 0.0000 -1.7640 0.0000
# 2 46.5860 80.3967 32.4625 0.0000 -3.0741 0.0000
# 3 56.7955 32.4625 100.4697 0.0000 9.3676 0.0000
# 4 0.0000 0.0000 0.0000 14.9061 0.0000 -4.9186
# 5 -1.7640 -3.0741 9.3676 0.0000 24.1889 0.0000
# 6 0.0000 0.0000 0.0000 -4.9186 0.0000 14.0350
#
#
#
# Elastic Compliance Matrix: (Units=1/GPa)
#
#
# Indices 1 2 3 4 5 6 
#
# 1 0.023043 -0.008901 -0.010584 0.000000 0.004648 0.000000
# 2 -0.008901 0.018077 -0.000999 0.000000 0.002035 0.000000
# 3 -0.010584 -0.000999 0.016955 0.000000 -0.007465 0.000000
# 4 0.000000 0.000000 0.000000 0.075859 0.000000 0.026585
# 5 0.004648 0.002035 -0.007465 0.000000 0.044830 0.000000
# 6 0.000000 0.000000 0.000000 0.026585 0.000000 0.080567
#
#
# Mechanical properties :
#
#
# Convention : Reuss Voigt Hill
#
# Bulk Modulus (GPa) = 58.45196 60.04317 59.24756
# Shear Modulus (GPa) = 16.33983 19.48311 17.91147
#
# Velocity S-wave (km/s) = 3.11586 3.40238 3.26227
# Velocity P-wave (km/s) = 6.90471 7.14917 7.02800
#
# Compressibility (1/GPa) = 0.01710807
#
# Stress axis : x y z
#
# Youngs Moduli (GPa) = 43.39687 55.31817 58.98008
#
# Poissons Ratio (x) = 0.49240 0.62422
# Poissons Ratio (y) = 0.38629 0.05891
# Poissons Ratio (z) = 0.45929 0.05525
#
# Static dielectric constant tensor:
#      x y z
#    x 1.572070 0.000000 -0.006560 
#    y 0.000000 1.605550 0.000000 
#    z -0.006560 0.000000 1.594030 
# 
# From -- ./inp_files/86527.got.cif
#   From: 2010.05.17/outbox.cif.g08.bks.cpg/sg13_44_cif.got.tgz:86527.got - 2010.06.03 16:44:36.
