data_PCOD9229129
_publ_section_title
;
Structure prediction by ZEFSAII (Michael W. Deem and Ramdas Pophale) SiO2 
 PCOD9229129
Probable space group: P 2/C
;
_chemical_formula_sum "Si O2"
_cell_formula_units_Z 24
_cell_length_a 9.189434
_cell_length_b 13.237685
_cell_length_c 9.005302
_cell_angle_alpha 90.000000
_cell_angle_beta 86.331635
_cell_angle_gamma 90.000000
_cell_volume 1093.221960
_symmetry_space_group_name_H-M "P 2/C"
_symmetry_group_IT_number 13
_symmetry_cell_setting 'monoclinic'
loop_
_space_group_symop_operation_xyz
x,y,z
-x,y,1/2-z
-x,-y,-z
x,-y,1/2+z
loop_
_atom_site_type_symbol
_atom_site_label
_atom_site_fract_x
_atom_site_fract_y
_atom_site_fract_z
Si Si1 0.858002 0.378480 0.566049
Si Si2 0.369214 0.077428 0.477181
Si Si3 0.198588 0.574040 0.098674
Si Si4 0.147302 0.208915 0.148100
Si Si5 0.381213 0.706718 0.861858
Si Si6 0.168427 0.012729 0.725139
O O1 0.798031 0.456596 0.447130
O O2 0.786378 0.405073 0.727919
O O3 0.839144 0.266224 0.507330
O O4 0.032259 0.394024 0.569763
O O5 0.433920 0.186139 0.427436
O O6 0.260209 0.030159 0.359564
O O7 0.500000 0.000000 0.500000
O O8 0.268588 0.090101 0.629128
O O9 0.309813 0.636848 0.990715
O O10 0.263721 0.253951 0.252373
O O11 0.157245 0.089570 0.127332
O O12 0.000000 0.228407 0.250000
O O13 0.500000 0.654202 0.750000
O O14 0.000000 0.046893 0.750000
#
# Coordination Sequence:
#
# PCOD9229129 Si02
#       6
#     4   4   4   4   4   4
#     4  10  20  37  64  94 125 162 213 256 321 381
#     4  11  22  41  63  89 125 177 222 263 336 408
#     4  10  21  37  62  95 126 164 209 264 312 383
#     4  10  19  37  63  90 125 169 214 262 324 376
#     4  11  23  41  61  90 127 167 215 266 320 387
#     4  10  22  38  61  92 127 166 219 284 332 378
#
# _framework density 21.953457
#
# number of rings (size 3 to 8) (size 9 to 14) (size 15 to 20)
#    0.000    1.667    1.667    4.000    2.333    1.333 
#    3.000    5.833    0.000    0.000    0.000    0.000 
#    0.000    0.000    0.000    0.000    0.000    0.000 
#
# Total GULP energy -134069.829461 kJ/mol
# GULP energy per Si atom -5586.242894 kJ/mol
# Density = 2.190349 g / cm^3
# Si number density = 21.953457 Si / 1000 Ang^3
#
#
#
# Elastic Constant Matrix: (Units=GPa)
#
#
# Indices 1 2 3 4 5 6 
#
# 1 71.3453 25.5163 17.9743 0.0000 -18.6583 0.0000
# 2 25.5163 43.5171 41.1880 0.0000 -13.2911 0.0000
# 3 17.9743 41.1880 114.3657 0.0000 -28.9631 0.0000
# 4 0.0000 0.0000 0.0000 48.7902 0.0000 5.6737
# 5 -18.6583 -13.2911 -28.9631 0.0000 35.7237 0.0000
# 6 0.0000 0.0000 0.0000 5.6737 0.0000 31.7615
#
#
#
# Elastic Compliance Matrix: (Units=1/GPa)
#
#
# Indices 1 2 3 4 5 6 
#
# 1 0.019773 -0.012271 0.003487 0.000000 0.008589 0.000000
# 2 -0.012271 0.042832 -0.013948 0.000000 -0.001782 0.000000
# 3 0.003487 -0.013948 0.015561 0.000000 0.009248 0.000000
# 4 0.000000 0.000000 0.000000 0.020931 0.000000 -0.003739
# 5 0.008589 -0.001782 0.009248 0.000000 0.039313 0.000000
# 6 0.000000 0.000000 0.000000 -0.003739 0.000000 0.032153
#
#
# Mechanical properties :
#
#
# Convention : Reuss Voigt Hill
#
# Bulk Modulus (GPa) = 30.57977 44.28727 37.43352
# Shear Modulus (GPa) = 22.03346 32.89171 27.46258
#
# Velocity S-wave (km/s) = 3.17147 3.87492 3.54071
# Velocity P-wave (km/s) = 5.23169 6.34327 5.81410
#
# Compressibility (1/GPa) = 0.03270136
#
# Stress axis : x y z
#
# Youngs Moduli (GPa) = 50.57521 23.34700 64.26166
#
# Poissons Ratio (x) = 0.28648 -0.22406
# Poissons Ratio (y) = 0.62059 0.89635
# Poissons Ratio (z) = -0.17634 0.32565
#
# Static dielectric constant tensor:
#      x y z
#    x 1.732320 0.000000 0.044990 
#    y 0.000000 1.819390 0.000000 
#    z 0.044990 0.000000 1.787740 
# 
# From -- ./inp_files/12432.got.cif
#   From: 2010.05.17/outbox.cif.g08.bks.cpg/sg13_7_cif.got.tgz:12432.got - 2010.06.03 16:44:36.
