data_PCOD9229348
_publ_section_title
;
Structure prediction by ZEFSAII (Michael W. Deem and Ramdas Pophale) SiO2 
 PCOD9229348
Probable space group: P 2/C
;
_chemical_formula_sum "Si O2"
_cell_formula_units_Z 26
_cell_length_a 9.299641
_cell_length_b 6.425039
_cell_length_c 16.260048
_cell_angle_alpha 90.000000
_cell_angle_beta 91.133291
_cell_angle_gamma 90.000000
_cell_volume 971.356865
_symmetry_space_group_name_H-M "P 2/C"
_symmetry_group_IT_number 13
_symmetry_cell_setting 'monoclinic'
loop_
_space_group_symop_operation_xyz
x,y,z
-x,y,1/2-z
-x,-y,-z
x,-y,1/2+z
loop_
_atom_site_type_symbol
_atom_site_label
_atom_site_fract_x
_atom_site_fract_y
_atom_site_fract_z
Si Si1 0.166309 0.641709 0.185717
Si Si2 0.081449 0.624119 0.555589
Si Si3 0.702742 0.845761 0.165810
Si Si4 0.500000 0.176328 0.250000
Si Si5 0.582517 0.778517 0.431315
Si Si6 0.018593 0.112916 0.926643
Si Si7 0.598180 0.731868 0.926555
O O1 0.092232 0.427206 0.154981
O O2 0.222913 0.670278 0.277481
O O3 0.299720 0.682719 0.126091
O O4 0.066172 0.836626 0.159816
O O5 0.042489 0.881981 0.546466
O O6 0.253788 0.634719 0.536987
O O7 0.008074 0.367550 0.540700
O O8 0.568129 0.756070 0.116074
O O9 0.819375 0.924992 0.102145
O O10 0.630284 0.027223 0.220066
O O11 0.440584 0.298178 0.170009
O O12 0.546970 0.697766 0.521890
O O13 0.620121 0.020485 0.436239
#
# Coordination Sequence:
#
# PCOD9229348 Si02
#       7
#     4   4   4   2   4   4   4
#     4  11  22  39  61  94 134 172 215 269 341 412
#     4  10  23  42  62  90 134 175 221 270 337 413
#     4  11  20  40  65  97 126 171 221 276 337 398
#     4  10  22  36  68 100 132 154 226 292 336 378
#     4  10  20  37  71  93 125 172 224 278 328 396
#     4  11  24  40  69  90 125 179 234 277 332 405
#     4  10  19  39  63  96 130 165 225 279 329 388
#
# _framework density 26.766683
#
# number of rings (size 3 to 8) (size 9 to 14) (size 15 to 20)
#    0.000    1.538    4.615    1.385    4.308    0.615 
#    2.769    0.000   10.154    0.000    0.000    0.000 
#    0.000    0.000    0.000    0.000    0.000    0.000 
#
# Total GULP energy -144939.181864 kJ/mol
# GULP energy per Si atom -5574.583918 kJ/mol
# Density = 2.670576 g / cm^3
# Si number density = 26.766683 Si / 1000 Ang^3
#
#
#
# Elastic Constant Matrix: (Units=GPa)
#
#
# Indices 1 2 3 4 5 6 
#
# 1 163.0359 44.2855 69.5004 0.0000 -9.0085 0.0000
# 2 44.2855 131.5940 32.5754 0.0000 -7.1812 0.0000
# 3 69.5004 32.5754 145.9464 0.0000 -5.7857 0.0000
# 4 0.0000 0.0000 0.0000 23.4865 0.0000 15.3401
# 5 -9.0085 -7.1812 -5.7857 0.0000 64.7462 0.0000
# 6 0.0000 0.0000 0.0000 15.3401 0.0000 31.6724
#
#
#
# Elastic Compliance Matrix: (Units=1/GPa)
#
#
# Indices 1 2 3 4 5 6 
#
# 1 0.008136 -0.001854 -0.003436 0.000000 0.000619 0.000000
# 2 -0.001854 0.008501 -0.000991 0.000000 0.000596 0.000000
# 3 -0.003436 -0.000991 0.008717 0.000000 0.000191 0.000000
# 4 0.000000 0.000000 0.000000 0.062279 0.000000 -0.030164
# 5 0.000619 0.000596 0.000191 0.000000 0.015614 0.000000
# 6 0.000000 0.000000 0.000000 -0.030164 0.000000 0.046183
#
#
# Mechanical properties :
#
#
# Convention : Reuss Voigt Hill
#
# Bulk Modulus (GPa) = 78.17293 81.47765 79.82529
# Shear Modulus (GPa) = 30.07409 43.59535 36.83472
#
# Velocity S-wave (km/s) = 3.35560 4.04011 3.71366
# Velocity P-wave (km/s) = 6.65448 7.22976 6.94808
#
# Compressibility (1/GPa) = 0.01279215
#
# Stress axis : x y z
#
# Youngs Moduli (GPa) = 122.90803 117.63573 114.71928
#
# Poissons Ratio (x) = 0.21806 0.39420
# Poissons Ratio (y) = 0.22783 0.11369
# Poissons Ratio (z) = 0.42234 0.11658
#
# Static dielectric constant tensor:
#      x y z
#    x 2.048800 0.000000 0.022050 
#    y 0.000000 2.271430 0.000000 
#    z 0.022050 0.000000 2.213190 
# 
# From -- ./inp_files/63753.got.cif
#   From: 2010.05.17/outbox.cif.g08.bks.cpg/sg13_32_cif.got.tgz:63753.got - 2010.06.03 16:44:36.
