data_PCOD9229475
_publ_section_title
;
Structure prediction by ZEFSAII (Michael W. Deem and Ramdas Pophale) SiO2 
 PCOD9229475
Probable space group: P 2/C
;
_chemical_formula_sum "Si O2"
_cell_formula_units_Z 28
_cell_length_a 8.274570
_cell_length_b 5.328179
_cell_length_c 27.239386
_cell_angle_alpha 90.000000
_cell_angle_beta 111.599972
_cell_angle_gamma 90.000000
_cell_volume 1116.606618
_symmetry_space_group_name_H-M "P 2/C"
_symmetry_group_IT_number 13
_symmetry_cell_setting 'monoclinic'
loop_
_space_group_symop_operation_xyz
x,y,z
-x,y,1/2-z
-x,-y,-z
x,-y,1/2+z
loop_
_atom_site_type_symbol
_atom_site_label
_atom_site_fract_x
_atom_site_fract_y
_atom_site_fract_z
Si Si1 0.478199 0.142496 0.112107
Si Si2 0.630824 0.168743 0.719249
Si Si3 0.000000 0.500000 0.500000
Si Si4 0.000000 0.090616 0.250000
Si Si5 0.923167 0.202908 0.610166
Si Si6 0.352016 0.689475 0.501560
Si Si7 0.893207 0.280299 0.400333
Si Si8 0.778698 0.530657 0.673182
O O1 0.544305 0.936573 0.158834
O O2 0.416737 0.106347 0.049103
O O3 0.312926 0.265052 0.120828
O O4 0.637820 0.334354 0.124135
O O5 0.500000 0.138143 0.750000
O O6 0.823451 0.049058 0.747433
O O7 0.678919 0.456023 0.711777
O O8 0.209502 0.513376 0.512527
O O9 0.024068 0.752426 0.536599
O O10 0.068338 0.280726 0.298862
O O11 0.757961 0.193231 0.555612
O O12 0.857643 0.288694 0.655769
O O13 0.040662 0.436996 0.603764
O O14 0.030328 0.949989 0.621007
O O15 0.500000 0.500000 0.500000
#
# Coordination Sequence:
#
# PCOD9229475 Si02
#       8
#     4   4   2   2   4   4   4   4
#     4  10  24  44  70 106 146 190 254 303 376 459
#     4  11  27  48  73 106 142 193 254 317 387 450
#     4   8  20  38  62  94 144 190 252 282 356 424
#     4  10  26  50  74 100 146 190 250 318 384 466
#     4  11  25  43  74 109 152 199 252 300 388 446
#     4  10  19  42  67 102 148 196 238 305 366 443
#     4  10  24  43  68 105 149 200 249 308 361 444
#     4  11  25  46  73 107 145 189 255 311 386 464
#
# _framework density 25.075977999999999
#
# number of rings (size 3 to 8) (size 9 to 14) (size 15 to 20)
#    0.000    1.714    1.429    0.429    8.000    8.571 
#    5.143    3.571    0.000    0.000    0.000    0.000 
#    0.000    0.000    0.000    0.000    0.000    0.000 
#
# Total GULP energy -155963.030398 kJ/mol
# GULP energy per Si atom -5570.108229 kJ/mol
# Density = 2.501890 g / cm^3
# Si number density = 25.075978 Si / 1000 Ang^3
#
#
#
# Elastic Constant Matrix: (Units=GPa)
#
#
# Indices 1 2 3 4 5 6 
#
# 1 150.0337 24.8255 45.4049 0.0000 13.8300 0.0000
# 2 24.8255 59.3452 25.7280 0.0000 4.0763 0.0000
# 3 45.4049 25.7280 75.4167 0.0000 5.5206 0.0000
# 4 0.0000 0.0000 0.0000 16.1908 0.0000 -12.7101
# 5 13.8300 4.0763 5.5206 0.0000 34.8034 0.0000
# 6 0.0000 0.0000 0.0000 -12.7101 0.0000 28.0248
#
#
#
# Elastic Compliance Matrix: (Units=1/GPa)
#
#
# Indices 1 2 3 4 5 6 
#
# 1 0.008475 -0.001456 -0.004423 0.000000 -0.002495 0.000000
# 2 -0.001456 0.020080 -0.005912 0.000000 -0.000835 0.000000
# 3 -0.004423 -0.005912 0.017969 0.000000 -0.000400 0.000000
# 4 0.000000 0.000000 0.000000 0.095911 0.000000 0.043498
# 5 -0.002495 -0.000835 -0.000400 0.000000 0.029886 0.000000
# 6 0.000000 0.000000 0.000000 0.043498 0.000000 0.055411
#
#
# Mechanical properties :
#
#
# Convention : Reuss Voigt Hill
#
# Bulk Modulus (GPa) = 43.59041 52.96803 48.27922
# Shear Modulus (GPa) = 19.30798 28.39295 23.85047
#
# Velocity S-wave (km/s) = 2.77786 3.36858 3.08738
# Velocity P-wave (km/s) = 5.26400 6.02484 5.65723
#
# Compressibility (1/GPa) = 0.02294083
#
# Stress axis : x y z
#
# Youngs Moduli (GPa) = 117.99942 49.79991 55.65258
#
# Poissons Ratio (x) = 0.07253 0.24613
# Poissons Ratio (y) = 0.17185 0.32904
# Poissons Ratio (z) = 0.52187 0.29443
#
# Static dielectric constant tensor:
#      x y z
#    x 1.983480 0.000000 -0.105670 
#    y 0.000000 2.011760 0.000000 
#    z -0.105670 0.000000 2.168980 
# 
# From -- ./inp_files/95533.got.cif
#   From: 2010.05.17/outbox.cif.g08.bks.cpg/sg13_48_cif.got.tgz:95533.got - 2010.06.03 16:44:36.
