data_PCOD9229452
_publ_section_title
;
Structure prediction by ZEFSAII (Michael W. Deem and Ramdas Pophale) SiO2 
 PCOD9229452
Probable space group: P 2/C
;
_chemical_formula_sum "Si O2"
_cell_formula_units_Z 32
_cell_length_a 14.050471
_cell_length_b 9.139753
_cell_length_c 22.377600
_cell_angle_alpha 90.000000
_cell_angle_beta 144.651286
_cell_angle_gamma 90.000000
_cell_volume 1662.573030
_symmetry_space_group_name_H-M "P 2/C"
_symmetry_group_IT_number 13
_symmetry_cell_setting 'monoclinic'
loop_
_space_group_symop_operation_xyz
x,y,z
-x,y,1/2-z
-x,-y,-z
x,-y,1/2+z
loop_
_atom_site_type_symbol
_atom_site_label
_atom_site_fract_x
_atom_site_fract_y
_atom_site_fract_z
Si Si1 0.922326 0.131255 0.387435
Si Si2 0.673958 0.744477 0.215292
Si Si3 0.017193 0.797364 0.449238
Si Si4 0.450561 0.017868 0.292429
Si Si5 0.562202 0.547868 0.596882
Si Si6 0.309413 0.950012 0.392442
Si Si7 0.695165 0.215429 0.491147
Si Si8 0.876303 0.246815 0.238277
O O1 0.728579 0.088737 0.287911
O O2 0.960075 0.213485 0.345181
O O3 0.959106 0.217655 0.467458
O O4 0.012475 0.974126 0.436380
O O5 0.846414 0.732314 0.338187
O O6 0.599131 0.591962 0.156702
O O7 0.699291 0.842623 0.168678
O O8 0.560018 0.846642 0.198026
O O9 0.162917 0.740764 0.482081
O O10 0.500000 0.042371 0.250000
O O11 0.581561 0.095053 0.401241
O O12 0.500000 0.500000 0.500000
O O13 0.422491 0.650567 0.552926
O O14 0.728795 0.640456 0.673812
O O15 0.246037 0.861325 0.417591
O O16 0.500000 0.000000 0.500000
O O17 0.204041 0.094259 0.325315
O O18 0.000000 0.297828 0.250000
#
# Coordination Sequence:
#
# PCOD9229452 Si02
#       8
#     4   4   4   4   4   4   4   4
#     4  10  19  41  63  97 130 156 206 274 331 370
#     4  11  23  42  59  90 140 167 209 263 326 380
#     4  10  22  37  66  96 124 164 209 271 325 383
#     4  11  20  39  70  98 124 168 216 269 321 379
#     4  12  25  44  61  90 136 181 210 263 320 385
#     4  12  19  38  63  92 122 159 213 272 318 364
#     4  12  22  37  69  97 123 167 224 266 318 385
#     4  12  24  41  66  95 127 168 214 268 324 381
#
# _framework density 19.247274999999998
#
# number of rings (size 3 to 8) (size 9 to 14) (size 15 to 20)
#    0.000    0.750    8.750    0.750    0.000    1.000 
#    0.000    2.500    0.000    0.000    0.000    0.000 
#    0.000    0.000    0.000    0.000    0.000    0.000 
#
# Total GULP energy -178888.845616 kJ/mol
# GULP energy per Si atom -5590.276426 kJ/mol
# Density = 1.920347 g / cm^3
# Si number density = 19.247275 Si / 1000 Ang^3
#
#
#
# Elastic Constant Matrix: (Units=GPa)
#
#
# Indices 1 2 3 4 5 6 
#
# 1 99.9699 7.7910 22.9528 0.0000 -17.4433 0.0000
# 2 7.7910 51.0602 18.1971 0.0000 4.4919 0.0000
# 3 22.9528 18.1971 79.9516 0.0000 -22.8874 0.0000
# 4 0.0000 0.0000 0.0000 21.8421 0.0000 -4.7747
# 5 -17.4433 4.4919 -22.8874 0.0000 30.6047 0.0000
# 6 0.0000 0.0000 0.0000 -4.7747 0.0000 10.0936
#
#
#
# Elastic Compliance Matrix: (Units=1/GPa)
#
#
# Indices 1 2 3 4 5 6 
#
# 1 0.011449 -0.001851 -0.001170 0.000000 0.005922 0.000000
# 2 -0.001851 0.023552 -0.007788 0.000000 -0.010336 0.000000
# 3 -0.001170 -0.007788 0.018771 0.000000 0.014514 0.000000
# 4 0.000000 0.000000 0.000000 0.051064 0.000000 0.024155
# 5 0.005922 -0.010336 0.014514 0.000000 0.048421 0.000000
# 6 0.000000 0.000000 0.000000 0.024155 0.000000 0.110499
#
#
# Mechanical properties :
#
#
# Convention : Reuss Voigt Hill
#
# Bulk Modulus (GPa) = 31.10055 36.54040 33.82047
# Shear Modulus (GPa) = 16.88667 24.64412 20.76540
#
# Velocity S-wave (km/s) = 2.96523 3.58214 3.28819
# Velocity P-wave (km/s) = 5.28365 6.01123 5.65915
#
# Compressibility (1/GPa) = 0.03215377
#
# Stress axis : x y z
#
# Youngs Moduli (GPa) = 87.34179 42.45948 53.27421
#
# Poissons Ratio (x) = 0.07859 0.06235
# Poissons Ratio (y) = 0.16166 0.41489
# Poissons Ratio (z) = 0.10222 0.33067
#
# Static dielectric constant tensor:
#      x y z
#    x 1.643690 0.000000 0.012390 
#    y 0.000000 1.651840 0.000000 
#    z 0.012390 0.000000 1.671370 
# 
# From -- ./inp_files/87433.got.cif
#   From: 2010.05.17/outbox.cif.g08.bks.cpg/sg13_44_cif.got.tgz:87433.got - 2010.06.03 16:44:36.
