data_PCOD9229023
_publ_section_title
;
Structure prediction by ZEFSAII (Michael W. Deem and Ramdas Pophale) SiO2 
 PCOD9229023
Probable space group: P 2/C
;
_chemical_formula_sum "Si O2"
_cell_formula_units_Z 28
_cell_length_a 6.657508
_cell_length_b 7.513631
_cell_length_c 31.522641
_cell_angle_alpha 90.000000
_cell_angle_beta 58.476484
_cell_angle_gamma 90.000000
_cell_volume 1344.128103
_symmetry_space_group_name_H-M "P 2/C"
_symmetry_group_IT_number 13
_symmetry_cell_setting 'monoclinic'
loop_
_space_group_symop_operation_xyz
x,y,z
-x,y,1/2-z
-x,-y,-z
x,-y,1/2+z
loop_
_atom_site_type_symbol
_atom_site_label
_atom_site_fract_x
_atom_site_fract_y
_atom_site_fract_z
Si Si1 0.882902 0.191546 0.302247
Si Si2 0.381148 0.074410 0.381748
Si Si3 0.406844 0.985260 0.557683
Si Si4 0.638105 0.829285 0.196443
Si Si5 0.998582 0.700339 0.620014
Si Si6 0.745208 0.420700 0.795690
Si Si7 0.864956 0.310269 0.871363
O O1 0.038735 0.248413 0.325645
O O2 0.768772 0.366923 0.293357
O O3 0.000000 0.092148 0.250000
O O4 0.661560 0.090418 0.344782
O O5 0.377898 0.035730 0.432166
O O6 0.324824 0.929856 0.352172
O O7 0.221861 0.240694 0.384437
O O8 0.263383 0.163481 0.586329
O O9 0.500000 0.000000 0.500000
O O10 0.224022 0.819071 0.581241
O O11 0.500000 0.929062 0.250000
O O12 0.466719 0.662418 0.206892
O O13 0.902223 0.770840 0.176309
O O14 0.058181 0.491230 0.613225
O O15 0.707770 0.367864 0.848759
O O16 0.000000 0.360723 0.750000
#
# Coordination Sequence:
#
# PCOD9229023 Si02
#       7
#     4   4   4   4   4   4   4
#     4   9  21  35  57  86 126 171 207 245 301 369
#     4  11  23  40  60  91 130 161 213 267 309 379
#     4  11  25  46  69  90 118 163 216 272 331 376
#     4  12  23  33  61  94 128 172 207 244 307 379
#     4  10  23  42  63  92 126 162 208 262 317 373
#     4  10  19  37  56  85 125 169 210 249 298 370
#     4  11  22  42  64  89 131 165 208 261 314 380
#
# _framework density 20.831347999999998
#
# number of rings (size 3 to 8) (size 9 to 14) (size 15 to 20)
#    0.000    1.429    4.286    0.857    2.000    1.714 
#    0.000    0.714    0.000    0.000    0.000    0.000 
#    0.000    0.000    0.000    0.000    0.000    0.000 
#
# Total GULP energy -156191.292865 kJ/mol
# GULP energy per Si atom -5578.260459 kJ/mol
# Density = 2.078393 g / cm^3
# Si number density = 20.831348 Si / 1000 Ang^3
#
#
#
# Elastic Constant Matrix: (Units=GPa)
#
#
# Indices 1 2 3 4 5 6 
#
# 1 82.7046 8.9696 25.1010 0.0000 22.1195 0.0000
# 2 8.9696 70.1476 27.7065 0.0000 9.8342 0.0000
# 3 25.1010 27.7065 115.9981 0.0000 20.1132 0.0000
# 4 0.0000 0.0000 0.0000 18.1023 0.0000 -1.4380
# 5 22.1195 9.8342 20.1132 0.0000 29.3246 0.0000
# 6 0.0000 0.0000 0.0000 -1.4380 0.0000 30.7343
#
#
#
# Elastic Compliance Matrix: (Units=1/GPa)
#
#
# Indices 1 2 3 4 5 6 
#
# 1 0.015372 0.000119 -0.001518 0.000000 -0.010594 0.000000
# 2 0.000119 0.015988 -0.003291 0.000000 -0.003195 0.000000
# 3 -0.001518 -0.003291 0.010607 0.000000 -0.005026 0.000000
# 4 0.000000 0.000000 0.000000 0.055448 0.000000 0.002594
# 5 -0.010594 -0.003195 -0.005026 0.000000 0.046611 0.000000
# 6 0.000000 0.000000 0.000000 0.002594 0.000000 0.032658
#
#
# Mechanical properties :
#
#
# Convention : Reuss Voigt Hill
#
# Bulk Modulus (GPa) = 30.68580 43.60050 37.14315
# Shear Modulus (GPa) = 25.39023 29.43712 27.41368
#
# Velocity S-wave (km/s) = 3.49499 3.76322 3.63158
# Velocity P-wave (km/s) = 5.57218 6.31333 5.95430
#
# Compressibility (1/GPa) = 0.03258836
#
# Stress axis : x y z
#
# Youngs Moduli (GPa) = 65.05144 62.54690 94.27881
#
# Poissons Ratio (x) = -0.00745 0.14311
# Poissons Ratio (y) = -0.00775 0.31024
# Poissons Ratio (z) = 0.09875 0.20582
#
# Static dielectric constant tensor:
#      x y z
#    x 1.835960 0.000000 0.070530 
#    y 0.000000 1.797870 0.000000 
#    z 0.070530 0.000000 1.859940 
# 
# From -- ./inp_files/94967.got.cif
#   From: 2010.05.17/outbox.cif.g08.bks.cpg/sg13_48_cif.got.tgz:94967.got - 2010.06.03 16:44:36.
