data_PCOD9229717
_publ_section_title
;
Structure prediction by ZEFSAII (Michael W. Deem and Ramdas Pophale) SiO2 
 PCOD9229717
Probable space group: P 2/C
;
_chemical_formula_sum "Si O2"
_cell_formula_units_Z 28
_cell_length_a 24.543924
_cell_length_b 12.675161
_cell_length_c 24.398230
_cell_angle_alpha 90.000000
_cell_angle_beta 168.358569
_cell_angle_gamma 90.000000
_cell_volume 1531.606776
_symmetry_space_group_name_H-M "P 2/C"
_symmetry_group_IT_number 13
_symmetry_cell_setting 'monoclinic'
loop_
_space_group_symop_operation_xyz
x,y,z
-x,y,1/2-z
-x,-y,-z
x,-y,1/2+z
loop_
_atom_site_type_symbol
_atom_site_label
_atom_site_fract_x
_atom_site_fract_y
_atom_site_fract_z
Si Si1 0.629238 0.432243 0.176292
Si Si2 0.454423 0.012700 0.582432
Si Si3 0.802961 0.642924 0.398459
Si Si4 0.844767 0.702891 0.320273
Si Si5 0.500000 0.963275 0.250000
Si Si6 0.306297 0.258205 0.449095
Si Si7 0.987853 0.936693 0.045357
Si Si8 0.000000 0.815716 0.750000
O O1 0.727603 0.520144 0.316726
O O2 0.905891 0.377377 0.431738
O O3 0.500000 0.500000 0.000000
O O4 0.395145 0.343782 0.954684
O O5 0.236308 0.958402 0.329637
O O6 0.441511 0.981354 0.634176
O O7 0.377062 0.137192 0.503351
O O8 0.733700 0.979413 0.829371
O O9 0.732318 0.703295 0.271699
O O10 0.107911 0.676867 0.713236
O O11 0.593696 0.686370 0.236648
O O12 0.978446 0.813419 0.435646
O O13 0.760186 0.891194 0.492294
O O14 0.140333 0.251138 0.341413
O O15 0.000000 0.000000 0.000000
#
# Coordination Sequence:
#
# PCOD9229717 Si02
#       8
#     4   4   4   4   2   4   4   2
#     4  10  20  35  54  76 103 139 184 223 260 313
#     4  11  22  37  55  81 112 151 189 225 270 328
#     4  11  20  33  54  79 103 142 179 216 266 328
#     4  11  21  36  52  77 113 143 178 226 265 325
#     4  10  20  38  58  76 106 148 200 240 258 306
#     4  11  20  33  53  79 110 138 175 221 271 329
#     4  12  24  36  54  84 119 152 178 217 286 350
#     4  10  20  34  52  80 110 140 172 228 286 324
#
# _framework density 18.281455000000001
#
# number of rings (size 3 to 8) (size 9 to 14) (size 15 to 20)
#    0.000    1.143    0.000   11.571    0.000    0.000 
#    0.000    0.000    0.000    0.000    0.000   20.000 
#    0.000    0.000    0.000    0.000    0.000    0.000 
#
# Total GULP energy -156105.430405 kJ/mol
# GULP energy per Si atom -5575.193943 kJ/mol
# Density = 1.823985 g / cm^3
# Si number density = 18.281455 Si / 1000 Ang^3
#
#
#
# Elastic Constant Matrix: (Units=GPa)
#
#
# Indices 1 2 3 4 5 6 
#
# 1 108.1914 35.6635 40.9082 0.0000 9.1975 0.0000
# 2 35.6635 87.1434 26.9281 0.0000 9.1727 0.0000
# 3 40.9082 26.9281 141.1819 0.0000 11.8072 0.0000
# 4 0.0000 0.0000 0.0000 43.0382 0.0000 4.1331
# 5 9.1975 9.1727 11.8072 0.0000 37.6970 0.0000
# 6 0.0000 0.0000 0.0000 4.1331 0.0000 17.7933
#
#
#
# Elastic Compliance Matrix: (Units=1/GPa)
#
#
# Indices 1 2 3 4 5 6 
#
# 1 0.011554 -0.003833 -0.002525 0.000000 -0.001095 0.000000
# 2 -0.003833 0.013663 -0.001330 0.000000 -0.001973 0.000000
# 3 -0.002525 -0.001330 0.008205 0.000000 -0.001630 0.000000
# 4 0.000000 0.000000 0.000000 0.023765 0.000000 -0.005520
# 5 -0.001095 -0.001973 -0.001630 0.000000 0.027785 0.000000
# 6 0.000000 0.000000 0.000000 -0.005520 0.000000 0.057483
#
#
# Mechanical properties :
#
#
# Convention : Reuss Voigt Hill
#
# Bulk Modulus (GPa) = 55.41781 60.39071 57.90426
# Shear Modulus (GPa) = 30.51618 35.24016 32.87817
#
# Velocity S-wave (km/s) = 4.09007 4.39526 4.24541
# Velocity P-wave (km/s) = 7.25840 7.67224 7.46819
#
# Compressibility (1/GPa) = 0.01804474
#
# Stress axis : x y z
#
# Youngs Moduli (GPa) = 86.54791 73.19193 121.87965
#
# Poissons Ratio (x) = 0.28054 0.30777
# Poissons Ratio (y) = 0.33174 0.16214
# Poissons Ratio (z) = 0.21855 0.09737
#
# Static dielectric constant tensor:
#      x y z
#    x 1.666490 0.000000 -0.026320 
#    y 0.000000 1.719290 0.000000 
#    z -0.026320 0.000000 1.652270 
# 
# From -- ./inp_files/94204.got.cif
#   From: 2010.05.17/outbox.cif.g08.bks.cpg/sg13_48_cif.got.tgz:94204.got - 2010.06.03 16:44:36.
