data_PCOD9229354
_publ_section_title
;
Structure prediction by ZEFSAII (Michael W. Deem and Ramdas Pophale) SiO2 
 PCOD9229354
Probable space group: P 2/C
;
_chemical_formula_sum "Si O2"
_cell_formula_units_Z 32
_cell_length_a 9.616186
_cell_length_b 11.508983
_cell_length_c 13.982284
_cell_angle_alpha 90.000000
_cell_angle_beta 88.857969
_cell_angle_gamma 90.000000
_cell_volume 1547.147236
_symmetry_space_group_name_H-M "P 2/C"
_symmetry_group_IT_number 13
_symmetry_cell_setting 'monoclinic'
loop_
_space_group_symop_operation_xyz
x,y,z
-x,y,1/2-z
-x,-y,-z
x,-y,1/2+z
loop_
_atom_site_type_symbol
_atom_site_label
_atom_site_fract_x
_atom_site_fract_y
_atom_site_fract_z
Si Si1 0.665822 0.374516 0.005774
Si Si2 0.641885 0.035526 0.719656
Si Si3 0.757303 0.058764 0.413523
Si Si4 0.973406 0.173373 0.139102
Si Si5 0.014600 0.362172 0.508904
Si Si6 0.556034 0.560030 0.142266
Si Si7 0.330700 0.129348 0.438503
Si Si8 0.754802 0.772561 0.088714
O O1 0.653456 0.457318 0.098528
O O2 0.602739 0.250735 0.035718
O O3 0.822408 0.346515 0.969842
O O4 0.579382 0.434101 0.923476
O O5 0.500000 0.101473 0.750000
O O6 0.748731 0.123482 0.666788
O O7 0.706631 0.961454 0.805554
O O8 0.587733 0.948492 0.637626
O O9 0.923805 0.076428 0.405554
O O10 0.718577 0.165514 0.486610
O O11 0.704976 0.944892 0.468354
O O12 0.000000 0.176689 0.250000
O O13 0.815707 0.150222 0.112944
O O14 0.009179 0.297425 0.091651
O O15 0.000000 0.500000 0.500000
O O16 0.902045 0.295665 0.576526
O O17 0.500000 0.544917 0.250000
O O18 0.642628 0.677549 0.123041
#
# Coordination Sequence:
#
# PCOD9229354 Si02
#       8
#     4   4   4   4   4   4   4   4
#     4  10  24  44  67  97 131 175 217 278 332 394
#     4  11  24  38  62  99 131 174 224 266 333 402
#     4  10  22  39  64  93 129 171 206 271 326 388
#     4  10  19  39  64  92 124 165 210 268 331 386
#     4  10  20  44  66  93 129 169 220 270 327 392
#     4  11  24  45  68  96 134 172 220 271 339 395
#     4  10  22  39  63  93 126 166 220 264 323 403
#     4  10  23  41  70  93 133 175 217 275 328 391
#
# _framework density 20.683228
#
# number of rings (size 3 to 8) (size 9 to 14) (size 15 to 20)
#    0.000    1.750    2.500    0.750    5.250    2.500 
#    6.750    0.625    2.750    0.000    0.000    0.000 
#    0.000    0.000    0.000    0.000    0.000    0.000 
#
# Total GULP energy -178422.988098 kJ/mol
# GULP energy per Si atom -5575.718378 kJ/mol
# Density = 2.063615 g / cm^3
# Si number density = 20.683228 Si / 1000 Ang^3
#
#
#
# Elastic Constant Matrix: (Units=GPa)
#
#
# Indices 1 2 3 4 5 6 
#
# 1 90.6842 15.4435 29.3854 0.0000 -15.3043 0.0000
# 2 15.4435 111.6928 33.9834 0.0000 -16.8510 0.0000
# 3 29.3854 33.9834 116.4108 0.0000 -18.1478 0.0000
# 4 0.0000 0.0000 0.0000 17.1553 0.0000 -1.0435
# 5 -15.3043 -16.8510 -18.1478 0.0000 18.5826 0.0000
# 6 0.0000 0.0000 0.0000 -1.0435 0.0000 12.4571
#
#
#
# Elastic Compliance Matrix: (Units=1/GPa)
#
#
# Indices 1 2 3 4 5 6 
#
# 1 0.013165 0.000141 -0.001951 0.000000 0.009065 0.000000
# 2 0.000141 0.010720 -0.001924 0.000000 0.007958 0.000000
# 3 -0.001951 -0.001924 0.010760 0.000000 0.007156 0.000000
# 4 0.000000 0.000000 0.000000 0.058590 0.000000 0.004908
# 5 0.009065 0.007958 0.007156 0.000000 0.075484 0.000000
# 6 0.000000 0.000000 0.000000 0.004908 0.000000 0.080687
#
#
# Mechanical properties :
#
#
# Convention : Reuss Voigt Hill
#
# Bulk Modulus (GPa) = 36.79735 52.93472 44.86604
# Shear Modulus (GPa) = 18.80165 25.63737 22.21951
#
# Velocity S-wave (km/s) = 3.01828 3.52451 3.28117
# Velocity P-wave (km/s) = 5.47506 6.49704 6.00782
#
# Compressibility (1/GPa) = 0.02717587
#
# Stress axis : x y z
#
# Youngs Moduli (GPa) = 75.95662 93.28623 92.93459
#
# Poissons Ratio (x) = -0.01315 0.18134
# Poissons Ratio (y) = -0.01071 0.17884
# Poissons Ratio (z) = 0.14821 0.17952
#
# Static dielectric constant tensor:
#      x y z
#    x 1.797460 0.000000 -0.046070 
#    y 0.000000 1.759010 0.000000 
#    z -0.046070 0.000000 1.741010 
# 
# From -- ./inp_files/47274.got.cif
#   From: 2010.05.17/outbox.cif.g08.bks.cpg/sg13_24_cif.got.tgz:47274.got - 2010.06.03 16:44:36.
