data_PCOD9229509
_publ_section_title
;
Structure prediction by ZEFSAII (Michael W. Deem and Ramdas Pophale) SiO2 
 PCOD9229509
Probable space group: P 2/C
;
_chemical_formula_sum "Si O2"
_cell_formula_units_Z 32
_cell_length_a 14.223320
_cell_length_b 11.793531
_cell_length_c 13.837350
_cell_angle_alpha 90.000000
_cell_angle_beta 34.465217
_cell_angle_gamma 90.000000
_cell_volume 1313.535829
_symmetry_space_group_name_H-M "P 2/C"
_symmetry_group_IT_number 13
_symmetry_cell_setting 'monoclinic'
loop_
_space_group_symop_operation_xyz
x,y,z
-x,y,1/2-z
-x,-y,-z
x,-y,1/2+z
loop_
_atom_site_type_symbol
_atom_site_label
_atom_site_fract_x
_atom_site_fract_y
_atom_site_fract_z
Si Si1 0.133885 0.111764 0.314944
Si Si2 0.656817 0.729271 0.269341
Si Si3 0.293810 0.310201 0.542622
Si Si4 0.540990 0.505035 0.352531
Si Si5 0.994077 0.337558 0.085783
Si Si6 0.107304 0.572092 0.029867
Si Si7 0.750158 0.040558 0.643734
Si Si8 0.197028 0.936978 0.096778
O O1 0.131038 0.238635 0.275813
O O2 0.938410 0.088271 0.503277
O O3 0.245101 0.085240 0.313861
O O4 0.195422 0.012865 0.193134
O O5 0.707454 0.698637 0.338015
O O6 0.519150 0.639224 0.351099
O O7 0.626783 0.863418 0.286897
O O8 0.816918 0.704839 0.065875
O O9 0.434956 0.402090 0.402049
O O10 0.155721 0.362731 0.586224
O O11 0.300215 0.178199 0.510543
O O12 0.500000 0.500000 0.500000
O O13 0.727372 0.477364 0.162097
O O14 0.961533 0.349712 0.998077
O O15 0.985878 0.462038 0.140284
O O16 0.739440 0.019074 0.540363
O O17 0.000000 0.907535 0.250000
#
# Coordination Sequence:
#
# PCOD9229509 Si02
#       8
#     4   4   4   4   4   4   4   4
#     4   9  16  30  51  80 121 157 192 237 308 375
#     4   9  18  34  58  84 122 161 197 249 312 370
#     4  11  20  32  58  92 116 159 214 252 293 374
#     4   9  20  38  58  79 112 160 203 250 310 361
#     4   9  19  34  56  83 124 157 189 252 321 364
#     4  10  20  34  57  86 117 155 206 254 305 368
#     4   9  16  29  52  83 118 161 192 245 306 361
#     4  10  20  30  54  92 124 156 207 250 310 375
#
# _framework density 24.361726000000001
#
# number of rings (size 3 to 8) (size 9 to 14) (size 15 to 20)
#    0.000    2.500    1.250    1.125    3.500    0.000 
#    0.000    0.000   71.500    0.750    6.500    5.250 
#    0.000    0.000    0.250    0.000    0.000    0.000 
#
# Total GULP energy -178207.089751 kJ/mol
# GULP energy per Si atom -5568.971555 kJ/mol
# Density = 2.430628 g / cm^3
# Si number density = 24.361726 Si / 1000 Ang^3
#
#
#
# Elastic Constant Matrix: (Units=GPa)
#
#
# Indices 1 2 3 4 5 6 
#
# 1 40.2490 26.3339 17.0051 0.0000 13.1068 0.0000
# 2 26.3339 178.6259 36.8278 0.0000 -6.6951 0.0000
# 3 17.0051 36.8278 50.1242 0.0000 9.0011 0.0000
# 4 0.0000 0.0000 0.0000 4.4254 0.0000 -11.4683
# 5 13.1068 -6.6951 9.0011 0.0000 22.3398 0.0000
# 6 0.0000 0.0000 0.0000 -11.4683 0.0000 18.8103
#
#
#
# Elastic Compliance Matrix: (Units=1/GPa)
#
#
# Indices 1 2 3 4 5 6 
#
# 1 0.037421 -0.005310 -0.004921 0.000000 -0.021564 0.000000
# 2 -0.005310 0.007746 -0.005245 0.000000 0.007550 0.000000
# 3 -0.004921 -0.005245 0.027206 0.000000 -0.009646 0.000000
# 4 0.000000 0.000000 0.000000 -0.389623 0.000000 -0.237546
# 5 -0.021564 0.007550 -0.009646 0.000000 0.063564 0.000000
# 6 0.000000 0.000000 0.000000 -0.237546 0.000000 -0.091665
#
#
# Mechanical properties :
#
#
# Convention : Reuss Voigt Hill
#
# Bulk Modulus (GPa) = 24.14357 47.70363 35.92360
# Shear Modulus (GPa) = -16.63389 21.70394 2.53502
#
# Velocity S-wave (km/s) = -2.61586 2.98804 1.02119
# Velocity P-wave (km/s) = 0.89909 5.61501 4.02099
#
# Compressibility (1/GPa) = 0.04141890
#
# Stress axis : x y z
#
# Youngs Moduli (GPa) = 26.72286 129.10590 36.75638
#
# Poissons Ratio (x) = 0.68560 0.18089
# Poissons Ratio (y) = 0.14191 0.19279
# Poissons Ratio (z) = 0.13151 0.67718
#
# Static dielectric constant tensor:
#      x y z
#    x 1.833130 0.000000 0.177140 
#    y 0.000000 1.853340 0.000000 
#    z 0.177140 0.000000 1.715800 
# 
# From -- ./inp_files/53686.got.cif
#   From: 2010.05.17/outbox.cif.g08.bks.cpg/sg13_27_cif.got.tgz:53686.got - 2010.06.03 16:44:36.
