data_PCOD9229396
_publ_section_title
;
Structure prediction by ZEFSAII (Michael W. Deem and Ramdas Pophale) SiO2 
 PCOD9229396
Probable space group: P 2/C
;
_chemical_formula_sum "Si O2"
_cell_formula_units_Z 28
_cell_length_a 28.653169
_cell_length_b 9.144832
_cell_length_c 23.003053
_cell_angle_alpha 90.000000
_cell_angle_beta 167.468862
_cell_angle_gamma 90.000000
_cell_volume 1307.777565
_symmetry_space_group_name_H-M "P 2/C"
_symmetry_group_IT_number 13
_symmetry_cell_setting 'monoclinic'
loop_
_space_group_symop_operation_xyz
x,y,z
-x,y,1/2-z
-x,-y,-z
x,-y,1/2+z
loop_
_atom_site_type_symbol
_atom_site_label
_atom_site_fract_x
_atom_site_fract_y
_atom_site_fract_z
Si Si1 0.492836 0.247458 0.564913
Si Si2 0.500000 0.964430 0.750000
Si Si3 0.907764 0.283005 0.006856
Si Si4 0.500000 0.529545 0.750000
Si Si5 0.239741 0.548600 0.832305
Si Si6 0.127025 0.966715 0.593832
Si Si7 0.189743 0.159239 0.445297
Si Si8 0.213503 0.256575 0.850456
O O1 0.662430 0.316565 0.725957
O O2 0.312208 0.363954 0.364497
O O3 0.363978 0.100049 0.391353
O O4 0.640009 0.207791 0.799442
O O5 0.313580 0.061714 0.549586
O O6 0.400696 0.864135 0.578374
O O7 0.888745 0.116854 0.960386
O O8 0.034416 0.381834 0.114665
O O9 0.060658 0.279710 0.250289
O O10 0.440475 0.437011 0.621829
O O11 0.291061 0.637011 0.497624
O O12 0.786769 0.626771 0.202211
O O13 0.000108 0.836193 0.406930
O O14 0.000000 0.000000 0.500000
O O15 0.000000 0.078521 0.250000
#
# Coordination Sequence:
#
# PCOD9229396 Si02
#       8
#     4   2   4   2   4   4   4   4
#     4  11  23  37  62  95 126 159 205 260 308 368
#     4  11  16  37  60  83 122 157 200 251 310 351
#     4  11  22  39  64  90 124 160 212 252 308 369
#     4   7  18  37  64  87 116 163 204 257 302 367
#     4  10  19  40  61  85 119 159 199 248 309 359
#     4  12  22  41  63  93 124 168 205 258 313 367
#     4  10  21  34  59  94 117 154 208 260 304 363
#     4   9  21  36  65  86 118 164 203 248 314 368
#
# _framework density 21.410368999999999
#
# number of rings (size 3 to 8) (size 9 to 14) (size 15 to 20)
#    0.857    0.857    2.857    3.000    0.000    0.571 
#    0.000    2.143    3.143    0.000    0.000    0.000 
#    0.000    0.000    0.000    0.000    0.000    0.000 
#
# Total GULP energy -155922.038935 kJ/mol
# GULP energy per Si atom -5568.644248 kJ/mol
# Density = 2.136164 g / cm^3
# Si number density = 21.410369 Si / 1000 Ang^3
#
#
#
# Elastic Constant Matrix: (Units=GPa)
#
#
# Indices 1 2 3 4 5 6 
#
# 1 55.1413 13.3052 36.6572 0.0000 20.8527 0.0000
# 2 13.3052 61.1526 23.4486 0.0000 21.8286 0.0000
# 3 36.6572 23.4486 117.3251 0.0000 8.3681 0.0000
# 4 0.0000 0.0000 0.0000 28.7064 0.0000 -14.1234
# 5 20.8527 21.8286 8.3681 0.0000 44.2552 0.0000
# 6 0.0000 0.0000 0.0000 -14.1234 0.0000 -1.3771
#
#
#
# Elastic Compliance Matrix: (Units=1/GPa)
#
#
# Indices 1 2 3 4 5 6 
#
# 1 0.027822 0.001440 -0.008104 0.000000 -0.012287 0.000000
# 2 0.001440 0.021279 -0.003959 0.000000 -0.010426 0.000000
# 3 -0.008104 -0.003959 0.011591 0.000000 0.003580 0.000000
# 4 0.000000 0.000000 0.000000 0.005762 0.000000 -0.059093
# 5 -0.012287 -0.010426 0.003580 0.000000 0.032851 0.000000
# 6 0.000000 0.000000 0.000000 -0.059093 0.000000 -0.120108
#
#
# Mechanical properties :
#
#
# Convention : Reuss Voigt Hill
#
# Bulk Modulus (GPa) = 25.35119 42.27122 33.81121
# Shear Modulus (GPa) = 367.85785 24.99742 196.42764
#
# Velocity S-wave (km/s) = 13.12196 3.42063 9.58871
# Velocity P-wave (km/s) = 15.53858 5.94871 11.76509
#
# Compressibility (1/GPa) = 0.03944587
#
# Stress axis : x y z
#
# Youngs Moduli (GPa) = 35.94272 46.99524 86.27094
#
# Poissons Ratio (x) = -0.06768 0.69916
# Poissons Ratio (y) = -0.05177 0.34156
# Poissons Ratio (z) = 0.29129 0.18606
#
# Static dielectric constant tensor:
#      x y z
#    x 1.817700 0.000000 -0.040190 
#    y 0.000000 1.798140 0.000000 
#    z -0.040190 0.000000 1.845760 
# 
# From -- ./inp_files/89709.got.cif
#   From: 2010.05.17/outbox.cif.g08.bks.cpg/sg13_45_cif.got.tgz:89709.got - 2010.06.03 16:44:36.
