data_PCOD9229160
_publ_section_title
;
Structure prediction by ZEFSAII (Michael W. Deem and Ramdas Pophale) SiO2 
 PCOD9229160
Probable space group: P 2/C
;
_chemical_formula_sum "Si O2"
_cell_formula_units_Z 28
_cell_length_a 6.004260
_cell_length_b 8.109480
_cell_length_c 30.021898
_cell_angle_alpha 90.000000
_cell_angle_beta 54.495016
_cell_angle_gamma 90.000000
_cell_volume 1190.007575
_symmetry_space_group_name_H-M "P 2/C"
_symmetry_group_IT_number 13
_symmetry_cell_setting 'monoclinic'
loop_
_space_group_symop_operation_xyz
x,y,z
-x,y,1/2-z
-x,-y,-z
x,-y,1/2+z
loop_
_atom_site_type_symbol
_atom_site_label
_atom_site_fract_x
_atom_site_fract_y
_atom_site_fract_z
Si Si1 0.427934 0.816499 0.993812
Si Si2 0.757421 0.225240 0.696201
Si Si3 0.237924 0.596123 0.946124
Si Si4 0.972080 0.111389 0.303409
Si Si5 0.611131 0.937784 0.122472
Si Si6 0.667709 0.320641 0.903858
Si Si7 0.023089 0.764850 0.894314
O O1 0.266344 0.773293 0.967631
O O2 0.724978 0.742184 0.949506
O O3 0.276944 0.725500 0.051511
O O4 0.500000 0.000000 0.000000
O O5 0.500000 0.308965 0.750000
O O6 0.641082 0.180319 0.661344
O O7 0.050049 0.312656 0.656103
O O8 0.836955 0.052218 0.712207
O O9 0.510633 0.490365 0.919193
O O10 0.193359 0.624633 0.899079
O O11 0.000000 0.500000 0.000000
O O12 0.000000 0.178463 0.250000
O O13 0.030050 0.223291 0.340090
O O14 0.659843 0.050354 0.343798
O O15 0.546655 0.819574 0.088472
O O16 0.866143 0.059146 0.100138
#
# Coordination Sequence:
#
# PCOD9229160 Si02
#       7
#     4   4   4   4   4   4   4
#     4  12  25  44  68 105 143 181 244 288 352 438
#     4  10  20  37  67 107 140 176 235 303 365 417
#     4  12  27  45  66 102 151 196 234 290 363 437
#     4  10  19  37  65 107 137 172 242 304 357 426
#     4  10  21  40  66 110 133 175 230 297 355 424
#     4  11  25  39  68 105 142 188 237 284 357 440
#     4  11  24  39  67 101 144 188 233 293 360 426
#
# _framework density 23.529261999999999
#
# number of rings (size 3 to 8) (size 9 to 14) (size 15 to 20)
#    0.000    1.143    2.857    4.714    4.000    1.143 
#    0.000    0.000    0.000    0.000   37.143    1.000 
#    0.000    0.000    0.000    0.000    0.000    0.000 
#
# Total GULP energy -156500.496337 kJ/mol
# GULP energy per Si atom -5589.303441 kJ/mol
# Density = 2.347571 g / cm^3
# Si number density = 23.529262 Si / 1000 Ang^3
#
#
#
# Elastic Constant Matrix: (Units=GPa)
#
#
# Indices 1 2 3 4 5 6 
#
# 1 101.5325 32.4945 53.0438 0.0000 12.3762 0.0000
# 2 32.4945 73.6848 43.3263 0.0000 4.9704 0.0000
# 3 53.0438 43.3263 120.4485 0.0000 4.3160 0.0000
# 4 0.0000 0.0000 0.0000 3.6634 0.0000 3.1555
# 5 12.3762 4.9704 4.3160 0.0000 55.2524 0.0000
# 6 0.0000 0.0000 0.0000 3.1555 0.0000 36.4276
#
#
#
# Elastic Compliance Matrix: (Units=1/GPa)
#
#
# Indices 1 2 3 4 5 6 
#
# 1 0.013630 -0.003005 -0.004835 0.000000 -0.002405 0.000000
# 2 -0.003005 0.017937 -0.005109 0.000000 -0.000541 0.000000
# 3 -0.004835 -0.005109 0.012249 0.000000 0.000586 0.000000
# 4 0.000000 0.000000 0.000000 0.294977 0.000000 -0.025552
# 5 -0.002405 -0.000541 0.000586 0.000000 0.018640 0.000000
# 6 0.000000 0.000000 0.000000 -0.025552 0.000000 0.029665
#
#
# Mechanical properties :
#
#
# Convention : Reuss Voigt Hill
#
# Bulk Modulus (GPa) = 55.81560 61.48832 58.65196
# Shear Modulus (GPa) = 11.93401 30.18876 21.06139
#
# Velocity S-wave (km/s) = 2.25455 3.58583 2.99509
# Velocity P-wave (km/s) = 5.52726 6.58283 6.07800
#
# Compressibility (1/GPa) = 0.01791614
#
# Stress axis : x y z
#
# Youngs Moduli (GPa) = 73.36648 55.74923 81.64236
#
# Poissons Ratio (x) = 0.16755 0.39476
# Poissons Ratio (y) = 0.22050 0.41713
# Poissons Ratio (z) = 0.35475 0.28484
#
# Static dielectric constant tensor:
#      x y z
#    x 1.935200 0.000000 -0.001370 
#    y 0.000000 1.939310 0.000000 
#    z -0.001370 0.000000 1.891840 
# 
# From -- ./inp_files/94975.got.cif
#   From: 2010.05.17/outbox.cif.g08.bks.cpg/sg13_48_cif.got.tgz:94975.got - 2010.06.03 16:44:36.
