data_PCOD9229527
_publ_section_title
;
Structure prediction by ZEFSAII (Michael W. Deem and Ramdas Pophale) SiO2 
 PCOD9229527
Probable space group: P 2/C
;
_chemical_formula_sum "Si O2"
_cell_formula_units_Z 22
_cell_length_a 24.341918
_cell_length_b 8.194633
_cell_length_c 12.116075
_cell_angle_alpha 90.000000
_cell_angle_beta 24.051479
_cell_angle_gamma 90.000000
_cell_volume 984.997007
_symmetry_space_group_name_H-M "P 2/C"
_symmetry_group_IT_number 13
_symmetry_cell_setting 'monoclinic'
loop_
_space_group_symop_operation_xyz
x,y,z
-x,y,1/2-z
-x,-y,-z
x,-y,1/2+z
loop_
_atom_site_type_symbol
_atom_site_label
_atom_site_fract_x
_atom_site_fract_y
_atom_site_fract_z
Si Si1 0.277570 0.472913 0.948584
Si Si2 0.935856 0.259449 0.590827
Si Si3 0.259192 0.333466 0.218981
Si Si4 0.000000 0.445246 0.250000
Si Si5 0.895929 0.048154 0.038574
Si Si6 0.453431 0.409198 0.450388
O O1 0.325519 0.357660 0.759195
O O2 0.411405 0.580941 0.727256
O O3 0.155963 0.602850 0.183276
O O4 0.267369 0.361952 0.074155
O O5 0.006871 0.342421 0.352496
O O6 0.028717 0.171218 0.512556
O O7 0.855153 0.111210 0.681537
O O8 0.224394 0.146260 0.298752
O O9 0.131166 0.441041 0.494084
O O10 0.390914 0.413784 0.029375
O O11 0.000000 0.006589 0.750000
O O12 0.500000 0.328886 0.250000
#
# Coordination Sequence:
#
# PCOD9229527 Si02
#       6
#     4   4   4   2   4   4
#     4   9  19  34  56  79 109 149 193 241 286 333
#     4  10  22  36  55  83 124 157 190 233 293 357
#     4  10  20  31  57  85 111 150 190 239 289 337
#     4  10  20  34  54  88 116 148 196 238 292 344
#     4  11  21  36  54  87 125 161 188 232 290 358
#     4   9  18  35  55  79 107 141 192 249 282 328
#
# _framework density 22.335092
#
# number of rings (size 3 to 8) (size 9 to 14) (size 15 to 20)
#    0.000    2.182    1.818    1.091    2.545    1.455 
#    0.000    0.000    0.000   26.182    0.000    0.000 
#    0.000    0.000    0.000    0.000    0.000    0.000 
#
# Total GULP energy -122480.828054 kJ/mol
# GULP energy per Si atom -5567.310366 kJ/mol
# Density = 2.228426 g / cm^3
# Si number density = 22.335092 Si / 1000 Ang^3
#
#
#
# Elastic Constant Matrix: (Units=GPa)
#
#
# Indices 1 2 3 4 5 6 
#
# 1 85.8920 16.9305 35.5719 0.0000 36.1292 0.0000
# 2 16.9305 55.9846 16.2477 0.0000 0.8047 0.0000
# 3 35.5719 16.2477 121.9900 0.0000 34.2889 0.0000
# 4 0.0000 0.0000 0.0000 10.2321 0.0000 5.1858
# 5 36.1292 0.8047 34.2889 0.0000 49.6413 0.0000
# 6 0.0000 0.0000 0.0000 5.1858 0.0000 27.4954
#
#
#
# Elastic Compliance Matrix: (Units=1/GPa)
#
#
# Indices 1 2 3 4 5 6 
#
# 1 0.018370 -0.005034 -0.001180 0.000000 -0.012473 0.000000
# 2 -0.005034 0.020082 -0.002662 0.000000 0.005177 0.000000
# 3 -0.001180 -0.002662 0.010725 0.000000 -0.006506 0.000000
# 4 0.000000 0.000000 0.000000 0.108061 0.000000 -0.020381
# 5 -0.012473 0.005177 -0.006506 0.000000 0.033632 0.000000
# 6 0.000000 0.000000 0.000000 -0.020381 0.000000 0.040214
#
#
# Mechanical properties :
#
#
# Convention : Reuss Voigt Hill
#
# Bulk Modulus (GPa) = 31.82137 44.59631 38.20884
# Shear Modulus (GPa) = 19.28186 30.48153 24.88170
#
# Velocity S-wave (km/s) = 2.94138 3.69824 3.34131
# Velocity P-wave (km/s) = 5.08073 6.18436 5.65951
#
# Compressibility (1/GPa) = 0.03142542
#
# Stress axis : x y z
#
# Youngs Moduli (GPa) = 54.43619 49.79470 93.24211
#
# Poissons Ratio (x) = 0.25064 0.11006
# Poissons Ratio (y) = 0.27401 0.24822
# Poissons Ratio (z) = 0.06425 0.13256
#
# Static dielectric constant tensor:
#      x y z
#    x 1.983560 0.000000 0.009120 
#    y 0.000000 1.806840 0.000000 
#    z 0.009120 0.000000 1.929850 
# 
# From -- ./inp_files/38694.got.cif
#   From: 2010.05.17/outbox.cif.g08.bks.cpg/sg13_20_cif.got.tgz:38694.got - 2010.06.03 16:44:36.
