data_PCOD9229654
_publ_section_title
;
Structure prediction by ZEFSAII (Michael W. Deem and Ramdas Pophale) SiO2 
 PCOD9229654
Probable space group: P 2/C
;
_chemical_formula_sum "Si O2"
_cell_formula_units_Z 30
_cell_length_a 5.400159
_cell_length_b 11.714888
_cell_length_c 27.277907
_cell_angle_alpha 90.000000
_cell_angle_beta 124.301817
_cell_angle_gamma 90.000000
_cell_volume 1425.535584
_symmetry_space_group_name_H-M "P 2/C"
_symmetry_group_IT_number 13
_symmetry_cell_setting 'monoclinic'
loop_
_space_group_symop_operation_xyz
x,y,z
-x,y,1/2-z
-x,-y,-z
x,-y,1/2+z
loop_
_atom_site_type_symbol
_atom_site_label
_atom_site_fract_x
_atom_site_fract_y
_atom_site_fract_z
Si Si1 0.943316 0.860906 0.547217
Si Si2 0.276656 0.694755 0.458486
Si Si3 0.261506 0.438169 0.561699
Si Si4 0.277797 0.077252 0.807904
Si Si5 0.837549 0.113671 0.925206
Si Si6 0.126152 0.136105 0.353810
Si Si7 0.500000 0.097106 0.250000
Si Si8 0.568873 0.322760 0.410389
O O1 0.793313 0.858875 0.477609
O O2 0.770936 0.872256 0.578410
O O3 0.128089 0.744050 0.569735
O O4 0.142102 0.975851 0.572194
O O5 0.501630 0.636756 0.444092
O O6 0.429929 0.677643 0.529354
O O7 0.951404 0.631943 0.425392
O O8 0.146400 0.825297 0.442284
O O9 0.432346 0.545543 0.604235
O O10 0.000000 0.500000 0.500000
O O11 0.554079 0.146627 0.860501
O O12 0.000000 0.138448 0.750000
O O13 0.162777 0.991019 0.836973
O O14 0.397873 0.986650 0.781821
O O15 0.321613 0.242259 0.357957
O O16 0.781598 0.164077 0.303368
#
# Coordination Sequence:
#
# PCOD9229654 Si02
#       8
#     4   4   4   4   4   4   2   4
#     4  10  21  34  53  90 124 157 185 251 325 373
#     4  10  23  36  57  87 123 165 203 250 308 371
#     4  10  21  39  57  83 121 165 210 250 297 374
#     4  10  21  38  56  84 116 164 205 248 303 376
#     4  10  20  39  53  88 130 154 204 248 317 381
#     4  11  20  33  58  86 119 154 200 249 313 375
#     4  10  20  38  54  78 126 150 214 244 298 376
#     4  10  20  33  55  83 117 155 201 246 313 361
#
# _framework density 21.044720999999999
#
# number of rings (size 3 to 8) (size 9 to 14) (size 15 to 20)
#    0.000    1.867    2.667    1.600    7.467    1.600 
#    0.000    0.000    0.000    0.000    3.467    0.000 
#    0.000    0.000    0.000    0.000    0.000    0.000 
#
# Total GULP energy -167087.754939 kJ/mol
# GULP energy per Si atom -5569.591831 kJ/mol
# Density = 2.099682 g / cm^3
# Si number density = 21.044721 Si / 1000 Ang^3
#
#
#
# Elastic Constant Matrix: (Units=GPa)
#
#
# Indices 1 2 3 4 5 6 
#
# 1 92.2531 29.0743 27.1539 0.0000 9.1582 0.0000
# 2 29.0743 78.3113 15.1408 0.0000 4.1357 0.0000
# 3 27.1539 15.1408 77.8773 0.0000 22.1427 0.0000
# 4 0.0000 0.0000 0.0000 375.6560 0.0000 225.7245
# 5 9.1582 4.1357 22.1427 0.0000 34.3270 0.0000
# 6 0.0000 0.0000 0.0000 225.7245 0.0000 155.2564
#
#
#
# Elastic Compliance Matrix: (Units=1/GPa)
#
#
# Indices 1 2 3 4 5 6 
#
# 1 0.013299 -0.004200 -0.003619 0.000000 -0.000707 0.000000
# 2 -0.004200 0.014595 -0.001459 0.000000 0.000304 0.000000
# 3 -0.003619 -0.001459 0.017220 0.000000 -0.009966 0.000000
# 4 0.000000 0.000000 0.000000 0.021062 0.000000 -0.030621
# 5 -0.000707 0.000304 -0.009966 0.000000 0.035713 0.000000
# 6 0.000000 0.000000 0.000000 -0.030621 0.000000 0.050961
#
#
# Mechanical properties :
#
#
# Convention : Reuss Voigt Hill
#
# Bulk Modulus (GPa) = 37.65578 43.46443 40.56010
# Shear Modulus (GPa) = 27.73776 124.85274 76.29525
#
# Velocity S-wave (km/s) = 3.63442 7.71078 6.02765
# Velocity P-wave (km/s) = 5.96188 9.99865 8.23156
#
# Compressibility (1/GPa) = 0.02655635
#
# Stress axis : x y z
#
# Youngs Moduli (GPa) = 75.19329 68.51608 58.07163
#
# Poissons Ratio (x) = 0.28779 0.21018
# Poissons Ratio (y) = 0.31584 0.08474
# Poissons Ratio (z) = 0.27215 0.09999
#
# Static dielectric constant tensor:
#      x y z
#    x 1.955000 0.000000 -0.059080 
#    y 0.000000 1.876350 0.000000 
#    z -0.059080 0.000000 1.886350 
# 
# From -- ./inp_files/95245.got.cif
#   From: 2010.05.17/outbox.cif.g08.bks.cpg/sg13_48_cif.got.tgz:95245.got - 2010.06.03 16:44:36.
