data_PCOD9229728
_publ_section_title
;
Structure prediction by ZEFSAII (Michael W. Deem and Ramdas Pophale) SiO2 
 PCOD9229728
Probable space group: P 2/C
;
_chemical_formula_sum "Si O2"
_cell_formula_units_Z 24
_cell_length_a 19.204981
_cell_length_b 8.129765
_cell_length_c 24.761156
_cell_angle_alpha 90.000000
_cell_angle_beta 18.765409
_cell_angle_gamma 90.000000
_cell_volume 1243.672157
_symmetry_space_group_name_H-M "P 2/C"
_symmetry_group_IT_number 13
_symmetry_cell_setting 'monoclinic'
loop_
_space_group_symop_operation_xyz
x,y,z
-x,y,1/2-z
-x,-y,-z
x,-y,1/2+z
loop_
_atom_site_type_symbol
_atom_site_label
_atom_site_fract_x
_atom_site_fract_y
_atom_site_fract_z
Si Si1 0.594725 0.857089 0.893477
Si Si2 0.852032 0.555652 0.736936
Si Si3 0.003884 0.055634 0.585111
Si Si4 0.139505 0.756051 0.200382
Si Si5 0.720082 0.256074 0.619801
Si Si6 0.141860 0.357076 0.869929
O O1 0.689004 0.707876 0.859864
O O2 0.393790 0.796085 0.005764
O O3 0.803710 0.939721 0.712885
O O4 0.500000 0.000000 0.000000
O O5 0.876647 0.433754 0.768822
O O6 0.762660 0.439670 0.753926
O O7 0.083760 0.633197 0.549083
O O8 0.947615 0.133242 0.685235
O O9 0.006507 0.207878 0.542388
O O10 0.205260 0.933742 0.440243
O O11 0.000000 0.787672 0.250000
O O12 0.500000 0.287732 0.750000
O O13 0.704482 0.296029 0.695086
O O14 0.000000 0.500000 0.000000
#
# Coordination Sequence:
#
# PCOD9229728 Si02
#       6
#     4   4   4   4   4   4
#     4   9  18  34  55  74 101 140 174 208 256 313
#     4   9  19  36  53  75 106 138 175 210 253 317
#     4   9  19  36  53  75 106 138 175 210 253 317
#     4  10  20  34  53  79 105 134 172 218 260 298
#     4  10  20  34  53  79 105 134 172 218 260 298
#     4   9  18  34  55  74 101 140 174 208 256 313
#
# _framework density 19.297689999999999
#
# number of rings (size 3 to 8) (size 9 to 14) (size 15 to 20)
#    0.000    2.667    0.000    1.000    0.000    2.667 
#    0.000   15.000    0.000    0.000    0.000    0.000 
#    0.000    0.000    0.000    0.000    0.000    0.000 
#
# Total GULP energy -133758.827151 kJ/mol
# GULP energy per Si atom -5573.284465 kJ/mol
# Density = 1.925377 g / cm^3
# Si number density = 19.297690 Si / 1000 Ang^3
#
#
#
# Elastic Constant Matrix: (Units=GPa)
#
#
# Indices 1 2 3 4 5 6 
#
# 1 130.4415 43.7012 42.4702 0.0000 -27.6982 0.0000
# 2 43.7012 119.4333 32.6373 0.0000 -9.7076 0.0000
# 3 42.4702 32.6373 69.2649 0.0000 -25.8780 0.0000
# 4 0.0000 0.0000 0.0000 22.6800 0.0000 -0.3068
# 5 -27.6982 -9.7076 -25.8780 0.0000 29.7606 0.0000
# 6 0.0000 0.0000 0.0000 -0.3068 0.0000 23.0162
#
#
#
# Elastic Compliance Matrix: (Units=1/GPa)
#
#
# Indices 1 2 3 4 5 6 
#
# 1 0.010949 -0.002654 -0.002931 0.000000 0.006775 0.000000
# 2 -0.002654 0.010282 -0.004277 0.000000 -0.002835 0.000000
# 3 -0.002931 -0.004277 0.024750 0.000000 0.017398 0.000000
# 4 0.000000 0.000000 0.000000 0.044100 0.000000 0.000588
# 5 0.006775 -0.002835 0.017398 0.000000 0.054110 0.000000
# 6 0.000000 0.000000 0.000000 0.000588 0.000000 0.043456
#
#
# Mechanical properties :
#
#
# Convention : Reuss Voigt Hill
#
# Bulk Modulus (GPa) = 38.08642 61.86188 49.97415
# Shear Modulus (GPa) = 23.13503 28.44677 25.79090
#
# Velocity S-wave (km/s) = 3.46620 3.84357 3.65975
# Velocity P-wave (km/s) = 5.98318 7.19886 6.61899
#
# Compressibility (1/GPa) = 0.02625608
#
# Stress axis : x y z
#
# Youngs Moduli (GPa) = 91.33593 97.25376 40.40468
#
# Poissons Ratio (x) = 0.25816 0.11843
# Poissons Ratio (y) = 0.24245 0.17280
# Poissons Ratio (z) = 0.26772 0.41592
#
# Static dielectric constant tensor:
#      x y z
#    x 1.677320 0.000000 0.035950 
#    y 0.000000 1.703300 0.000000 
#    z 0.035950 0.000000 1.718150 
# 
# From -- ./inp_files/87862.got.cif
#   From: 2010.05.17/outbox.cif.g08.bks.cpg/sg13_44_cif.got.tgz:87862.got - 2010.06.03 16:44:36.
