data_PCOD9229743
_publ_section_title
;
Structure prediction by ZEFSAII (Michael W. Deem and Ramdas Pophale) SiO2 
 PCOD9229743
Probable space group: P 2/C
;
_chemical_formula_sum "Si O2"
_cell_formula_units_Z 26
_cell_length_a 21.765778
_cell_length_b 8.830396
_cell_length_c 16.214008
_cell_angle_alpha 90.000000
_cell_angle_beta 26.560117
_cell_angle_gamma 90.000000
_cell_volume 1393.429328
_symmetry_space_group_name_H-M "P 2/C"
_symmetry_group_IT_number 13
_symmetry_cell_setting 'monoclinic'
loop_
_space_group_symop_operation_xyz
x,y,z
-x,y,1/2-z
-x,-y,-z
x,-y,1/2+z
loop_
_atom_site_type_symbol
_atom_site_label
_atom_site_fract_x
_atom_site_fract_y
_atom_site_fract_z
Si Si1 0.715114 0.570445 0.918269
Si Si2 0.613907 0.152281 0.450782
Si Si3 0.965130 0.755661 0.697650
Si Si4 0.789610 0.703159 0.226454
Si Si5 0.500000 0.653482 0.750000
Si Si6 0.491526 0.838358 0.594178
Si Si7 0.874326 0.021462 0.712207
O O1 0.609844 0.695846 0.008754
O O2 0.840018 0.651934 0.814950
O O3 0.774207 0.470086 0.771875
O O4 0.628936 0.453427 0.075917
O O5 0.613074 0.190135 0.354763
O O6 0.501225 0.019602 0.596243
O O7 0.750150 0.069451 0.319104
O O8 0.000000 0.725354 0.750000
O O9 0.098019 0.727740 0.479625
O O10 0.914811 0.930277 0.745201
O O11 0.639688 0.772502 0.384987
O O12 0.835513 0.802604 0.251901
O O13 0.468481 0.755745 0.708109
O O14 0.000000 0.000000 0.500000
#
# Coordination Sequence:
#
# PCOD9229743 Si02
#       7
#     4   4   4   4   2   4   4
#     4  10  21  35  53  78 108 143 176 219 277 328
#     4   9  18  34  56  77 102 144 186 216 266 332
#     4  10  20  34  54  79 104 135 182 228 265 316
#     4   9  18  35  54  73 106 143 173 216 273 329
#     4  10  22  36  52  80 114 138 172 228 280 326
#     4   9  19  36  55  78 106 142 181 221 268 324
#     4   8  16  34  53  72 102 139 178 217 264 324
#
# _framework density 18.659002000000001
#
# number of rings (size 3 to 8) (size 9 to 14) (size 15 to 20)
#    0.000    2.769    0.000    0.462    0.000    5.538 
#    0.000   23.846    0.000    0.000    0.000    0.000 
#    0.000    0.000    0.000    0.000    0.000    0.000 
#
# Total GULP energy -144757.423269 kJ/mol
# GULP energy per Si atom -5567.593203 kJ/mol
# Density = 1.861653 g / cm^3
# Si number density = 18.659002 Si / 1000 Ang^3
#
#
#
# Elastic Constant Matrix: (Units=GPa)
#
#
# Indices 1 2 3 4 5 6 
#
# 1 101.2443 46.1735 25.4930 0.0000 19.6386 0.0000
# 2 46.1735 99.8019 17.9094 0.0000 17.5135 0.0000
# 3 25.4930 17.9094 54.9004 0.0000 17.7223 0.0000
# 4 0.0000 0.0000 0.0000 6.4763 0.0000 8.0621
# 5 19.6386 17.5135 17.7223 0.0000 18.0435 0.0000
# 6 0.0000 0.0000 0.0000 8.0621 0.0000 18.3220
#
#
#
# Elastic Compliance Matrix: (Units=1/GPa)
#
#
# Indices 1 2 3 4 5 6 
#
# 1 0.014277 -0.004655 -0.002275 0.000000 -0.008787 0.000000
# 2 -0.004655 0.013597 0.000514 0.000000 -0.008635 0.000000
# 3 -0.002275 0.000514 0.027038 0.000000 -0.024579 0.000000
# 4 0.000000 0.000000 0.000000 0.341438 0.000000 -0.150240
# 5 -0.008787 -0.008635 -0.024579 0.000000 0.097508 0.000000
# 6 0.000000 0.000000 0.000000 -0.150240 0.000000 0.120688
#
#
# Mechanical properties :
#
#
# Convention : Reuss Voigt Hill
#
# Bulk Modulus (GPa) = 23.76450 48.34425 36.05438
# Shear Modulus (GPa) = 7.79538 19.65974 13.72756
#
# Velocity S-wave (km/s) = 2.04619 3.24949 2.71533
# Velocity P-wave (km/s) = 4.28327 6.32807 5.40328
#
# Compressibility (1/GPa) = 0.04207956
#
# Stress axis : x y z
#
# Youngs Moduli (GPa) = 70.04100 73.54695 36.98510
#
# Poissons Ratio (x) = 0.34239 0.08413
# Poissons Ratio (y) = 0.32606 -0.01900
# Poissons Ratio (z) = 0.15931 -0.03778
#
# Static dielectric constant tensor:
#      x y z
#    x 1.646560 0.000000 -0.013950 
#    y 0.000000 1.692100 0.000000 
#    z -0.013950 0.000000 1.648080 
# 
# From -- ./inp_files/49711.got.cif
#   From: 2010.05.17/outbox.cif.g08.bks.cpg/sg13_25_cif.got.tgz:49711.got - 2010.06.03 16:44:36.
