data_PCOD9229338
_publ_section_title
;
Structure prediction by ZEFSAII (Michael W. Deem and Ramdas Pophale) SiO2 
 PCOD9229338
Probable space group: P 2/C
;
_chemical_formula_sum "Si O2"
_cell_formula_units_Z 24
_cell_length_a 17.532978
_cell_length_b 7.329019
_cell_length_c 16.250610
_cell_angle_alpha 90.000000
_cell_angle_beta 145.668603
_cell_angle_gamma 90.000000
_cell_volume 1177.697809
_symmetry_space_group_name_H-M "P 2/C"
_symmetry_group_IT_number 13
_symmetry_cell_setting 'monoclinic'
loop_
_space_group_symop_operation_xyz
x,y,z
-x,y,1/2-z
-x,-y,-z
x,-y,1/2+z
loop_
_atom_site_type_symbol
_atom_site_label
_atom_site_fract_x
_atom_site_fract_y
_atom_site_fract_z
Si Si1 0.974160 0.043896 0.323465
Si Si2 0.517900 0.934841 0.922548
Si Si3 0.108701 0.446983 0.278013
Si Si4 0.248375 0.947290 0.137574
Si Si5 0.634109 0.737742 0.412105
Si Si6 0.764298 0.766940 0.200462
O O1 0.954941 0.260920 0.314080
O O2 0.000000 0.006343 0.250000
O O3 0.098818 0.978727 0.490198
O O4 0.840648 0.944407 0.233842
O O5 0.366559 0.903985 0.754941
O O6 0.578079 0.103423 0.923115
O O7 0.500000 0.000000 0.000000
O O8 0.622164 0.768909 0.024387
O O9 0.253841 0.389749 0.446386
O O10 0.143909 0.596696 0.241592
O O11 0.000000 0.512695 0.250000
O O12 0.284468 0.839979 0.087170
O O13 0.254406 0.808358 0.219940
O O14 0.500000 0.652487 0.250000
#
# Coordination Sequence:
#
# PCOD9229338 Si02
#       6
#     4   4   4   4   4   4
#     4  11  20  39  61  85 121 163 197 248 314 355
#     4   9  19  37  63  89 115 154 202 246 298 360
#     4  11  22  39  62  87 124 162 201 251 307 362
#     4  10  20  37  63  87 118 163 198 247 308 365
#     4  10  19  39  63  81 122 165 195 246 314 359
#     4  11  22  37  62  91 119 154 210 251 298 365
#
# _framework density 20.378744000000001
#
# number of rings (size 3 to 8) (size 9 to 14) (size 15 to 20)
#    0.000    1.667    5.000    1.000    0.000    0.667 
#    0.000   13.333    0.000    0.000    0.000    0.000 
#    0.000    0.000    0.000    0.000    0.000    0.000 
#
# Total GULP energy -133838.003149 kJ/mol
# GULP energy per Si atom -5576.583465 kJ/mol
# Density = 2.033236 g / cm^3
# Si number density = 20.378744 Si / 1000 Ang^3
#
#
#
# Elastic Constant Matrix: (Units=GPa)
#
#
# Indices 1 2 3 4 5 6 
#
# 1 107.6106 28.7111 2.5966 0.0000 -11.8330 0.0000
# 2 28.7111 25.1827 0.0099 0.0000 -7.9555 0.0000
# 3 2.5966 0.0099 130.3302 0.0000 16.7374 0.0000
# 4 0.0000 0.0000 0.0000 -1.3693 0.0000 -9.3474
# 5 -11.8330 -7.9555 16.7374 0.0000 30.3740 0.0000
# 6 0.0000 0.0000 0.0000 -9.3474 0.0000 7.9708
#
#
#
# Elastic Compliance Matrix: (Units=1/GPa)
#
#
# Indices 1 2 3 4 5 6 
#
# 1 0.013431 -0.014802 -0.000474 0.000000 0.001617 0.000000
# 2 -0.014802 0.059906 -0.001059 0.000000 0.010507 0.000000
# 3 -0.000474 -0.001059 0.008331 0.000000 -0.005053 0.000000
# 4 0.000000 0.000000 0.000000 -0.081098 0.000000 -0.095102
# 5 0.001617 0.010507 -0.005053 0.000000 0.039089 0.000000
# 6 0.000000 0.000000 0.000000 -0.095102 0.000000 0.013931
#
#
# Mechanical properties :
#
#
# Convention : Reuss Voigt Hill
#
# Bulk Modulus (GPa) = 20.40917 36.19544 28.30230
# Shear Modulus (GPa) = 48.73548 22.84884 35.79216
#
# Velocity S-wave (km/s) = 4.89559 3.35208 4.19543
# Velocity P-wave (km/s) = 6.48015 5.72554 6.11450
#
# Compressibility (1/GPa) = 0.04899758
#
# Stress axis : x y z
#
# Youngs Moduli (GPa) = 74.45284 16.69288 120.02985
#
# Poissons Ratio (x) = 0.24709 0.05691
# Poissons Ratio (y) = 1.10207 0.12711
# Poissons Ratio (z) = 0.03530 0.01768
#
# Static dielectric constant tensor:
#      x y z
#    x 1.716260 0.000000 0.028150 
#    y 0.000000 1.691710 0.000000 
#    z 0.028150 0.000000 1.817480 
# 
# From -- ./inp_files/53215.got.cif
#   From: 2010.05.17/outbox.cif.g08.bks.cpg/sg13_27_cif.got.tgz:53215.got - 2010.06.03 16:44:36.
