data_PCOD9229140
_publ_section_title
;
Structure prediction by ZEFSAII (Michael W. Deem and Ramdas Pophale) SiO2 
 PCOD9229140
Probable space group: P 2/C
;
_chemical_formula_sum "Si O2"
_cell_formula_units_Z 22
_cell_length_a 22.210599
_cell_length_b 8.356428
_cell_length_c 15.047759
_cell_angle_alpha 90.000000
_cell_angle_beta 158.246153
_cell_angle_gamma 90.000000
_cell_volume 1035.097812
_symmetry_space_group_name_H-M "P 2/C"
_symmetry_group_IT_number 13
_symmetry_cell_setting 'monoclinic'
loop_
_space_group_symop_operation_xyz
x,y,z
-x,y,1/2-z
-x,-y,-z
x,-y,1/2+z
loop_
_atom_site_type_symbol
_atom_site_label
_atom_site_fract_x
_atom_site_fract_y
_atom_site_fract_z
Si Si1 0.178169 0.690231 0.718518
Si Si2 0.567601 0.170293 0.062756
Si Si3 0.000000 0.637772 0.750000
Si Si4 0.862978 0.686449 0.382862
Si Si5 0.669953 0.386958 0.882172
Si Si6 0.499648 0.719026 0.847288
O O1 0.159073 0.508097 0.654467
O O2 0.993096 0.738082 0.487531
O O3 0.277334 0.803446 0.788275
O O4 0.273881 0.679492 0.944528
O O5 0.425161 0.265331 0.813337
O O6 0.608357 0.237655 0.216285
O O7 0.500000 0.000000 0.000000
O O8 0.936277 0.732998 0.577910
O O9 0.837922 0.554140 0.565832
O O10 0.683333 0.748523 0.128183
O O11 0.549145 0.534077 0.729905
O O12 0.500000 0.795502 0.750000
#
# Coordination Sequence:
#
# PCOD9229140 Si02
#       6
#     4   4   2   4   4   4
#     4  10  21  38  64  96 126 159 211 271 329 379
#     4  12  25  40  61  90 132 174 213 256 327 401
#     4  10  20  32  64  96 126 164 196 270 328 388
#     4  10  19  37  63  99 126 153 210 272 329 369
#     4  11  20  39  68  93 125 162 220 269 330 380
#     4  12  22  40  64  94 122 162 214 277 320 377
#
# _framework density 21.254028000000002
#
# number of rings (size 3 to 8) (size 9 to 14) (size 15 to 20)
#    0.000    1.091    5.455    2.182    0.000    1.455 
#    0.000    0.909    4.000    0.000    0.000    0.000 
#    0.000    0.000    0.000    0.000    0.000    0.000 
#
# Total GULP energy -122536.177673 kJ/mol
# GULP energy per Si atom -5569.826258 kJ/mol
# Density = 2.120565 g / cm^3
# Si number density = 21.254028 Si / 1000 Ang^3
#
#
#
# Elastic Constant Matrix: (Units=GPa)
#
#
# Indices 1 2 3 4 5 6 
#
# 1 194.7158 36.2294 42.1309 0.0000 8.8141 0.0000
# 2 36.2294 48.8681 -1.6088 0.0000 3.9753 0.0000
# 3 42.1309 -1.6088 79.4515 0.0000 14.5237 0.0000
# 4 0.0000 0.0000 0.0000 -18.9443 0.0000 22.8729
# 5 8.8141 3.9753 14.5237 0.0000 48.5645 0.0000
# 6 0.0000 0.0000 0.0000 22.8729 0.0000 5.1282
#
#
#
# Elastic Compliance Matrix: (Units=1/GPa)
#
#
# Indices 1 2 3 4 5 6 
#
# 1 0.006939 -0.005297 -0.003846 0.000000 0.000324 0.000000
# 2 -0.005297 0.024689 0.003705 0.000000 -0.002168 0.000000
# 3 -0.003846 0.003705 0.015475 0.000000 -0.004233 0.000000
# 4 0.000000 0.000000 0.000000 -0.008267 0.000000 0.036873
# 5 0.000324 -0.002168 -0.004233 0.000000 0.021976 0.000000
# 6 0.000000 0.000000 0.000000 0.036873 0.000000 0.030540
#
#
# Mechanical properties :
#
#
# Convention : Reuss Voigt Hill
#
# Bulk Modulus (GPa) = 27.60459 52.94871 40.27665
# Shear Modulus (GPa) = 43.74381 23.36861 33.55621
#
# Velocity S-wave (km/s) = 4.54160 3.31945 3.97774
# Velocity P-wave (km/s) = 6.36534 6.29747 6.33150
#
# Compressibility (1/GPa) = 0.03622586
#
# Stress axis : x y z
#
# Youngs Moduli (GPa) = 144.11743 40.50428 64.62219
#
# Poissons Ratio (x) = 0.21456 0.24854
# Poissons Ratio (y) = 0.76342 -0.23943
# Poissons Ratio (z) = 0.55428 -0.15007
#
# Static dielectric constant tensor:
#      x y z
#    x 1.886950 0.000000 -0.052190 
#    y 0.000000 1.816660 0.000000 
#    z -0.052190 0.000000 1.811170 
# 
# From -- ./inp_files/58745.got.cif
#   From: 2010.05.17/outbox.cif.g08.bks.cpg/sg13_30_cif.got.tgz:58745.got - 2010.06.03 16:44:36.
