data_PCOD9229098
_publ_section_title
;
Structure prediction by ZEFSAII (Michael W. Deem and Ramdas Pophale) SiO2 
 PCOD9229098
Probable space group: P 2/C
;
_chemical_formula_sum "Si O2"
_cell_formula_units_Z 28
_cell_length_a 5.507674
_cell_length_b 17.816075
_cell_length_c 12.844753
_cell_angle_alpha 90.000000
_cell_angle_beta 66.734848
_cell_angle_gamma 90.000000
_cell_volume 1157.906485
_symmetry_space_group_name_H-M "P 2/C"
_symmetry_group_IT_number 13
_symmetry_cell_setting 'monoclinic'
loop_
_space_group_symop_operation_xyz
x,y,z
-x,y,1/2-z
-x,-y,-z
x,-y,1/2+z
loop_
_atom_site_type_symbol
_atom_site_label
_atom_site_fract_x
_atom_site_fract_y
_atom_site_fract_z
Si Si1 0.878992 0.618970 0.059755
Si Si2 0.729518 0.657078 0.849813
Si Si3 0.494842 0.199750 0.458924
Si Si4 0.248670 0.949649 0.567226
Si Si5 0.393356 0.528700 0.907820
Si Si6 0.130165 0.215515 0.899214
Si Si7 0.790112 0.937142 0.166434
O O1 0.765942 0.641375 0.965990
O O2 0.166197 0.587461 0.979946
O O3 0.725430 0.545192 0.126752
O O4 0.874001 0.695214 0.128026
O O5 0.546740 0.729631 0.876069
O O6 0.624765 0.579223 0.821123
O O7 0.000000 0.677259 0.750000
O O8 0.639897 0.123830 0.393833
O O9 0.178260 0.196256 0.522169
O O10 0.649999 0.212056 0.543735
O O11 0.168375 0.926836 0.464276
O O12 0.500000 0.000000 0.500000
O O13 0.020037 0.003036 0.648843
O O14 0.500000 0.500000 0.000000
O O15 0.197954 0.150713 0.803094
O O16 0.500000 0.965001 0.250000
#
# Coordination Sequence:
#
# PCOD9229098 Si02
#       7
#     4   4   4   4   4   4   4
#     4   9  18  33  58  81 106 160 200 242 299 374
#     4  10  20  34  53  85 119 155 195 257 309 366
#     4  10  20  37  57  86 114 160 202 240 303 378
#     4  10  20  39  62  85 124 165 202 257 318 374
#     4   9  17  32  55  79 109 150 203 238 295 367
#     4  10  19  37  62  82 116 155 204 248 298 366
#     4  10  22  39  62  92 120 163 211 262 313 376
#
# _framework density 24.181571000000002
#
# number of rings (size 3 to 8) (size 9 to 14) (size 15 to 20)
#    0.000    2.286    2.857    0.000    0.000    1.143 
#    2.571    0.000    9.429    0.000    0.000    0.000 
#    0.000    0.000    0.000    0.000    0.000    0.000 
#
# Total GULP energy -155998.013168 kJ/mol
# GULP energy per Si atom -5571.357613 kJ/mol
# Density = 2.412653 g / cm^3
# Si number density = 24.181571 Si / 1000 Ang^3
#
#
#
# Elastic Constant Matrix: (Units=GPa)
#
#
# Indices 1 2 3 4 5 6 
#
# 1 116.3364 45.1414 25.3374 0.0000 -31.2687 0.0000
# 2 45.1414 187.2625 20.8341 0.0000 -29.3424 0.0000
# 3 25.3374 20.8341 57.9461 0.0000 -22.1324 0.0000
# 4 0.0000 0.0000 0.0000 -12.2087 0.0000 -29.0740
# 5 -31.2687 -29.3424 -22.1324 0.0000 55.6202 0.0000
# 6 0.0000 0.0000 0.0000 -29.0740 0.0000 36.4420
#
#
#
# Elastic Compliance Matrix: (Units=1/GPa)
#
#
# Indices 1 2 3 4 5 6 
#
# 1 0.010950 -0.001690 -0.002559 0.000000 0.004246 0.000000
# 2 -0.001690 0.006140 -0.000701 0.000000 0.002011 0.000000
# 3 -0.002559 -0.000701 0.021152 0.000000 0.006609 0.000000
# 4 0.000000 0.000000 0.000000 -0.028245 0.000000 -0.022534
# 5 0.004246 0.002011 0.006609 0.000000 0.024057 0.000000
# 6 0.000000 0.000000 0.000000 -0.022534 0.000000 0.009463
#
#
# Mechanical properties :
#
#
# Convention : Reuss Voigt Hill
#
# Bulk Modulus (GPa) = 35.28020 60.46341 47.87181
# Shear Modulus (GPa) = 79.53727 33.98615 56.76171
#
# Velocity S-wave (km/s) = 5.74135 3.75301 4.85016
# Velocity P-wave (km/s) = 7.65325 6.62105 7.15578
#
# Compressibility (1/GPa) = 0.02834451
#
# Stress axis : x y z
#
# Youngs Moduli (GPa) = 91.32462 162.85547 47.27584
#
# Poissons Ratio (x) = 0.27515 0.12096
# Poissons Ratio (y) = 0.15430 0.03314
# Poissons Ratio (z) = 0.23366 0.11417
#
# Static dielectric constant tensor:
#      x y z
#    x 1.885430 0.000000 0.143220 
#    y 0.000000 2.055930 0.000000 
#    z 0.143220 0.000000 1.989870 
# 
# From -- ./inp_files/44385.got.cif
#   From: 2010.05.17/outbox.cif.g08.bks.cpg/sg13_23_cif.got.tgz:44385.got - 2010.06.03 16:44:36.
