data_PCOD9229990
_publ_section_title
;
Structure prediction by ZEFSAII (Michael W. Deem and Ramdas Pophale) SiO2 
 PCOD9229990
Probable space group: P 2/C
;
_chemical_formula_sum "Si O2"
_cell_formula_units_Z 32
_cell_length_a 12.309821
_cell_length_b 13.013746
_cell_length_c 19.387855
_cell_angle_alpha 90.000000
_cell_angle_beta 27.245237
_cell_angle_gamma 90.000000
_cell_volume 1421.869126
_symmetry_space_group_name_H-M "P 2/C"
_symmetry_group_IT_number 13
_symmetry_cell_setting 'monoclinic'
loop_
_space_group_symop_operation_xyz
x,y,z
-x,y,1/2-z
-x,-y,-z
x,-y,1/2+z
loop_
_atom_site_type_symbol
_atom_site_label
_atom_site_fract_x
_atom_site_fract_y
_atom_site_fract_z
Si Si1 0.991017 0.609156 0.677528
Si Si2 0.289296 0.106157 0.321003
Si Si3 0.355494 0.125474 0.494520
Si Si4 0.462738 0.562606 0.350920
Si Si5 0.788210 0.385384 0.789866
Si Si6 0.513405 0.357334 0.083432
Si Si7 0.839336 0.851369 0.250251
Si Si8 0.751701 0.871799 0.140139
O O1 0.233887 0.626152 0.502150
O O2 0.000000 0.649716 0.750000
O O3 0.951426 0.485295 0.704467
O O4 0.768356 0.652591 0.763157
O O5 0.500000 0.155754 0.250000
O O6 0.028047 0.159622 0.465280
O O7 0.248388 0.993536 0.376728
O O8 0.416325 0.084872 0.175398
O O9 0.380748 0.246785 0.464835
O O10 0.331857 0.112667 0.590588
O O11 0.096434 0.094285 0.611624
O O12 0.500000 0.569030 0.250000
O O13 0.672776 0.603010 0.280203
O O14 0.432089 0.444000 0.391651
O O15 0.882455 0.270238 0.741403
O O16 0.600804 0.394204 0.958397
O O17 0.740855 0.858528 0.229021
O O18 0.500000 0.830744 0.250000
#
# Coordination Sequence:
#
# PCOD9229990 Si02
#       8
#     4   4   4   4   4   4   4   4
#     4  11  18  35  60  74 106 160 197 238 293 355
#     4  10  20  41  67  92 123 161 202 239 293 374
#     4  10  21  38  62  92 118 155 206 250 295 354
#     4  11  22  35  51  79 113 147 193 250 297 341
#     4  10  20  35  57  80 108 152 201 236 293 359
#     4  10  20  36  56  83 108 152 203 238 291 359
#     4  10  21  38  62  90 123 155 200 255 297 352
#     4  10  22  41  66  92 123 163 197 238 307 370
#
# _framework density 22.505587999999999
#
# number of rings (size 3 to 8) (size 9 to 14) (size 15 to 20)
#    0.000    1.750    3.750    1.500    1.750    3.500 
#    6.750    0.625    0.000    0.000    0.000    0.000 
#    0.000    0.000    0.000    0.000    0.000    0.000 
#
# Total GULP energy -178498.760800 kJ/mol
# GULP energy per Si atom -5578.086275 kJ/mol
# Density = 2.245436 g / cm^3
# Si number density = 22.505588 Si / 1000 Ang^3
#
#
#
# Elastic Constant Matrix: (Units=GPa)
#
#
# Indices 1 2 3 4 5 6 
#
# 1 141.4130 -10.2712 95.6578 0.0000 8.4863 0.0000
# 2 -10.2712 34.2866 0.3552 0.0000 2.6351 0.0000
# 3 95.6578 0.3552 149.5521 0.0000 5.3495 0.0000
# 4 0.0000 0.0000 0.0000 18.1627 0.0000 5.6701
# 5 8.4863 2.6351 5.3495 0.0000 50.5125 0.0000
# 6 0.0000 0.0000 0.0000 5.6701 0.0000 29.3354
#
#
#
# Elastic Compliance Matrix: (Units=1/GPa)
#
#
# Indices 1 2 3 4 5 6 
#
# 1 0.013102 0.004129 -0.008335 0.000000 -0.001534 0.000000
# 2 0.004129 0.030585 -0.002642 0.000000 -0.002009 0.000000
# 3 -0.008335 -0.002642 0.012015 0.000000 0.000266 0.000000
# 4 0.000000 0.000000 0.000000 0.058594 0.000000 -0.011325
# 5 -0.001534 -0.002009 0.000266 0.000000 0.020131 0.000000
# 6 0.000000 0.000000 0.000000 -0.011325 0.000000 0.036278
#
#
# Mechanical properties :
#
#
# Convention : Reuss Voigt Hill
#
# Bulk Modulus (GPa) = 23.80647 55.19279 39.49963
# Shear Modulus (GPa) = 25.20145 35.56945 30.38545
#
# Velocity S-wave (km/s) = 3.34995 3.97983 3.67840
# Velocity P-wave (km/s) = 5.05607 6.75988 5.96908
#
# Compressibility (1/GPa) = 0.04200539
#
# Stress axis : x y z
#
# Youngs Moduli (GPa) = 76.32601 32.69609 83.23068
#
# Poissons Ratio (x) = -0.13501 0.69374
# Poissons Ratio (y) = -0.31516 0.21988
# Poissons Ratio (z) = 0.63619 0.08638
#
# Static dielectric constant tensor:
#      x y z
#    x 1.842950 0.000000 -0.033160 
#    y 0.000000 1.843510 0.000000 
#    z -0.033160 0.000000 1.894550 
# 
# From -- ./inp_files/66910.got.cif
#   From: 2010.05.17/outbox.cif.g08.bks.cpg/sg13_34_cif.got.tgz:66910.got - 2010.06.03 16:44:36.
