data_PCOD9229496
_publ_section_title
;
Structure prediction by ZEFSAII (Michael W. Deem and Ramdas Pophale) SiO2 
 PCOD9229496
Probable space group: P 2/C
;
_chemical_formula_sum "Si O2"
_cell_formula_units_Z 32
_cell_length_a 21.869245
_cell_length_b 15.373337
_cell_length_c 22.465503
_cell_angle_alpha 90.000000
_cell_angle_beta 167.391910
_cell_angle_gamma 90.000000
_cell_volume 1648.671348
_symmetry_space_group_name_H-M "P 2/C"
_symmetry_group_IT_number 13
_symmetry_cell_setting 'monoclinic'
loop_
_space_group_symop_operation_xyz
x,y,z
-x,y,1/2-z
-x,-y,-z
x,-y,1/2+z
loop_
_atom_site_type_symbol
_atom_site_label
_atom_site_fract_x
_atom_site_fract_y
_atom_site_fract_z
Si Si1 0.773576 0.121468 0.255249
Si Si2 0.825215 0.262940 0.205872
Si Si3 0.498618 0.451866 0.063370
Si Si4 0.030092 0.986618 0.663692
Si Si5 0.975193 0.655872 0.426928
Si Si6 0.560416 0.107854 0.875820
Si Si7 0.174294 0.854708 0.236467
Si Si8 0.711200 0.375922 0.806652
O O1 0.816849 0.209492 0.259234
O O2 0.043642 0.107350 0.551588
O O3 0.771166 0.049911 0.201170
O O4 0.505851 0.131430 0.043214
O O5 0.113640 0.318178 0.479066
O O6 0.710246 0.191882 0.048878
O O7 0.590450 0.334413 0.984586
O O8 0.634542 0.522131 0.237513
O O9 0.701833 0.369129 0.260566
O O10 0.500000 0.500000 0.000000
O O11 0.188177 0.412414 0.770944
O O12 0.027738 0.088909 0.648780
O O13 0.738717 0.931595 0.384405
O O14 0.204879 0.964794 0.888656
O O15 0.907680 0.753432 0.342356
O O16 0.860497 0.639589 0.384938
O O17 0.500000 0.126692 0.750000
#
# Coordination Sequence:
#
# PCOD9229496 Si02
#       8
#     4   4   4   4   4   4   4   4
#     4  11  19  33  48  76 111 143 178 219 257 309
#     4  11  19  32  52  76  97 140 181 216 263 315
#     4  10  20  30  45  68 104 149 188 207 246 298
#     4  11  23  37  55  79 101 143 185 218 275 334
#     4  11  19  31  45  72 107 151 178 214 254 293
#     4  11  24  42  58  76 106 135 178 238 290 325
#     4  12  21  32  52  75 113 145 183 216 261 309
#     4  11  18  31  48  71 104 138 187 211 242 312
#
# _framework density 19.409569000000001
#
# number of rings (size 3 to 8) (size 9 to 14) (size 15 to 20)
#    0.000    1.000    2.500    9.375    0.000    0.000 
#    0.000    0.000    0.000    0.000    0.000    0.000 
#    0.000   15.000    0.000    0.000    0.000    0.000 
#
# Total GULP energy -178254.082846 kJ/mol
# GULP energy per Si atom -5570.440089 kJ/mol
# Density = 1.936539 g / cm^3
# Si number density = 19.409569 Si / 1000 Ang^3
#
#
#
# Elastic Constant Matrix: (Units=GPa)
#
#
# Indices 1 2 3 4 5 6 
#
# 1 35.8867 12.2547 9.7710 0.0000 -13.3610 0.0000
# 2 12.2547 112.9546 14.8565 0.0000 0.4736 0.0000
# 3 9.7710 14.8565 99.0358 0.0000 -8.9261 0.0000
# 4 0.0000 0.0000 0.0000 28.5369 0.0000 -1.2785
# 5 -13.3610 0.4736 -8.9261 0.0000 23.9098 0.0000
# 6 0.0000 0.0000 0.0000 -1.2785 0.0000 8.1160
#
#
#
# Elastic Compliance Matrix: (Units=1/GPa)
#
#
# Indices 1 2 3 4 5 6 
#
# 1 0.037135 -0.003952 -0.001235 0.000000 0.020368 0.000000
# 2 -0.003952 0.009463 -0.001289 0.000000 -0.002877 0.000000
# 3 -0.001235 -0.001289 0.010713 0.000000 0.003335 0.000000
# 4 0.000000 0.000000 0.000000 0.035291 0.000000 0.005559
# 5 0.020368 -0.002877 0.003335 0.000000 0.054508 0.000000
# 6 0.000000 0.000000 0.000000 0.005559 0.000000 0.124090
#
#
# Mechanical properties :
#
#
# Convention : Reuss Voigt Hill
#
# Bulk Modulus (GPa) = 22.54322 35.73795 29.14058
# Shear Modulus (GPa) = 16.72587 26.17887 21.45237
#
# Velocity S-wave (km/s) = 2.93871 3.67653 3.32813
# Velocity P-wave (km/s) = 4.81190 6.03946 5.46029
#
# Compressibility (1/GPa) = 0.04435924
#
# Stress axis : x y z
#
# Youngs Moduli (GPa) = 26.92910 105.66969 93.34322
#
# Poissons Ratio (x) = 0.41758 0.11529
# Poissons Ratio (y) = 0.10642 0.12032
# Poissons Ratio (z) = 0.03326 0.13621
#
# Static dielectric constant tensor:
#      x y z
#    x 1.698580 0.000000 -0.001240 
#    y 0.000000 1.764090 0.000000 
#    z -0.001240 0.000000 1.681450 
# 
# From -- ./inp_files/94246.got.cif
#   From: 2010.05.17/outbox.cif.g08.bks.cpg/sg13_48_cif.got.tgz:94246.got - 2010.06.03 16:44:36.
