data_PCOD9229251
_publ_section_title
;
Structure prediction by ZEFSAII (Michael W. Deem and Ramdas Pophale) SiO2 
 PCOD9229251
Probable space group: P 2/C
;
_chemical_formula_sum "Si O2"
_cell_formula_units_Z 22
_cell_length_a 10.935134
_cell_length_b 5.028973
_cell_length_c 17.975209
_cell_angle_alpha 90.000000
_cell_angle_beta 97.423250
_cell_angle_gamma 90.000000
_cell_volume 980.216754
_symmetry_space_group_name_H-M "P 2/C"
_symmetry_group_IT_number 13
_symmetry_cell_setting 'monoclinic'
loop_
_space_group_symop_operation_xyz
x,y,z
-x,y,1/2-z
-x,-y,-z
x,-y,1/2+z
loop_
_atom_site_type_symbol
_atom_site_label
_atom_site_fract_x
_atom_site_fract_y
_atom_site_fract_z
Si Si1 0.809730 0.889274 0.652188
Si Si2 0.642449 0.927008 0.012025
Si Si3 0.023577 0.773976 0.564386
Si Si4 0.000000 0.732834 0.250000
Si Si5 0.806015 0.650302 0.805203
Si Si6 0.253593 0.571696 0.058084
O O1 0.896032 0.729100 0.599960
O O2 0.760093 0.739879 0.721303
O O3 0.702859 0.023808 0.596872
O O4 0.905124 0.097364 0.694623
O O5 0.670840 0.630104 0.987886
O O6 0.500000 0.000000 0.000000
O O7 0.712877 0.133478 0.963000
O O8 0.890345 0.472554 0.457806
O O9 0.122820 0.868204 0.637463
O O10 0.000000 0.000000 0.500000
O O11 0.082486 0.546543 0.205222
O O12 0.714854 0.500577 0.853841
#
# Coordination Sequence:
#
# PCOD9229251 Si02
#       6
#     4   4   4   2   4   4
#     4  12  23  40  68 106 144 184 228 292 364 436
#     4  12  28  50  71  97 140 196 249 288 345 423
#     4  10  19  38  63 106 139 176 222 289 368 420
#     4  12  20  36  66 102 146 170 218 280 374 416
#     4  10  22  38  65 104 143 178 224 291 368 432
#     4  10  25  45  72  98 139 181 241 297 351 423
#
# _framework density 22.444018
#
# number of rings (size 3 to 8) (size 9 to 14) (size 15 to 20)
#    1.091    0.000    5.455    0.545    7.636    0.727 
#    0.000    0.909    0.000    0.000    0.000    0.000 
#    0.000    0.000    0.000    0.000    0.000    0.000 
#
# Total GULP energy -122797.815964 kJ/mol
# GULP energy per Si atom -5581.718907 kJ/mol
# Density = 2.239293 g / cm^3
# Si number density = 22.444018 Si / 1000 Ang^3
#
#
#
# Elastic Constant Matrix: (Units=GPa)
#
#
# Indices 1 2 3 4 5 6 
#
# 1 88.6168 0.5345 25.4749 0.0000 14.8318 0.0000
# 2 0.5345 65.5192 21.0659 0.0000 -1.1443 0.0000
# 3 25.4749 21.0659 157.5117 0.0000 -0.8601 0.0000
# 4 0.0000 0.0000 0.0000 32.2435 0.0000 -12.2385
# 5 14.8318 -1.1443 -0.8601 0.0000 23.0842 0.0000
# 6 0.0000 0.0000 0.0000 -12.2385 0.0000 20.2554
#
#
#
# Elastic Compliance Matrix: (Units=1/GPa)
#
#
# Indices 1 2 3 4 5 6 
#
# 1 0.013385 0.000471 -0.002275 0.000000 -0.008662 0.000000
# 2 0.000471 0.015977 -0.002211 0.000000 0.000407 0.000000
# 3 -0.002275 -0.002211 0.007021 0.000000 0.001614 0.000000
# 4 0.000000 0.000000 0.000000 0.040243 0.000000 0.024315
# 5 -0.008662 0.000407 0.001614 0.000000 0.048965 0.000000
# 6 0.000000 0.000000 0.000000 0.024315 0.000000 0.064061
#
#
# Mechanical properties :
#
#
# Convention : Reuss Voigt Hill
#
# Bulk Modulus (GPa) = 35.26877 45.08870 40.17874
# Shear Modulus (GPa) = 24.13899 32.75478 28.44688
#
# Velocity S-wave (km/s) = 3.28307 3.82435 3.56400
# Velocity P-wave (km/s) = 5.48813 6.29555 5.90566
#
# Compressibility (1/GPa) = 0.02835369
#
# Stress axis : x y z
#
# Youngs Moduli (GPa) = 74.70806 62.59091 142.42612
#
# Poissons Ratio (x) = -0.02948 0.32404
# Poissons Ratio (y) = -0.03519 0.31487
# Poissons Ratio (z) = 0.16997 0.13837
#
# Static dielectric constant tensor:
#      x y z
#    x 1.801230 0.000000 0.007850 
#    y 0.000000 1.917900 0.000000 
#    z 0.007850 0.000000 2.019140 
# 
# From -- ./inp_files/48858.got.cif
#   From: 2010.05.17/outbox.cif.g08.bks.cpg/sg13_25_cif.got.tgz:48858.got - 2010.06.03 16:44:36.
