data_PCOD9229488
_publ_section_title
;
Structure prediction by ZEFSAII (Michael W. Deem and Ramdas Pophale) SiO2 
 PCOD9229488
Probable space group: P 2/C
;
_chemical_formula_sum "Si O2"
_cell_formula_units_Z 22
_cell_length_a 6.799972
_cell_length_b 12.781666
_cell_length_c 13.138924
_cell_angle_alpha 90.000000
_cell_angle_beta 41.281151
_cell_angle_gamma 90.000000
_cell_volume 753.419298
_symmetry_space_group_name_H-M "P 2/C"
_symmetry_group_IT_number 13
_symmetry_cell_setting 'monoclinic'
loop_
_space_group_symop_operation_xyz
x,y,z
-x,y,1/2-z
-x,-y,-z
x,-y,1/2+z
loop_
_atom_site_type_symbol
_atom_site_label
_atom_site_fract_x
_atom_site_fract_y
_atom_site_fract_z
Si Si1 0.962626 0.567833 0.864628
Si Si2 0.411429 0.804875 0.007487
Si Si3 0.878549 0.930446 0.137940
Si Si4 0.500000 0.000000 0.000000
Si Si5 0.390976 0.734446 0.382651
Si Si6 0.445169 0.599333 0.871987
O O1 0.820288 0.676215 0.958183
O O2 0.805952 0.465563 0.969558
O O3 0.754739 0.565843 0.829162
O O4 0.267550 0.584699 0.825961
O O5 0.337564 0.754732 0.144562
O O6 0.195478 0.905887 0.072391
O O7 0.675616 0.884762 0.932264
O O8 0.421004 0.722284 0.915176
O O9 0.770778 0.823090 0.122543
O O10 0.355199 0.974251 0.188999
O O11 0.000000 0.000000 0.000000
O O12 0.500000 0.657160 0.250000
#
# Coordination Sequence:
#
# PCOD9229488 Si02
#       6
#     4   4   4   2   4   4
#     4  12  27  50  79 116 162 215 273 340 408 496
#     4  10  22  44  75 112 154 207 268 329 410 478
#     4  10  19  44  76 107 154 203 265 336 401 482
#     4   8  20  42  76 110 150 200 266 332 396 480
#     4  12  25  45  74 113 162 212 270 331 412 488
#     4  12  26  50  78 119 162 216 273 340 416 496
#
# _framework density 29.200206999999999
#
# number of rings (size 3 to 8) (size 9 to 14) (size 15 to 20)
#    1.091    0.000    3.636    2.727    0.000    2.182 
#    0.000    7.273    8.000    0.000    0.000    0.000 
#    0.000    0.000    0.000    0.000    0.000    0.000 
#
# Total GULP energy -122474.891808 kJ/mol
# GULP energy per Si atom -5567.040537 kJ/mol
# Density = 2.913375 g / cm^3
# Si number density = 29.200207 Si / 1000 Ang^3
#
#
#
# Elastic Constant Matrix: (Units=GPa)
#
#
# Indices 1 2 3 4 5 6 
#
# 1 209.0372 43.3658 96.9342 0.0000 4.2467 0.0000
# 2 43.3658 188.1786 115.3500 0.0000 2.6131 0.0000
# 3 96.9342 115.3500 265.4120 0.0000 49.0865 0.0000
# 4 0.0000 0.0000 0.0000 41.1204 0.0000 15.5068
# 5 4.2467 2.6131 49.0865 0.0000 76.9963 0.0000
# 6 0.0000 0.0000 0.0000 15.5068 0.0000 55.0319
#
#
#
# Elastic Compliance Matrix: (Units=1/GPa)
#
#
# Indices 1 2 3 4 5 6 
#
# 1 0.005854 0.000112 -0.002410 0.000000 0.001210 0.000000
# 2 0.000112 0.007527 -0.003700 0.000000 0.002097 0.000000
# 3 -0.002410 -0.003700 0.007038 0.000000 -0.004228 0.000000
# 4 0.000000 0.000000 0.000000 0.027210 0.000000 -0.007667
# 5 0.001210 0.002097 -0.004228 0.000000 0.015545 0.000000
# 6 0.000000 0.000000 0.000000 -0.007667 0.000000 0.020332
#
#
# Mechanical properties :
#
#
# Convention : Reuss Voigt Hill
#
# Bulk Modulus (GPa) = 118.73863 130.43641 124.58752
# Shear Modulus (GPa) = 50.85897 61.76156 56.31027
#
# Velocity S-wave (km/s) = 4.17794 4.60402 4.39614
# Velocity P-wave (km/s) = 8.00159 8.54572 8.27813
#
# Compressibility (1/GPa) = 0.00842186
#
# Stress axis : x y z
#
# Youngs Moduli (GPa) = 170.83066 132.84920 142.08441
#
# Poissons Ratio (x) = -0.01483 0.34245
# Poissons Ratio (y) = -0.01906 0.52572
# Poissons Ratio (z) = 0.41173 0.49155
#
# Static dielectric constant tensor:
#      x y z
#    x 2.870950 0.000000 0.110050 
#    y 0.000000 2.424120 0.000000 
#    z 0.110050 0.000000 2.564020 
# 
# From -- ./inp_files/43850.got.cif
#   From: 2010.05.17/outbox.cif.g08.bks.cpg/sg13_22_cif.got.tgz:43850.got - 2010.06.03 16:44:36.
