data_PCOD9229776
_publ_section_title
;
Structure prediction by ZEFSAII (Michael W. Deem and Ramdas Pophale) SiO2 
 PCOD9229776
Probable space group: P 2/C
;
_chemical_formula_sum "Si O2"
_cell_formula_units_Z 22
_cell_length_a 11.182166
_cell_length_b 5.509798
_cell_length_c 14.031126
_cell_angle_alpha 90.000000
_cell_angle_beta 89.916227
_cell_angle_gamma 90.000000
_cell_volume 864.477457
_symmetry_space_group_name_H-M "P 2/C"
_symmetry_group_IT_number 13
_symmetry_cell_setting 'monoclinic'
loop_
_space_group_symop_operation_xyz
x,y,z
-x,y,1/2-z
-x,-y,-z
x,-y,1/2+z
loop_
_atom_site_type_symbol
_atom_site_label
_atom_site_fract_x
_atom_site_fract_y
_atom_site_fract_z
Si Si1 0.500000 0.726514 0.250000
Si Si2 0.348349 0.254825 0.037325
Si Si3 0.032505 0.753771 0.375332
Si Si4 0.905588 0.742859 0.898411
Si Si5 0.720914 0.044409 0.669395
Si Si6 0.589887 0.348096 0.099830
O O1 0.378274 0.878208 0.254332
O O2 0.523644 0.552929 0.161278
O O3 0.237450 0.252354 0.108361
O O4 0.475844 0.177576 0.079199
O O5 0.316077 0.108675 0.941036
O O6 0.363029 0.528411 0.995981
O O7 0.066281 0.736811 0.487806
O O8 0.154992 0.817997 0.320094
O O9 0.966416 0.499045 0.355615
O O10 0.955825 0.999484 0.364020
O O11 0.701966 0.755813 0.658755
#
# Coordination Sequence:
#
# PCOD9229776 Si02
#       6
#     2   4   4   4   4   4
#     4  10  22  36  52  82 104 152 196 224 288 332
#     4   9  20  33  56  85 116 140 187 233 298 339
#     4   9  19  30  54  79 116 144 188 228 281 339
#     4   9  18  32  50  85 112 150 177 230 286 342
#     4  10  20  34  55  83 111 149 187 240 284 345
#     4  10  20  36  55  82 113 148 184 242 284 345
#
# _framework density 25.448898
#
# number of rings (size 3 to 8) (size 9 to 14) (size 15 to 20)
#    0.000    2.545    0.000    1.091   15.273    0.000 
#    0.000    0.000    0.000    1.091    0.000    0.000 
#    0.000    0.000    0.000    0.000    0.000    0.000 
#
# Total GULP energy -122828.668192 kJ/mol
# GULP energy per Si atom -5583.121281 kJ/mol
# Density = 2.539098 g / cm^3
# Si number density = 25.448898 Si / 1000 Ang^3
#
#
#
# Elastic Constant Matrix: (Units=GPa)
#
#
# Indices 1 2 3 4 5 6 
#
# 1 145.6669 82.7877 38.1637 0.0000 -55.3912 0.0000
# 2 82.7877 133.9879 34.4586 0.0000 -31.0972 0.0000
# 3 38.1637 34.4586 76.4031 0.0000 -15.9557 0.0000
# 4 0.0000 0.0000 0.0000 19.1297 0.0000 -1.0335
# 5 -55.3912 -31.0972 -15.9557 0.0000 55.6925 0.0000
# 6 0.0000 0.0000 0.0000 -1.0335 0.0000 27.7395
#
#
#
# Elastic Compliance Matrix: (Units=1/GPa)
#
#
# Indices 1 2 3 4 5 6 
#
# 1 0.015218 -0.006217 -0.002512 0.000000 0.010945 0.000000
# 2 -0.006217 0.011839 -0.002281 0.000000 -0.000226 0.000000
# 3 -0.002512 -0.002281 0.015513 0.000000 0.000672 0.000000
# 4 0.000000 0.000000 0.000000 0.052380 0.000000 0.001952
# 5 0.010945 -0.000226 0.000672 0.000000 0.028908 0.000000
# 6 0.000000 0.000000 0.000000 0.001952 0.000000 0.036122
#
#
# Mechanical properties :
#
#
# Convention : Reuss Voigt Hill
#
# Bulk Modulus (GPa) = 48.66381 74.09754 61.38068
# Shear Modulus (GPa) = 26.47610 33.88888 30.18249
#
# Velocity S-wave (km/s) = 3.22897 3.65313 3.44758
# Velocity P-wave (km/s) = 5.75024 6.85370 6.32608
#
# Compressibility (1/GPa) = 0.02054915
#
# Stress axis : x y z
#
# Youngs Moduli (GPa) = 65.71087 84.46885 64.46409
#
# Poissons Ratio (x) = 0.52511 0.16194
# Poissons Ratio (y) = 0.40850 0.14707
# Poissons Ratio (z) = 0.16507 0.19270
#
# Static dielectric constant tensor:
#      x y z
#    x 4.158480 0.000000 3.111160 
#    y 0.000000 2.200430 0.000000 
#    z 3.111160 0.000000 6.449960 
# 
# From -- ./inp_files/65292.got.cif
#   From: 2010.05.17/outbox.cif.g08.bks.cpg/sg13_33_cif.got.tgz:65292.got - 2010.06.03 16:44:36.
