data_PCOD9229110
_publ_section_title
;
Structure prediction by ZEFSAII (Michael W. Deem and Ramdas Pophale) SiO2 
 PCOD9229110
Probable space group: P 2/C
;
_chemical_formula_sum "Si O2"
_cell_formula_units_Z 32
_cell_length_a 14.257908
_cell_length_b 17.052850
_cell_length_c 19.992323
_cell_angle_alpha 90.000000
_cell_angle_beta 159.165342
_cell_angle_gamma 90.000000
_cell_volume 1728.885247
_symmetry_space_group_name_H-M "P 2/C"
_symmetry_group_IT_number 13
_symmetry_cell_setting 'monoclinic'
loop_
_space_group_symop_operation_xyz
x,y,z
-x,y,1/2-z
-x,-y,-z
x,-y,1/2+z
loop_
_atom_site_type_symbol
_atom_site_label
_atom_site_fract_x
_atom_site_fract_y
_atom_site_fract_z
Si Si1 0.235352 0.393497 0.044631
Si Si2 0.536349 0.694244 0.202395
Si Si3 0.647093 0.424788 0.663514
Si Si4 0.152081 0.279630 0.105576
Si Si5 0.863002 0.113031 0.360150
Si Si6 0.407800 0.965614 0.264561
Si Si7 0.517029 0.604523 0.928989
Si Si8 0.845792 0.840512 0.579246
O O1 0.500000 0.433912 0.250000
O O2 0.217966 0.313917 0.076556
O O3 0.272192 0.383287 0.990105
O O4 0.962120 0.434262 0.879769
O O5 0.500000 0.655317 0.250000
O O6 0.518646 0.631463 0.132346
O O7 0.836746 0.724583 0.400926
O O8 0.328661 0.764944 0.057520
O O9 0.538705 0.511636 0.602919
O O10 0.599758 0.381852 0.560598
O O11 0.250682 0.192251 0.183653
O O12 0.276087 0.341221 0.241809
O O13 0.138442 0.084780 0.577677
O O14 0.950001 0.135482 0.343018
O O15 0.664221 0.041363 0.239742
O O16 0.500000 0.986563 0.250000
O O17 0.637846 0.911631 0.447440
O O18 0.000000 0.825137 0.750000
#
# Coordination Sequence:
#
# PCOD9229110 Si02
#       8
#     4   4   4   4   4   4   4   4
#     4   9  20  37  58  80 113 153 188 244 287 340
#     4  11  21  37  58  85 115 151 203 250 287 351
#     4  10  23  38  60  85 116 158 198 238 308 363
#     4  10  20  35  60  85 115 151 202 242 291 350
#     4  10  19  37  62  88 117 157 201 244 282 364
#     4   9  19  37  62  88 120 158 196 237 296 347
#     4  10  22  40  57  86 122 153 192 250 302 355
#     4  11  22  37  60  89 127 155 191 251 305 343
#
# _framework density 18.509036999999999
#
# number of rings (size 3 to 8) (size 9 to 14) (size 15 to 20)
#    0.000    2.000    2.500    0.750    1.750    9.000 
#    0.000    1.250    0.000    0.000    0.000    0.000 
#    0.000    0.000    0.000    0.000    0.000    0.000 
#
# Total GULP energy -178330.663121 kJ/mol
# GULP energy per Si atom -5572.833223 kJ/mol
# Density = 1.846691 g / cm^3
# Si number density = 18.509037 Si / 1000 Ang^3
#
#
#
# Elastic Constant Matrix: (Units=GPa)
#
#
# Indices 1 2 3 4 5 6 
#
# 1 130.5068 49.3922 40.9560 0.0000 -5.6799 0.0000
# 2 49.3922 84.6585 18.7636 0.0000 -5.3410 0.0000
# 3 40.9560 18.7636 45.3029 0.0000 -2.5789 0.0000
# 4 0.0000 0.0000 0.0000 10.4276 0.0000 -2.7053
# 5 -5.6799 -5.3410 -2.5789 0.0000 23.7099 0.0000
# 6 0.0000 0.0000 0.0000 -2.7053 0.0000 16.5078
#
#
#
# Elastic Compliance Matrix: (Units=1/GPa)
#
#
# Indices 1 2 3 4 5 6 
#
# 1 0.012547 -0.005246 -0.009123 0.000000 0.000832 0.000000
# 2 -0.005246 0.015332 -0.001492 0.000000 0.002035 0.000000
# 3 -0.009123 -0.001492 0.030988 0.000000 0.000849 0.000000
# 4 0.000000 0.000000 0.000000 0.100158 0.000000 0.016414
# 5 0.000832 0.002035 0.000849 0.000000 0.042926 0.000000
# 6 0.000000 0.000000 0.000000 0.016414 0.000000 0.063267
#
#
# Mechanical properties :
#
#
# Convention : Reuss Voigt Hill
#
# Bulk Modulus (GPa) = 36.83929 53.18800 45.01365
# Shear Modulus (GPa) = 16.34053 20.21948 18.28000
#
# Velocity S-wave (km/s) = 2.97449 3.30875 3.14606
# Velocity P-wave (km/s) = 5.63413 6.58754 6.12940
#
# Compressibility (1/GPa) = 0.02714493
#
# Stress axis : x y z
#
# Youngs Moduli (GPa) = 79.70029 65.22427 32.27104
#
# Poissons Ratio (x) = 0.34215 0.29441
# Poissons Ratio (y) = 0.41809 0.04814
# Poissons Ratio (z) = 0.72711 0.09730
#
# Static dielectric constant tensor:
#      x y z
#    x 1.662160 0.000000 -0.001590 
#    y 0.000000 1.624090 0.000000 
#    z -0.001590 0.000000 1.666690 
# 
# From -- ./inp_files/76607.got.cif
#   From: 2010.05.17/outbox.cif.g08.bks.cpg/sg13_39_cif.got.tgz:76607.got - 2010.06.03 16:44:36.
