data_PCOD9229454
_publ_section_title
;
Structure prediction by ZEFSAII (Michael W. Deem and Ramdas Pophale) SiO2 
 PCOD9229454
Probable space group: P 2/C
;
_chemical_formula_sum "Si O2"
_cell_formula_units_Z 32
_cell_length_a 29.181316
_cell_length_b 8.862600
_cell_length_c 11.378688
_cell_angle_alpha 90.000000
_cell_angle_beta 150.097033
_cell_angle_gamma 90.000000
_cell_volume 1467.073258
_symmetry_space_group_name_H-M "P 2/C"
_symmetry_group_IT_number 13
_symmetry_cell_setting 'monoclinic'
loop_
_space_group_symop_operation_xyz
x,y,z
-x,y,1/2-z
-x,-y,-z
x,-y,1/2+z
loop_
_atom_site_type_symbol
_atom_site_label
_atom_site_fract_x
_atom_site_fract_y
_atom_site_fract_z
Si Si1 0.974062 0.178513 0.824708
Si Si2 0.709404 0.129347 0.035962
Si Si3 0.853850 0.097547 0.150826
Si Si4 0.809084 0.636942 0.929995
Si Si5 0.427729 0.119612 0.293790
Si Si6 0.740223 0.690012 0.234855
Si Si7 0.589031 0.332668 0.602707
Si Si8 0.662798 0.345002 0.303759
O O1 0.915384 0.329908 0.685428
O O2 0.000000 0.130078 0.750000
O O3 0.904557 0.055389 0.725343
O O4 0.064885 0.191751 0.105100
O O5 0.776925 0.075348 0.080602
O O6 0.767741 0.226619 0.258858
O O7 0.640547 0.250591 0.824932
O O8 0.648943 0.985389 0.941849
O O9 0.809315 0.184655 0.941146
O O10 0.791600 0.471044 0.842153
O O11 0.750498 0.635931 0.918739
O O12 0.491008 0.249988 0.373371
O O13 0.391640 0.191686 0.337328
O O14 0.500000 0.000000 0.500000
O O15 0.656557 0.686602 0.141818
O O16 0.695670 0.696579 0.007778
O O17 0.596159 0.511638 0.643900
#
# Coordination Sequence:
#
# PCOD9229454 Si02
#       8
#     4   4   4   4   4   4   4   4
#     4  11  23  40  67  97 134 167 212 275 330 389
#     4  10  19  41  65  90 127 167 215 268 323 394
#     4  10  23  41  65  96 131 171 216 269 332 388
#     4  11  23  40  66  94 124 173 222 260 333 391
#     4  10  22  39  62  93 126 164 214 271 319 390
#     4  10  23  41  66  92 127 174 216 271 320 393
#     4   9  20  41  63  90 125 163 216 262 328 382
#     4  11  22  40  64  90 129 172 215 267 324 390
#
# _framework density 21.812135999999999
#
# number of rings (size 3 to 8) (size 9 to 14) (size 15 to 20)
#    0.000    1.750    2.500    1.125    1.750    3.000 
#    2.250    2.500    0.000    0.000    0.000    0.000 
#    0.000    0.000    0.000    0.000    0.000    0.000 
#
# Total GULP energy -178501.231290 kJ/mol
# GULP energy per Si atom -5578.163478 kJ/mol
# Density = 2.176249 g / cm^3
# Si number density = 21.812136 Si / 1000 Ang^3
#
#
#
# Elastic Constant Matrix: (Units=GPa)
#
#
# Indices 1 2 3 4 5 6 
#
# 1 42.4419 2.2934 7.7279 0.0000 1.3519 0.0000
# 2 2.2934 73.1333 20.4302 0.0000 8.1018 0.0000
# 3 7.7279 20.4302 102.0937 0.0000 11.0813 0.0000
# 4 0.0000 0.0000 0.0000 30.5182 0.0000 13.5280
# 5 1.3519 8.1018 11.0813 0.0000 29.5593 0.0000
# 6 0.0000 0.0000 0.0000 13.5280 0.0000 28.5120
#
#
#
# Elastic Compliance Matrix: (Units=1/GPa)
#
#
# Indices 1 2 3 4 5 6 
#
# 1 0.023900 -0.000226 -0.001722 0.000000 -0.000386 0.000000
# 2 -0.000226 0.014746 -0.002602 0.000000 -0.003056 0.000000
# 3 -0.001722 -0.002602 0.010799 0.000000 -0.003257 0.000000
# 4 0.000000 0.000000 0.000000 0.041495 0.000000 -0.019688
# 5 -0.000386 -0.003056 -0.003257 0.000000 0.035906 0.000000
# 6 0.000000 0.000000 0.000000 -0.019688 0.000000 0.044414
#
#
# Mechanical properties :
#
#
# Convention : Reuss Voigt Hill
#
# Bulk Modulus (GPa) = 24.78586 30.95245 27.86916
# Shear Modulus (GPa) = 25.79866 30.19906 27.99886
#
# Velocity S-wave (km/s) = 3.44287 3.72493 3.58667
# Velocity P-wave (km/s) = 5.21464 5.72027 5.47329
#
# Compressibility (1/GPa) = 0.04034558
#
# Stress axis : x y z
#
# Youngs Moduli (GPa) = 41.84164 67.81413 92.59726
#
# Poissons Ratio (x) = 0.01530 0.15946
# Poissons Ratio (y) = 0.00944 0.24095
# Poissons Ratio (z) = 0.07205 0.17646
#
# Static dielectric constant tensor:
#      x y z
#    x 1.835970 0.000000 0.059790 
#    y 0.000000 2.017890 0.000000 
#    z 0.059790 0.000000 1.955230 
# 
# From -- ./inp_files/42774.got.cif
#   From: 2010.05.17/outbox.cif.g08.bks.cpg/sg13_22_cif.got.tgz:42774.got - 2010.06.03 16:44:36.
