data_PCOD9229835
_publ_section_title
;
Structure prediction by ZEFSAII (Michael W. Deem and Ramdas Pophale) SiO2 
 PCOD9229835
Probable space group: P 2/C
;
_chemical_formula_sum "Si O2"
_cell_formula_units_Z 26
_cell_length_a 7.957528
_cell_length_b 14.348120
_cell_length_c 9.356980
_cell_angle_alpha 90.000000
_cell_angle_beta 81.939198
_cell_angle_gamma 90.000000
_cell_volume 1057.783118
_symmetry_space_group_name_H-M "P 2/C"
_symmetry_group_IT_number 13
_symmetry_cell_setting 'monoclinic'
loop_
_space_group_symop_operation_xyz
x,y,z
-x,y,1/2-z
-x,-y,-z
x,-y,1/2+z
loop_
_atom_site_type_symbol
_atom_site_label
_atom_site_fract_x
_atom_site_fract_y
_atom_site_fract_z
Si Si1 0.725962 0.352499 0.110533
Si Si2 0.812622 0.885255 0.956551
Si Si3 0.182871 0.717582 0.206692
Si Si4 0.000000 0.246848 0.250000
Si Si5 0.871365 0.465503 0.636292
Si Si6 0.316664 0.974093 0.818779
Si Si7 0.547998 0.195587 0.998547
O O1 0.716371 0.461288 0.144551
O O2 0.564914 0.288734 0.093548
O O3 0.839504 0.307441 0.222062
O O4 0.822153 0.336857 0.945875
O O5 0.962463 0.817167 0.893213
O O6 0.768139 0.937496 0.814328
O O7 0.645376 0.824922 0.008691
O O8 0.812538 0.959443 0.082646
O O9 0.198052 0.639096 0.328028
O O10 0.000000 0.764619 0.250000
O O11 0.336385 0.786365 0.154382
O O12 0.000000 0.481678 0.750000
O O13 0.000000 0.500000 0.500000
O O14 0.500000 0.016468 0.750000
O O15 0.372170 0.889184 0.917751
#
# Coordination Sequence:
#
# PCOD9229835 Si02
#       7
#     4   4   4   2   4   4   4
#     4  10  20  34  57  95 121 171 206 254 307 380
#     4  11  23  43  67  94 130 163 216 263 322 382
#     4   9  18  34  57  92 125 160 212 248 309 367
#     4  12  24  40  62  98 126 166 218 258 328 378
#     4  11  17  31  58  94 127 165 204 260 313 376
#     4  10  20  41  67  92 120 173 211 252 325 385
#     4   9  19  39  60  88 125 174 206 253 309 380
#
# _framework density 24.579709000000001
#
# number of rings (size 3 to 8) (size 9 to 14) (size 15 to 20)
#    0.923    0.923    5.385    1.846    0.000    0.615 
#    6.923    0.000    0.000    0.923    8.000    0.000 
#    0.000    0.000    0.000    0.000    0.000    0.000 
#
# Total GULP energy -145104.415105 kJ/mol
# GULP energy per Si atom -5580.939042 kJ/mol
# Density = 2.452376 g / cm^3
# Si number density = 24.579709 Si / 1000 Ang^3
#
#
#
# Elastic Constant Matrix: (Units=GPa)
#
#
# Indices 1 2 3 4 5 6 
#
# 1 31.2299 16.9722 14.6234 0.0000 -10.4775 0.0000
# 2 16.9722 96.0966 47.1173 0.0000 -11.6870 0.0000
# 3 14.6234 47.1173 142.8787 0.0000 -13.8091 0.0000
# 4 0.0000 0.0000 0.0000 37.6582 0.0000 -2.3969
# 5 -10.4775 -11.6870 -13.8091 0.0000 38.5825 0.0000
# 6 0.0000 0.0000 0.0000 -2.3969 0.0000 20.8361
#
#
#
# Elastic Compliance Matrix: (Units=1/GPa)
#
#
# Indices 1 2 3 4 5 6 
#
# 1 0.038229 -0.005027 -0.001449 0.000000 0.008340 0.000000
# 2 -0.005027 0.013289 -0.003740 0.000000 0.001321 0.000000
# 3 -0.001449 -0.003740 0.008528 0.000000 0.001526 0.000000
# 4 0.000000 0.000000 0.000000 0.026751 0.000000 0.003077
# 5 0.008340 0.001321 0.001526 0.000000 0.029130 0.000000
# 6 0.000000 0.000000 0.000000 0.003077 0.000000 0.048348
#
#
# Mechanical properties :
#
#
# Convention : Reuss Voigt Hill
#
# Bulk Modulus (GPa) = 25.24368 47.51455 36.37911
# Shear Modulus (GPa) = 25.26399 32.18151 28.72275
#
# Velocity S-wave (km/s) = 3.20947 3.62231 3.42212
# Velocity P-wave (km/s) = 4.90170 6.07187 5.51789
#
# Compressibility (1/GPa) = 0.03961388
#
# Stress axis : x y z
#
# Youngs Moduli (GPa) = 26.15802 75.25286 117.26038
#
# Poissons Ratio (x) = 0.37831 0.16989
# Poissons Ratio (y) = 0.13150 0.43855
# Poissons Ratio (z) = 0.03790 0.28144
#
# Static dielectric constant tensor:
#      x y z
#    x 1.933870 0.000000 -0.034460 
#    y 0.000000 2.044020 0.000000 
#    z -0.034460 0.000000 1.941390 
# 
# From -- ./inp_files/34367.got.cif
#   From: 2010.05.17/outbox.cif.g08.bks.cpg/sg13_18_cif.got.tgz:34367.got - 2010.06.03 16:44:36.
