data_PCOD9229312
_publ_section_title
;
Structure prediction by ZEFSAII (Michael W. Deem and Ramdas Pophale) SiO2 
 PCOD9229312
Probable space group: P 2/C
;
_chemical_formula_sum "Si O2"
_cell_formula_units_Z 18
_cell_length_a 6.851834
_cell_length_b 9.840698
_cell_length_c 11.479462
_cell_angle_alpha 90.000000
_cell_angle_beta 75.808199
_cell_angle_gamma 90.000000
_cell_volume 750.400862
_symmetry_space_group_name_H-M "P 2/C"
_symmetry_group_IT_number 13
_symmetry_cell_setting 'monoclinic'
loop_
_space_group_symop_operation_xyz
x,y,z
-x,y,1/2-z
-x,-y,-z
x,-y,1/2+z
loop_
_atom_site_type_symbol
_atom_site_label
_atom_site_fract_x
_atom_site_fract_y
_atom_site_fract_z
Si Si1 0.200776 0.940816 0.033339
Si Si2 0.219909 0.714623 0.857995
Si Si3 0.687672 0.411132 0.635908
Si Si4 0.263801 0.236790 0.089032
Si Si5 0.000000 0.750868 0.250000
O O1 0.295962 0.837488 0.926828
O O2 0.140214 0.849754 0.152856
O O3 0.305147 0.078786 0.058283
O O4 0.000000 0.000000 0.000000
O O5 0.257446 0.565556 0.902209
O O6 0.305296 0.721134 0.714929
O O7 0.978361 0.737204 0.886836
O O8 0.500000 0.409098 0.750000
O O9 0.642461 0.327739 0.525862
O O10 0.870929 0.340299 0.679839
#
# Coordination Sequence:
#
# PCOD9229312 Si02
#       5
#     4   4   4   4   2
#     4  10  19  38  72  98 128 173 225 273 332 391
#     4  10  21  39  67  95 133 173 219 277 327 389
#     4  12  27  43  65 101 139 175 224 270 331 401
#     4  10  21  41  69  99 130 175 227 272 330 402
#     4  12  22  42  74  94 134 182 216 276 338 386
#
# _framework density 23.987178
#
# number of rings (size 3 to 8) (size 9 to 14) (size 15 to 20)
#    0.000    1.333    4.444    4.667    3.111    0.889 
#    0.000    2.222    0.000    0.000    0.000    0.000 
#    0.000    0.000    0.000    0.000    0.000    0.000 
#
# Total GULP energy -100900.393464 kJ/mol
# GULP energy per Si atom -5605.577415 kJ/mol
# Density = 2.393258 g / cm^3
# Si number density = 23.987178 Si / 1000 Ang^3
#
#
#
# Elastic Constant Matrix: (Units=GPa)
#
#
# Indices 1 2 3 4 5 6 
#
# 1 87.2738 48.6080 23.7611 0.0000 9.9125 0.0000
# 2 48.6080 222.3993 71.5703 0.0000 6.6545 0.0000
# 3 23.7611 71.5703 142.6891 0.0000 2.3985 0.0000
# 4 0.0000 0.0000 0.0000 80.4082 0.0000 115.5823
# 5 9.9125 6.6545 2.3985 0.0000 31.7295 0.0000
# 6 0.0000 0.0000 0.0000 115.5823 0.0000 617.2519
#
#
#
# Elastic Compliance Matrix: (Units=1/GPa)
#
#
# Indices 1 2 3 4 5 6 
#
# 1 0.013543 -0.002558 -0.000911 0.000000 -0.003625 0.000000
# 2 -0.002558 0.005872 -0.002515 0.000000 -0.000242 0.000000
# 3 -0.000911 -0.002515 0.008419 0.000000 0.000176 0.000000
# 4 0.000000 0.000000 0.000000 0.017017 0.000000 -0.003186
# 5 -0.003625 -0.000242 0.000176 0.000000 0.032687 0.000000
# 6 0.000000 0.000000 0.000000 -0.003186 0.000000 0.002217
#
#
# Mechanical properties :
#
#
# Convention : Reuss Voigt Hill
#
# Bulk Modulus (GPa) = 63.03421 82.24901 72.64161
# Shear Modulus (GPa) = 51.54025 166.43943 108.98984
#
# Velocity S-wave (km/s) = 4.64039 8.33891 6.74799
# Velocity P-wave (km/s) = 7.41932 11.27297 9.54270
#
# Compressibility (1/GPa) = 0.01586440
#
# Stress axis : x y z
#
# Youngs Moduli (GPa) = 73.83950 170.29191 118.78377
#
# Poissons Ratio (x) = 0.43565 0.10822
# Poissons Ratio (y) = 0.18890 0.29878
# Poissons Ratio (z) = 0.06727 0.42834
#
# Static dielectric constant tensor:
#      x y z
#    x 1.995990 0.000000 -0.032350 
#    y 0.000000 1.837130 0.000000 
#    z -0.032350 0.000000 1.851370 
# 
# From -- ./inp_files/28048.got.cif
#   From: 2010.05.17/outbox.cif.g08.bks.cpg/sg13_15_cif.got.tgz:28048.got - 2010.06.03 16:44:36.
