data_PCOD9229075
_publ_section_title
;
Structure prediction by ZEFSAII (Michael W. Deem and Ramdas Pophale) SiO2 
 PCOD9229075
Probable space group: P 2/C
;
_chemical_formula_sum "Si O2"
_cell_formula_units_Z 18
_cell_length_a 21.680965
_cell_length_b 7.274027
_cell_length_c 16.286076
_cell_angle_alpha 90.000000
_cell_angle_beta 17.841996
_cell_angle_gamma 90.000000
_cell_volume 786.953299
_symmetry_space_group_name_H-M "P 2/C"
_symmetry_group_IT_number 13
_symmetry_cell_setting 'monoclinic'
loop_
_space_group_symop_operation_xyz
x,y,z
-x,y,1/2-z
-x,-y,-z
x,-y,1/2+z
loop_
_atom_site_type_symbol
_atom_site_label
_atom_site_fract_x
_atom_site_fract_y
_atom_site_fract_z
Si Si1 0.267417 0.506533 0.263875
Si Si2 0.000000 0.511652 0.250000
Si Si3 0.262100 0.195535 0.149354
Si Si4 0.255086 0.172752 0.976607
Si Si5 0.735221 0.938211 0.209555
O O1 0.120473 0.411091 0.518473
O O2 0.234734 0.402252 0.219091
O O3 0.234173 0.725555 0.302993
O O4 0.500000 0.500000 0.000000
O O5 0.828560 0.377451 0.430986
O O6 0.186924 0.067669 0.317686
O O7 0.188703 0.131476 0.153077
O O8 0.504130 0.176138 0.834150
O O9 0.191667 0.055695 0.977286
O O10 0.500000 0.000000 0.500000
#
# Coordination Sequence:
#
# PCOD9229075 Si02
#       5
#     4   2   4   4   4
#     4  11  19  36  60  81 115 154 192 241 291 341
#     4  10  20  36  58  88 116 156 198 238 296 346
#     4  10  19  37  61  83 114 159 191 237 295 348
#     4   9  19  35  57  86 119 150 191 241 291 342
#     4   9  17  34  59  81 114 153 191 235 290 345
#
# _framework density 22.873021000000001
#
# number of rings (size 3 to 8) (size 9 to 14) (size 15 to 20)
#    0.000    2.222    6.667    0.000    0.000    0.889 
#    0.000   22.222    0.000    0.000    0.000    0.000 
#    0.000    0.000    0.000    0.000    0.000    0.000 
#
# Total GULP energy -100263.453280 kJ/mol
# GULP energy per Si atom -5570.191849 kJ/mol
# Density = 2.282096 g / cm^3
# Si number density = 22.873021 Si / 1000 Ang^3
#
#
#
# Elastic Constant Matrix: (Units=GPa)
#
#
# Indices 1 2 3 4 5 6 
#
# 1 178.1251 52.8879 44.0995 0.0000 56.2763 0.0000
# 2 52.8879 91.5787 27.3985 0.0000 21.0603 0.0000
# 3 44.0995 27.3985 142.2223 0.0000 31.2575 0.0000
# 4 0.0000 0.0000 0.0000 26.2666 0.0000 5.9412
# 5 56.2763 21.0603 31.2575 0.0000 44.6588 0.0000
# 6 0.0000 0.0000 0.0000 5.9412 0.0000 25.4292
#
#
#
# Elastic Compliance Matrix: (Units=1/GPa)
#
#
# Indices 1 2 3 4 5 6 
#
# 1 0.010131 -0.003261 -0.000054 0.000000 -0.011192 0.000000
# 2 -0.003261 0.013501 -0.001292 0.000000 -0.001352 0.000000
# 3 -0.000054 -0.001292 0.008447 0.000000 -0.005236 0.000000
# 4 0.000000 0.000000 0.000000 0.040195 0.000000 -0.009391
# 5 -0.011192 -0.001352 -0.005236 0.000000 0.040797 0.000000
# 6 0.000000 0.000000 0.000000 -0.009391 0.000000 0.041519
#
#
# Mechanical properties :
#
#
# Convention : Reuss Voigt Hill
#
# Bulk Modulus (GPa) = 43.73458 73.41089 58.57273
# Shear Modulus (GPa) = 29.16690 38.44028 33.80359
#
# Velocity S-wave (km/s) = 3.57482 4.10395 3.84849
# Velocity P-wave (km/s) = 6.01675 7.39062 6.73879
#
# Compressibility (1/GPa) = 0.02286520
#
# Stress axis : x y z
#
# Youngs Moduli (GPa) = 98.70270 74.07030 118.37827
#
# Poissons Ratio (x) = 0.24157 0.00634
# Poissons Ratio (y) = 0.32190 0.15299
# Poissons Ratio (z) = 0.00529 0.09573
#
# Static dielectric constant tensor:
#      x y z
#    x 1.942450 0.000000 -0.020770 
#    y 0.000000 1.849510 0.000000 
#    z -0.020770 0.000000 1.950450 
# 
# From -- ./inp_files/56994.got.cif
#   From: 2010.05.17/outbox.cif.g08.bks.cpg/sg13_29_cif.got.tgz:56994.got - 2010.06.03 16:44:36.
