data_PCOD9229294
_publ_section_title
;
Structure prediction by ZEFSAII (Michael W. Deem and Ramdas Pophale) SiO2 
 PCOD9229294
Probable space group: P 2/C
;
_chemical_formula_sum "Si O2"
_cell_formula_units_Z 32
_cell_length_a 9.595268
_cell_length_b 10.544125
_cell_length_c 29.822126
_cell_angle_alpha 90.000000
_cell_angle_beta 30.717631
_cell_angle_gamma 90.000000
_cell_volume 1541.216003
_symmetry_space_group_name_H-M "P 2/C"
_symmetry_group_IT_number 13
_symmetry_cell_setting 'monoclinic'
loop_
_space_group_symop_operation_xyz
x,y,z
-x,y,1/2-z
-x,-y,-z
x,-y,1/2+z
loop_
_atom_site_type_symbol
_atom_site_label
_atom_site_fract_x
_atom_site_fract_y
_atom_site_fract_z
Si Si1 0.842070 0.626796 0.527988
Si Si2 0.194736 0.102071 0.425387
Si Si3 0.783797 0.973183 0.769191
Si Si4 0.844866 0.364203 0.399110
Si Si5 0.234705 0.654691 0.051089
Si Si6 0.196922 0.834449 0.829756
Si Si7 0.877642 0.259862 0.733224
Si Si8 0.246135 0.534062 0.717522
O O1 0.893741 0.753162 0.542229
O O2 0.896430 0.667930 0.461503
O O3 0.521624 0.590716 0.621893
O O4 0.000000 0.500000 0.500000
O O5 0.206831 0.072591 0.369112
O O6 0.495492 0.085894 0.362741
O O7 0.000000 0.000000 0.500000
O O8 0.744516 0.121708 0.767810
O O9 0.000000 0.960601 0.750000
O O10 0.859067 0.901911 0.702102
O O11 0.791783 0.504552 0.431668
O O12 0.557734 0.316400 0.459262
O O13 0.956547 0.265364 0.403715
O O14 0.103671 0.379754 0.294508
O O15 0.095420 0.724222 0.132191
O O16 0.500000 0.773532 0.750000
O O17 0.704080 0.390141 0.778900
O O18 0.000000 0.261080 0.750000
O O19 0.000000 0.525559 0.750000
#
# Coordination Sequence:
#
# PCOD9229294 Si02
#       8
#     4   4   4   4   4   4   4   4
#     4  12  26  42  68 102 140 175 233 282 343 412
#     4  11  27  45  64  94 139 181 218 278 351 400
#     4  10  23  43  70  97 127 178 237 278 329 419
#     4  10  20  37  65  95 134 166 218 277 342 400
#     4  10  22  38  63 104 129 169 224 282 332 405
#     4  10  22  41  63  88 129 173 215 270 336 395
#     4   9  21  39  64  96 135 172 220 281 347 396
#     4  10  19  38  66  97 132 175 218 277 345 400
#
# _framework density 20.762827000000001
#
# number of rings (size 3 to 8) (size 9 to 14) (size 15 to 20)
#    0.000    1.750    1.250    2.250    7.000    3.000 
#    0.000    3.125    0.000    0.000    0.000    0.000 
#    0.000    0.000    0.000    0.000    0.000    0.000 
#
# Total GULP energy -178391.202077 kJ/mol
# GULP energy per Si atom -5574.725065 kJ/mol
# Density = 2.071557 g / cm^3
# Si number density = 20.762827 Si / 1000 Ang^3
#
#
#
# Elastic Constant Matrix: (Units=GPa)
#
#
# Indices 1 2 3 4 5 6 
#
# 1 121.9066 31.5455 41.0500 0.0000 7.4642 0.0000
# 2 31.5455 111.3648 25.8255 0.0000 -3.8186 0.0000
# 3 41.0500 25.8255 81.9612 0.0000 4.9528 0.0000
# 4 0.0000 0.0000 0.0000 7.0460 0.0000 -2.8290
# 5 7.4642 -3.8186 4.9528 0.0000 22.2187 0.0000
# 6 0.0000 0.0000 0.0000 -2.8290 0.0000 12.3001
#
#
#
# Elastic Compliance Matrix: (Units=1/GPa)
#
#
# Indices 1 2 3 4 5 6 
#
# 1 0.010378 -0.002020 -0.004389 0.000000 -0.002855 0.000000
# 2 -0.002020 0.010206 -0.002383 0.000000 0.002964 0.000000
# 3 -0.004389 -0.002383 0.015292 0.000000 -0.002344 0.000000
# 4 0.000000 0.000000 0.000000 0.156364 0.000000 0.035964
# 5 -0.002855 0.002964 -0.002344 0.000000 0.046998 0.000000
# 6 0.000000 0.000000 0.000000 0.035964 0.000000 0.089572
#
#
# Mechanical properties :
#
#
# Convention : Reuss Voigt Hill
#
# Bulk Modulus (GPa) = 54.66952 56.89717 55.78334
# Shear Modulus (GPa) = 14.18473 22.76708 18.47591
#
# Velocity S-wave (km/s) = 2.61661 3.31498 2.98628
# Velocity P-wave (km/s) = 5.95957 6.48961 6.23023
#
# Compressibility (1/GPa) = 0.01829173
#
# Stress axis : x y z
#
# Youngs Moduli (GPa) = 96.35354 97.98177 65.39500
#
# Poissons Ratio (x) = 0.19792 0.28702
# Poissons Ratio (y) = 0.19463 0.15585
# Poissons Ratio (z) = 0.42290 0.23352
#
# Static dielectric constant tensor:
#      x y z
#    x 1.767540 0.000000 -0.035520 
#    y 0.000000 1.754420 0.000000 
#    z -0.035520 0.000000 1.795390 
# 
# From -- ./inp_files/96129.got.cif
#   From: 2010.05.17/outbox.cif.g08.bks.cpg/sg13_49_cif.got.tgz:96129.got - 2010.06.03 16:44:36.
