data_PCOD9229275
_publ_section_title
;
Structure prediction by ZEFSAII (Michael W. Deem and Ramdas Pophale) SiO2 
 PCOD9229275
Probable space group: P 2/C
;
_chemical_formula_sum "Si O2"
_cell_formula_units_Z 20
_cell_length_a 11.579791
_cell_length_b 9.594372
_cell_length_c 8.783347
_cell_angle_alpha 90.000000
_cell_angle_beta 110.611585
_cell_angle_gamma 90.000000
_cell_volume 913.372160
_symmetry_space_group_name_H-M "P 2/C"
_symmetry_group_IT_number 13
_symmetry_cell_setting 'monoclinic'
loop_
_space_group_symop_operation_xyz
x,y,z
-x,y,1/2-z
-x,-y,-z
x,-y,1/2+z
loop_
_atom_site_type_symbol
_atom_site_label
_atom_site_fract_x
_atom_site_fract_y
_atom_site_fract_z
Si Si1 0.693995 0.907353 0.121063
Si Si2 0.458064 0.810532 0.904887
Si Si3 0.787186 0.673361 0.753788
Si Si4 0.860352 0.042966 0.410673
Si Si5 0.090861 0.552211 0.410394
O O1 0.617680 0.052676 0.078148
O O2 0.777599 0.915946 0.308885
O O3 0.584360 0.795570 0.057825
O O4 0.789957 0.906354 0.028087
O O5 0.500000 0.836410 0.750000
O O6 0.355950 0.690983 0.854722
O O7 0.849968 0.827127 0.788348
O O8 0.852298 0.571210 0.664663
O O9 0.804877 0.621373 0.936293
O O10 0.000000 0.000000 0.500000
O O11 0.000000 0.634644 0.250000
O O12 0.000000 0.500000 0.500000
#
# Coordination Sequence:
#
# PCOD9229275 Si02
#       5
#     4   4   4   4   4
#     4  10  20  37  61  90 132 177 202 247 345 394
#     4  10  19  38  65  86 129 174 207 260 318 402
#     4  10  21  40  63  93 127 168 224 270 326 389
#     4  11  23  38  64 103 137 165 215 273 330 407
#     4   9  20  39  66  87 124 171 216 273 332 380
#
# _framework density 21.896878999999998
#
# number of rings (size 3 to 8) (size 9 to 14) (size 15 to 20)
#    0.000    2.000    4.000    0.600    0.000   11.200 
#    0.000    5.000    8.800    0.000    0.000    0.000 
#    0.000    0.000    0.000    0.000    0.000    0.000 
#
# Total GULP energy -111485.656848 kJ/mol
# GULP energy per Si atom -5574.282842 kJ/mol
# Density = 2.184704 g / cm^3
# Si number density = 21.896879 Si / 1000 Ang^3
#
#
#
# Elastic Constant Matrix: (Units=GPa)
#
#
# Indices 1 2 3 4 5 6 
#
# 1 139.8725 42.3403 46.5565 0.0000 18.1398 0.0000
# 2 42.3403 48.9999 30.7789 0.0000 4.0986 0.0000
# 3 46.5565 30.7789 110.4351 0.0000 29.4228 0.0000
# 4 0.0000 0.0000 0.0000 36.3071 0.0000 5.5070
# 5 18.1398 4.0986 29.4228 0.0000 54.9501 0.0000
# 6 0.0000 0.0000 0.0000 5.5070 0.0000 32.9027
#
#
#
# Elastic Compliance Matrix: (Units=1/GPa)
#
#
# Indices 1 2 3 4 5 6 
#
# 1 0.010279 -0.007662 -0.001687 0.000000 -0.001919 0.000000
# 2 -0.007662 0.030671 -0.006278 0.000000 0.003603 0.000000
# 3 -0.001687 -0.006278 0.013114 0.000000 -0.005997 0.000000
# 4 0.000000 0.000000 0.000000 0.028260 0.000000 -0.004730
# 5 -0.001919 0.003603 -0.005997 0.000000 0.021774 0.000000
# 6 0.000000 0.000000 0.000000 -0.004730 0.000000 0.031184
#
#
# Mechanical properties :
#
#
# Convention : Reuss Voigt Hill
#
# Bulk Modulus (GPa) = 43.84064 59.85099 51.84582
# Shear Modulus (GPa) = 28.71276 36.80741 32.76009
#
# Velocity S-wave (km/s) = 3.62508 4.10438 3.87215
# Velocity P-wave (km/s) = 6.13078 7.06071 6.61212
#
# Compressibility (1/GPa) = 0.02280988
#
# Stress axis : x y z
#
# Youngs Moduli (GPa) = 97.28639 32.60416 76.25694
#
# Poissons Ratio (x) = 0.24981 0.12863
# Poissons Ratio (y) = 0.74540 0.47875
# Poissons Ratio (z) = 0.16410 0.20469
#
# Static dielectric constant tensor:
#      x y z
#    x 1.793320 0.000000 0.037240 
#    y 0.000000 1.894500 0.000000 
#    z 0.037240 0.000000 1.898480 
# 
# From -- ./inp_files/15644.got.cif
#   From: 2010.05.17/outbox.cif.g08.bks.cpg/sg13_8_cif.got.tgz:15644.got - 2010.06.03 16:44:36.
