data_PCOD9229907
_publ_section_title
;
Structure prediction by ZEFSAII (Michael W. Deem and Ramdas Pophale) SiO2 
 PCOD9229907
Probable space group: P 2/C
;
_chemical_formula_sum "Si O2"
_cell_formula_units_Z 32
_cell_length_a 12.295045
_cell_length_b 11.926200
_cell_length_c 12.257498
_cell_angle_alpha 90.000000
_cell_angle_beta 78.167382
_cell_angle_gamma 90.000000
_cell_volume 1759.163386
_symmetry_space_group_name_H-M "P 2/C"
_symmetry_group_IT_number 13
_symmetry_cell_setting 'monoclinic'
loop_
_space_group_symop_operation_xyz
x,y,z
-x,y,1/2-z
-x,-y,-z
x,-y,1/2+z
loop_
_atom_site_type_symbol
_atom_site_label
_atom_site_fract_x
_atom_site_fract_y
_atom_site_fract_z
Si Si1 0.957084 0.935047 0.404674
Si Si2 0.384587 0.861762 0.231085
Si Si3 0.326867 0.597484 0.833600
Si Si4 0.213437 0.183759 0.426936
Si Si5 0.445892 0.667283 0.594576
Si Si6 0.168047 0.993998 0.758457
Si Si7 0.607182 0.634936 0.148920
Si Si8 0.444820 0.118712 0.480984
O O1 0.877675 0.835195 0.459842
O O2 0.876510 0.019342 0.354367
O O3 0.074013 0.917688 0.319571
O O4 0.000000 0.000000 0.500000
O O5 0.500000 0.913734 0.250000
O O6 0.286614 0.949121 0.241705
O O7 0.357219 0.757876 0.315808
O O8 0.411982 0.822431 0.102785
O O9 0.239920 0.687772 0.895849
O O10 0.357141 0.629412 0.702790
O O11 0.437575 0.617101 0.885370
O O12 0.306607 0.465209 0.846602
O O13 0.329537 0.122458 0.438095
O O14 0.169806 0.117308 0.329814
O O15 0.419765 0.636485 0.474739
O O16 0.465507 0.801424 0.594747
O O17 0.500000 0.610681 0.250000
O O18 0.500000 0.000000 0.500000
#
# Coordination Sequence:
#
# PCOD9229907 Si02
#       8
#     4   4   4   4   4   4   4   4
#     4   9  19  38  62  81 106 149 191 242 281 341
#     4  11  21  34  53  86 115 155 186 225 287 343
#     4  10  22  33  53  78 109 153 194 242 281 323
#     4  10  21  35  54  82 111 147 187 240 296 332
#     4  10  20  35  48  75 111 160 199 226 273 339
#     4  10  20  37  58  86 112 145 196 229 288 356
#     4  11  20  35  54  75 111 160 206 233 271 342
#     4  11  21  32  49  78 124 157 182 229 288 349
#
# _framework density 18.190465
#
# number of rings (size 3 to 8) (size 9 to 14) (size 15 to 20)
#    0.000    1.750    5.000    1.125    1.750    0.000 
#    2.250    0.000    0.000    0.750    0.000    7.000 
#    0.000    0.000    0.000    0.000    0.000    0.000 
#
# Total GULP energy -178195.748190 kJ/mol
# GULP energy per Si atom -5568.617131 kJ/mol
# Density = 1.814906 g / cm^3
# Si number density = 18.190465 Si / 1000 Ang^3
#
#
#
# Elastic Constant Matrix: (Units=GPa)
#
#
# Indices 1 2 3 4 5 6 
#
# 1 73.7211 20.4448 14.7537 0.0000 10.7491 0.0000
# 2 20.4448 54.2577 6.0292 0.0000 6.7789 0.0000
# 3 14.7537 6.0292 92.4656 0.0000 28.7036 0.0000
# 4 0.0000 0.0000 0.0000 20.5166 0.0000 0.3950
# 5 10.7491 6.7789 28.7036 0.0000 23.3904 0.0000
# 6 0.0000 0.0000 0.0000 0.3950 0.0000 16.1786
#
#
#
# Elastic Compliance Matrix: (Units=1/GPa)
#
#
# Indices 1 2 3 4 5 6 
#
# 1 0.015887 -0.005293 -0.000645 0.000000 -0.004975 0.000000
# 2 -0.005293 0.020920 0.000981 0.000000 -0.004835 0.000000
# 3 -0.000645 0.000981 0.017527 0.000000 -0.021496 0.000000
# 4 0.000000 0.000000 0.000000 0.048764 0.000000 -0.001190
# 5 -0.004975 -0.004835 -0.021496 0.000000 0.072818 0.000000
# 6 0.000000 0.000000 0.000000 -0.001190 0.000000 0.061839
#
#
# Mechanical properties :
#
#
# Convention : Reuss Voigt Hill
#
# Bulk Modulus (GPa) = 22.51281 33.65554 28.08417
# Shear Modulus (GPa) = 19.04935 23.96491 21.50713
#
# Velocity S-wave (km/s) = 3.23958 3.63360 3.44223
# Velocity P-wave (km/s) = 5.13773 6.01215 5.59206
#
# Compressibility (1/GPa) = 0.04441915
#
# Stress axis : x y z
#
# Youngs Moduli (GPa) = 62.94419 47.80100 57.05603
#
# Poissons Ratio (x) = 0.25302 0.03683
# Poissons Ratio (y) = 0.33317 -0.05599
# Poissons Ratio (z) = 0.04063 -0.04691
#
# Static dielectric constant tensor:
#      x y z
#    x 1.627510 0.000000 -0.021690 
#    y 0.000000 1.626360 0.000000 
#    z -0.021690 0.000000 1.758490 
# 
# From -- ./inp_files/33862.got.cif
#   From: 2010.05.17/outbox.cif.g08.bks.cpg/sg13_17_cif.got.tgz:33862.got - 2010.06.03 16:44:36.
