data_PCOD9229471
_publ_section_title
;
Structure prediction by ZEFSAII (Michael W. Deem and Ramdas Pophale) SiO2 
 PCOD9229471
Probable space group: P 2/C
;
_chemical_formula_sum "Si O2"
_cell_formula_units_Z 30
_cell_length_a 18.413385
_cell_length_b 9.582009
_cell_length_c 23.644759
_cell_angle_alpha 90.000000
_cell_angle_beta 157.951596
_cell_angle_gamma 90.000000
_cell_volume 1566.056814
_symmetry_space_group_name_H-M "P 2/C"
_symmetry_group_IT_number 13
_symmetry_cell_setting 'monoclinic'
loop_
_space_group_symop_operation_xyz
x,y,z
-x,y,1/2-z
-x,-y,-z
x,-y,1/2+z
loop_
_atom_site_type_symbol
_atom_site_label
_atom_site_fract_x
_atom_site_fract_y
_atom_site_fract_z
Si Si1 0.718531 0.950476 0.135635
Si Si2 0.188186 0.656095 0.139475
Si Si3 0.109071 0.619734 0.883391
Si Si4 0.805735 0.035936 0.824986
Si Si5 0.000000 0.890175 0.750000
Si Si6 0.466895 0.228003 0.385661
Si Si7 0.133173 0.587769 0.678615
Si Si8 0.503410 0.545970 0.816828
O O1 0.836597 0.946700 0.279452
O O2 0.847704 0.033148 0.182101
O O3 0.656783 0.811442 0.057862
O O4 0.500000 0.000000 0.000000
O O5 0.262031 0.812015 0.202239
O O6 0.166404 0.570680 0.182240
O O7 0.323732 0.555232 0.200517
O O8 0.986557 0.657469 0.959794
O O9 0.000000 0.558461 0.750000
O O10 0.984438 0.598647 0.849247
O O11 0.311423 0.547759 0.037592
O O12 0.121762 0.783886 0.877640
O O13 0.648407 0.912095 0.716306
O O14 0.000000 0.000000 0.000000
O O15 0.326459 0.321735 0.323245
O O16 0.504328 0.323099 0.358748
O O17 0.500000 0.591863 0.750000
#
# Coordination Sequence:
#
# PCOD9229471 Si02
#       8
#     4   4   4   4   2   4   4   4
#     4  10  23  44  67  90 139 173 214 275 338 400
#     4  10  22  36  67  92 124 168 216 264 336 389
#     4  10  23  37  66  89 126 165 219 266 328 393
#     4  11  22  38  68  97 123 170 222 269 328 407
#     4  10  24  44  64  98 130 180 218 274 338 410
#     4  10  23  42  64  91 130 172 213 267 336 399
#     4  10  19  42  62  93 125 165 213 275 326 393
#     4  11  23  42  62  93 134 167 214 283 331 390
#
# _framework density 19.156393000000001
#
# number of rings (size 3 to 8) (size 9 to 14) (size 15 to 20)
#    0.400    1.333    2.667    1.600    3.733    1.067 
#    6.000    3.333    0.000    0.000    0.000    0.000 
#    0.000    0.000    0.000    0.000    0.000    0.000 
#
# Total GULP energy -167146.519031 kJ/mol
# GULP energy per Si atom -5571.550634 kJ/mol
# Density = 1.911279 g / cm^3
# Si number density = 19.156393 Si / 1000 Ang^3
#
#
#
# Elastic Constant Matrix: (Units=GPa)
#
#
# Indices 1 2 3 4 5 6 
#
# 1 113.5076 57.8275 34.9767 0.0000 7.4570 0.0000
# 2 57.8275 109.3823 30.5931 0.0000 -1.7885 0.0000
# 3 34.9767 30.5931 82.3354 0.0000 -8.5953 0.0000
# 4 0.0000 0.0000 0.0000 28.8414 0.0000 1.3344
# 5 7.4570 -1.7885 -8.5953 0.0000 22.8725 0.0000
# 6 0.0000 0.0000 0.0000 1.3344 0.0000 8.9924
#
#
#
# Elastic Compliance Matrix: (Units=1/GPa)
#
#
# Indices 1 2 3 4 5 6 
#
# 1 0.013670 -0.006159 -0.004199 0.000000 -0.006516 0.000000
# 2 -0.006159 0.012987 -0.001971 0.000000 0.002283 0.000000
# 3 -0.004199 -0.001971 0.015392 0.000000 0.006999 0.000000
# 4 0.000000 0.000000 0.000000 0.034912 0.000000 -0.005181
# 5 -0.006516 0.002283 0.006999 0.000000 0.048654 0.000000
# 6 0.000000 0.000000 0.000000 -0.005181 0.000000 0.111973
#
#
# Mechanical properties :
#
#
# Convention : Reuss Voigt Hill
#
# Bulk Modulus (GPa) = 57.49924 61.33554 59.41739
# Shear Modulus (GPa) = 18.65382 24.26315 21.45848
#
# Velocity S-wave (km/s) = 3.12391 3.56277 3.35053
# Velocity P-wave (km/s) = 6.56449 7.00087 6.78619
#
# Compressibility (1/GPa) = 0.01739153
#
# Stress axis : x y z
#
# Youngs Moduli (GPa) = 73.15487 77.00095 64.96861
#
# Poissons Ratio (x) = 0.47425 0.27279
# Poissons Ratio (y) = 0.45056 0.12804
# Poissons Ratio (z) = 0.30716 0.15175
#
# Static dielectric constant tensor:
#      x y z
#    x 1.664490 0.000000 0.010660 
#    y 0.000000 1.685740 0.000000 
#    z 0.010660 0.000000 1.790750 
# 
# From -- ./inp_files/93527.got.cif
#   From: 2010.05.17/outbox.cif.g08.bks.cpg/sg13_47_cif.got.tgz:93527.got - 2010.06.03 16:44:36.
