data_PCOD9229093
_publ_section_title
;
Structure prediction by ZEFSAII (Michael W. Deem and Ramdas Pophale) SiO2 
 PCOD9229093
Probable space group: P 2/C
;
_chemical_formula_sum "Si O2"
_cell_formula_units_Z 28
_cell_length_a 8.163509
_cell_length_b 9.420350
_cell_length_c 28.297426
_cell_angle_alpha 90.000000
_cell_angle_beta 39.561660
_cell_angle_gamma 90.000000
_cell_volume 1386.014337
_symmetry_space_group_name_H-M "P 2/C"
_symmetry_group_IT_number 13
_symmetry_cell_setting 'monoclinic'
loop_
_space_group_symop_operation_xyz
x,y,z
-x,y,1/2-z
-x,-y,-z
x,-y,1/2+z
loop_
_atom_site_type_symbol
_atom_site_label
_atom_site_fract_x
_atom_site_fract_y
_atom_site_fract_z
Si Si1 0.045218 0.840658 0.504254
Si Si2 0.770941 0.847896 0.927207
Si Si3 0.772486 0.672138 0.215074
Si Si4 0.449910 0.692387 0.137576
Si Si5 0.253617 0.820625 0.083287
Si Si6 0.202082 0.367035 0.318676
Si Si7 0.764454 0.574879 0.578825
O O1 0.142411 0.847369 0.536923
O O2 0.274295 0.771880 0.422656
O O3 0.793911 0.739765 0.557778
O O4 0.000000 0.000000 0.500000
O O5 0.987320 0.750033 0.855636
O O6 0.761191 0.008529 0.910453
O O7 0.478406 0.789690 0.995308
O O8 0.500000 0.675472 0.250000
O O9 0.723879 0.728198 0.278671
O O10 0.843059 0.506169 0.202548
O O11 0.973319 0.756654 0.138200
O O12 0.328818 0.745384 0.115802
O O13 0.520034 0.524194 0.122760
O O14 0.500000 0.316447 0.250000
O O15 0.179845 0.422935 0.377594
O O16 0.000000 0.500000 0.500000
#
# Coordination Sequence:
#
# PCOD9229093 Si02
#       7
#     4   4   4   4   4   4   4
#     4   9  19  33  59  88 119 157 209 256 299 371
#     4   9  21  40  58  84 125 167 202 252 314 375
#     4  11  22  36  62  91 118 155 213 262 306 374
#     4  10  19  38  56  85 124 161 197 253 319 362
#     4  10  22  39  59  85 125 167 202 249 313 382
#     4  10  19  37  61  94 122 154 208 267 304 368
#     4   9  17  33  58  84 120 158 196 249 306 360
#
# _framework density 20.201812
#
# number of rings (size 3 to 8) (size 9 to 14) (size 15 to 20)
#    0.000    2.286    2.857    1.286    2.000    1.143 
#    2.571    4.286    0.000    1.714    0.000    0.000 
#    0.000    0.000    0.000    0.000    0.000    0.000 
#
# Total GULP energy -156066.977758 kJ/mol
# GULP energy per Si atom -5573.820634 kJ/mol
# Density = 2.015583 g / cm^3
# Si number density = 20.201812 Si / 1000 Ang^3
#
#
#
# Elastic Constant Matrix: (Units=GPa)
#
#
# Indices 1 2 3 4 5 6 
#
# 1 31.0120 24.3074 10.2201 0.0000 -1.0622 0.0000
# 2 24.3074 114.3417 38.9875 0.0000 -15.4419 0.0000
# 3 10.2201 38.9875 84.8000 0.0000 -17.0825 0.0000
# 4 0.0000 0.0000 0.0000 30.6841 0.0000 -7.2716
# 5 -1.0622 -15.4419 -17.0825 0.0000 31.7619 0.0000
# 6 0.0000 0.0000 0.0000 -7.2716 0.0000 37.3213
#
#
#
# Elastic Compliance Matrix: (Units=1/GPa)
#
#
# Indices 1 2 3 4 5 6 
#
# 1 0.039124 -0.008239 -0.001649 0.000000 -0.003584 0.000000
# 2 -0.008239 0.012330 -0.003952 0.000000 0.003594 0.000000
# 3 -0.001649 -0.003952 0.015039 0.000000 0.006112 0.000000
# 4 0.000000 0.000000 0.000000 0.034168 0.000000 0.006657
# 5 -0.003584 0.003594 0.006112 0.000000 0.036399 0.000000
# 6 0.000000 0.000000 0.000000 0.006657 0.000000 0.028091
#
#
# Mechanical properties :
#
#
# Convention : Reuss Voigt Hill
#
# Bulk Modulus (GPa) = 25.76450 41.90930 33.83690
# Shear Modulus (GPa) = 24.29901 30.39602 27.34752
#
# Velocity S-wave (km/s) = 3.47192 3.88315 3.68328
# Velocity P-wave (km/s) = 5.37155 6.39496 5.90547
#
# Compressibility (1/GPa) = 0.03881309
#
# Stress axis : x y z
#
# Youngs Moduli (GPa) = 25.55974 81.10283 66.49181
#
# Poissons Ratio (x) = 0.66820 0.10967
# Poissons Ratio (y) = 0.21058 0.26277
# Poissons Ratio (z) = 0.04216 0.32052
#
# Static dielectric constant tensor:
#      x y z
#    x 1.783330 0.000000 0.005130 
#    y 0.000000 1.683830 0.000000 
#    z 0.005130 0.000000 1.832260 
# 
# From -- ./inp_files/91406.got.cif
#   From: 2010.05.17/outbox.cif.g08.bks.cpg/sg13_46_cif.got.tgz:91406.got - 2010.06.03 16:44:36.
