data_PCOD9229976
_publ_section_title
;
Structure prediction by ZEFSAII (Michael W. Deem and Ramdas Pophale) SiO2 
 PCOD9229976
Probable space group: P 2/C
;
_chemical_formula_sum "Si O2"
_cell_formula_units_Z 28
_cell_length_a 17.817665
_cell_length_b 5.868404
_cell_length_c 13.277404
_cell_angle_alpha 90.000000
_cell_angle_beta 111.160031
_cell_angle_gamma 90.000000
_cell_volume 1294.696947
_symmetry_space_group_name_H-M "P 2/C"
_symmetry_group_IT_number 13
_symmetry_cell_setting 'monoclinic'
loop_
_space_group_symop_operation_xyz
x,y,z
-x,y,1/2-z
-x,-y,-z
x,-y,1/2+z
loop_
_atom_site_type_symbol
_atom_site_label
_atom_site_fract_x
_atom_site_fract_y
_atom_site_fract_z
Si Si1 0.672030 0.949134 0.696341
Si Si2 0.769373 0.072570 0.561191
Si Si3 0.458396 0.254233 0.499043
Si Si4 0.350850 0.226657 0.634864
Si Si5 0.231004 0.621121 0.622236
Si Si6 0.049428 0.984811 0.362595
Si Si7 0.057242 0.689872 0.568842
O O1 0.621748 0.084835 0.754847
O O2 0.716713 0.104262 0.635650
O O3 0.617759 0.767585 0.612409
O O4 0.740040 0.827373 0.794337
O O5 0.715685 0.906655 0.465185
O O6 0.858234 0.973166 0.626326
O O7 0.778019 0.298860 0.498255
O O8 0.500000 0.500000 0.500000
O O9 0.423899 0.268812 0.595262
O O10 0.500000 0.000000 0.500000
O O11 0.301345 0.438173 0.654429
O O12 0.143452 0.569408 0.624024
O O13 0.000000 0.855069 0.250000
O O14 0.987542 0.188699 0.360201
O O15 0.063627 0.866594 0.478341
O O16 0.000000 0.500000 0.500000
#
# Coordination Sequence:
#
# PCOD9229976 Si02
#       7
#     4   4   4   4   4   4   4
#     4  10  23  42  68  96 126 175 222 272 337 417
#     4   9  20  38  59  88 128 169 222 276 340 394
#     4  11  28  49  74 104 144 178 218 285 354 420
#     4  10  23  42  68  94 130 170 226 275 338 416
#     4  10  21  38  64  91 124 177 225 279 330 414
#     4  10  20  35  56  84 126 172 217 278 333 397
#     4  10  21  36  56  88 129 167 222 278 338 384
#
# _framework density 21.626683
#
# number of rings (size 3 to 8) (size 9 to 14) (size 15 to 20)
#    0.000    2.000    0.000    1.714    8.000    5.714 
#    0.000    4.286    0.000    0.000    0.000    0.000 
#    0.000    0.000    0.000    0.000    0.000    0.000 
#
# Total GULP energy -155967.181982 kJ/mol
# GULP energy per Si atom -5570.256499 kJ/mol
# Density = 2.157746 g / cm^3
# Si number density = 21.626683 Si / 1000 Ang^3
#
#
#
# Elastic Constant Matrix: (Units=GPa)
#
#
# Indices 1 2 3 4 5 6 
#
# 1 122.6111 31.0000 32.4401 0.0000 -12.5285 0.0000
# 2 31.0000 44.2065 -2.5546 0.0000 -10.0788 0.0000
# 3 32.4401 -2.5546 83.4546 0.0000 -17.8698 0.0000
# 4 0.0000 0.0000 0.0000 11.7846 0.0000 2.1172
# 5 -12.5285 -10.0788 -17.8698 0.0000 28.4965 0.0000
# 6 0.0000 0.0000 0.0000 2.1172 0.0000 21.5478
#
#
#
# Elastic Compliance Matrix: (Units=1/GPa)
#
#
# Indices 1 2 3 4 5 6 
#
# 1 0.011547 -0.008638 -0.004990 0.000000 -0.001108 0.000000
# 2 -0.008638 0.031746 0.006839 0.000000 0.011719 0.000000
# 3 -0.004990 0.006839 0.016379 0.000000 0.010496 0.000000
# 4 0.000000 0.000000 0.000000 0.086381 0.000000 -0.008488
# 5 -0.001108 0.011719 0.010496 0.000000 0.045332 0.000000
# 6 0.000000 0.000000 0.000000 -0.008488 0.000000 0.047242
#
#
# Mechanical properties :
#
#
# Convention : Reuss Voigt Hill
#
# Bulk Modulus (GPa) = 21.69540 41.33813 31.51677
# Shear Modulus (GPa) = 18.68667 24.99157 21.83912
#
# Velocity S-wave (km/s) = 2.94267 3.40308 3.18122
# Velocity P-wave (km/s) = 4.64751 5.88194 5.30078
#
# Compressibility (1/GPa) = 0.04609273
#
# Stress axis : x y z
#
# Youngs Moduli (GPa) = 86.60265 31.50027 61.05331
#
# Poissons Ratio (x) = 0.27211 0.30466
# Poissons Ratio (y) = 0.74810 -0.41754
# Poissons Ratio (z) = 0.43216 -0.21543
#
# Static dielectric constant tensor:
#      x y z
#    x 1.823100 0.000000 -0.010210 
#    y 0.000000 1.834580 0.000000 
#    z -0.010210 0.000000 1.810620 
# 
# From -- ./inp_files/54486.got.cif
#   From: 2010.05.17/outbox.cif.g08.bks.cpg/sg13_28_cif.got.tgz:54486.got - 2010.06.03 16:44:36.
