data_PCOD9229998
_publ_section_title
;
Structure prediction by ZEFSAII (Michael W. Deem and Ramdas Pophale) SiO2 
 PCOD9229998
Probable space group: P 2/C
;
_chemical_formula_sum "Si O2"
_cell_formula_units_Z 20
_cell_length_a 17.081848
_cell_length_b 11.675601
_cell_length_c 8.773852
_cell_angle_alpha 90.000000
_cell_angle_beta 31.135471
_cell_angle_gamma 90.000000
_cell_volume 904.790732
_symmetry_space_group_name_H-M "P 2/C"
_symmetry_group_IT_number 13
_symmetry_cell_setting 'monoclinic'
loop_
_space_group_symop_operation_xyz
x,y,z
-x,y,1/2-z
-x,-y,-z
x,-y,1/2+z
loop_
_atom_site_type_symbol
_atom_site_label
_atom_site_fract_x
_atom_site_fract_y
_atom_site_fract_z
Si Si1 0.500000 0.991512 0.750000
Si Si2 0.842621 0.640547 0.737546
Si Si3 0.000000 0.463174 0.250000
Si Si4 0.000000 0.050709 0.250000
Si Si5 0.922603 0.840207 0.171543
Si Si6 0.630736 0.156957 0.306219
Si Si7 0.500000 0.679512 0.250000
O O1 0.431757 0.914987 0.730670
O O2 0.630066 0.069582 0.452788
O O3 0.885624 0.612433 0.840240
O O4 0.918327 0.546231 0.504371
O O5 0.925902 0.763560 0.565890
O O6 0.665782 0.628659 0.996589
O O7 0.904108 0.129721 0.524237
O O8 0.078187 0.961414 0.235750
O O9 0.780684 0.782111 0.491371
O O10 0.517485 0.248786 0.564150
#
# Coordination Sequence:
#
# PCOD9229998 Si02
#       7
#     2   4   2   2   4   4   2
#     4   9  20  34  52  87 130 174 224 263 304 365
#     4  11  24  44  67  94 126 161 211 267 320 379
#     4  10  24  46  72  92 116 162 212 266 326 382
#     4  10  22  32  58  92 122 166 212 250 294 354
#     4  11  21  38  60  89 126 166 212 255 301 370
#     4  10  20  35  57  84 126 175 213 260 314 367
#     4  11  24  40  62  93 128 162 200 261 330 381
#
# _framework density 22.104558999999998
#
# number of rings (size 3 to 8) (size 9 to 14) (size 15 to 20)
#    0.000    1.600    0.000    4.800    0.000   12.000 
#    0.000    0.000    0.000    0.000    0.000    0.000 
#    0.000    0.000    0.000    0.000    0.000    0.000 
#
# Total GULP energy -111466.000263 kJ/mol
# GULP energy per Si atom -5573.300013 kJ/mol
# Density = 2.205425 g / cm^3
# Si number density = 22.104559 Si / 1000 Ang^3
#
#
#
# Elastic Constant Matrix: (Units=GPa)
#
#
# Indices 1 2 3 4 5 6 
#
# 1 120.4171 35.0736 56.7893 0.0000 14.1111 0.0000
# 2 35.0736 47.3376 31.4256 0.0000 -3.7786 0.0000
# 3 56.7893 31.4256 135.5838 0.0000 10.9392 0.0000
# 4 0.0000 0.0000 0.0000 38.6785 0.0000 -22.8606
# 5 14.1111 -3.7786 10.9392 0.0000 46.3412 0.0000
# 6 0.0000 0.0000 0.0000 -22.8606 0.0000 81.1753
#
#
#
# Elastic Compliance Matrix: (Units=1/GPa)
#
#
# Indices 1 2 3 4 5 6 
#
# 1 0.012368 -0.007335 -0.003189 0.000000 -0.003611 0.000000
# 2 -0.007335 0.029876 -0.004311 0.000000 0.005687 0.000000
# 3 -0.003189 -0.004311 0.009848 0.000000 -0.001705 0.000000
# 4 0.000000 0.000000 0.000000 0.031017 0.000000 0.008735
# 5 -0.003611 0.005687 -0.001705 0.000000 0.023545 0.000000
# 6 0.000000 0.000000 0.000000 0.008735 0.000000 0.014779
#
#
# Mechanical properties :
#
#
# Convention : Reuss Voigt Hill
#
# Bulk Modulus (GPa) = 44.60012 61.10171 52.85092
# Shear Modulus (GPa) = 31.53054 45.24234 38.38644
#
# Velocity S-wave (km/s) = 3.78090 4.52900 4.17176
# Velocity P-wave (km/s) = 6.26746 7.41966 6.86776
#
# Compressibility (1/GPa) = 0.02242146
#
# Stress axis : x y z
#
# Youngs Moduli (GPa) = 80.85363 33.47214 101.54384
#
# Poissons Ratio (x) = 0.24552 0.32381
# Poissons Ratio (y) = 0.59307 0.43777
# Poissons Ratio (z) = 0.25783 0.14430
#
# Static dielectric constant tensor:
#      x y z
#    x 1.825030 0.000000 -0.025060 
#    y 0.000000 1.859950 0.000000 
#    z -0.025060 0.000000 1.852520 
# 
# From -- ./inp_files/11735.got.cif
#   From: 2010.05.17/outbox.cif.g08.bks.cpg/sg13_6_cif.got.tgz:11735.got - 2010.06.03 16:44:36.
