data_PCOD9229920
_publ_section_title
;
Structure prediction by ZEFSAII (Michael W. Deem and Ramdas Pophale) SiO2 
 PCOD9229920
Probable space group: P 2/C
;
_chemical_formula_sum "Si O2"
_cell_formula_units_Z 28
_cell_length_a 16.230318
_cell_length_b 5.233595
_cell_length_c 18.685889
_cell_angle_alpha 90.000000
_cell_angle_beta 42.474762
_cell_angle_gamma 90.000000
_cell_volume 1071.804044
_symmetry_space_group_name_H-M "P 2/C"
_symmetry_group_IT_number 13
_symmetry_cell_setting 'monoclinic'
loop_
_space_group_symop_operation_xyz
x,y,z
-x,y,1/2-z
-x,-y,-z
x,-y,1/2+z
loop_
_atom_site_type_symbol
_atom_site_label
_atom_site_fract_x
_atom_site_fract_y
_atom_site_fract_z
Si Si1 0.737954 0.648104 0.477753
Si Si2 0.825491 0.305529 0.071143
Si Si3 0.850768 0.650248 0.709285
Si Si4 0.386520 0.309965 0.058321
Si Si5 0.451738 0.972380 0.385446
Si Si6 0.686280 0.201354 0.657226
Si Si7 0.893550 0.138889 0.766205
O O1 0.833672 0.612997 0.481664
O O2 0.707238 0.435963 0.439421
O O3 0.785884 0.872170 0.393863
O O4 0.609968 0.755575 0.590195
O O5 0.900916 0.323138 0.096302
O O6 0.723286 0.518683 0.157637
O O7 0.793363 0.006555 0.086377
O O8 0.706168 0.725301 0.815649
O O9 0.867552 0.359370 0.724810
O O10 0.916309 0.867331 0.715063
O O11 0.500000 0.500000 0.000000
O O12 0.444733 0.086522 0.973219
O O13 0.371541 0.791069 0.384721
O O14 0.586264 0.925776 0.271801
O O15 0.000000 0.228322 0.750000
#
# Coordination Sequence:
#
# PCOD9229920 Si02
#       7
#     4   4   4   4   4   4   4
#     4  10  23  41  63  89 128 172 220 260 319 384
#     4  11  22  41  61  91 131 169 207 266 313 375
#     4  11  24  42  64  99 128 162 215 269 323 382
#     4  11  22  36  58  88 131 174 213 255 306 380
#     4  10  20  35  53  84 121 167 220 247 298 369
#     4  10  22  33  59  84 126 172 209 248 304 368
#     4  11  24  47  71  93 124 167 214 275 336 383
#
# _framework density 26.124179000000002
#
# number of rings (size 3 to 8) (size 9 to 14) (size 15 to 20)
#    0.000    1.429    2.857    2.143    4.000    2.857 
#    0.000    1.429    0.000    0.000    0.000    0.000 
#    0.000    0.000    0.000    0.000    0.000    0.000 
#
# Total GULP energy -156187.551686 kJ/mol
# GULP energy per Si atom -5578.126846 kJ/mol
# Density = 2.606472 g / cm^3
# Si number density = 26.124179 Si / 1000 Ang^3
#
#
#
# Elastic Constant Matrix: (Units=GPa)
#
#
# Indices 1 2 3 4 5 6 
#
# 1 66.7067 6.6671 36.0919 0.0000 41.0133 0.0000
# 2 6.6671 85.7569 13.1633 0.0000 13.2003 0.0000
# 3 36.0919 13.1633 86.7927 0.0000 29.2135 0.0000
# 4 0.0000 0.0000 0.0000 25.3188 0.0000 24.7671
# 5 41.0133 13.2003 29.2135 0.0000 39.6474 0.0000
# 6 0.0000 0.0000 0.0000 24.7671 0.0000 30.5284
#
#
#
# Elastic Compliance Matrix: (Units=1/GPa)
#
#
# Indices 1 2 3 4 5 6 
#
# 1 0.043297 0.003892 -0.004100 0.000000 -0.043063 0.000000
# 2 0.003892 0.012668 -0.001017 0.000000 -0.007494 0.000000
# 3 -0.004100 -0.001017 0.015744 0.000000 -0.007020 0.000000
# 4 0.000000 0.000000 0.000000 0.191361 0.000000 -0.155247
# 5 -0.043063 -0.007494 -0.007020 0.000000 0.077437 0.000000
# 6 0.000000 0.000000 0.000000 -0.155247 0.000000 0.158705
#
#
# Mechanical properties :
#
#
# Convention : Reuss Voigt Hill
#
# Bulk Modulus (GPa) = 14.43885 39.01122 26.72503
# Shear Modulus (GPa) = 9.52837 31.32118 20.42478
#
# Velocity S-wave (km/s) = 1.91187 3.46632 2.79916
# Velocity P-wave (km/s) = 3.22687 5.56650 4.54965
#
# Compressibility (1/GPa) = 0.06925760
#
# Stress axis : x y z
#
# Youngs Moduli (GPa) = 23.09633 78.93906 63.51594
#
# Poissons Ratio (x) = -0.30722 0.26044
# Poissons Ratio (y) = -0.08989 0.06461
# Poissons Ratio (z) = 0.09470 0.08030
#
# Static dielectric constant tensor:
#      x y z
#    x 2.124780 0.000000 -0.021560 
#    y 0.000000 2.077410 0.000000 
#    z -0.021560 0.000000 2.190430 
# 
# From -- ./inp_files/67482.got.cif
#   From: 2010.05.17/outbox.cif.g08.bks.cpg/sg13_34_cif.got.tgz:67482.got - 2010.06.03 16:44:36.
