data_PCOD9229217
_publ_section_title
;
Structure prediction by ZEFSAII (Michael W. Deem and Ramdas Pophale) SiO2 
 PCOD9229217
Probable space group: P 2/C
;
_chemical_formula_sum "Si O2"
_cell_formula_units_Z 18
_cell_length_a 11.070581
_cell_length_b 7.397513
_cell_length_c 8.640093
_cell_angle_alpha 90.000000
_cell_angle_beta 96.024557
_cell_angle_gamma 90.000000
_cell_volume 703.670449
_symmetry_space_group_name_H-M "P 2/C"
_symmetry_group_IT_number 13
_symmetry_cell_setting 'monoclinic'
loop_
_space_group_symop_operation_xyz
x,y,z
-x,y,1/2-z
-x,-y,-z
x,-y,1/2+z
loop_
_atom_site_type_symbol
_atom_site_label
_atom_site_fract_x
_atom_site_fract_y
_atom_site_fract_z
Si Si1 0.636054 0.424179 0.802359
Si Si2 0.312165 0.154221 0.442363
Si Si3 0.168543 0.916966 0.636683
Si Si4 0.500000 0.779718 0.750000
Si Si5 0.119972 0.276727 0.815121
O O1 0.500000 0.347062 0.750000
O O2 0.605181 0.636115 0.813706
O O3 0.748784 0.365229 0.708683
O O4 0.669849 0.342458 0.971358
O O5 0.203099 0.169926 0.304678
O O6 0.433585 0.107500 0.368885
O O7 0.283407 0.001274 0.561973
O O8 0.114932 0.790791 0.493938
O O9 0.110815 0.104554 0.693738
O O10 0.000000 0.388832 0.750000
#
# Coordination Sequence:
#
# PCOD9229217 Si02
#       5
#     4   4   4   2   4
#     4   9  22  38  58  89 118 156 201 241 293 344
#     4  10  20  38  57  89 122 156 191 251 297 353
#     4   9  21  36  56  91 122 152 200 242 303 351
#     4  10  22  36  64  80 124 158 204 240 298 340
#     4  10  19  38  61  85 122 160 197 243 296 358
#
# _framework density 25.580158999999998
#
# number of rings (size 3 to 8) (size 9 to 14) (size 15 to 20)
#    0.667    1.778    0.000    1.333    3.111    0.889 
#   14.000    0.000    0.000   17.333    0.000    0.000 
#    0.000    0.000    0.000    0.000    0.000    0.000 
#
# Total GULP energy -100347.226150 kJ/mol
# GULP energy per Si atom -5574.845897 kJ/mol
# Density = 2.552194 g / cm^3
# Si number density = 25.580159 Si / 1000 Ang^3
#
#
#
# Elastic Constant Matrix: (Units=GPa)
#
#
# Indices 1 2 3 4 5 6 
#
# 1 129.6903 39.6623 50.0293 0.0000 15.7922 0.0000
# 2 39.6623 31.1519 21.7888 0.0000 7.6459 0.0000
# 3 50.0293 21.7888 148.4196 0.0000 13.9049 0.0000
# 4 0.0000 0.0000 0.0000 14.0177 0.0000 20.1601
# 5 15.7922 7.6459 13.9049 0.0000 32.2505 0.0000
# 6 0.0000 0.0000 0.0000 20.1601 0.0000 -7.6698
#
#
#
# Elastic Compliance Matrix: (Units=1/GPa)
#
#
# Indices 1 2 3 4 5 6 
#
# 1 0.013379 -0.015052 -0.002106 0.000000 -0.002075 0.000000
# 2 -0.015052 0.054056 -0.002451 0.000000 -0.004388 0.000000
# 3 -0.002106 -0.002451 0.007978 0.000000 -0.001828 0.000000
# 4 0.000000 0.000000 0.000000 0.014923 0.000000 0.039226
# 5 -0.002075 -0.004388 -0.001828 0.000000 0.033852 0.000000
# 6 0.000000 0.000000 0.000000 0.039226 0.000000 -0.027275
#
#
# Mechanical properties :
#
#
# Convention : Reuss Voigt Hill
#
# Bulk Modulus (GPa) = 27.62703 59.13585 43.38144
# Shear Modulus (GPa) = 33.73932 20.90512 27.32222
#
# Velocity S-wave (km/s) = 3.63570 2.86184 3.27173
# Velocity P-wave (km/s) = 5.33367 5.83851 5.59179
#
# Compressibility (1/GPa) = 0.03619644
#
# Stress axis : x y z
#
# Youngs Moduli (GPa) = 74.74533 18.49945 125.33715
#
# Poissons Ratio (x) = 0.27845 0.26392
# Poissons Ratio (y) = 1.12504 0.30719
# Poissons Ratio (z) = 0.15739 0.04534
#
# Static dielectric constant tensor:
#      x y z
#    x 2.182340 0.000000 0.022480 
#    y 0.000000 2.090310 0.000000 
#    z 0.022480 0.000000 2.035650 
# 
# From -- ./inp_files/14911.got.cif
#   From: 2010.05.17/outbox.cif.g08.bks.cpg/sg13_8_cif.got.tgz:14911.got - 2010.06.03 16:44:36.
