data_PCOD9229837
_publ_section_title
;
Structure prediction by ZEFSAII (Michael W. Deem and Ramdas Pophale) SiO2 
 PCOD9229837
Probable space group: P 2/C
;
_chemical_formula_sum "Si O2"
_cell_formula_units_Z 28
_cell_length_a 13.687668
_cell_length_b 8.645519
_cell_length_c 16.021117
_cell_angle_alpha 90.000000
_cell_angle_beta 136.088660
_cell_angle_gamma 90.000000
_cell_volume 1314.884513
_symmetry_space_group_name_H-M "P 2/C"
_symmetry_group_IT_number 13
_symmetry_cell_setting 'monoclinic'
loop_
_space_group_symop_operation_xyz
x,y,z
-x,y,1/2-z
-x,-y,-z
x,-y,1/2+z
loop_
_atom_site_type_symbol
_atom_site_label
_atom_site_fract_x
_atom_site_fract_y
_atom_site_fract_z
Si Si1 0.839002 0.454292 0.470379
Si Si2 0.847017 0.551277 0.307277
Si Si3 0.541447 0.936453 0.188495
Si Si4 0.804279 0.901531 0.907672
Si Si5 0.230729 0.054966 0.440041
Si Si6 0.813928 0.894242 0.260627
Si Si7 0.168588 0.411631 0.366933
O O1 0.773627 0.546337 0.352237
O O2 0.838512 0.276571 0.441697
O O3 0.776778 0.481804 0.523708
O O4 0.997986 0.519784 0.580377
O O5 0.879607 0.725496 0.299800
O O6 0.771945 0.460909 0.186644
O O7 0.500000 0.850541 0.250000
O O8 0.652850 0.862692 0.192958
O O9 0.637073 0.078229 0.282575
O O10 0.398344 0.970741 0.052731
O O11 0.868741 0.991107 0.867364
O O12 0.830149 0.989489 0.010772
O O13 0.199366 0.235785 0.409888
O O14 0.178379 0.970718 0.324678
O O15 0.000000 0.432705 0.250000
#
# Coordination Sequence:
#
# PCOD9229837 Si02
#       7
#     4   4   4   4   4   4   4
#     4  10  20  37  56  77 117 149 170 229 279 323
#     4  10  21  36  54  82 114 144 181 222 279 325
#     4   8  19  36  56  78 106 139 183 228 274 314
#     4   9  20  34  57  81 104 144 191 221 269 325
#     4  11  19  36  60  77 111 146 182 230 275 314
#     4  10  20  34  58  81 109 139 191 228 263 329
#     4  10  22  36  55  84 115 147 182 221 278 336
#
# _framework density 21.294647000000001
#
# number of rings (size 3 to 8) (size 9 to 14) (size 15 to 20)
#    0.857    1.429    0.000    3.000    0.000    1.714 
#    0.000    0.714    9.429    0.000    0.000    0.000 
#    0.000    0.000    0.000    0.000    0.000    0.000 
#
# Total GULP energy -155917.369071 kJ/mol
# GULP energy per Si atom -5568.477467 kJ/mol
# Density = 2.124618 g / cm^3
# Si number density = 21.294647 Si / 1000 Ang^3
#
#
#
# Elastic Constant Matrix: (Units=GPa)
#
#
# Indices 1 2 3 4 5 6 
#
# 1 55.5572 -1.1605 40.6654 0.0000 -12.2260 0.0000
# 2 -1.1605 109.5908 56.0813 0.0000 -29.7029 0.0000
# 3 40.6654 56.0813 140.2913 0.0000 -55.2790 0.0000
# 4 0.0000 0.0000 0.0000 36.8332 0.0000 -7.4039
# 5 -12.2260 -29.7029 -55.2790 0.0000 42.0208 0.0000
# 6 0.0000 0.0000 0.0000 -7.4039 0.0000 27.5171
#
#
#
# Elastic Compliance Matrix: (Units=1/GPa)
#
#
# Indices 1 2 3 4 5 6 
#
# 1 0.024984 0.004738 -0.010282 0.000000 -0.002907 0.000000
# 2 0.004738 0.012759 -0.004935 0.000000 0.003905 0.000000
# 3 -0.010282 -0.004935 0.019782 0.000000 0.019543 0.000000
# 4 0.000000 0.000000 0.000000 0.028702 0.000000 0.007723
# 5 -0.002907 0.003905 0.019543 0.000000 0.051422 0.000000
# 6 0.000000 0.000000 0.000000 0.007723 0.000000 0.038419
#
#
# Mechanical properties :
#
#
# Convention : Reuss Voigt Hill
#
# Bulk Modulus (GPa) = 27.34636 55.17907 41.26272
# Shear Modulus (GPa) = 23.89897 35.26445 29.58171
#
# Velocity S-wave (km/s) = 3.35371 4.07384 3.73119
# Velocity P-wave (km/s) = 5.27885 6.93518 6.16291
#
# Compressibility (1/GPa) = 0.03656794
#
# Stress axis : x y z
#
# Youngs Moduli (GPa) = 40.02499 78.37675 50.55166
#
# Poissons Ratio (x) = -0.37136 0.51976
# Poissons Ratio (y) = -0.18964 0.24947
# Poissons Ratio (z) = 0.41152 0.38678
#
# Static dielectric constant tensor:
#      x y z
#    x 1.878630 0.000000 -0.036850 
#    y 0.000000 1.739140 0.000000 
#    z -0.036850 0.000000 1.804110 
# 
# From -- ./inp_files/53118.got.cif
#   From: 2010.05.17/outbox.cif.g08.bks.cpg/sg13_27_cif.got.tgz:53118.got - 2010.06.03 16:44:36.
