data_PCOD9229814
_publ_section_title
;
Structure prediction by ZEFSAII (Michael W. Deem and Ramdas Pophale) SiO2 
 PCOD9229814
Probable space group: P 2/C
;
_chemical_formula_sum "Si O2"
_cell_formula_units_Z 28
_cell_length_a 16.553943
_cell_length_b 5.214464
_cell_length_c 25.950690
_cell_angle_alpha 90.000000
_cell_angle_beta 32.862062
_cell_angle_gamma 90.000000
_cell_volume 1215.498819
_symmetry_space_group_name_H-M "P 2/C"
_symmetry_group_IT_number 13
_symmetry_cell_setting 'monoclinic'
loop_
_space_group_symop_operation_xyz
x,y,z
-x,y,1/2-z
-x,-y,-z
x,-y,1/2+z
loop_
_atom_site_type_symbol
_atom_site_label
_atom_site_fract_x
_atom_site_fract_y
_atom_site_fract_z
Si Si1 0.686764 0.325807 0.684724
Si Si2 0.661961 0.363462 0.909413
Si Si3 0.909036 0.910489 0.132055
Si Si4 0.123035 0.278641 0.448627
Si Si5 0.710442 0.838424 0.820435
Si Si6 0.382523 0.728683 0.952374
Si Si7 0.358773 0.778047 0.398858
O O1 0.785498 0.300934 0.683205
O O2 0.711504 0.610811 0.649290
O O3 0.730103 0.185979 0.607321
O O4 0.527612 0.237333 0.787971
O O5 0.662526 0.093433 0.878572
O O6 0.500000 0.500000 0.000000
O O7 0.248145 0.411096 0.167691
O O8 0.697094 0.302958 0.949791
O O9 0.895153 0.087649 0.089133
O O10 0.850635 0.065965 0.211631
O O11 0.070035 0.790530 0.034908
O O12 0.000000 0.500000 0.500000
O O13 0.562967 0.755348 0.866515
O O14 0.342900 0.484945 0.938753
O O15 0.339997 0.989991 0.947446
#
# Coordination Sequence:
#
# PCOD9229814 Si02
#       7
#     4   4   4   4   4   4   4
#     4  10  22  34  51  81 116 152 194 220 274 344
#     4  10  21  33  53  79 113 147 186 230 284 338
#     4  10  20  34  57  79 116 146 188 238 289 327
#     4   9  20  36  54  78 114 145 188 240 278 333
#     4  11  20  33  57  81 113 150 181 233 288 339
#     4  11  20  36  50  78 114 152 190 225 281 333
#     4  11  23  33  56  79 117 162 184 223 271 346
#
# _framework density 23.035812
#
# number of rings (size 3 to 8) (size 9 to 14) (size 15 to 20)
#    0.000    1.714    1.429    5.143    6.000    1.143 
#    0.000    0.000    0.000    0.000    0.000    1.000 
#    0.000    0.000    0.000    0.000    0.000    0.000 
#
# Total GULP energy -156009.700627 kJ/mol
# GULP energy per Si atom -5571.775022 kJ/mol
# Density = 2.298338 g / cm^3
# Si number density = 23.035812 Si / 1000 Ang^3
#
#
#
# Elastic Constant Matrix: (Units=GPa)
#
#
# Indices 1 2 3 4 5 6 
#
# 1 62.1816 40.3356 32.2542 0.0000 21.1334 0.0000
# 2 40.3356 138.9960 41.7665 0.0000 29.2046 0.0000
# 3 32.2542 41.7665 109.9310 0.0000 28.2113 0.0000
# 4 0.0000 0.0000 0.0000 51.5594 0.0000 12.7251
# 5 21.1334 29.2046 28.2113 0.0000 34.4356 0.0000
# 6 0.0000 0.0000 0.0000 12.7251 0.0000 28.0252
#
#
#
# Elastic Compliance Matrix: (Units=1/GPa)
#
#
# Indices 1 2 3 4 5 6 
#
# 1 0.023118 -0.004044 -0.003147 0.000000 -0.008179 0.000000
# 2 -0.004044 0.009752 -0.001308 0.000000 -0.004717 0.000000
# 3 -0.003147 -0.001308 0.012329 0.000000 -0.007059 0.000000
# 4 0.000000 0.000000 0.000000 0.021843 0.000000 -0.009918
# 5 -0.008179 -0.004717 -0.007059 0.000000 0.043843 0.000000
# 6 0.000000 0.000000 0.000000 -0.009918 0.000000 0.040186
#
#
# Mechanical properties :
#
#
# Convention : Reuss Voigt Hill
#
# Bulk Modulus (GPa) = 35.46183 59.98014 47.72099
# Shear Modulus (GPa) = 28.17389 35.92087 32.04738
#
# Velocity S-wave (km/s) = 3.50100 3.95314 3.73392
# Velocity P-wave (km/s) = 5.63652 6.85060 6.27300
#
# Compressibility (1/GPa) = 0.02819933
#
# Stress axis : x y z
#
# Youngs Moduli (GPa) = 43.25690 102.54021 81.11208
#
# Poissons Ratio (x) = 0.41471 0.25528
# Poissons Ratio (y) = 0.17495 0.10610
# Poissons Ratio (z) = 0.13614 0.13413
#
# Static dielectric constant tensor:
#      x y z
#    x 1.967440 0.000000 -0.075040 
#    y 0.000000 2.134470 0.000000 
#    z -0.075040 0.000000 1.934030 
# 
# From -- ./inp_files/93385.got.cif
#   From: 2010.05.17/outbox.cif.g08.bks.cpg/sg13_47_cif.got.tgz:93385.got - 2010.06.03 16:44:36.
