data_PCOD9229049
_publ_section_title
;
Structure prediction by ZEFSAII (Michael W. Deem and Ramdas Pophale) SiO2 
 PCOD9229049
Probable space group: P 2/C
;
_chemical_formula_sum "Si O2"
_cell_formula_units_Z 20
_cell_length_a 17.746608
_cell_length_b 4.920348
_cell_length_c 16.340292
_cell_angle_alpha 90.000000
_cell_angle_beta 31.021753
_cell_angle_gamma 90.000000
_cell_volume 735.333958
_symmetry_space_group_name_H-M "P 2/C"
_symmetry_group_IT_number 13
_symmetry_cell_setting 'monoclinic'
loop_
_space_group_symop_operation_xyz
x,y,z
-x,y,1/2-z
-x,-y,-z
x,-y,1/2+z
loop_
_atom_site_type_symbol
_atom_site_label
_atom_site_fract_x
_atom_site_fract_y
_atom_site_fract_z
Si Si1 0.707582 0.257590 0.313542
Si Si2 0.103698 0.606472 0.996565
Si Si3 0.000000 0.578604 0.750000
Si Si4 0.414269 0.220600 0.486473
Si Si5 0.761833 0.879693 0.062309
Si Si6 0.500000 0.461925 0.750000
O O1 0.866561 0.276729 0.121891
O O2 0.579520 0.174443 0.367348
O O3 0.658913 0.550082 0.389525
O O4 0.682112 0.045864 0.409835
O O5 0.165061 0.300359 0.933329
O O6 0.211298 0.806232 0.948424
O O7 0.979022 0.580773 0.182825
O O8 0.138638 0.768687 0.604488
O O9 0.425346 0.343955 0.386151
O O10 0.605606 0.747274 0.198164
#
# Coordination Sequence:
#
# PCOD9229049 Si02
#       6
#     4   4   2   4   4   2
#     4  10  20  37  56  82 118 163 203 231 293 364
#     4  10  19  37  59  88 112 155 206 245 280 356
#     4   8  20  38  62  86 116 156 214 238 288 354
#     4  10  22  34  56  82 124 161 190 243 299 361
#     4  10  22  34  61  89 119 153 196 254 295 349
#     4  12  24  40  58 100 128 148 198 256 318 344
#
# _framework density 27.198522000000001
#
# number of rings (size 3 to 8) (size 9 to 14) (size 15 to 20)
#    1.200    0.800    2.000    1.800    5.600    3.200 
#    0.000    0.000    0.000    2.400    0.000    0.000 
#    0.000    0.000    0.000    0.000    0.000    0.000 
#
# Total GULP energy -111665.108640 kJ/mol
# GULP energy per Si atom -5583.255432 kJ/mol
# Density = 2.713662 g / cm^3
# Si number density = 27.198522 Si / 1000 Ang^3
#
#
#
# Elastic Constant Matrix: (Units=GPa)
#
#
# Indices 1 2 3 4 5 6 
#
# 1 78.0340 -7.8835 -1.6010 0.0000 6.5012 0.0000
# 2 -7.8835 52.5823 -17.3147 0.0000 1.2635 0.0000
# 3 -1.6010 -17.3147 147.8585 0.0000 43.5390 0.0000
# 4 0.0000 0.0000 0.0000 28.7707 0.0000 5.3613
# 5 6.5012 1.2635 43.5390 0.0000 26.7186 0.0000
# 6 0.0000 0.0000 0.0000 5.3613 0.0000 8.2423
#
#
#
# Elastic Compliance Matrix: (Units=1/GPa)
#
#
# Indices 1 2 3 4 5 6 
#
# 1 0.013917 0.003290 0.003035 0.000000 -0.008488 0.000000
# 2 0.003290 0.021768 0.006005 0.000000 -0.011615 0.000000
# 3 0.003035 0.006005 0.014996 0.000000 -0.025459 0.000000
# 4 0.000000 0.000000 0.000000 0.039552 0.000000 -0.025727
# 5 -0.008488 -0.011615 -0.025459 0.000000 0.081529 0.000000
# 6 0.000000 0.000000 0.000000 -0.025727 0.000000 0.138059
#
#
# Mechanical properties :
#
#
# Convention : Reuss Voigt Hill
#
# Bulk Modulus (GPa) = 13.27296 24.98627 19.12962
# Shear Modulus (GPa) = 16.11484 33.09794 24.60639
#
# Velocity S-wave (km/s) = 2.43675 3.49220 3.01108
# Velocity P-wave (km/s) = 3.57878 5.04650 4.37463
#
# Compressibility (1/GPa) = 0.07534112
#
# Stress axis : x y z
#
# Youngs Moduli (GPa) = 71.85585 45.93999 66.68373
#
# Poissons Ratio (x) = -0.15114 -0.20241
# Poissons Ratio (y) = -0.23641 -0.40043
# Poissons Ratio (z) = -0.21811 -0.27587
#
# Static dielectric constant tensor:
#      x y z
#    x 2.203060 0.000000 -0.019230 
#    y 0.000000 2.022740 0.000000 
#    z -0.019230 0.000000 2.168250 
# 
# From -- ./inp_files/70810.got.cif
#   From: 2010.05.17/outbox.cif.g08.bks.cpg/sg13_36_cif.got.tgz:70810.got - 2010.06.03 16:44:36.
