data_PCOD9229853
_publ_section_title
;
Structure prediction by ZEFSAII (Michael W. Deem and Ramdas Pophale) SiO2 
 PCOD9229853
Probable space group: P 2/C
;
_chemical_formula_sum "Si O2"
_cell_formula_units_Z 32
_cell_length_a 14.562861
_cell_length_b 20.470940
_cell_length_c 14.576811
_cell_angle_alpha 90.000000
_cell_angle_beta 20.224678
_cell_angle_gamma 90.000000
_cell_volume 1502.274832
_symmetry_space_group_name_H-M "P 2/C"
_symmetry_group_IT_number 13
_symmetry_cell_setting 'monoclinic'
loop_
_space_group_symop_operation_xyz
x,y,z
-x,y,1/2-z
-x,-y,-z
x,-y,1/2+z
loop_
_atom_site_type_symbol
_atom_site_label
_atom_site_fract_x
_atom_site_fract_y
_atom_site_fract_z
Si Si1 0.345806 0.077526 0.481204
Si Si2 0.652217 0.548227 0.789109
Si Si3 0.783286 0.556596 0.032403
Si Si4 0.099869 0.064695 0.454715
Si Si5 0.228044 0.364850 0.605858
Si Si6 0.967685 0.346431 0.500275
Si Si7 0.138284 0.790646 0.885495
Si Si8 0.295198 0.777991 0.060595
O O1 0.500000 0.045976 0.250000
O O2 0.311430 0.154426 0.491894
O O3 0.065460 0.062447 0.793494
O O4 0.581668 0.066584 0.333603
O O5 0.840334 0.502247 0.551068
O O6 0.778461 0.605889 0.730883
O O7 0.500000 0.500000 0.000000
O O8 0.463189 0.584172 0.893626
O O9 0.500000 0.548613 0.250000
O O10 0.000000 0.559351 0.750000
O O11 0.788955 0.621961 0.089320
O O12 0.050587 0.134366 0.449371
O O13 0.000000 0.000000 0.500000
O O14 0.311027 0.291872 0.498853
O O15 0.000000 0.386159 0.750000
O O16 0.143342 0.355612 0.792142
O O17 0.038959 0.270600 0.418846
O O18 0.453761 0.782972 0.604921
O O19 0.987568 0.779055 0.123235
#
# Coordination Sequence:
#
# PCOD9229853 Si02
#       8
#     4   4   4   4   4   4   4   4
#     4  10  20  34  59  85 127 169 203 243 304 378
#     4  12  25  44  67  89 127 169 220 272 337 391
#     4  12  29  45  69  93 122 166 219 279 334 379
#     4  10  20  36  60  94 125 160 210 257 305 376
#     4  11  25  39  63  95 130 168 208 268 326 396
#     4  11  24  44  65  90 126 166 220 267 329 391
#     4   9  19  37  64  87 120 165 202 252 313 373
#     4   9  19  37  54  88 124 160 201 240 301 382
#
# _framework density 21.301027000000001
#
# number of rings (size 3 to 8) (size 9 to 14) (size 15 to 20)
#    0.000    1.500    2.500    1.875    3.500    5.000 
#    0.000    0.000    2.750    2.250    0.000    0.000 
#    0.000    0.000    0.000    0.000    0.000    0.000 
#
# Total GULP energy -178539.500693 kJ/mol
# GULP energy per Si atom -5579.359397 kJ/mol
# Density = 2.125255 g / cm^3
# Si number density = 21.301027 Si / 1000 Ang^3
#
#
#
# Elastic Constant Matrix: (Units=GPa)
#
#
# Indices 1 2 3 4 5 6 
#
# 1 56.4815 29.1211 13.5621 0.0000 -2.5626 0.0000
# 2 29.1211 127.8217 4.4597 0.0000 -8.3230 0.0000
# 3 13.5621 4.4597 80.1803 0.0000 2.3795 0.0000
# 4 0.0000 0.0000 0.0000 24.2781 0.0000 -12.2862
# 5 -2.5626 -8.3230 2.3795 0.0000 38.2273 0.0000
# 6 0.0000 0.0000 0.0000 -12.2862 0.0000 5.8777
#
#
#
# Elastic Compliance Matrix: (Units=1/GPa)
#
#
# Indices 1 2 3 4 5 6 
#
# 1 0.020899 -0.004607 -0.003297 0.000000 0.000603 0.000000
# 2 -0.004607 0.008971 0.000232 0.000000 0.001630 0.000000
# 3 -0.003297 0.000232 0.013046 0.000000 -0.000983 0.000000
# 4 0.000000 0.000000 0.000000 -0.712387 0.000000 -1.489102
# 5 0.000603 0.001630 -0.000983 0.000000 0.026616 0.000000
# 6 0.000000 0.000000 0.000000 -1.489102 0.000000 -2.942538
#
#
# Mechanical properties :
#
#
# Convention : Reuss Voigt Hill
#
# Bulk Modulus (GPa) = 36.26816 39.86324 38.06570
# Shear Modulus (GPa) = -1.40416 28.16601 13.38093
#
# Velocity S-wave (km/s) = -0.81279 3.64027 2.50908
# Velocity P-wave (km/s) = 4.02276 6.03520 5.12865
#
# Compressibility (1/GPa) = 0.02757240
#
# Stress axis : x y z
#
# Youngs Moduli (GPa) = 47.84874 111.46966 76.65330
#
# Poissons Ratio (x) = 0.51355 0.25270
# Poissons Ratio (y) = 0.22044 -0.01778
# Poissons Ratio (z) = 0.15774 -0.02585
#
# Static dielectric constant tensor:
#      x y z
#    x 1.804390 0.000000 0.017970 
#    y 0.000000 1.793310 0.000000 
#    z 0.017970 0.000000 2.579360 
# 
# From -- ./inp_files/53977.got.cif
#   From: 2010.05.17/outbox.cif.g08.bks.cpg/sg13_27_cif.got.tgz:53977.got - 2010.06.03 16:44:36.
