data_PCOD9229242
_publ_section_title
;
Structure prediction by ZEFSAII (Michael W. Deem and Ramdas Pophale) SiO2 
 PCOD9229242
Probable space group: P 2/C
;
_chemical_formula_sum "Si O2"
_cell_formula_units_Z 32
_cell_length_a 18.422084
_cell_length_b 6.314160
_cell_length_c 13.609536
_cell_angle_alpha 90.000000
_cell_angle_beta 59.539315
_cell_angle_gamma 90.000000
_cell_volume 1364.562548
_symmetry_space_group_name_H-M "P 2/C"
_symmetry_group_IT_number 13
_symmetry_cell_setting 'monoclinic'
loop_
_space_group_symop_operation_xyz
x,y,z
-x,y,1/2-z
-x,-y,-z
x,-y,1/2+z
loop_
_atom_site_type_symbol
_atom_site_label
_atom_site_fract_x
_atom_site_fract_y
_atom_site_fract_z
Si Si1 0.049315 0.844963 0.045689
Si Si2 0.253016 0.551689 0.071903
Si Si3 0.892772 0.803145 0.270773
Si Si4 0.428546 0.422520 0.242431
Si Si5 0.725474 0.286062 0.622601
Si Si6 0.196734 0.073528 0.313274
Si Si7 0.633493 0.073649 0.063468
Si Si8 0.370932 0.768080 0.602824
O O1 0.087268 0.880658 0.130951
O O2 0.968221 0.726305 0.147071
O O3 0.134118 0.791536 0.925353
O O4 0.000000 0.000000 0.000000
O O5 0.169778 0.603589 0.187023
O O6 0.290089 0.782455 0.026168
O O7 0.328115 0.418746 0.069222
O O8 0.229788 0.426952 0.989758
O O9 0.851425 0.012543 0.252168
O O10 0.500000 0.556654 0.250000
O O11 0.344650 0.560453 0.282982
O O12 0.414544 0.237735 0.333086
O O13 0.442094 0.318071 0.127167
O O14 0.788436 0.154925 0.645693
O O15 0.670721 0.108046 0.605906
O O16 0.290503 0.154026 0.223410
O O17 0.598410 0.951275 0.992175
#
# Coordination Sequence:
#
# PCOD9229242 Si02
#       8
#     4   4   4   4   4   4   4   4
#     4   9  21  36  63  94 126 173 210 260 327 383
#     4  10  21  38  67  95 130 168 226 271 317 397
#     4  10  19  38  62  87 137 170 206 271 325 373
#     4  11  25  42  64  99 136 169 219 280 335 398
#     4  10  22  40  65  98 127 171 225 275 322 393
#     4  11  20  37  67  95 123 174 224 266 321 390
#     4  10  21  43  63  95 128 175 219 260 333 394
#     4  11  23  38  68  99 127 175 225 273 326 390
#
# _framework density 23.450738000000001
#
# number of rings (size 3 to 8) (size 9 to 14) (size 15 to 20)
#    0.000    1.750    2.500    1.500    3.500    1.000 
#    0.000    6.250   13.750    0.000    0.000    0.000 
#    0.000    0.000    0.000    0.000    0.000    0.000 
#
# Total GULP energy -178148.009026 kJ/mol
# GULP energy per Si atom -5567.125282 kJ/mol
# Density = 2.339736 g / cm^3
# Si number density = 23.450738 Si / 1000 Ang^3
#
#
#
# Elastic Constant Matrix: (Units=GPa)
#
#
# Indices 1 2 3 4 5 6 
#
# 1 69.4399 0.7634 -3.7831 0.0000 14.0803 0.0000
# 2 0.7634 64.6755 7.4018 0.0000 4.5638 0.0000
# 3 -3.7831 7.4018 51.3177 0.0000 3.5671 0.0000
# 4 0.0000 0.0000 0.0000 -4.0779 0.0000 -7.9852
# 5 14.0803 4.5638 3.5671 0.0000 25.9227 0.0000
# 6 0.0000 0.0000 0.0000 -7.9852 0.0000 12.9190
#
#
#
# Elastic Compliance Matrix: (Units=1/GPa)
#
#
# Indices 1 2 3 4 5 6 
#
# 1 0.016358 0.000248 0.001808 0.000000 -0.009177 0.000000
# 2 0.000248 0.015885 -0.002089 0.000000 -0.002644 0.000000
# 3 0.001808 -0.002089 0.020157 0.000000 -0.003388 0.000000
# 4 0.000000 0.000000 0.000000 -0.110944 0.000000 -0.068574
# 5 -0.009177 -0.002644 -0.003388 0.000000 0.044493 0.000000
# 6 0.000000 0.000000 0.000000 -0.068574 0.000000 0.035020
#
#
# Mechanical properties :
#
#
# Convention : Reuss Voigt Hill
#
# Bulk Modulus (GPa) = 19.10885 21.57747 20.34316
# Shear Modulus (GPa) = 129.94583 19.02283 74.48433
#
# Velocity S-wave (km/s) = 7.45202 2.85122 5.64190
# Velocity P-wave (km/s) = 9.06695 4.47889 7.15087
#
# Compressibility (1/GPa) = 0.05233178
#
# Stress axis : x y z
#
# Youngs Moduli (GPa) = 61.13375 62.95437 49.61161
#
# Poissons Ratio (x) = -0.01559 -0.08970
# Poissons Ratio (y) = -0.01514 0.10364
# Poissons Ratio (z) = -0.11053 0.13152
#
# Static dielectric constant tensor:
#      x y z
#    x 2.024130 0.000000 -0.032780 
#    y 0.000000 1.901740 0.000000 
#    z -0.032780 0.000000 1.974640 
# 
# From -- ./inp_files/56544.got.cif
#   From: 2010.05.17/outbox.cif.g08.bks.cpg/sg13_29_cif.got.tgz:56544.got - 2010.06.03 16:44:36.
