data_PCOD9229268
_publ_section_title
;
Structure prediction by ZEFSAII (Michael W. Deem and Ramdas Pophale) SiO2 
 PCOD9229268
Probable space group: P 2/C
;
_chemical_formula_sum "Si O2"
_cell_formula_units_Z 26
_cell_length_a 22.645058
_cell_length_b 5.210992
_cell_length_c 17.974188
_cell_angle_alpha 90.000000
_cell_angle_beta 144.636614
_cell_angle_gamma 90.000000
_cell_volume 1227.557237
_symmetry_space_group_name_H-M "P 2/C"
_symmetry_group_IT_number 13
_symmetry_cell_setting 'monoclinic'
loop_
_space_group_symop_operation_xyz
x,y,z
-x,y,1/2-z
-x,-y,-z
x,-y,1/2+z
loop_
_atom_site_type_symbol
_atom_site_label
_atom_site_fract_x
_atom_site_fract_y
_atom_site_fract_z
Si Si1 0.932153 0.750517 0.441933
Si Si2 0.500000 0.268324 0.750000
Si Si3 0.336948 0.290670 0.337245
Si Si4 0.401335 0.002153 0.773985
Si Si5 0.278407 0.778988 0.360994
Si Si6 0.696369 0.369402 0.446009
Si Si7 0.221154 0.597958 0.104154
O O1 0.836185 0.744961 0.287514
O O2 0.877257 0.739746 0.466111
O O3 0.000000 0.500000 0.500000
O O4 0.000000 0.000000 0.500000
O O5 0.494775 0.111365 0.822150
O O6 0.399340 0.440008 0.644147
O O7 0.346615 0.548675 0.395275
O O8 0.244223 0.360386 0.184252
O O9 0.420372 0.183412 0.363790
O O10 0.312634 0.055668 0.366415
O O11 0.323493 0.227031 0.718595
O O12 0.342005 0.848991 0.649101
O O13 0.276778 0.743683 0.447291
O O14 0.781341 0.514181 0.483981
#
# Coordination Sequence:
#
# PCOD9229268 Si02
#       7
#     4   2   4   4   4   4   4
#     4  11  22  39  67  94 124 164 217 265 312 387
#     4  10  22  40  62 102 124 170 226 254 318 384
#     4  10  19  38  64  89 125 167 212 254 315 391
#     4  10  19  40  67  88 128 174 213 252 316 398
#     4  11  23  40  65  98 127 167 213 264 330 367
#     4  10  23  39  68  91 136 171 214 266 319 395
#     4   9  20  39  65  91 125 178 210 251 331 387
#
# _framework density 21.180275999999999
#
# number of rings (size 3 to 8) (size 9 to 14) (size 15 to 20)
#    0.000    1.846    3.077    2.308    6.462    0.000 
#    0.000    2.308    0.000    0.000    0.000    0.000 
#    0.000    0.000    0.000    0.000    0.000    0.000 
#
# Total GULP energy -145150.763172 kJ/mol
# GULP energy per Si atom -5582.721660 kJ/mol
# Density = 2.113207 g / cm^3
# Si number density = 21.180276 Si / 1000 Ang^3
#
#
#
# Elastic Constant Matrix: (Units=GPa)
#
#
# Indices 1 2 3 4 5 6 
#
# 1 185.8868 72.8705 51.3415 0.0000 -13.9625 0.0000
# 2 72.8705 133.7294 29.0043 0.0000 -0.0664 0.0000
# 3 51.3415 29.0043 61.6430 0.0000 -6.9711 0.0000
# 4 0.0000 0.0000 0.0000 1.1021 0.0000 0.2257
# 5 -13.9625 -0.0664 -6.9711 0.0000 33.1924 0.0000
# 6 0.0000 0.0000 0.0000 0.2257 0.0000 41.6176
#
#
#
# Elastic Compliance Matrix: (Units=1/GPa)
#
#
# Indices 1 2 3 4 5 6 
#
# 1 0.008292 -0.003429 -0.005019 0.000000 0.002427 0.000000
# 2 -0.003429 0.009768 -0.001947 0.000000 -0.001832 0.000000
# 3 -0.005019 -0.001947 0.021592 0.000000 0.002420 0.000000
# 4 0.000000 0.000000 0.000000 0.908361 0.000000 -0.004926
# 5 0.002427 -0.001832 0.002420 0.000000 0.031653 0.000000
# 6 0.000000 0.000000 0.000000 -0.004926 0.000000 0.024055
#
#
# Mechanical properties :
#
#
# Convention : Reuss Voigt Hill
#
# Bulk Modulus (GPa) = 53.01455 76.41019 64.71237
# Shear Modulus (GPa) = 4.85061 30.38527 17.61794
#
# Velocity S-wave (km/s) = 1.51497 3.79172 2.88724
# Velocity P-wave (km/s) = 5.30515 7.43801 6.46021
#
# Compressibility (1/GPa) = 0.01886275
#
# Stress axis : x y z
#
# Youngs Moduli (GPa) = 120.59487 102.37932 46.31300
#
# Poissons Ratio (x) = 0.35104 0.23243
# Poissons Ratio (y) = 0.41350 0.09018
# Poissons Ratio (z) = 0.60522 0.19935
#
# Static dielectric constant tensor:
#      x y z
#    x 1.838790 0.000000 -0.000060 
#    y 0.000000 1.867250 0.000000 
#    z -0.000060 0.000000 1.765520 
# 
# From -- ./inp_files/70324.got.cif
#   From: 2010.05.17/outbox.cif.g08.bks.cpg/sg13_36_cif.got.tgz:70324.got - 2010.06.03 16:44:36.
