data_PCOD9229419
_publ_section_title
;
Structure prediction by ZEFSAII (Michael W. Deem and Ramdas Pophale) SiO2 
 PCOD9229419
Probable space group: P 2/C
;
_chemical_formula_sum "Si O2"
_cell_formula_units_Z 32
_cell_length_a 14.114610
_cell_length_b 8.332783
_cell_length_c 24.183486
_cell_angle_alpha 90.000000
_cell_angle_beta 30.430963
_cell_angle_gamma 90.000000
_cell_volume 1440.645527
_symmetry_space_group_name_H-M "P 2/C"
_symmetry_group_IT_number 13
_symmetry_cell_setting 'monoclinic'
loop_
_space_group_symop_operation_xyz
x,y,z
-x,y,1/2-z
-x,-y,-z
x,-y,1/2+z
loop_
_atom_site_type_symbol
_atom_site_label
_atom_site_fract_x
_atom_site_fract_y
_atom_site_fract_z
Si Si1 0.268950 0.347365 0.008700
Si Si2 0.180656 0.069301 0.126460
Si Si3 0.217285 0.757918 0.159866
Si Si4 0.933690 0.626468 0.078925
Si Si5 0.155648 0.477840 0.272664
Si Si6 0.205976 0.863621 0.004033
Si Si7 0.700243 0.149948 0.620112
Si Si8 0.480073 0.660564 0.930089
O O1 0.057580 0.415132 0.124446
O O2 0.299003 0.212520 0.040702
O O3 0.292495 0.266267 0.937093
O O4 0.412603 0.490887 0.940496
O O5 0.269411 0.945189 0.125998
O O6 0.000000 0.131784 0.250000
O O7 0.128559 0.962356 0.096950
O O8 0.203632 0.647455 0.219887
O O9 0.000000 0.752554 0.250000
O O10 0.361158 0.675367 0.045699
O O11 0.808199 0.515696 0.181588
O O12 0.833065 0.771416 0.098808
O O13 0.000000 0.500000 0.000000
O O14 0.085740 0.712349 0.042783
O O15 0.298428 0.347447 0.176679
O O16 0.402443 0.797385 0.928524
O O17 0.232471 0.982364 0.939532
O O18 0.500000 0.135404 0.750000
#
# Coordination Sequence:
#
# PCOD9229419 Si02
#       8
#     4   4   4   4   4   4   4   4
#     4  11  22  42  64  98 130 168 220 277 331 395
#     4   9  20  37  66  89 124 174 211 258 332 397
#     4  10  19  40  65  89 133 178 212 265 336 394
#     4  12  22  40  66  92 127 172 222 273 333 392
#     4  12  23  38  69  99 131 174 222 276 334 397
#     4  10  22  43  63  90 131 175 217 271 333 400
#     4  11  24  43  65  94 133 170 222 275 337 394
#     4  11  22  40  66  96 134 167 222 273 328 401
#
# _framework density 22.212266
#
# number of rings (size 3 to 8) (size 9 to 14) (size 15 to 20)
#    0.000    1.250    3.750    3.000    1.750    1.000 
#    4.500    1.250    8.250    0.000    0.000    0.000 
#    0.000    0.000    0.000    0.000    0.000    0.000 
#
# Total GULP energy -178635.895130 kJ/mol
# GULP energy per Si atom -5582.371723 kJ/mol
# Density = 2.216171 g / cm^3
# Si number density = 22.212266 Si / 1000 Ang^3
#
#
#
# Elastic Constant Matrix: (Units=GPa)
#
#
# Indices 1 2 3 4 5 6 
#
# 1 47.8519 15.1586 30.5952 0.0000 3.1813 0.0000
# 2 15.1586 67.6256 29.7108 0.0000 9.0613 0.0000
# 3 30.5952 29.7108 120.6125 0.0000 3.0512 0.0000
# 4 0.0000 0.0000 0.0000 20.5728 0.0000 21.1767
# 5 3.1813 9.0613 3.0512 0.0000 30.9921 0.0000
# 6 0.0000 0.0000 0.0000 21.1767 0.0000 46.6844
#
#
#
# Elastic Compliance Matrix: (Units=1/GPa)
#
#
# Indices 1 2 3 4 5 6 
#
# 1 0.025598 -0.003074 -0.005706 0.000000 -0.001167 0.000000
# 2 -0.003074 0.017589 -0.003439 0.000000 -0.004488 0.000000
# 3 -0.005706 -0.003439 0.010572 0.000000 0.000551 0.000000
# 4 0.000000 0.000000 0.000000 0.091184 0.000000 -0.041362
# 5 -0.001167 -0.004488 0.000551 0.000000 0.033644 0.000000
# 6 0.000000 0.000000 0.000000 -0.041362 0.000000 0.040183
#
#
# Mechanical properties :
#
#
# Convention : Reuss Voigt Hill
#
# Bulk Modulus (GPa) = 34.10851 43.00215 38.55533
# Shear Modulus (GPa) = 19.76418 30.35823 25.06120
#
# Velocity S-wave (km/s) = 2.98617 3.70095 3.36260
# Velocity P-wave (km/s) = 5.22289 6.13713 5.69838
#
# Compressibility (1/GPa) = 0.02931820
#
# Stress axis : x y z
#
# Youngs Moduli (GPa) = 39.06574 56.85409 94.59112
#
# Poissons Ratio (x) = 0.17480 0.53978
# Poissons Ratio (y) = 0.12011 0.32533
# Poissons Ratio (z) = 0.22293 0.19554
#
# Static dielectric constant tensor:
#      x y z
#    x 1.846490 0.000000 -0.022870 
#    y 0.000000 1.863760 0.000000 
#    z -0.022870 0.000000 1.795460 
# 
# From -- ./inp_files/87407.got.cif
#   From: 2010.05.17/outbox.cif.g08.bks.cpg/sg13_44_cif.got.tgz:87407.got - 2010.06.03 16:44:36.
