data_PCOD9229818
_publ_section_title
;
Structure prediction by ZEFSAII (Michael W. Deem and Ramdas Pophale) SiO2 
 PCOD9229818
Probable space group: P 2/C
;
_chemical_formula_sum "Si O2"
_cell_formula_units_Z 28
_cell_length_a 5.379063
_cell_length_b 15.306375
_cell_length_c 18.259180
_cell_angle_alpha 90.000000
_cell_angle_beta 109.824668
_cell_angle_gamma 90.000000
_cell_volume 1414.254207
_symmetry_space_group_name_H-M "P 2/C"
_symmetry_group_IT_number 13
_symmetry_cell_setting 'monoclinic'
loop_
_space_group_symop_operation_xyz
x,y,z
-x,y,1/2-z
-x,-y,-z
x,-y,1/2+z
loop_
_atom_site_type_symbol
_atom_site_label
_atom_site_fract_x
_atom_site_fract_y
_atom_site_fract_z
Si Si1 0.886777 0.420638 0.820567
Si Si2 0.206754 0.383113 0.204333
Si Si3 0.379692 0.406565 0.972010
Si Si4 0.700222 0.278168 0.899587
Si Si5 0.666848 0.902242 0.957585
Si Si6 0.816427 0.282136 0.436819
Si Si7 0.286197 0.091428 0.559818
O O1 0.750019 0.514958 0.812594
O O2 0.741171 0.331726 0.829246
O O3 0.000000 0.412861 0.750000
O O4 0.102670 0.426960 0.906270
O O5 0.500000 0.347504 0.250000
O O6 0.084446 0.325067 0.127381
O O7 0.000000 0.382597 0.250000
O O8 0.510326 0.340257 0.927504
O O9 0.500000 0.500000 0.000000
O O10 0.374670 0.353999 0.047071
O O11 0.626213 0.176299 0.885243
O O12 0.959290 0.273681 0.978184
O O13 0.681466 0.811845 0.915170
O O14 0.630527 0.992992 0.910382
O O15 0.437688 0.895870 0.996482
O O16 0.964898 0.909829 0.021999
#
# Coordination Sequence:
#
# PCOD9229818 Si02
#       7
#     4   4   4   4   4   4   4
#     4  10  24  38  53  80 115 158 195 232 285 344
#     4  11  26  40  57  80 112 158 195 234 280 345
#     4  11  21  33  58  83 112 147 191 243 283 329
#     4  10  20  34  57  84 113 148 189 239 282 339
#     4   9  17  31  54  82 114 144 173 236 285 339
#     4  10  21  36  55  85 113 145 192 235 291 332
#     4   9  17  31  52  85 115 138 183 226 289 336
#
# _framework density 19.79842
#
# number of rings (size 3 to 8) (size 9 to 14) (size 15 to 20)
#    0.000    2.000    1.429    1.714   10.000    2.286 
#    0.000    0.000    0.000    0.857    3.714    0.000 
#    0.000    0.000    0.000    0.000    0.000    0.000 
#
# Total GULP energy -155924.408643 kJ/mol
# GULP energy per Si atom -5568.728880 kJ/mol
# Density = 1.975336 g / cm^3
# Si number density = 19.798420 Si / 1000 Ang^3
#
#
#
# Elastic Constant Matrix: (Units=GPa)
#
#
# Indices 1 2 3 4 5 6 
#
# 1 55.2086 8.4171 6.0133 0.0000 1.2950 0.0000
# 2 8.4171 164.1616 40.1813 0.0000 -11.6212 0.0000
# 3 6.0133 40.1813 49.6778 0.0000 -10.9061 0.0000
# 4 0.0000 0.0000 0.0000 -65.0591 0.0000 147.9984
# 5 1.2950 -11.6212 -10.9061 0.0000 20.8709 0.0000
# 6 0.0000 0.0000 0.0000 147.9984 0.0000 -129.4593
#
#
#
# Elastic Compliance Matrix: (Units=1/GPa)
#
#
# Indices 1 2 3 4 5 6 
#
# 1 0.018521 -0.000557 -0.002385 0.000000 -0.002706 0.000000
# 2 -0.000557 0.007637 -0.005838 0.000000 0.001236 0.000000
# 3 -0.002385 -0.005838 0.027629 0.000000 0.011335 0.000000
# 4 0.000000 0.000000 0.000000 0.009603 0.000000 0.010978
# 5 -0.002706 0.001236 0.011335 0.000000 0.054693 0.000000
# 6 0.000000 0.000000 0.000000 0.010978 0.000000 0.004826
#
#
# Mechanical properties :
#
#
# Convention : Reuss Voigt Hill
#
# Bulk Modulus (GPa) = 27.60461 42.03013 34.81737
# Shear Modulus (GPa) = 32.77727 -20.43374 6.17176
#
# Velocity S-wave (km/s) = 4.07326 -3.21610 1.76750
# Velocity P-wave (km/s) = 6.00791 2.73570 4.66793
#
# Compressibility (1/GPa) = 0.03622584
#
# Stress axis : x y z
#
# Youngs Moduli (GPa) = 53.99175 130.94895 36.19419
#
# Poissons Ratio (x) = 0.07299 0.08633
# Poissons Ratio (y) = 0.03010 0.21130
# Poissons Ratio (z) = 0.12878 0.76447
#
# Static dielectric constant tensor:
#      x y z
#    x 1.803710 0.000000 0.012290 
#    y 0.000000 1.861200 0.000000 
#    z 0.012290 0.000000 1.677270 
# 
# From -- ./inp_files/61354.got.cif
#   From: 2010.05.17/outbox.cif.g08.bks.cpg/sg13_31_cif.got.tgz:61354.got - 2010.06.03 16:44:36.
