data_PCOD9229896
_publ_section_title
;
Structure prediction by ZEFSAII (Michael W. Deem and Ramdas Pophale) SiO2 
 PCOD9229896
Probable space group: P 2/C
;
_chemical_formula_sum "Si O2"
_cell_formula_units_Z 22
_cell_length_a 8.261758
_cell_length_b 8.466022
_cell_length_c 14.318043
_cell_angle_alpha 90.000000
_cell_angle_beta 127.859885
_cell_angle_gamma 90.000000
_cell_volume 790.670157
_symmetry_space_group_name_H-M "P 2/C"
_symmetry_group_IT_number 13
_symmetry_cell_setting 'monoclinic'
loop_
_space_group_symop_operation_xyz
x,y,z
-x,y,1/2-z
-x,-y,-z
x,-y,1/2+z
loop_
_atom_site_type_symbol
_atom_site_label
_atom_site_fract_x
_atom_site_fract_y
_atom_site_fract_z
Si Si1 0.533361 0.563819 0.909049
Si Si2 0.933614 0.741305 0.333865
Si Si3 0.160635 0.940120 0.639657
Si Si4 0.500000 0.663946 0.250000
Si Si5 0.920891 0.388858 0.327030
Si Si6 0.473742 0.921474 0.590981
O O1 0.626754 0.430576 0.876059
O O2 0.320782 0.585219 0.776208
O O3 0.607834 0.741450 0.946304
O O4 0.500000 0.500000 0.000000
O O5 0.684493 0.743740 0.257660
O O6 0.003968 0.562326 0.386561
O O7 0.000000 0.750291 0.250000
O O8 0.987227 0.910733 0.397756
O O9 0.054473 0.766160 0.600588
O O10 0.321432 0.987373 0.615619
O O11 0.302374 0.920238 0.782216
O O12 0.000000 0.356833 0.250000
O O13 0.500000 0.000000 0.500000
#
# Coordination Sequence:
#
# PCOD9229896 Si02
#       6
#     4   4   4   2   4   4
#     4  10  21  35  62  90 118 158 206 254 302 365
#     4  10  20  34  64  91 112 155 205 247 301 361
#     4  10  20  37  58  82 120 160 196 253 298 358
#     4  10  20  38  62  86 124 160 202 250 308 362
#     4   9  19  37  60  85 118 160 202 245 306 367
#     4  10  21  34  55  89 118 154 206 245 303 362
#
# _framework density 27.824496
#
# number of rings (size 3 to 8) (size 9 to 14) (size 15 to 20)
#    0.000    2.182    0.000    4.909    7.636    0.000 
#    0.000    0.000    4.000   13.091    0.000    0.000 
#    0.000    0.000    0.000    0.000    0.000    0.000 
#
# Total GULP energy -123042.552105 kJ/mol
# GULP energy per Si atom -5592.843278 kJ/mol
# Density = 2.776117 g / cm^3
# Si number density = 27.824496 Si / 1000 Ang^3
#
#
#
# Elastic Constant Matrix: (Units=GPa)
#
#
# Indices 1 2 3 4 5 6 
#
# 1 96.8378 46.2015 41.7308 0.0000 -30.8994 0.0000
# 2 46.2015 229.1910 45.3641 0.0000 -16.7346 0.0000
# 3 41.7308 45.3641 102.1873 0.0000 -19.3557 0.0000
# 4 0.0000 0.0000 0.0000 45.0767 0.0000 -8.1518
# 5 -30.8994 -16.7346 -19.3557 0.0000 64.2664 0.0000
# 6 0.0000 0.0000 0.0000 -8.1518 0.0000 52.4269
#
#
#
# Elastic Compliance Matrix: (Units=1/GPa)
#
#
# Indices 1 2 3 4 5 6 
#
# 1 0.014671 -0.001734 -0.004211 0.000000 0.005334 0.000000
# 2 -0.001734 0.005014 -0.001514 0.000000 0.000015 0.000000
# 3 -0.004211 -0.001514 0.012429 0.000000 0.001324 0.000000
# 4 0.000000 0.000000 0.000000 0.022826 0.000000 0.003549
# 5 0.005334 0.000015 0.001324 0.000000 0.018528 0.000000
# 6 0.000000 0.000000 0.000000 0.003549 0.000000 0.019626
#
#
# Mechanical properties :
#
#
# Convention : Reuss Voigt Hill
#
# Bulk Modulus (GPa) = 58.16172 77.20099 67.68135
# Shear Modulus (GPa) = 43.95847 52.01531 47.98689
#
# Velocity S-wave (km/s) = 3.97904 4.32835 4.15737
# Velocity P-wave (km/s) = 6.48528 7.26536 6.88637
#
# Compressibility (1/GPa) = 0.01719344
#
# Stress axis : x y z
#
# Youngs Moduli (GPa) = 68.16357 199.45309 80.45872
#
# Poissons Ratio (x) = 0.34594 0.33880
# Poissons Ratio (y) = 0.11823 0.12185
# Poissons Ratio (z) = 0.28703 0.30207
#
# Static dielectric constant tensor:
#      x y z
#    x 2.107140 0.000000 0.118780 
#    y 0.000000 2.374700 0.000000 
#    z 0.118780 0.000000 2.142310 
# 
# From -- ./inp_files/46123.got.cif
#   From: 2010.05.17/outbox.cif.g08.bks.cpg/sg13_24_cif.got.tgz:46123.got - 2010.06.03 16:44:36.
