data_PCOD9229605
_publ_section_title
;
Structure prediction by ZEFSAII (Michael W. Deem and Ramdas Pophale) SiO2 
 PCOD9229605
Probable space group: P 2/C
;
_chemical_formula_sum "Si O2"
_cell_formula_units_Z 18
_cell_length_a 5.219823
_cell_length_b 11.292930
_cell_length_c 19.946338
_cell_angle_alpha 90.000000
_cell_angle_beta 61.222408
_cell_angle_gamma 90.000000
_cell_volume 1030.564176
_symmetry_space_group_name_H-M "P 2/C"
_symmetry_group_IT_number 13
_symmetry_cell_setting 'monoclinic'
loop_
_space_group_symop_operation_xyz
x,y,z
-x,y,1/2-z
-x,-y,-z
x,-y,1/2+z
loop_
_atom_site_type_symbol
_atom_site_label
_atom_site_fract_x
_atom_site_fract_y
_atom_site_fract_z
Si Si1 0.564444 0.059129 0.095352
Si Si2 0.500000 0.857290 0.750000
Si Si3 0.799547 0.569824 0.973380
Si Si4 0.171783 0.378060 0.295447
Si Si5 0.778271 0.842922 0.987825
O O1 0.470675 0.071355 0.184585
O O2 0.349047 0.121334 0.069226
O O3 0.880213 0.123224 0.050296
O O4 0.612159 0.925995 0.062487
O O5 0.767043 0.763673 0.708730
O O6 0.737654 0.704117 0.004223
O O7 0.985602 0.582119 0.881858
O O8 0.500000 0.500000 0.000000
O O9 0.000000 0.500000 0.000000
O O10 0.500000 0.429440 0.250000
O O11 0.000000 0.405144 0.250000
#
# Coordination Sequence:
#
# PCOD9229605 Si02
#       5
#     4   2   4   4   4
#     4  10  20  33  62  82 116 140 184 246 292 341
#     4  10  20  32  62  86 108 144 194 244 294 336
#     4  12  23  36  60  87 118 159 200 235 280 347
#     4  10  20  35  57  83 115 142 197 247 283 332
#     4  10  20  38  52  88 116 148 182 237 295 337
#
# _framework density 17.466159999999999
#
# number of rings (size 3 to 8) (size 9 to 14) (size 15 to 20)
#    0.667    0.889    2.222    4.000    0.000    0.000 
#    0.000    0.000    7.333    0.000    0.000    0.000 
#    0.000    0.000    0.000    0.000    0.000    0.000 
#
# Total GULP energy -100410.693333 kJ/mol
# GULP energy per Si atom -5578.371852 kJ/mol
# Density = 1.742641 g / cm^3
# Si number density = 17.466160 Si / 1000 Ang^3
#
#
#
# Elastic Constant Matrix: (Units=GPa)
#
#
# Indices 1 2 3 4 5 6 
#
# 1 149.8840 59.6019 56.1261 0.0000 8.3088 0.0000
# 2 59.6019 142.7200 63.4545 0.0000 4.6636 0.0000
# 3 56.1261 63.4545 155.4222 0.0000 15.9671 0.0000
# 4 0.0000 0.0000 0.0000 194.4825 0.0000 89.2215
# 5 8.3088 4.6636 15.9671 0.0000 35.8124 0.0000
# 6 0.0000 0.0000 0.0000 89.2215 0.0000 68.4460
#
#
#
# Elastic Compliance Matrix: (Units=1/GPa)
#
#
# Indices 1 2 3 4 5 6 
#
# 1 0.008488 -0.002678 -0.001892 0.000000 -0.000777 0.000000
# 2 -0.002678 0.009413 -0.002949 0.000000 0.000710 0.000000
# 3 -0.001892 -0.002949 0.008632 0.000000 -0.003026 0.000000
# 4 0.000000 0.000000 0.000000 0.012791 0.000000 -0.016674
# 5 -0.000777 0.000710 -0.003026 0.000000 0.029360 0.000000
# 6 0.000000 0.000000 0.000000 -0.016674 0.000000 0.036345
#
#
# Mechanical properties :
#
#
# Convention : Reuss Voigt Hill
#
# Bulk Modulus (GPa) = 86.99272 89.59903 88.29587
# Shear Modulus (GPa) = 40.35524 77.67108 59.01316
#
# Velocity S-wave (km/s) = 4.81196 6.67578 5.81898
# Velocity P-wave (km/s) = 8.98821 10.52765 9.78824
#
# Compressibility (1/GPa) = 0.01149521
#
# Stress axis : x y z
#
# Youngs Moduli (GPa) = 117.80742 106.23485 115.84610
#
# Poissons Ratio (x) = 0.28453 0.21919
# Poissons Ratio (y) = 0.31552 0.34162
# Poissons Ratio (z) = 0.22290 0.31328
#
# Static dielectric constant tensor:
#      x y z
#    x 1.597540 0.000000 -0.005150 
#    y 0.000000 1.583620 0.000000 
#    z -0.005150 0.000000 1.591870 
# 
# From -- ./inp_files/60893.got.cif
#   From: 2010.05.17/outbox.cif.g08.bks.cpg/sg13_31_cif.got.tgz:60893.got - 2010.06.03 16:44:36.
