data_PCOD9229691
_publ_section_title
;
Structure prediction by ZEFSAII (Michael W. Deem and Ramdas Pophale) SiO2 
 PCOD9229691
Probable space group: P 2/C
;
_chemical_formula_sum "Si O2"
_cell_formula_units_Z 20
_cell_length_a 33.664872
_cell_length_b 5.312087
_cell_length_c 21.762937
_cell_angle_alpha 90.000000
_cell_angle_beta 12.158529
_cell_angle_gamma 90.000000
_cell_volume 819.697586
_symmetry_space_group_name_H-M "P 2/C"
_symmetry_group_IT_number 13
_symmetry_cell_setting 'monoclinic'
loop_
_space_group_symop_operation_xyz
x,y,z
-x,y,1/2-z
-x,-y,-z
x,-y,1/2+z
loop_
_atom_site_type_symbol
_atom_site_label
_atom_site_fract_x
_atom_site_fract_y
_atom_site_fract_z
Si Si1 0.752696 0.725801 0.876059
Si Si2 0.591628 0.521380 0.994592
Si Si3 0.561115 0.991105 0.477911
Si Si4 0.837114 0.225919 0.810246
Si Si5 0.061213 0.252576 0.588890
O O1 0.628089 0.622295 0.008074
O O2 0.754160 0.501880 0.923389
O O3 0.961243 0.757811 0.530621
O O4 0.721312 0.000328 0.953148
O O5 0.517211 0.250152 0.086376
O O6 0.806122 0.533113 0.641659
O O7 0.487098 0.747705 0.117938
O O8 0.500000 0.000000 0.500000
O O9 0.787938 0.026336 0.136400
O O10 0.894697 0.186903 0.793870
O O11 0.000000 0.316024 0.750000
#
# Coordination Sequence:
#
# PCOD9229691 Si02
#       5
#     4   4   4   4   4
#     4   9  16  28  45  71  98 120 159 213 252 290
#     4   9  19  32  52  73 101 129 169 209 257 292
#     4  10  20  34  50  74 102 135 171 205 246 302
#     4   9  17  26  45  69 101 124 156 202 262 290
#     4   9  21  33  49  76 107 135 164 208 255 311
#
# _framework density 24.399241
#
# number of rings (size 3 to 8) (size 9 to 14) (size 15 to 20)
#    1.200    1.600    0.000    1.800    8.400    0.800 
#    0.000    0.000    0.000    0.000    0.000    8.400 
#    0.000    0.000    0.000    0.000    0.000    0.000 
#
# Total GULP energy -111666.041289 kJ/mol
# GULP energy per Si atom -5583.302064 kJ/mol
# Density = 2.434371 g / cm^3
# Si number density = 24.399241 Si / 1000 Ang^3
#
#
#
# Elastic Constant Matrix: (Units=GPa)
#
#
# Indices 1 2 3 4 5 6 
#
# 1 215.1497 91.1915 40.4877 0.0000 -12.1879 0.0000
# 2 91.1915 158.9099 36.0313 0.0000 -20.3954 0.0000
# 3 40.4877 36.0313 80.4863 0.0000 -9.3913 0.0000
# 4 0.0000 0.0000 0.0000 38.8219 0.0000 1.2415
# 5 -12.1879 -20.3954 -9.3913 0.0000 49.4889 0.0000
# 6 0.0000 0.0000 0.0000 1.2415 0.0000 29.3842
#
#
#
# Elastic Compliance Matrix: (Units=1/GPa)
#
#
# Indices 1 2 3 4 5 6 
#
# 1 0.006354 -0.003264 -0.001748 0.000000 -0.000112 0.000000
# 2 -0.003264 0.008957 -0.002077 0.000000 0.002493 0.000000
# 3 -0.001748 -0.002077 0.014402 0.000000 0.001447 0.000000
# 4 0.000000 0.000000 0.000000 0.025794 0.000000 -0.001090
# 5 -0.000112 0.002493 0.001447 0.000000 0.021481 0.000000
# 6 0.000000 0.000000 0.000000 -0.001090 0.000000 0.034078
#
#
# Mechanical properties :
#
#
# Convention : Reuss Voigt Hill
#
# Bulk Modulus (GPa) = 64.37061 87.77410 76.07235
# Shear Modulus (GPa) = 38.33682 42.66136 40.49909
#
# Velocity S-wave (km/s) = 3.96817 4.18601 4.07855
# Velocity P-wave (km/s) = 6.88729 7.70816 7.30926
#
# Compressibility (1/GPa) = 0.01553504
#
# Stress axis : x y z
#
# Youngs Moduli (GPa) = 157.37719 111.64357 69.43316
#
# Poissons Ratio (x) = 0.36445 0.12138
# Poissons Ratio (y) = 0.51374 0.14420
# Poissons Ratio (z) = 0.27511 0.23186
#
# Static dielectric constant tensor:
#      x y z
#    x 1.929140 0.000000 0.067760 
#    y 0.000000 1.885970 0.000000 
#    z 0.067760 0.000000 2.123520 
# 
# From -- ./inp_files/82597.got.cif
#   From: 2010.05.17/outbox.cif.g08.bks.cpg/sg13_42_cif.got.tgz:82597.got - 2010.06.03 16:44:36.
