data_PCOD9229305
_publ_section_title
;
Structure prediction by ZEFSAII (Michael W. Deem and Ramdas Pophale) SiO2 
 PCOD9229305
Probable space group: P 2/C
;
_chemical_formula_sum "Si O2"
_cell_formula_units_Z 16
_cell_length_a 5.503118
_cell_length_b 5.012264
_cell_length_c 22.933505
_cell_angle_alpha 90.000000
_cell_angle_beta 71.930238
_cell_angle_gamma 90.000000
_cell_volume 601.377747
_symmetry_space_group_name_H-M "P 2/C"
_symmetry_group_IT_number 13
_symmetry_cell_setting 'monoclinic'
loop_
_space_group_symop_operation_xyz
x,y,z
-x,y,1/2-z
-x,-y,-z
x,-y,1/2+z
loop_
_atom_site_type_symbol
_atom_site_label
_atom_site_fract_x
_atom_site_fract_y
_atom_site_fract_z
Si Si1 0.404244 0.909278 0.650220
Si Si2 0.833593 0.740096 0.942366
Si Si3 0.000000 0.629388 0.750000
Si Si4 0.500000 0.568990 0.750000
Si Si5 0.196592 0.258131 0.920730
O O1 0.121177 0.831200 0.693520
O O2 0.552992 0.759354 0.690564
O O3 0.396282 0.788063 0.585708
O O4 0.539763 0.194113 0.632510
O O5 0.015008 0.493560 0.913001
O O6 0.017385 0.997651 0.928953
O O7 0.743054 0.698857 0.015447
O O8 0.229170 0.443950 0.755652
#
# Coordination Sequence:
#
# PCOD9229305 Si02
#       5
#     4   4   2   2   4
#     4  10  19  38  68  96 145 182 240 302 356 438
#     4  10  22  40  67 101 136 182 233 292 365 433
#     4   8  18  34  64  98 132 184 238 282 358 418
#     4   8  18  34  64  98 132 184 238 282 358 418
#     4  10  22  40  67 101 136 182 233 292 365 433
#
# _framework density 26.605571999999999
#
# number of rings (size 3 to 8) (size 9 to 14) (size 15 to 20)
#    1.500    1.000    0.000    2.250    0.000    2.000 
#    0.000    7.500   11.000    0.000    0.000    0.000 
#    0.000    0.000    0.000    0.000    0.000    0.000 
#
# Total GULP energy -89373.988384 kJ/mol
# GULP energy per Si atom -5585.874274 kJ/mol
# Density = 2.654502 g / cm^3
# Si number density = 26.605572 Si / 1000 Ang^3
#
#
#
# Elastic Constant Matrix: (Units=GPa)
#
#
# Indices 1 2 3 4 5 6 
#
# 1 154.4606 34.8309 42.6158 0.0000 20.3102 0.0000
# 2 34.8309 128.0261 15.0060 0.0000 -6.3291 0.0000
# 3 42.6158 15.0060 79.0017 0.0000 4.1567 0.0000
# 4 0.0000 0.0000 0.0000 20.2340 0.0000 -12.1836
# 5 20.3102 -6.3291 4.1567 0.0000 53.2125 0.0000
# 6 0.0000 0.0000 0.0000 -12.1836 0.0000 42.2396
#
#
#
# Elastic Compliance Matrix: (Units=1/GPa)
#
#
# Indices 1 2 3 4 5 6 
#
# 1 0.008441 -0.001982 -0.004012 0.000000 -0.003144 0.000000
# 2 -0.001982 0.008516 -0.000644 0.000000 0.001820 0.000000
# 3 -0.004012 -0.000644 0.014929 0.000000 0.000288 0.000000
# 4 0.000000 0.000000 0.000000 0.059809 0.000000 0.017251
# 5 -0.003144 0.001820 0.000288 0.000000 0.020187 0.000000
# 6 0.000000 0.000000 0.000000 0.017251 0.000000 0.028650
#
#
# Mechanical properties :
#
#
# Convention : Reuss Voigt Hill
#
# Bulk Modulus (GPa) = 53.73230 60.71041 57.22135
# Shear Modulus (GPa) = 31.24788 41.07294 36.16041
#
# Velocity S-wave (km/s) = 3.43080 3.93335 3.69064
# Velocity P-wave (km/s) = 5.99446 6.59519 6.30199
#
# Compressibility (1/GPa) = 0.01861078
#
# Stress axis : x y z
#
# Youngs Moduli (GPa) = 118.46554 117.43252 66.98314
#
# Poissons Ratio (x) = 0.23272 0.26871
# Poissons Ratio (y) = 0.23477 0.04315
# Poissons Ratio (z) = 0.47524 0.07565
#
# Static dielectric constant tensor:
#      x y z
#    x 2.136630 0.000000 -0.023440 
#    y 0.000000 1.996900 0.000000 
#    z -0.023440 0.000000 2.086330 
# 
# From -- ./inp_files/82883.got.cif
#   From: 2010.05.17/outbox.cif.g08.bks.cpg/sg13_42_cif.got.tgz:82883.got - 2010.06.03 16:44:36.
