data_PCOD9229933
_publ_section_title
;
Structure prediction by ZEFSAII (Michael W. Deem and Ramdas Pophale) SiO2 
 PCOD9229933
Probable space group: P 2/C
;
_chemical_formula_sum "Si O2"
_cell_formula_units_Z 28
_cell_length_a 7.187513
_cell_length_b 10.984405
_cell_length_c 20.726623
_cell_angle_alpha 90.000000
_cell_angle_beta 49.117909
_cell_angle_gamma 90.000000
_cell_volume 1237.197092
_symmetry_space_group_name_H-M "P 2/C"
_symmetry_group_IT_number 13
_symmetry_cell_setting 'monoclinic'
loop_
_space_group_symop_operation_xyz
x,y,z
-x,y,1/2-z
-x,-y,-z
x,-y,1/2+z
loop_
_atom_site_type_symbol
_atom_site_label
_atom_site_fract_x
_atom_site_fract_y
_atom_site_fract_z
Si Si1 0.500000 0.408540 0.250000
Si Si2 0.227783 0.120776 0.511224
Si Si3 0.685509 0.362510 0.074202
Si Si4 0.031177 0.519723 0.667058
Si Si5 0.979465 0.753559 0.329608
Si Si6 0.500000 0.172037 0.750000
Si Si7 0.249493 0.377709 0.993429
Si Si8 0.678735 0.118924 0.575714
O O1 0.548155 0.338335 0.172710
O O2 0.247406 0.480159 0.296946
O O3 0.358146 0.245698 0.460161
O O4 0.159386 0.141356 0.600813
O O5 0.966340 0.120816 0.532018
O O6 0.353595 0.995171 0.463849
O O7 0.978498 0.370937 0.021656
O O8 0.624960 0.497699 0.061029
O O9 0.126935 0.381833 0.638066
O O10 0.000000 0.550477 0.750000
O O11 0.186791 0.605059 0.583594
O O12 0.252645 0.751423 0.297994
O O13 0.000000 0.778375 0.250000
O O14 0.531732 0.100798 0.675813
O O15 0.374096 0.251372 0.943433
#
# Coordination Sequence:
#
# PCOD9229933 Si02
#       8
#     2   4   4   4   4   2   4   4
#     4  10  21  31  54  84 108 142 182 232 278 320
#     4   9  17  35  52  78 112 146 181 224 272 335
#     4   9  17  29  52  76 107 141 178 223 274 320
#     4  10  20  35  54  81 112 143 182 229 275 325
#     4  10  20  35  57  81 108 145 184 226 273 326
#     4  10  21  35  56  84 108 142 186 230 262 332
#     4   9  17  31  50  78 107 142 177 223 273 325
#     4   9  19  31  56  80 109 146 184 221 278 322
#
# _framework density 22.631802
#
# number of rings (size 3 to 8) (size 9 to 14) (size 15 to 20)
#    0.000    2.571    1.429    0.429    8.000    0.571 
#    0.000    5.000    0.000    0.000    0.000    0.000 
#    0.000    0.000    0.000    0.000    0.000    0.000 
#
# Total GULP energy -156362.816273 kJ/mol
# GULP energy per Si atom -5584.386295 kJ/mol
# Density = 2.258029 g / cm^3
# Si number density = 22.631802 Si / 1000 Ang^3
#
#
#
# Elastic Constant Matrix: (Units=GPa)
#
#
# Indices 1 2 3 4 5 6 
#
# 1 81.4951 22.3893 3.4910 0.0000 -0.4196 0.0000
# 2 22.3893 153.2707 87.0452 0.0000 19.0799 0.0000
# 3 3.4910 87.0452 152.1884 0.0000 36.4269 0.0000
# 4 0.0000 0.0000 0.0000 1.4876 0.0000 -0.5479
# 5 -0.4196 19.0799 36.4269 0.0000 35.2422 0.0000
# 6 0.0000 0.0000 0.0000 -0.5479 0.0000 19.3085
#
#
#
# Elastic Compliance Matrix: (Units=1/GPa)
#
#
# Indices 1 2 3 4 5 6 
#
# 1 0.012926 -0.002540 0.001050 0.000000 0.000444 0.000000
# 2 -0.002540 0.010173 -0.005893 0.000000 0.000553 0.000000
# 3 0.001050 -0.005893 0.012158 0.000000 -0.009364 0.000000
# 4 0.000000 0.000000 0.000000 0.679331 0.000000 0.019276
# 5 0.000444 0.000553 -0.009364 0.000000 0.037760 0.000000
# 6 0.000000 0.000000 0.000000 0.019276 0.000000 0.052337
#
#
# Mechanical properties :
#
#
# Convention : Reuss Voigt Hill
#
# Bulk Modulus (GPa) = 48.79839 68.08945 58.44392
# Shear Modulus (GPa) = 6.05121 29.47625 17.76373
#
# Velocity S-wave (km/s) = 1.63694 3.61283 2.80465
# Velocity P-wave (km/s) = 5.01811 6.89597 6.03058
#
# Compressibility (1/GPa) = 0.02049248
#
# Stress axis : x y z
#
# Youngs Moduli (GPa) = 77.36526 98.29848 82.24712
#
# Poissons Ratio (x) = 0.24964 -0.08635
# Poissons Ratio (y) = 0.19648 0.48465
# Poissons Ratio (z) = -0.08122 0.57924
#
# Static dielectric constant tensor:
#      x y z
#    x 1.960990 0.000000 -0.019680 
#    y 0.000000 1.789260 0.000000 
#    z -0.019680 0.000000 1.854380 
# 
# From -- ./inp_files/76239.got.cif
#   From: 2010.05.17/outbox.cif.g08.bks.cpg/sg13_39_cif.got.tgz:76239.got - 2010.06.03 16:44:36.
