data_PCOD9229555
_publ_section_title
;
Structure prediction by ZEFSAII (Michael W. Deem and Ramdas Pophale) SiO2 
 PCOD9229555
Probable space group: P 2/C
;
_chemical_formula_sum "Si O2"
_cell_formula_units_Z 16
_cell_length_a 24.035122
_cell_length_b 6.280055
_cell_length_c 14.243882
_cell_angle_alpha 90.000000
_cell_angle_beta 162.125461
_cell_angle_gamma 90.000000
_cell_volume 659.907019
_symmetry_space_group_name_H-M "P 2/C"
_symmetry_group_IT_number 13
_symmetry_cell_setting 'monoclinic'
loop_
_space_group_symop_operation_xyz
x,y,z
-x,y,1/2-z
-x,-y,-z
x,-y,1/2+z
loop_
_atom_site_type_symbol
_atom_site_label
_atom_site_fract_x
_atom_site_fract_y
_atom_site_fract_z
Si Si1 0.517657 0.186827 0.387000
Si Si2 0.022697 0.808557 0.464472
Si Si3 0.227815 0.065332 0.550456
Si Si4 0.268337 0.440864 0.472208
O O1 0.500000 0.118005 0.250000
O O2 0.707137 0.126598 0.740359
O O3 0.379514 0.066190 0.234619
O O4 0.459121 0.436791 0.290939
O O5 0.874834 0.632380 0.255243
O O6 0.216639 0.697378 0.796327
O O7 0.000000 0.000000 0.500000
O O8 0.946831 0.920223 0.250176
O O9 0.223798 0.288939 0.488179
#
# Coordination Sequence:
#
# PCOD9229555 Si02
#       4
#     4   4   4   4
#     4  10  20  32  50  77 107 135 172 221 266 314
#     4   8  15  29  53  75  96 132 174 213 258 316
#     4   9  18  33  52  74 102 138 174 212 264 315
#     4   9  16  30  53  74  97 134 173 211 263 317
#
# _framework density 24.245839
#
# number of rings (size 3 to 8) (size 9 to 14) (size 15 to 20)
#    0.000    3.000    0.000    0.750    0.000    1.000 
#    0.000    0.000    0.000   69.000    0.000    0.000 
#    0.000    0.000    0.000    0.000    0.000    0.000 
#
# Total GULP energy -89112.481087 kJ/mol
# GULP energy per Si atom -5569.530068 kJ/mol
# Density = 2.419065 g / cm^3
# Si number density = 24.245839 Si / 1000 Ang^3
#
#
#
# Elastic Constant Matrix: (Units=GPa)
#
#
# Indices 1 2 3 4 5 6 
#
# 1 108.9864 33.1572 63.2489 0.0000 -44.5842 0.0000
# 2 33.1572 154.1668 77.7407 0.0000 -19.9365 0.0000
# 3 63.2489 77.7407 167.8941 0.0000 -53.6163 0.0000
# 4 0.0000 0.0000 0.0000 40.0772 0.0000 -6.1311
# 5 -44.5842 -19.9365 -53.6163 0.0000 51.4921 0.0000
# 6 0.0000 0.0000 0.0000 -6.1311 0.0000 -11.1747
#
#
#
# Elastic Compliance Matrix: (Units=1/GPa)
#
#
# Indices 1 2 3 4 5 6 
#
# 1 0.014837 -0.000927 -0.001756 0.000000 0.010659 0.000000
# 2 -0.000927 0.008570 -0.004219 0.000000 -0.001877 0.000000
# 3 -0.001756 -0.004219 0.011332 0.000000 0.008646 0.000000
# 4 0.000000 0.000000 0.000000 0.023020 0.000000 -0.012630
# 5 0.010659 -0.001877 0.008646 0.000000 0.036925 0.000000
# 6 0.000000 0.000000 0.000000 -0.012630 0.000000 -0.082558
#
#
# Mechanical properties :
#
#
# Convention : Reuss Voigt Hill
#
# Bulk Modulus (GPa) = 47.76522 86.59343 67.17932
# Shear Modulus (GPa) = 151.93862 33.20561 92.57212
#
# Velocity S-wave (km/s) = 7.92476 3.70474 6.18575
# Velocity P-wave (km/s) = 10.17246 7.35476 8.87613
#
# Compressibility (1/GPa) = 0.02093574
#
# Stress axis : x y z
#
# Youngs Moduli (GPa) = 67.39860 116.68056 88.24567
#
# Poissons Ratio (x) = 0.10817 0.15498
# Poissons Ratio (y) = 0.06248 0.37227
# Poissons Ratio (z) = 0.11837 0.49223
#
# Static dielectric constant tensor:
#      x y z
#    x 2.012780 0.000000 0.141920 
#    y 0.000000 1.912310 0.000000 
#    z 0.141920 0.000000 2.313440 
# 
# From -- ./inp_files/48474.got.cif
#   From: 2010.05.17/outbox.cif.g08.bks.cpg/sg13_25_cif.got.tgz:48474.got - 2010.06.03 16:44:36.
