data_PCOD9229988
_publ_section_title
;
Structure prediction by ZEFSAII (Michael W. Deem and Ramdas Pophale) SiO2 
 PCOD9229988
Probable space group: P 2/C
;
_chemical_formula_sum "Si O2"
_cell_formula_units_Z 26
_cell_length_a 12.704941
_cell_length_b 11.613802
_cell_length_c 8.286972
_cell_angle_alpha 90.000000
_cell_angle_beta 111.163276
_cell_angle_gamma 90.000000
_cell_volume 1140.295946
_symmetry_space_group_name_H-M "P 2/C"
_symmetry_group_IT_number 13
_symmetry_cell_setting 'monoclinic'
loop_
_space_group_symop_operation_xyz
x,y,z
-x,y,1/2-z
-x,-y,-z
x,-y,1/2+z
loop_
_atom_site_type_symbol
_atom_site_label
_atom_site_fract_x
_atom_site_fract_y
_atom_site_fract_z
Si Si1 0.252471 0.665969 0.348960
Si Si2 0.500000 0.461035 0.750000
Si Si3 0.967767 0.628239 0.423274
Si Si4 0.430533 0.153394 0.961663
Si Si5 0.649266 0.077051 0.225544
Si Si6 0.666780 0.583390 0.596644
Si Si7 0.831204 0.239711 0.360540
O O1 0.164707 0.659343 0.152877
O O2 0.372658 0.726213 0.389496
O O3 0.268877 0.534754 0.411108
O O4 0.200998 0.736653 0.469936
O O5 0.576784 0.545376 0.683432
O O6 0.411393 0.388877 0.597390
O O7 0.000000 0.631107 0.250000
O O8 0.000000 0.500000 0.500000
O O9 0.039456 0.720164 0.566687
O O10 0.565407 0.143246 0.054191
O O11 0.389212 0.115636 0.117955
O O12 0.379450 0.055910 0.817188
O O13 0.779310 0.116408 0.282477
O O14 0.755721 0.672326 0.714705
#
# Coordination Sequence:
#
# PCOD9229988 Si02
#       7
#     4   2   4   4   4   4   4
#     4  10  20  35  57  77 109 147 178 222 271 324
#     4  10  24  30  48  76 118 138 178 220 262 336
#     4  10  20  36  55  80 108 144 187 219 266 321
#     4   9  19  36  55  77 104 140 179 221 271 323
#     4   9  19  36  55  77 104 140 179 221 271 323
#     4  11  20  35  48  80 110 145 177 212 278 322
#     4  10  20  35  57  77 109 147 178 222 271 324
#
# _framework density 22.801098
#
# number of rings (size 3 to 8) (size 9 to 14) (size 15 to 20)
#    0.000    2.154    3.077    0.000    4.308    0.000 
#    2.769    0.769    0.000    0.000    0.000    0.000 
#    0.000    0.000    0.000    0.000    0.000    0.000 
#
# Total GULP energy -145184.772725 kJ/mol
# GULP energy per Si atom -5584.029720 kJ/mol
# Density = 2.274920 g / cm^3
# Si number density = 22.801098 Si / 1000 Ang^3
#
#
#
# Elastic Constant Matrix: (Units=GPa)
#
#
# Indices 1 2 3 4 5 6 
#
# 1 34.6679 1.8324 29.4106 0.0000 25.4032 0.0000
# 2 1.8324 49.6042 31.4083 0.0000 14.7591 0.0000
# 3 29.4106 31.4083 133.9958 0.0000 37.9648 0.0000
# 4 0.0000 0.0000 0.0000 69.6985 0.0000 22.6100
# 5 25.4032 14.7591 37.9648 0.0000 45.0297 0.0000
# 6 0.0000 0.0000 0.0000 22.6100 0.0000 27.9609
#
#
#
# Elastic Compliance Matrix: (Units=1/GPa)
#
#
# Indices 1 2 3 4 5 6 
#
# 1 0.055047 0.010652 -0.006295 0.000000 -0.029239 0.000000
# 2 0.010652 0.026309 -0.005727 0.000000 -0.009804 0.000000
# 3 -0.006295 -0.005727 0.011363 0.000000 -0.004152 0.000000
# 4 0.000000 0.000000 0.000000 0.019449 0.000000 -0.015727
# 5 -0.029239 -0.009804 -0.004152 0.000000 0.045416 0.000000
# 6 0.000000 0.000000 0.000000 -0.015727 0.000000 0.048482
#
#
# Mechanical properties :
#
#
# Convention : Reuss Voigt Hill
#
# Bulk Modulus (GPa) = 11.11360 38.17451 24.64405
# Shear Modulus (GPa) = 20.93789 38.91225 29.92507
#
# Velocity S-wave (km/s) = 3.03361 4.13558 3.62669
# Velocity P-wave (km/s) = 4.14187 6.29148 5.32625
#
# Compressibility (1/GPa) = 0.08997984
#
# Stress axis : x y z
#
# Youngs Moduli (GPa) = 18.16622 38.00920 88.00144
#
# Poissons Ratio (x) = -0.40487 0.55396
# Poissons Ratio (y) = -0.19351 0.50399
# Poissons Ratio (z) = 0.11436 0.21768
#
# Static dielectric constant tensor:
#      x y z
#    x 1.972900 0.000000 -0.020040 
#    y 0.000000 1.845840 0.000000 
#    z -0.020040 0.000000 1.876680 
# 
# From -- ./inp_files/18702.got.cif
#   From: 2010.05.17/outbox.cif.g08.bks.cpg/sg13_10_cif.got.tgz:18702.got - 2010.06.03 16:44:36.
