data_PCOD9229161
_publ_section_title
;
Structure prediction by ZEFSAII (Michael W. Deem and Ramdas Pophale) SiO2 
 PCOD9229161
Probable space group: P 2/C
;
_chemical_formula_sum "Si O2"
_cell_formula_units_Z 16
_cell_length_a 7.609350
_cell_length_b 9.338405
_cell_length_c 12.389813
_cell_angle_alpha 90.000000
_cell_angle_beta 122.265125
_cell_angle_gamma 90.000000
_cell_volume 744.463274
_symmetry_space_group_name_H-M "P 2/C"
_symmetry_group_IT_number 13
_symmetry_cell_setting 'monoclinic'
loop_
_space_group_symop_operation_xyz
x,y,z
-x,y,1/2-z
-x,-y,-z
x,-y,1/2+z
loop_
_atom_site_type_symbol
_atom_site_label
_atom_site_fract_x
_atom_site_fract_y
_atom_site_fract_z
Si Si1 0.500000 0.723818 0.750000
Si Si2 0.000000 0.720116 0.250000
Si Si3 0.923940 0.838043 0.608251
Si Si4 0.752422 0.107790 0.484471
Si Si5 0.086728 0.544005 0.642829
O O1 0.454775 0.820647 0.629911
O O2 0.302742 0.625444 0.706262
O O3 0.142006 0.810625 0.379356
O O4 0.122157 0.602752 0.218652
O O5 0.000000 0.890749 0.750000
O O6 0.092726 0.869914 0.568459
O O7 0.915278 0.666317 0.619066
O O8 0.737109 0.940364 0.509179
O O9 0.000000 0.500000 0.500000
#
# Coordination Sequence:
#
# PCOD9229161 Si02
#       5
#     2   2   4   4   4
#     4  10  22  42  60  92 134 158 220 258 306 380
#     4  12  20  38  70  90 126 172 204 260 326 364
#     4  10  19  37  65  85 120 169 208 246 316 375
#     4  10  22  38  62  90 122 166 210 257 307 373
#     4  11  22  40  64  94 128 167 202 262 319 372
#
# _framework density 21.491994999999999
#
# number of rings (size 3 to 8) (size 9 to 14) (size 15 to 20)
#    0.000    1.500    7.500    0.000    0.000    1.000 
#    0.000    6.250    0.000    0.000    0.000    0.000 
#    0.000    0.000    0.000    0.000    0.000    0.000 
#
# Total GULP energy -89076.038475 kJ/mol
# GULP energy per Si atom -5567.252405 kJ/mol
# Density = 2.144308 g / cm^3
# Si number density = 21.491995 Si / 1000 Ang^3
#
#
#
# Elastic Constant Matrix: (Units=GPa)
#
#
# Indices 1 2 3 4 5 6 
#
# 1 30.4350 16.5193 33.7905 0.0000 -0.7848 0.0000
# 2 16.5193 127.3678 62.8219 0.0000 5.6571 0.0000
# 3 33.7905 62.8219 176.8453 0.0000 -9.9668 0.0000
# 4 0.0000 0.0000 0.0000 -1.8906 0.0000 122.1946
# 5 -0.7848 5.6571 -9.9668 0.0000 38.2491 0.0000
# 6 0.0000 0.0000 0.0000 122.1946 0.0000-1125.3829
#
#
#
# Elastic Compliance Matrix: (Units=1/GPa)
#
#
# Indices 1 2 3 4 5 6 
#
# 1 0.042069 -0.001736 -0.007468 0.000000 -0.000826 0.000000
# 2 -0.001736 0.009799 -0.003281 0.000000 -0.002340 0.000000
# 3 -0.007468 -0.003281 0.008389 0.000000 0.002518 0.000000
# 4 0.000000 0.000000 0.000000 0.087894 0.000000 0.009544
# 5 -0.000826 -0.002340 0.002518 0.000000 0.027130 0.000000
# 6 0.000000 0.000000 0.000000 0.009544 0.000000 0.000148
#
#
# Mechanical properties :
#
#
# Convention : Reuss Voigt Hill
#
# Bulk Modulus (GPa) = 28.33928 62.32348 45.33138
# Shear Modulus (GPa) = 23.56702 -203.03710 -89.73504
#
# Velocity S-wave (km/s) = 3.31501 -9.73017 -6.46865
# Velocity P-wave (km/s) = 5.27892 9.85766 5.88670
#
# Compressibility (1/GPa) = 0.03528671
#
# Stress axis : x y z
#
# Youngs Moduli (GPa) = 23.77020 102.05480 119.20260
#
# Poissons Ratio (x) = 0.17717 0.89023
# Poissons Ratio (y) = 0.04127 0.39110
# Poissons Ratio (z) = 0.17752 0.33484
#
# Static dielectric constant tensor:
#      x y z
#    x 1.915100 0.000000 -0.017000 
#    y 0.000000 1.835380 0.000000 
#    z -0.017000 0.000000 1.817450 
# 
# From -- ./inp_files/27573.got.cif
#   From: 2010.05.17/outbox.cif.g08.bks.cpg/sg13_14_cif.got.tgz:27573.got - 2010.06.03 16:44:36.
