data_PCOD9229946
_publ_section_title
;
Structure prediction by ZEFSAII (Michael W. Deem and Ramdas Pophale) SiO2 
 PCOD9229946
Probable space group: P 2/C
;
_chemical_formula_sum "Si O2"
_cell_formula_units_Z 28
_cell_length_a 8.117158
_cell_length_b 12.198209
_cell_length_c 15.481112
_cell_angle_alpha 90.000000
_cell_angle_beta 66.795163
_cell_angle_gamma 90.000000
_cell_volume 1408.853939
_symmetry_space_group_name_H-M "P 2/C"
_symmetry_group_IT_number 13
_symmetry_cell_setting 'monoclinic'
loop_
_space_group_symop_operation_xyz
x,y,z
-x,y,1/2-z
-x,-y,-z
x,-y,1/2+z
loop_
_atom_site_type_symbol
_atom_site_label
_atom_site_fract_x
_atom_site_fract_y
_atom_site_fract_z
Si Si1 0.304176 0.951829 0.138393
Si Si2 0.820050 0.271679 0.539957
Si Si3 0.860041 0.412949 0.699816
Si Si4 0.428460 0.264826 0.673843
Si Si5 0.072473 0.659274 0.832323
Si Si6 0.284719 0.881616 0.793300
Si Si7 0.740477 0.023556 0.540233
O O1 0.289665 0.823762 0.164938
O O2 0.522476 0.962634 0.088677
O O3 0.236825 0.037533 0.223817
O O4 0.221738 0.981877 0.063589
O O5 0.890489 0.331548 0.612089
O O6 0.603972 0.289726 0.581553
O O7 0.829807 0.140054 0.541261
O O8 0.921425 0.315201 0.435010
O O9 0.673136 0.374282 0.779291
O O10 0.854162 0.537131 0.667116
O O11 0.000000 0.404685 0.750000
O O12 0.500000 0.214200 0.750000
O O13 0.210631 0.759474 0.804890
O O14 0.000000 0.657796 0.750000
O O15 0.500000 0.877982 0.750000
O O16 0.216148 0.937645 0.894800
#
# Coordination Sequence:
#
# PCOD9229946 Si02
#       7
#     4   4   4   4   4   4   4
#     4   9  16  32  56  84 114 143 178 231 279 329
#     4  10  20  39  62  84 113 150 188 234 285 336
#     4  10  22  40  59  83 112 145 191 244 287 329
#     4   9  18  36  64  86 108 148 194 233 279 336
#     4  11  24  40  55  80 119 155 189 234 285 336
#     4  10  20  35  55  82 116 152 188 229 279 335
#     4   9  18  32  56  85 112 143 184 225 279 340
#
# _framework density 19.874310999999999
#
# number of rings (size 3 to 8) (size 9 to 14) (size 15 to 20)
#    0.000    2.286    0.000    4.286    0.000    4.571 
#    0.000    7.143    0.000    0.000    0.000    0.000 
#    0.000    0.000    0.000    0.000    0.000    0.000 
#
# Total GULP energy -156275.356999 kJ/mol
# GULP energy per Si atom -5581.262750 kJ/mol
# Density = 1.982908 g / cm^3
# Si number density = 19.874311 Si / 1000 Ang^3
#
#
#
# Elastic Constant Matrix: (Units=GPa)
#
#
# Indices 1 2 3 4 5 6 
#
# 1 45.0293 55.3460 50.8739 0.0000 -0.8120 0.0000
# 2 55.3460 172.3778 70.7782 0.0000 13.9046 0.0000
# 3 50.8739 70.7782 130.8772 0.0000 7.5498 0.0000
# 4 0.0000 0.0000 0.0000 28.4985 0.0000 -2.1220
# 5 -0.8120 13.9046 7.5498 0.0000 33.4747 0.0000
# 6 0.0000 0.0000 0.0000 -2.1220 0.0000 23.0136
#
#
#
# Elastic Compliance Matrix: (Units=1/GPa)
#
#
# Indices 1 2 3 4 5 6 
#
# 1 0.054226 -0.011966 -0.015167 0.000000 0.009707 0.000000
# 2 -0.011966 0.010264 -0.000645 0.000000 -0.004408 0.000000
# 3 -0.015167 -0.000645 0.014074 0.000000 -0.003274 0.000000
# 4 0.000000 0.000000 0.000000 0.035332 0.000000 0.003258
# 5 0.009707 -0.004408 -0.003274 0.000000 0.032678 0.000000
# 6 0.000000 0.000000 0.000000 0.003258 0.000000 0.043753
#
#
# Mechanical properties :
#
#
# Convention : Reuss Voigt Hill
#
# Bulk Modulus (GPa) = 43.46378 78.03117 60.74747
# Shear Modulus (GPa) = 19.71977 28.41646 24.06811
#
# Velocity S-wave (km/s) = 3.15338 3.78538 3.48374
# Velocity P-wave (km/s) = 5.93087 7.64546 6.84208
#
# Compressibility (1/GPa) = 0.02300766
#
# Stress axis : x y z
#
# Youngs Moduli (GPa) = 18.44125 97.43261 71.05224
#
# Poissons Ratio (x) = 1.16587 1.07767
# Poissons Ratio (y) = 0.22067 0.04582
# Poissons Ratio (z) = 0.27970 0.06283
#
# Static dielectric constant tensor:
#      x y z
#    x 1.737860 0.000000 -0.008290 
#    y 0.000000 1.697690 0.000000 
#    z -0.008290 0.000000 1.702350 
# 
# From -- ./inp_files/46872.got.cif
#   From: 2010.05.17/outbox.cif.g08.bks.cpg/sg13_24_cif.got.tgz:46872.got - 2010.06.03 16:44:36.
