data_PCOD9229762
_publ_section_title
;
Structure prediction by ZEFSAII (Michael W. Deem and Ramdas Pophale) SiO2 
 PCOD9229762
Probable space group: P 2/C
;
_chemical_formula_sum "Si O2"
_cell_formula_units_Z 22
_cell_length_a 13.317454
_cell_length_b 8.479759
_cell_length_c 12.316754
_cell_angle_alpha 90.000000
_cell_angle_beta 123.179221
_cell_angle_gamma 90.000000
_cell_volume 1164.145217
_symmetry_space_group_name_H-M "P 2/C"
_symmetry_group_IT_number 13
_symmetry_cell_setting 'monoclinic'
loop_
_space_group_symop_operation_xyz
x,y,z
-x,y,1/2-z
-x,-y,-z
x,-y,1/2+z
loop_
_atom_site_type_symbol
_atom_site_label
_atom_site_fract_x
_atom_site_fract_y
_atom_site_fract_z
Si Si1 0.000000 0.954096 0.250000
Si Si2 0.290186 0.555203 0.874399
Si Si3 0.384223 0.938003 0.492459
Si Si4 0.199181 0.177672 0.474434
Si Si5 0.509542 0.368497 0.371287
Si Si6 0.809295 0.235721 0.773444
O O1 0.926986 0.842070 0.289369
O O2 0.910340 0.067995 0.130551
O O3 0.213633 0.668493 0.906534
O O4 0.375356 0.647568 0.839663
O O5 0.212068 0.418387 0.771875
O O6 0.395542 0.469177 0.004279
O O7 0.427636 0.800574 0.597970
O O8 0.297422 0.860656 0.350049
O O9 0.500000 0.000000 0.500000
O O10 0.316442 0.073712 0.517016
O O11 0.191490 0.216697 0.597223
O O12 0.500000 0.448986 0.250000
#
# Coordination Sequence:
#
# PCOD9229762 Si02
#       6
#     2   4   4   4   4   4
#     4  10  24  44  62  90 118 148 220 258 292 374
#     4  10  21  38  56  89 124 154 205 241 293 374
#     4  10  21  36  56  93 123 151 200 241 284 370
#     4  11  22  40  66  87 120 164 201 251 312 345
#     4  10  20  34  54  85 128 160 188 237 292 355
#     4  10  23  41  62  86 123 161 197 256 307 350
#
# _framework density 18.897987000000001
#
# number of rings (size 3 to 8) (size 9 to 14) (size 15 to 20)
#    0.000    1.818    1.818    1.636    2.545    0.727 
#    0.000    7.273    0.000    0.000    0.000    0.000 
#    0.000    0.000    0.000    0.000    0.000    0.000 
#
# Total GULP energy -122694.363899 kJ/mol
# GULP energy per Si atom -5577.016541 kJ/mol
# Density = 1.885497 g / cm^3
# Si number density = 18.897987 Si / 1000 Ang^3
#
#
#
# Elastic Constant Matrix: (Units=GPa)
#
#
# Indices 1 2 3 4 5 6 
#
# 1 139.0440 65.6542 64.3124 0.0000 -11.1529 0.0000
# 2 65.6542 116.8857 46.9800 0.0000 -10.0235 0.0000
# 3 64.3124 46.9800 99.7034 0.0000 -26.3469 0.0000
# 4 0.0000 0.0000 0.0000 -5.1171 0.0000 0.5475
# 5 -11.1529 -10.0235 -26.3469 0.0000 29.5526 0.0000
# 6 0.0000 0.0000 0.0000 0.5475 0.0000 31.0835
#
#
#
# Elastic Compliance Matrix: (Units=1/GPa)
#
#
# Indices 1 2 3 4 5 6 
#
# 1 0.012007 -0.004413 -0.006363 0.000000 -0.002638 0.000000
# 2 -0.004413 0.012205 -0.002944 0.000000 -0.000151 0.000000
# 3 -0.006363 -0.002944 0.019129 0.000000 0.013655 0.000000
# 4 0.000000 0.000000 0.000000 -0.195056 0.000000 0.003436
# 5 -0.002638 -0.000151 0.013655 0.000000 0.044965 0.000000
# 6 0.000000 0.000000 0.000000 0.003436 0.000000 0.032111
#
#
# Mechanical properties :
#
#
# Convention : Reuss Voigt Hill
#
# Bulk Modulus (GPa) = 62.88687 78.83625 70.86156
# Shear Modulus (GPa) = -119.33254 23.01624 -48.15815
#
# Velocity S-wave (km/s) = -7.95504 3.49366 -5.05357
# Velocity P-wave (km/s) = 7.14337 7.62112 1.87800
#
# Compressibility (1/GPa) = 0.01590157
#
# Stress axis : x y z
#
# Youngs Moduli (GPa) = 83.28357 81.93645 52.27593
#
# Poissons Ratio (x) = 0.36161 0.33261
# Poissons Ratio (y) = 0.36755 0.15389
# Poissons Ratio (z) = 0.52990 0.24121
#
# Static dielectric constant tensor:
#      x y z
#    x 1.649620 0.000000 -0.006910 
#    y 0.000000 1.689540 0.000000 
#    z -0.006910 0.000000 1.661740 
# 
# From -- ./inp_files/32148.got.cif
#   From: 2010.05.17/outbox.cif.g08.bks.cpg/sg13_17_cif.got.tgz:32148.got - 2010.06.03 16:44:36.
