data_PCOD9229712
_publ_section_title
;
Structure prediction by ZEFSAII (Michael W. Deem and Ramdas Pophale) SiO2 
 PCOD9229712
Probable space group: P 2/C
;
_chemical_formula_sum "Si O2"
_cell_formula_units_Z 30
_cell_length_a 15.657201
_cell_length_b 19.532396
_cell_length_c 15.244322
_cell_angle_alpha 90.000000
_cell_angle_beta 17.942657
_cell_angle_gamma 90.000000
_cell_volume 1436.217189
_symmetry_space_group_name_H-M "P 2/C"
_symmetry_group_IT_number 13
_symmetry_cell_setting 'monoclinic'
loop_
_space_group_symop_operation_xyz
x,y,z
-x,y,1/2-z
-x,-y,-z
x,-y,1/2+z
loop_
_atom_site_type_symbol
_atom_site_label
_atom_site_fract_x
_atom_site_fract_y
_atom_site_fract_z
Si Si1 0.270850 0.945023 0.543360
Si Si2 0.798358 0.649382 0.275979
Si Si3 0.651664 0.709840 0.690251
Si Si4 0.938532 0.081832 0.066283
Si Si5 0.171582 0.507980 0.170221
Si Si6 0.657821 0.452495 0.774209
Si Si7 0.000000 0.823017 0.250000
Si Si8 0.396695 0.904711 0.992697
O O1 0.169365 0.904165 0.729788
O O2 0.000000 0.959716 0.750000
O O3 0.383901 0.016153 0.473368
O O4 0.500000 0.917536 0.250000
O O5 0.602977 0.712762 0.493138
O O6 0.733071 0.619872 0.244029
O O7 0.722610 0.584232 0.411542
O O8 0.115452 0.664349 0.989859
O O9 0.500000 0.684062 0.750000
O O10 0.821972 0.774751 0.488981
O O11 0.712081 0.103731 0.215061
O O12 0.225954 0.110650 0.748984
O O13 0.000000 0.000000 0.000000
O O14 0.939628 0.486891 0.467476
O O15 0.000000 0.509011 0.250000
O O16 0.426710 0.455513 0.924497
O O17 0.500000 0.500000 0.000000
O O18 0.231248 0.865207 0.077985
#
# Coordination Sequence:
#
# PCOD9229712 Si02
#       8
#     4   4   4   4   4   4   2   4
#     4  11  19  33  56  84 112 147 191 227 282 351
#     4  11  21  36  55  74 112 154 189 235 295 324
#     4  12  23  38  53  79 110 147 201 245 264 331
#     4  10  21  37  54  84 113 153 196 241 283 357
#     4  11  20  33  54  82 113 147 191 229 287 359
#     4  10  20  34  52  78 109 149 192 231 279 363
#     4  12  28  40  58  84 118 164 214 238 284 346
#     4  11  23  37  57  75 122 160 197 234 295 333
#
# _framework density 20.888204999999999
#
# number of rings (size 3 to 8) (size 9 to 14) (size 15 to 20)
#    0.000    1.067    2.000    9.200    1.867    0.000 
#    0.000    0.000    0.000    0.000    0.000    0.000 
#    0.000   37.333    0.000    0.000    0.000    0.000 
#
# Total GULP energy -167300.849606 kJ/mol
# GULP energy per Si atom -5576.694987 kJ/mol
# Density = 2.084066 g / cm^3
# Si number density = 20.888205 Si / 1000 Ang^3
#
#
#
# Elastic Constant Matrix: (Units=GPa)
#
#
# Indices 1 2 3 4 5 6 
#
# 1 91.6147 14.7044 17.3659 0.0000 -8.2393 0.0000
# 2 14.7044 31.8845 16.8912 0.0000 1.7327 0.0000
# 3 17.3659 16.8912 117.5038 0.0000 -8.6426 0.0000
# 4 0.0000 0.0000 0.0000 22.8949 0.0000 0.0852
# 5 -8.2393 1.7327 -8.6426 0.0000 48.1894 0.0000
# 6 0.0000 0.0000 0.0000 0.0852 0.0000 22.4504
#
#
#
# Elastic Compliance Matrix: (Units=1/GPa)
#
#
# Indices 1 2 3 4 5 6 
#
# 1 0.012111 -0.005232 -0.000883 0.000000 0.002100 0.000000
# 2 -0.005232 0.036424 -0.004687 0.000000 -0.003045 0.000000
# 3 -0.000883 -0.004687 0.009440 0.000000 0.001711 0.000000
# 4 0.000000 0.000000 0.000000 0.043678 0.000000 -0.000166
# 5 0.002100 -0.003045 0.001711 0.000000 0.021527 0.000000
# 6 0.000000 0.000000 0.000000 -0.000166 0.000000 0.044543
#
#
# Mechanical properties :
#
#
# Convention : Reuss Voigt Hill
#
# Bulk Modulus (GPa) = 27.49335 37.65846 32.57590
# Shear Modulus (GPa) = 24.81980 31.50972 28.16476
#
# Velocity S-wave (km/s) = 3.45080 3.88815 3.67598
# Velocity P-wave (km/s) = 5.39148 6.18261 5.80055
#
# Compressibility (1/GPa) = 0.03637244
#
# Stress axis : x y z
#
# Youngs Moduli (GPa) = 82.56740 27.45428 105.92709
#
# Poissons Ratio (x) = 0.14363 0.09358
# Poissons Ratio (y) = 0.43196 0.49645
# Poissons Ratio (z) = 0.07294 0.12867
#
# Static dielectric constant tensor:
#      x y z
#    x 1.860720 0.000000 0.034260 
#    y 0.000000 1.776980 0.000000 
#    z 0.034260 0.000000 1.813480 
# 
# From -- ./inp_files/53956.got.cif
#   From: 2010.05.17/outbox.cif.g08.bks.cpg/sg13_27_cif.got.tgz:53956.got - 2010.06.03 16:44:36.
