data_PCOD9229685
_publ_section_title
;
Structure prediction by ZEFSAII (Michael W. Deem and Ramdas Pophale) SiO2 
 PCOD9229685
Probable space group: P 2/C
;
_chemical_formula_sum "Si O2"
_cell_formula_units_Z 24
_cell_length_a 18.401055
_cell_length_b 11.570000
_cell_length_c 11.941873
_cell_angle_alpha 90.000000
_cell_angle_beta 30.215167
_cell_angle_gamma 90.000000
_cell_volume 1279.473234
_symmetry_space_group_name_H-M "P 2/C"
_symmetry_group_IT_number 13
_symmetry_cell_setting 'monoclinic'
loop_
_space_group_symop_operation_xyz
x,y,z
-x,y,1/2-z
-x,-y,-z
x,-y,1/2+z
loop_
_atom_site_type_symbol
_atom_site_label
_atom_site_fract_x
_atom_site_fract_y
_atom_site_fract_z
Si Si1 0.343000 0.663332 0.019646
Si Si2 0.291866 0.091096 0.244536
Si Si3 0.165995 0.293700 0.541762
Si Si4 0.348335 0.214655 0.965527
Si Si5 0.630948 0.565215 0.895297
Si Si6 0.368299 0.835302 0.192420
O O1 0.224615 0.700750 0.088544
O O2 0.305770 0.537569 0.115780
O O3 0.350767 0.748602 0.113642
O O4 0.500000 0.659539 0.750000
O O5 0.196082 0.165726 0.455376
O O6 0.289924 0.956216 0.271850
O O7 0.251151 0.134384 0.173609
O O8 0.459504 0.133824 0.035152
O O9 0.265374 0.379093 0.335066
O O10 0.000000 0.324797 0.750000
O O11 0.500000 0.147194 0.750000
O O12 0.310083 0.223499 0.885459
O O13 0.386234 0.330125 0.988986
O O14 0.500000 0.500000 0.000000
#
# Coordination Sequence:
#
# PCOD9229685 Si02
#       6
#     4   4   4   4   4   4
#     4  12  22  36  65  95 122 159 217 265 299 380
#     4   9  19  36  59  87 126 159 202 259 315 365
#     4  11  25  43  62  91 131 170 204 257 329 376
#     4   9  18  31  54  90 123 149 194 268 313 351
#     4  11  21  38  65  91 119 165 215 262 307 366
#     4  10  20  33  62  96 116 155 211 266 310 357
#
# _framework density 18.757719999999999
#
# number of rings (size 3 to 8) (size 9 to 14) (size 15 to 20)
#    0.000    1.667    3.333    2.500    4.667    1.333 
#    0.000    0.833    0.000    0.000    0.000    0.000 
#    0.000    0.000    0.000    0.000    0.000    0.000 
#
# Total GULP energy -133601.687238 kJ/mol
# GULP energy per Si atom -5566.736968 kJ/mol
# Density = 1.871503 g / cm^3
# Si number density = 18.757720 Si / 1000 Ang^3
#
#
#
# Elastic Constant Matrix: (Units=GPa)
#
#
# Indices 1 2 3 4 5 6 
#
# 1 102.4035 39.9097 33.3676 0.0000 36.5646 0.0000
# 2 39.9097 126.5714 35.0134 0.0000 21.9349 0.0000
# 3 33.3676 35.0134 44.1860 0.0000 8.4879 0.0000
# 4 0.0000 0.0000 0.0000 -11.7760 0.0000 -2.5603
# 5 36.5646 21.9349 8.4879 0.0000 31.5295 0.0000
# 6 0.0000 0.0000 0.0000 -2.5603 0.0000 11.4718
#
#
#
# Elastic Compliance Matrix: (Units=1/GPa)
#
#
# Indices 1 2 3 4 5 6 
#
# 1 0.021388 0.000439 -0.012313 0.000000 -0.021795 0.000000
# 2 0.000439 0.010987 -0.007879 0.000000 -0.006032 0.000000
# 3 -0.012313 -0.007879 0.036252 0.000000 0.010002 0.000000
# 4 0.000000 0.000000 0.000000 -0.080989 0.000000 -0.018076
# 5 -0.021795 -0.006032 0.010002 0.000000 0.058496 0.000000
# 6 0.000000 0.000000 0.000000 -0.018076 0.000000 0.083136
#
#
# Mechanical properties :
#
#
# Convention : Reuss Voigt Hill
#
# Bulk Modulus (GPa) = 34.33877 54.41579 44.37728
# Shear Modulus (GPa) = 28.01365 17.23641 22.62503
#
# Velocity S-wave (km/s) = 3.86871 3.03462 3.47677
# Velocity P-wave (km/s) = 6.18887 6.43050 6.31084
#
# Compressibility (1/GPa) = 0.02912161
#
# Stress axis : x y z
#
# Youngs Moduli (GPa) = 46.75433 91.01527 27.58449
#
# Poissons Ratio (x) = -0.03997 0.33965
# Poissons Ratio (y) = -0.02053 0.21735
# Poissons Ratio (z) = 0.57569 0.71713
#
# Static dielectric constant tensor:
#      x y z
#    x 1.727380 0.000000 0.030670 
#    y 0.000000 1.672400 0.000000 
#    z 0.030670 0.000000 1.668110 
# 
# From -- ./inp_files/39130.got.cif
#   From: 2010.05.17/outbox.cif.g08.bks.cpg/sg13_20_cif.got.tgz:39130.got - 2010.06.03 16:44:36.
