data_PCOD9229706
_publ_section_title
;
Structure prediction by ZEFSAII (Michael W. Deem and Ramdas Pophale) SiO2 
 PCOD9229706
Probable space group: P 2/C
;
_chemical_formula_sum "Si O2"
_cell_formula_units_Z 24
_cell_length_a 10.539817
_cell_length_b 16.061862
_cell_length_c 19.006065
_cell_angle_alpha 90.000000
_cell_angle_beta 25.626371
_cell_angle_gamma 90.000000
_cell_volume 1391.579643
_symmetry_space_group_name_H-M "P 2/C"
_symmetry_group_IT_number 13
_symmetry_cell_setting 'monoclinic'
loop_
_space_group_symop_operation_xyz
x,y,z
-x,y,1/2-z
-x,-y,-z
x,-y,1/2+z
loop_
_atom_site_type_symbol
_atom_site_label
_atom_site_fract_x
_atom_site_fract_y
_atom_site_fract_z
Si Si1 0.146442 0.584578 0.100309
Si Si2 0.150191 0.252806 0.342757
Si Si3 0.161692 0.916190 0.333384
Si Si4 0.849806 0.747194 0.492949
Si Si5 0.838308 0.083811 0.495076
Si Si6 0.146440 0.584577 0.753251
O O1 0.081874 0.664811 0.085176
O O2 0.000000 0.596448 0.250000
O O3 0.000001 0.500000 0.144423
O O4 0.500001 0.575130 0.929313
O O5 0.072833 0.265509 0.463584
O O6 0.081872 0.335189 0.332950
O O7 0.990691 0.169514 0.396333
O O8 0.499999 0.238885 0.164345
O O9 0.148799 0.916438 0.425600
O O10 0.009308 0.830486 0.387026
O O11 0.500000 0.917777 0.143412
O O12 0.000000 0.000000 0.390271
O O13 0.000000 0.596448 0.750000
#
# Coordination Sequence:
#
# PCOD9229706 Si02
#       6
#     4   4   4   4   4   4
#     4  10  20  34  52  71  94 126 161 197 237 284
#     4   9  18  32  49  71  98 126 158 197 239 280
#     4   9  16  26  43  68  97 128 159 192 232 279
#     4   9  18  32  49  71  98 126 158 197 239 280
#     4   9  16  26  43  68  97 128 159 192 232 279
#     4  10  20  34  52  71  94 126 161 197 237 284
#
# _framework density 17.246587999999999
#
# number of rings (size 3 to 8) (size 9 to 14) (size 15 to 20)
#    0.000    2.667    0.000    3.000    0.000    7.333 
#    0.000    0.000    0.000    1.000    0.000    7.000 
#    0.000    0.000    0.000    0.000    0.000    0.000 
#
# Total GULP energy -133784.488021 kJ/mol
# GULP energy per Si atom -5574.353668 kJ/mol
# Density = 1.720733 g / cm^3
# Si number density = 17.246588 Si / 1000 Ang^3
#
#
#
# Elastic Constant Matrix: (Units=GPa)
#
#
# Indices 1 2 3 4 5 6 
#
# 1 39.0994 66.6118 33.0877 0.0000 -13.2666 0.0000
# 2 66.6118 220.8164 97.4023 0.0000 -18.1589 0.0000
# 3 33.0877 97.4023 80.2730 0.0000 -11.0157 0.0000
# 4 0.0000 0.0000 0.0000 29.2702 0.0000 -20.6295
# 5 -13.2666 -18.1589 -11.0157 0.0000 12.9250 0.0000
# 6 0.0000 0.0000 0.0000 -20.6295 0.0000 -5.7096
#
#
#
# Elastic Compliance Matrix: (Units=1/GPa)
#
#
# Indices 1 2 3 4 5 6 
#
# 1 0.073404 -0.016633 -0.003331 0.000000 0.049136 0.000000
# 2 -0.016633 0.013708 -0.010732 0.000000 -0.006961 0.000000
# 3 -0.003331 -0.010732 0.027535 0.000000 0.004970 0.000000
# 4 0.000000 0.000000 0.000000 0.009633 0.000000 -0.034806
# 5 0.049136 -0.006961 0.004970 0.000000 0.122261 0.000000
# 6 0.000000 0.000000 0.000000 -0.034806 0.000000 -0.049385
#
#
# Mechanical properties :
#
#
# Convention : Reuss Voigt Hill
#
# Bulk Modulus (GPa) = 18.77805 81.59917 50.18861
# Shear Modulus (GPa) = 18.09636 16.83624 17.46630
#
# Velocity S-wave (km/s) = 3.24276 3.12782 3.18581
# Velocity P-wave (km/s) = 4.99322 7.77562 6.53424
#
# Compressibility (1/GPa) = 0.05325366
#
# Stress axis : x y z
#
# Youngs Moduli (GPa) = 13.62331 72.95225 36.31800
#
# Poissons Ratio (x) = 1.21341 0.12098
# Poissons Ratio (y) = 0.22660 0.38976
# Poissons Ratio (z) = 0.04538 0.78292
#
# Static dielectric constant tensor:
#      x y z
#    x 1.572680 0.000000 -0.003140 
#    y 0.000000 1.579270 0.000000 
#    z -0.003140 0.000000 1.577990 
# 
# From -- ./inp_files/16243.got.cif
#   From: 2010.05.17/outbox.cif.g08.bks.cpg/sg13_9_cif.got.tgz:16243.got - 2010.06.03 16:44:36.
