data_PCOD9229317
_publ_section_title
;
Structure prediction by ZEFSAII (Michael W. Deem and Ramdas Pophale) SiO2 
 PCOD9229317
Probable space group: P 2/C
;
_chemical_formula_sum "Si O2"
_cell_formula_units_Z 30
_cell_length_a 18.839231
_cell_length_b 5.325580
_cell_length_c 17.220332
_cell_angle_alpha 90.000000
_cell_angle_beta 124.989291
_cell_angle_gamma 90.000000
_cell_volume 1415.444843
_symmetry_space_group_name_H-M "P 2/C"
_symmetry_group_IT_number 13
_symmetry_cell_setting 'monoclinic'
loop_
_space_group_symop_operation_xyz
x,y,z
-x,y,1/2-z
-x,-y,-z
x,-y,1/2+z
loop_
_atom_site_type_symbol
_atom_site_label
_atom_site_fract_x
_atom_site_fract_y
_atom_site_fract_z
Si Si1 0.259565 0.318291 0.222545
Si Si2 0.397508 0.821969 0.452440
Si Si3 0.785227 0.410596 0.653607
Si Si4 0.560916 0.319866 0.114374
Si Si5 0.037803 0.722478 0.145392
Si Si6 0.000000 0.905068 0.750000
Si Si7 0.878417 0.630926 0.584323
Si Si8 0.832425 0.180046 0.898009
O O1 0.244213 0.367974 0.305293
O O2 0.362584 0.289153 0.275266
O O3 0.222151 0.571576 0.159915
O O4 0.209340 0.073824 0.161034
O O5 0.295466 0.779536 0.395743
O O6 0.427668 0.604765 0.409628
O O7 0.459883 0.747191 0.564007
O O8 0.415620 0.102614 0.434336
O O9 0.873915 0.318082 0.749609
O O10 0.804576 0.459366 0.575188
O O11 0.073452 0.783516 0.083196
O O12 0.963271 0.512358 0.103706
O O13 0.997667 0.947132 0.168911
O O14 0.913605 0.748089 0.686841
O O15 0.842298 0.811955 0.496350
#
# Coordination Sequence:
#
# PCOD9229317 Si02
#       8
#     4   4   4   4   4   2   4   4
#     4  10  21  40  60  86 117 156 190 246 296 362
#     4   9  18  29  57  91 116 146 185 245 285 352
#     4  10  19  39  58  85 119 151 205 245 306 349
#     4   9  16  33  55  88 121 145 187 233 299 346
#     4  11  22  40  56  82 115 158 196 252 300 357
#     4  12  22  38  66  76 112 158 200 260 306 350
#     4  12  24  40  54  87 114 157 204 254 298 356
#     4  11  26  38  60  85 118 158 202 244 301 360
#
# _framework density 21.194752000000001
#
# number of rings (size 3 to 8) (size 9 to 14) (size 15 to 20)
#    0.000    1.600    2.667    3.600    3.733    1.600 
#    0.000    0.000    0.000    0.800    0.000    1.867 
#    0.000    0.000    0.000    0.000    0.000    0.000 
#
# Total GULP energy -167077.304835 kJ/mol
# GULP energy per Si atom -5569.243495 kJ/mol
# Density = 2.114651 g / cm^3
# Si number density = 21.194752 Si / 1000 Ang^3
#
#
#
# Elastic Constant Matrix: (Units=GPa)
#
#
# Indices 1 2 3 4 5 6 
#
# 1 42.1985 14.0164 33.8286 0.0000 13.3242 0.0000
# 2 14.0164 108.7430 31.8232 0.0000 14.2387 0.0000
# 3 33.8286 31.8232 74.9447 0.0000 8.9783 0.0000
# 4 0.0000 0.0000 0.0000 259.8528 0.0000 203.6130
# 5 13.3242 14.2387 8.9783 0.0000 30.9107 0.0000
# 6 0.0000 0.0000 0.0000 203.6130 0.0000 179.4881
#
#
#
# Elastic Compliance Matrix: (Units=1/GPa)
#
#
# Indices 1 2 3 4 5 6 
#
# 1 0.041829 0.001639 -0.017951 0.000000 -0.013571 0.000000
# 2 0.001639 0.010983 -0.004882 0.000000 -0.004347 0.000000
# 3 -0.017951 -0.004882 0.023127 0.000000 0.003269 0.000000
# 4 0.000000 0.000000 0.000000 0.034635 0.000000 -0.039291
# 5 -0.013571 -0.004347 0.003269 0.000000 0.039254 0.000000
# 6 0.000000 0.000000 0.000000 -0.039291 0.000000 0.050143
#
#
# Mechanical properties :
#
#
# Convention : Reuss Voigt Hill
#
# Bulk Modulus (GPa) = 29.80628 42.80252 36.30440
# Shear Modulus (GPa) = 19.72049 103.79820 61.75935
#
# Velocity S-wave (km/s) = 3.05362 7.00570 5.40391
# Velocity P-wave (km/s) = 5.15038 9.25627 7.49016
#
# Compressibility (1/GPa) = 0.03354998
#
# Stress axis : x y z
#
# Youngs Moduli (GPa) = 23.90710 91.05109 43.23898
#
# Poissons Ratio (x) = -0.14921 0.77617
# Poissons Ratio (y) = -0.03918 0.21111
# Poissons Ratio (z) = 0.42915 0.44455
#
# Static dielectric constant tensor:
#      x y z
#    x 1.890010 0.000000 0.037540 
#    y 0.000000 1.856410 0.000000 
#    z 0.037540 0.000000 1.809600 
# 
# From -- ./inp_files/69182.got.cif
#   From: 2010.05.17/outbox.cif.g08.bks.cpg/sg13_35_cif.got.tgz:69182.got - 2010.06.03 16:44:36.
