data_PCOD9229603
_publ_section_title
;
Structure prediction by ZEFSAII (Michael W. Deem and Ramdas Pophale) SiO2 
 PCOD9229603
Probable space group: P 2/C
;
_chemical_formula_sum "Si O2"
_cell_formula_units_Z 20
_cell_length_a 6.920536
_cell_length_b 8.447169
_cell_length_c 14.434664
_cell_angle_alpha 90.000000
_cell_angle_beta 101.519194
_cell_angle_gamma 90.000000
_cell_volume 826.838472
_symmetry_space_group_name_H-M "P 2/C"
_symmetry_group_IT_number 13
_symmetry_cell_setting 'monoclinic'
loop_
_space_group_symop_operation_xyz
x,y,z
-x,y,1/2-z
-x,-y,-z
x,-y,1/2+z
loop_
_atom_site_type_symbol
_atom_site_label
_atom_site_fract_x
_atom_site_fract_y
_atom_site_fract_z
Si Si1 0.500000 0.717190 0.250000
Si Si2 0.209560 0.143422 0.939497
Si Si3 0.389801 0.960072 0.103066
Si Si4 0.658104 0.247511 0.199720
Si Si5 0.675886 0.537852 0.088991
Si Si6 0.000000 0.969147 0.750000
O O1 0.350510 0.839071 0.183367
O O2 0.606738 0.620415 0.179232
O O3 0.447421 0.135309 0.941452
O O4 0.177795 0.332461 0.943376
O O5 0.093794 0.070553 0.841849
O O6 0.208877 0.026307 0.027171
O O7 0.518560 0.110672 0.145714
O O8 0.500000 0.333712 0.250000
O O9 0.746294 0.366095 0.131980
O O10 0.829922 0.152139 0.267121
O O11 0.500000 0.500000 0.000000
#
# Coordination Sequence:
#
# PCOD9229603 Si02
#       6
#     2   4   4   4   4   2
#     4  10  20  32  60 100 128 166 236 282 318 416
#     4   9  19  36  60  90 128 173 223 274 335 401
#     4   9  17  34  62  88 118 173 224 266 327 408
#     4  11  21  40  66  95 132 178 224 284 350 401
#     4  11  21  36  66 100 133 181 226 281 357 408
#     4  10  24  40  64  98 136 180 230 284 330 412
#
# _framework density 24.188523
#
# number of rings (size 3 to 8) (size 9 to 14) (size 15 to 20)
#    0.000    2.000    4.000    0.000    2.800    0.800 
#    0.000    1.000    0.000    2.400    0.000    0.000 
#    0.000    0.000    0.000    0.000    0.000    0.000 
#
# Total GULP energy -111454.857599 kJ/mol
# GULP energy per Si atom -5572.742880 kJ/mol
# Density = 2.413347 g / cm^3
# Si number density = 24.188523 Si / 1000 Ang^3
#
#
#
# Elastic Constant Matrix: (Units=GPa)
#
#
# Indices 1 2 3 4 5 6 
#
# 1 56.2362 4.0544 25.1252 0.0000 13.2603 0.0000
# 2 4.0544 112.1385 46.8614 0.0000 10.2256 0.0000
# 3 25.1252 46.8614 161.2948 0.0000 10.8065 0.0000
# 4 0.0000 0.0000 0.0000 44.6431 0.0000 -12.1599
# 5 13.2603 10.2256 10.8065 0.0000 33.3121 0.0000
# 6 0.0000 0.0000 0.0000 -12.1599 0.0000 18.9957
#
#
#
# Elastic Compliance Matrix: (Units=1/GPa)
#
#
# Indices 1 2 3 4 5 6 
#
# 1 0.020891 0.001241 -0.003100 0.000000 -0.007691 0.000000
# 2 0.001241 0.010385 -0.003030 0.000000 -0.002699 0.000000
# 3 -0.003100 -0.003030 0.007583 0.000000 -0.000296 0.000000
# 4 0.000000 0.000000 0.000000 0.027130 0.000000 0.017367
# 5 -0.007691 -0.002699 -0.000296 0.000000 0.034005 0.000000
# 6 0.000000 0.000000 0.000000 0.017367 0.000000 0.063761
#
#
# Mechanical properties :
#
#
# Convention : Reuss Voigt Hill
#
# Bulk Modulus (GPa) = 34.38460 53.52797 43.95628
# Shear Modulus (GPa) = 27.28880 36.29874 31.79377
#
# Velocity S-wave (km/s) = 3.36247 3.87804 3.62942
# Velocity P-wave (km/s) = 5.41489 6.49844 5.98125
#
# Compressibility (1/GPa) = 0.02908279
#
# Stress axis : x y z
#
# Youngs Moduli (GPa) = 47.86729 96.29408 131.87904
#
# Poissons Ratio (x) = -0.11953 0.40877
# Poissons Ratio (y) = -0.05942 0.39955
# Poissons Ratio (z) = 0.14837 0.29174
#
# Static dielectric constant tensor:
#      x y z
#    x 2.627420 0.000000 -0.230590 
#    y 0.000000 2.040280 0.000000 
#    z -0.230590 0.000000 1.993360 
# 
# From -- ./inp_files/75083.got.cif
#   From: 2010.05.17/outbox.cif.g08.bks.cpg/sg13_38_cif.got.tgz:75083.got - 2010.06.03 16:44:36.
