data_PCOD9229793
_publ_section_title
;
Structure prediction by ZEFSAII (Michael W. Deem and Ramdas Pophale) SiO2 
 PCOD9229793
Probable space group: P 2/C
;
_chemical_formula_sum "Si O2"
_cell_formula_units_Z 32
_cell_length_a 27.141143
_cell_length_b 9.602028
_cell_length_c 11.183247
_cell_angle_alpha 90.000000
_cell_angle_beta 145.921183
_cell_angle_gamma 90.000000
_cell_volume 1633.071022
_symmetry_space_group_name_H-M "P 2/C"
_symmetry_group_IT_number 13
_symmetry_cell_setting 'monoclinic'
loop_
_space_group_symop_operation_xyz
x,y,z
-x,y,1/2-z
-x,-y,-z
x,-y,1/2+z
loop_
_atom_site_type_symbol
_atom_site_label
_atom_site_fract_x
_atom_site_fract_y
_atom_site_fract_z
Si Si1 0.602417 0.314066 0.709927
Si Si2 0.972737 0.817861 0.060297
Si Si3 0.745921 0.128956 0.599747
Si Si4 0.597547 0.084965 0.494904
Si Si5 0.445643 0.420336 0.534948
Si Si6 0.943998 0.152788 0.023244
Si Si7 0.776710 0.807342 0.666292
Si Si8 0.695330 0.799320 0.743791
O O1 0.593188 0.196132 0.591696
O O2 0.517203 0.313053 0.624262
O O3 0.591336 0.466114 0.629934
O O4 0.696992 0.286651 0.958999
O O5 0.000000 0.770345 0.250000
O O6 0.963171 0.986378 0.052093
O O7 0.874793 0.765099 0.830631
O O8 0.032511 0.790322 0.062834
O O9 0.665517 0.138094 0.530071
O O10 0.726701 0.214041 0.441726
O O11 0.756511 0.965701 0.584348
O O12 0.840576 0.170651 0.841595
O O13 0.500000 0.063977 0.250000
O O14 0.637131 0.938573 0.617297
O O15 0.500000 0.494001 0.750000
O O16 0.364041 0.330233 0.412564
O O17 0.000000 0.204862 0.250000
O O18 0.771928 0.814822 0.800950
#
# Coordination Sequence:
#
# PCOD9229793 Si02
#       8
#     4   4   4   4   4   4   4   4
#     4  11  23  39  57  80 113 151 197 243 286 339
#     4   9  17  30  52  80 115 152 188 230 291 352
#     4  10  21  34  55  87 121 154 192 235 288 354
#     4  11  23  35  56  84 119 153 188 237 296 343
#     4  11  23  39  58  79 113 155 201 242 285 345
#     4   9  18  30  50  79 121 156 184 230 292 349
#     4  10  20  34  56  84 116 154 191 238 290 349
#     4  11  21  36  57  82 117 150 195 238 289 345
#
# _framework density 19.594984
#
# number of rings (size 3 to 8) (size 9 to 14) (size 15 to 20)
#    0.000    1.750    2.500    2.250    3.500    5.000 
#    0.000    0.000    0.000    0.000    0.000    4.375 
#    0.000    0.000    0.000    0.000    0.000    0.000 
#
# Total GULP energy -178465.746119 kJ/mol
# GULP energy per Si atom -5577.054566 kJ/mol
# Density = 1.955038 g / cm^3
# Si number density = 19.594984 Si / 1000 Ang^3
#
#
#
# Elastic Constant Matrix: (Units=GPa)
#
#
# Indices 1 2 3 4 5 6 
#
# 1 54.5903 -3.9696 36.6488 0.0000 10.5082 0.0000
# 2 -3.9696 12.4618 1.3779 0.0000 1.9997 0.0000
# 3 36.6488 1.3779 114.6568 0.0000 0.5965 0.0000
# 4 0.0000 0.0000 0.0000 17.7784 0.0000 -3.2361
# 5 10.5082 1.9997 0.5965 0.0000 34.9806 0.0000
# 6 0.0000 0.0000 0.0000 -3.2361 0.0000 -23.2592
#
#
#
# Elastic Compliance Matrix: (Units=1/GPa)
#
#
# Indices 1 2 3 4 5 6 
#
# 1 0.026450 0.010720 -0.008540 0.000000 -0.008413 0.000000
# 2 0.010720 0.085436 -0.004411 0.000000 -0.008029 0.000000
# 3 -0.008540 -0.004411 0.011491 0.000000 0.002622 0.000000
# 4 0.000000 0.000000 0.000000 0.054859 0.000000 -0.007633
# 5 -0.008413 -0.008029 0.002622 0.000000 0.031529 0.000000
# 6 0.000000 0.000000 0.000000 -0.007633 0.000000 -0.041932
#
#
# Mechanical properties :
#
#
# Convention : Reuss Voigt Hill
#
# Bulk Modulus (GPa) = 8.40941 27.75813 18.08377
# Shear Modulus (GPa) = 23.59232 15.74341 19.66786
#
# Velocity S-wave (km/s) = 3.47363 2.83758 3.17159
# Velocity P-wave (km/s) = 4.51543 4.99324 4.76034
#
# Compressibility (1/GPa) = 0.11891434
#
# Stress axis : x y z
#
# Youngs Moduli (GPa) = 37.80695 11.70465 87.02734
#
# Poissons Ratio (x) = -0.12547 0.74318
# Poissons Ratio (y) = -0.40528 0.38391
# Poissons Ratio (z) = 0.32286 0.05163
#
# Static dielectric constant tensor:
#      x y z
#    x 1.746620 0.000000 -0.020980 
#    y 0.000000 1.658420 0.000000 
#    z -0.020980 0.000000 1.705820 
# 
# From -- ./inp_files/42771.got.cif
#   From: 2010.05.17/outbox.cif.g08.bks.cpg/sg13_22_cif.got.tgz:42771.got - 2010.06.03 16:44:36.
