data_PCOD9229164
_publ_section_title
;
Structure prediction by ZEFSAII (Michael W. Deem and Ramdas Pophale) SiO2 
 PCOD9229164
Probable space group: P 2/C
;
_chemical_formula_sum "Si O2"
_cell_formula_units_Z 16
_cell_length_a 8.534754
_cell_length_b 8.846407
_cell_length_c 13.114319
_cell_angle_alpha 90.000000
_cell_angle_beta 40.725428
_cell_angle_gamma 90.000000
_cell_volume 646.012299
_symmetry_space_group_name_H-M "P 2/C"
_symmetry_group_IT_number 13
_symmetry_cell_setting 'monoclinic'
loop_
_space_group_symop_operation_xyz
x,y,z
-x,y,1/2-z
-x,-y,-z
x,-y,1/2+z
loop_
_atom_site_type_symbol
_atom_site_label
_atom_site_fract_x
_atom_site_fract_y
_atom_site_fract_z
Si Si1 0.257595 0.029133 0.428382
Si Si2 0.500000 0.323082 0.250000
Si Si3 0.318849 0.255090 0.988743
Si Si4 0.213564 0.388877 0.822059
Si Si5 0.000000 0.524828 0.750000
O O1 0.500000 0.969160 0.250000
O O2 0.257297 0.921400 0.527241
O O3 0.335211 0.204320 0.395267
O O4 0.000000 0.000000 0.500000
O O5 0.674400 0.443853 0.216940
O O6 0.219586 0.359971 0.126113
O O7 0.196538 0.312808 0.941513
O O8 0.595906 0.291147 0.835394
O O9 0.002535 0.421594 0.848381
#
# Coordination Sequence:
#
# PCOD9229164 Si02
#       5
#     4   2   4   4   2
#     4  10  19  37  65  88 118 163 212 247 304 368
#     4   8  18  36  64  86 116 162 210 244 308 360
#     4  10  21  40  60  86 124 160 205 249 314 360
#     4  10  20  40  60  89 118 163 200 260 302 369
#     4  12  22  32  62  92 124 152 210 256 308 354
#
# _framework density 24.767330999999999
#
# number of rings (size 3 to 8) (size 9 to 14) (size 15 to 20)
#    0.750    1.500    2.500    3.000    0.000    2.000 
#    0.000    1.250    0.000   12.000    0.000    0.000 
#    0.000    0.000    0.000    0.000    0.000    0.000 
#
# Total GULP energy -89096.424627 kJ/mol
# GULP energy per Si atom -5568.526539 kJ/mol
# Density = 2.471096 g / cm^3
# Si number density = 24.767331 Si / 1000 Ang^3
#
#
#
# Elastic Constant Matrix: (Units=GPa)
#
#
# Indices 1 2 3 4 5 6 
#
# 1 39.0690 23.3948 -4.7294 0.0000 3.1830 0.0000
# 2 23.3948 180.8269 19.7984 0.0000 -7.3533 0.0000
# 3 -4.7294 19.7984 78.6566 0.0000 -8.0170 0.0000
# 4 0.0000 0.0000 0.0000 7.1313 0.0000 0.4870
# 5 3.1830 -7.3533 -8.0170 0.0000 30.5073 0.0000
# 6 0.0000 0.0000 0.0000 0.4870 0.0000 12.7796
#
#
#
# Elastic Compliance Matrix: (Units=1/GPa)
#
#
# Indices 1 2 3 4 5 6 
#
# 1 0.028616 -0.004102 0.002413 0.000000 -0.003340 0.000000
# 2 -0.004102 0.006306 -0.001680 0.000000 0.001506 0.000000
# 3 0.002413 -0.001680 0.013578 0.000000 0.002911 0.000000
# 4 0.000000 0.000000 0.000000 0.140594 0.000000 -0.005357
# 5 -0.003340 0.001506 0.002911 0.000000 0.034256 0.000000
# 6 0.000000 0.000000 0.000000 -0.005357 0.000000 0.078454
#
#
# Mechanical properties :
#
#
# Convention : Reuss Voigt Hill
#
# Bulk Modulus (GPa) = 23.94587 41.72002 32.83295
# Shear Modulus (GPa) = 15.50560 27.42288 21.46424
#
# Velocity S-wave (km/s) = 2.50481 3.33110 2.94706
# Velocity P-wave (km/s) = 4.24909 5.62817 4.98654
#
# Compressibility (1/GPa) = 0.04176085
#
# Stress axis : x y z
#
# Youngs Moduli (GPa) = 34.94493 158.57568 73.64705
#
# Poissons Ratio (x) = 0.65053 -0.17769
# Poissons Ratio (y) = 0.14335 0.12376
# Poissons Ratio (z) = -0.08431 0.26647
#
# Static dielectric constant tensor:
#      x y z
#    x 2.007330 0.000000 -0.050700 
#    y 0.000000 1.991600 0.000000 
#    z -0.050700 0.000000 2.020850 
# 
# From -- ./inp_files/77404.got.cif
#   From: 2010.05.17/outbox.cif.g08.bks.cpg/sg13_39_cif.got.tgz:77404.got - 2010.06.03 16:44:36.
