data_PCOD9229442
_publ_section_title
;
Structure prediction by ZEFSAII (Michael W. Deem and Ramdas Pophale) SiO2 
 PCOD9229442
Probable space group: P 2/C
;
_chemical_formula_sum "Si O2"
_cell_formula_units_Z 18
_cell_length_a 7.957595
_cell_length_b 8.278774
_cell_length_c 13.808772
_cell_angle_alpha 90.000000
_cell_angle_beta 61.428615
_cell_angle_gamma 90.000000
_cell_volume 798.927185
_symmetry_space_group_name_H-M "P 2/C"
_symmetry_group_IT_number 13
_symmetry_cell_setting 'monoclinic'
loop_
_space_group_symop_operation_xyz
x,y,z
-x,y,1/2-z
-x,-y,-z
x,-y,1/2+z
loop_
_atom_site_type_symbol
_atom_site_label
_atom_site_fract_x
_atom_site_fract_y
_atom_site_fract_z
Si Si1 0.911543 0.547777 0.665579
Si Si2 0.500000 0.418783 0.750000
Si Si3 0.083484 0.135863 0.118671
Si Si4 0.094283 0.220432 0.616178
Si Si5 0.475299 0.313855 0.969448
O O1 0.685971 0.521151 0.726872
O O2 0.000000 0.555243 0.750000
O O3 0.961411 0.719499 0.606282
O O4 0.010010 0.386842 0.596282
O O5 0.449783 0.319473 0.860159
O O6 0.000000 0.118736 0.250000
O O7 0.061879 0.956930 0.082234
O O8 0.298295 0.211222 0.060276
O O9 0.321517 0.236006 0.563403
O O10 0.000000 0.219410 0.750000
O O11 0.500000 0.500000 0.000000
#
# Coordination Sequence:
#
# PCOD9229442 Si02
#       5
#     4   2   4   4   4
#     4  10  19  42  64  93 136 175 224 275 335 397
#     4  12  24  40  76 102 132 188 234 280 348 412
#     4  10  21  38  68  95 131 184 220 271 344 397
#     4  10  19  40  69  91 135 179 218 278 342 395
#     4  12  22  41  71 101 137 181 230 284 343 407
#
# _framework density 22.530214000000001
#
# number of rings (size 3 to 8) (size 9 to 14) (size 15 to 20)
#    0.000    1.333    6.667    2.000    0.000    0.889 
#    0.000    2.222    4.889    0.000    0.000    0.000 
#    0.000    0.000    0.000    0.000    0.000    0.000 
#
# Total GULP energy -100465.128190 kJ/mol
# GULP energy per Si atom -5581.396011 kJ/mol
# Density = 2.247893 g / cm^3
# Si number density = 22.530214 Si / 1000 Ang^3
#
#
#
# Elastic Constant Matrix: (Units=GPa)
#
#
# Indices 1 2 3 4 5 6 
#
# 1 79.4421 14.4567 22.9169 0.0000 -20.3955 0.0000
# 2 14.4567 211.6148 23.0695 0.0000 -1.8036 0.0000
# 3 22.9169 23.0695 90.8376 0.0000 -8.4433 0.0000
# 4 0.0000 0.0000 0.0000 25.4203 0.0000 -26.8602
# 5 -20.3955 -1.8036 -8.4433 0.0000 62.0338 0.0000
# 6 0.0000 0.0000 0.0000 -26.8602 0.0000 11.2620
#
#
#
# Elastic Compliance Matrix: (Units=1/GPa)
#
#
# Indices 1 2 3 4 5 6 
#
# 1 0.014740 -0.000626 -0.003151 0.000000 0.004399 0.000000
# 2 -0.000626 0.004887 -0.001103 0.000000 -0.000214 0.000000
# 3 -0.003151 -0.001103 0.012138 0.000000 0.000584 0.000000
# 4 0.000000 0.000000 0.000000 -0.025879 0.000000 -0.061721
# 5 0.004399 -0.000214 0.000584 0.000000 0.017640 0.000000
# 6 0.000000 0.000000 0.000000 -0.061721 0.000000 -0.058413
#
#
# Mechanical properties :
#
#
# Convention : Reuss Voigt Hill
#
# Bulk Modulus (GPa) = 45.44387 55.86451 50.65419
# Shear Modulus (GPa) = -281.02138 41.17332 -119.92403
#
# Velocity S-wave (km/s) = -11.18041 4.27953 -7.30367
# Velocity P-wave (km/s) = 12.10186 7.01914 6.97089
#
# Compressibility (1/GPa) = 0.02200517
#
# Stress axis : x y z
#
# Youngs Moduli (GPa) = 67.84242 204.63477 82.38609
#
# Poissons Ratio (x) = 0.12810 0.25958
# Poissons Ratio (y) = 0.04247 0.09087
# Poissons Ratio (z) = 0.21376 0.22571
#
# Static dielectric constant tensor:
#      x y z
#    x 1.760130 0.000000 -0.000460 
#    y 0.000000 1.885150 0.000000 
#    z -0.000460 0.000000 1.846770 
# 
# From -- ./inp_files/63172.got.cif
#   From: 2010.05.17/outbox.cif.g08.bks.cpg/sg13_32_cif.got.tgz:63172.got - 2010.06.03 16:44:36.
