data_PCOD9229229
_publ_section_title
;
Structure prediction by ZEFSAII (Michael W. Deem and Ramdas Pophale) SiO2 
 PCOD9229229
Probable space group: P 2/C
;
_chemical_formula_sum "Si O2"
_cell_formula_units_Z 30
_cell_length_a 21.098496
_cell_length_b 10.973017
_cell_length_c 9.596985
_cell_angle_alpha 90.000000
_cell_angle_beta 135.633602
_cell_angle_gamma 90.000000
_cell_volume 1553.607263
_symmetry_space_group_name_H-M "P 2/C"
_symmetry_group_IT_number 13
_symmetry_cell_setting 'monoclinic'
loop_
_space_group_symop_operation_xyz
x,y,z
-x,y,1/2-z
-x,-y,-z
x,-y,1/2+z
loop_
_atom_site_type_symbol
_atom_site_label
_atom_site_fract_x
_atom_site_fract_y
_atom_site_fract_z
Si Si1 0.592717 0.157038 0.943806
Si Si2 0.791594 0.735573 0.726897
Si Si3 0.900913 0.143699 0.635910
Si Si4 0.816028 0.899960 0.510789
Si Si5 0.218910 0.228933 0.819431
Si Si6 0.869307 0.534690 0.295666
Si Si7 0.356820 0.059201 0.182777
Si Si8 0.000000 0.489504 0.250000
O O1 0.500000 0.220345 0.750000
O O2 0.598966 0.036403 0.854824
O O3 0.683398 0.237845 0.060054
O O4 0.590594 0.114253 0.102219
O O5 0.832713 0.830991 0.680512
O O6 0.830085 0.601725 0.752318
O O7 0.829764 0.779473 0.933980
O O8 0.867673 0.166696 0.740015
O O9 0.000000 0.185336 0.750000
O O10 0.890615 0.999945 0.589842
O O11 0.794524 0.800685 0.362069
O O12 0.726185 0.982441 0.382427
O O13 0.212370 0.370872 0.838597
O O14 0.308691 0.165511 0.018805
O O15 0.930571 0.549456 0.252862
O O16 0.931650 0.569452 0.528293
#
# Coordination Sequence:
#
# PCOD9229229 Si02
#       8
#     4   4   4   4   4   4   4   2
#     4  11  21  38  67  94 121 155 198 250 308 365
#     4  11  23  39  60  85 123 155 203 248 298 363
#     4  11  23  37  57  83 117 158 197 245 305 355
#     4  10  20  38  55  85 119 153 194 244 297 359
#     4  11  21  37  62  80 123 157 197 247 293 354
#     4  11  24  40  60  87 117 166 208 250 295 344
#     4  10  19  38  61  92 122 151 193 245 303 363
#     4  10  24  40  56  84 114 158 224 248 274 342
#
# _framework density 19.309899999999999
#
# number of rings (size 3 to 8) (size 9 to 14) (size 15 to 20)
#    0.000    1.333    4.000    3.600    5.600    2.133 
#    2.400    0.000    0.000    1.600    0.000    0.000 
#    0.000    0.000    0.000    0.000    0.000    0.000 
#
# Total GULP energy -167285.818061 kJ/mol
# GULP energy per Si atom -5576.193935 kJ/mol
# Density = 1.926595 g / cm^3
# Si number density = 19.309900 Si / 1000 Ang^3
#
#
#
# Elastic Constant Matrix: (Units=GPa)
#
#
# Indices 1 2 3 4 5 6 
#
# 1 53.8042 12.8664 30.1832 0.0000 2.8001 0.0000
# 2 12.8664 93.5765 9.5793 0.0000 10.5679 0.0000
# 3 30.1832 9.5793 61.9942 0.0000 2.1293 0.0000
# 4 0.0000 0.0000 0.0000 9.4539 0.0000 -5.5956
# 5 2.8001 10.5679 2.1293 0.0000 40.1547 0.0000
# 6 0.0000 0.0000 0.0000 -5.5956 0.0000 10.1394
#
#
#
# Elastic Compliance Matrix: (Units=1/GPa)
#
#
# Indices 1 2 3 4 5 6 
#
# 1 0.026069 -0.002258 -0.012324 0.000000 -0.000570 0.000000
# 2 -0.002258 0.011371 -0.000561 0.000000 -0.002805 0.000000
# 3 -0.012324 -0.000561 0.022223 0.000000 -0.000171 0.000000
# 4 0.000000 0.000000 0.000000 0.157089 0.000000 0.086693
# 5 -0.000570 -0.002805 -0.000171 0.000000 0.025691 0.000000
# 6 0.000000 0.000000 0.000000 0.086693 0.000000 0.146468
#
#
# Mechanical properties :
#
#
# Convention : Reuss Voigt Hill
#
# Bulk Modulus (GPa) = 34.04041 34.95919 34.49980
# Shear Modulus (GPa) = 11.65526 22.39933 17.02729
#
# Velocity S-wave (km/s) = 2.45947 3.40956 2.97272
# Velocity P-wave (km/s) = 5.07268 5.80032 5.44866
#
# Compressibility (1/GPa) = 0.02937685
#
# Stress axis : x y z
#
# Youngs Moduli (GPa) = 38.35965 87.94116 44.99799
#
# Poissons Ratio (x) = 0.19861 0.55454
# Poissons Ratio (y) = 0.08663 0.02525
# Poissons Ratio (z) = 0.47273 0.04935
#
# Static dielectric constant tensor:
#      x y z
#    x 1.685110 0.000000 0.007280 
#    y 0.000000 1.689630 0.000000 
#    z 0.007280 0.000000 1.676450 
# 
# From -- ./inp_files/24163.got.cif
#   From: 2010.05.17/outbox.cif.g08.bks.cpg/sg13_13_cif.got.tgz:24163.got - 2010.06.03 16:44:36.
