data_PCOD9229368
_publ_section_title
;
Structure prediction by ZEFSAII (Michael W. Deem and Ramdas Pophale) SiO2 
 PCOD9229368
Probable space group: P 2/C
;
_chemical_formula_sum "Si O2"
_cell_formula_units_Z 28
_cell_length_a 7.348514
_cell_length_b 16.116597
_cell_length_c 16.053894
_cell_angle_alpha 90.000000
_cell_angle_beta 43.464035
_cell_angle_gamma 90.000000
_cell_volume 1307.910467
_symmetry_space_group_name_H-M "P 2/C"
_symmetry_group_IT_number 13
_symmetry_cell_setting 'monoclinic'
loop_
_space_group_symop_operation_xyz
x,y,z
-x,y,1/2-z
-x,-y,-z
x,-y,1/2+z
loop_
_atom_site_type_symbol
_atom_site_label
_atom_site_fract_x
_atom_site_fract_y
_atom_site_fract_z
Si Si1 0.418076 0.219099 0.059036
Si Si2 0.465455 0.906695 0.860607
Si Si3 0.024176 0.691283 0.142849
Si Si4 0.112668 0.851394 0.382865
Si Si5 0.450271 0.909204 0.131522
Si Si6 0.269838 0.603322 0.619148
Si Si7 0.800852 0.471324 0.993528
O O1 0.356403 0.168052 0.162997
O O2 0.236843 0.299281 0.107336
O O3 0.695510 0.267476 0.971910
O O4 0.474368 0.149805 0.970232
O O5 0.500000 0.916985 0.750000
O O6 0.534707 0.992307 0.883713
O O7 0.169010 0.879921 0.986489
O O8 0.029596 0.595982 0.115288
O O9 0.000000 0.698616 0.250000
O O10 0.843253 0.753065 0.148659
O O11 0.176423 0.889009 0.270527
O O12 0.323394 0.886808 0.376845
O O13 0.291840 0.551971 0.526680
O O14 0.518420 0.578129 0.596444
O O15 0.000000 0.574632 0.750000
O O16 0.000000 0.500000 0.000000
#
# Coordination Sequence:
#
# PCOD9229368 Si02
#       7
#     4   4   4   4   4   4   4
#     4  10  23  40  62  92 127 172 218 276 341 404
#     4  11  23  40  60  89 132 176 221 273 341 409
#     4  10  19  39  65  91 125 162 212 277 338 394
#     4  10  22  37  62  92 125 167 215 283 332 398
#     4  11  21  39  63  93 125 165 228 283 332 401
#     4  10  23  46  63  97 144 175 220 290 346 420
#     4  10  23  42  70 100 131 178 228 280 346 420
#
# _framework density 21.408194999999999
#
# number of rings (size 3 to 8) (size 9 to 14) (size 15 to 20)
#    0.000    1.714    2.857    1.286    2.000    1.714 
#    5.143    0.000    0.000    0.000    0.000    0.000 
#    0.000    0.000    0.000    0.000    0.000    0.000 
#
# Total GULP energy -155912.217085 kJ/mol
# GULP energy per Si atom -5568.293467 kJ/mol
# Density = 2.135947 g / cm^3
# Si number density = 21.408195 Si / 1000 Ang^3
#
#
#
# Elastic Constant Matrix: (Units=GPa)
#
#
# Indices 1 2 3 4 5 6 
#
# 1 75.5747 33.5181 16.7846 0.0000 6.3833 0.0000
# 2 33.5181 169.4869 27.7449 0.0000 17.7046 0.0000
# 3 16.7846 27.7449 80.9471 0.0000 -0.5929 0.0000
# 4 0.0000 0.0000 0.0000 28.7648 0.0000 18.7380
# 5 6.3833 17.7046 -0.5929 0.0000 24.7452 0.0000
# 6 0.0000 0.0000 0.0000 18.7380 0.0000 -3.9579
#
#
#
# Elastic Compliance Matrix: (Units=1/GPa)
#
#
# Indices 1 2 3 4 5 6 
#
# 1 0.014977 -0.002349 -0.002317 0.000000 -0.002239 0.000000
# 2 -0.002349 0.007170 -0.002004 0.000000 -0.004572 0.000000
# 3 -0.002317 -0.002004 0.013538 0.000000 0.002356 0.000000
# 4 0.000000 0.000000 0.000000 0.008512 0.000000 0.040300
# 5 -0.002239 -0.004572 0.002356 0.000000 0.044317 0.000000
# 6 0.000000 0.000000 0.000000 0.040300 0.000000 -0.061865
#
#
# Mechanical properties :
#
#
# Convention : Reuss Voigt Hill
#
# Bulk Modulus (GPa) = 44.75015 53.56710 49.15862
# Shear Modulus (GPa) = 105.39866 26.44117 65.91991
#
# Velocity S-wave (km/s) = 7.02422 3.51821 5.55507
# Velocity P-wave (km/s) = 9.31316 6.44824 8.00983
#
# Compressibility (1/GPa) = 0.02234629
#
# Stress axis : x y z
#
# Youngs Moduli (GPa) = 66.76760 139.46271 73.86427
#
# Poissons Ratio (x) = 0.32757 0.17114
# Poissons Ratio (y) = 0.15683 0.14803
# Poissons Ratio (z) = 0.15470 0.27950
#
# Static dielectric constant tensor:
#      x y z
#    x 1.859740 0.000000 -0.056380 
#    y 0.000000 1.882160 0.000000 
#    z -0.056380 0.000000 1.847710 
# 
# From -- ./inp_files/64610.got.cif
#   From: 2010.05.17/outbox.cif.g08.bks.cpg/sg13_33_cif.got.tgz:64610.got - 2010.06.03 16:44:36.
