data_PCOD9229126
_publ_section_title
;
Structure prediction by ZEFSAII (Michael W. Deem and Ramdas Pophale) SiO2 
 PCOD9229126
Probable space group: P 2/C
;
_chemical_formula_sum "Si O2"
_cell_formula_units_Z 32
_cell_length_a 15.763373
_cell_length_b 12.067311
_cell_length_c 18.121533
_cell_angle_alpha 90.000000
_cell_angle_beta 150.443497
_cell_angle_gamma 90.000000
_cell_volume 1700.393897
_symmetry_space_group_name_H-M "P 2/C"
_symmetry_group_IT_number 13
_symmetry_cell_setting 'monoclinic'
loop_
_space_group_symop_operation_xyz
x,y,z
-x,y,1/2-z
-x,-y,-z
x,-y,1/2+z
loop_
_atom_site_type_symbol
_atom_site_label
_atom_site_fract_x
_atom_site_fract_y
_atom_site_fract_z
Si Si1 0.185297 0.369131 0.178907
Si Si2 0.076662 0.990469 0.177977
Si Si3 0.838349 0.763239 0.177862
Si Si4 0.720709 0.990468 0.822024
Si Si5 0.018057 0.764715 0.679685
Si Si6 0.658686 0.235284 0.820315
Si Si7 0.827483 0.369130 0.821093
Si Si8 0.517374 0.236761 0.177862
O O1 0.143770 0.308770 0.224626
O O2 0.204885 0.500000 0.204885
O O3 0.347739 0.314354 0.262585
O O4 0.017245 0.350316 0.000000
O O5 0.129163 0.887649 0.267697
O O6 0.200553 0.000001 0.200553
O O7 0.078457 0.107563 0.221027
O O8 0.884884 0.971954 0.000000
O O9 0.822570 0.685647 0.237416
O O10 0.000000 0.730386 0.250000
O O11 0.665953 0.759458 1.000000
O O12 0.593770 0.887648 0.732304
O O13 0.636403 0.107562 0.778973
O O14 0.000000 0.728005 0.750000
O O15 0.832381 0.759802 0.500000
O O16 0.500000 0.271995 0.750000
O O17 0.694517 0.308769 0.775374
O O18 0.500000 0.269615 0.250000
#
# Coordination Sequence:
#
# PCOD9229126 Si02
#       8
#     4   4   4   4   4   4   4   4
#     4  10  22  43  66  87 117 160 207 253 305 357
#     4  10  19  37  63  89 122 157 197 246 303 364
#     4  12  25  40  62  91 125 161 204 251 302 364
#     4  10  19  37  63  89 122 157 197 246 303 364
#     4  10  21  37  60  89 120 155 192 243 300 359
#     4  10  21  37  60  89 120 155 192 243 300 359
#     4  10  22  43  66  87 117 160 207 253 305 357
#     4  12  25  40  62  91 125 161 204 251 302 364
#
# _framework density 18.819168999999999
#
# number of rings (size 3 to 8) (size 9 to 14) (size 15 to 20)
#    0.000    1.500    2.500    3.000    0.000    6.000 
#    0.000    2.500    0.000    0.000    0.000    0.000 
#    0.000    0.000    0.000    0.000    0.000    0.000 
#
# Total GULP energy -178925.784551 kJ/mol
# GULP energy per Si atom -5591.430767 kJ/mol
# Density = 1.877634 g / cm^3
# Si number density = 18.819169 Si / 1000 Ang^3
#
#
#
# Elastic Constant Matrix: (Units=GPa)
#
#
# Indices 1 2 3 4 5 6 
#
# 1 190.2479 80.5964 80.7393 0.0000 1.2783 0.0000
# 2 80.5964 104.9846 66.7537 0.0000 0.4660 0.0000
# 3 80.7393 66.7537 77.0662 0.0000 2.5307 0.0000
# 4 0.0000 0.0000 0.0000 21.9802 0.0000 -0.8967
# 5 1.2783 0.4660 2.5307 0.0000 35.7210 0.0000
# 6 0.0000 0.0000 0.0000 -0.8967 0.0000 -4.6730
#
#
#
# Elastic Compliance Matrix: (Units=1/GPa)
#
#
# Indices 1 2 3 4 5 6 
#
# 1 0.009688 -0.002180 -0.008270 0.000000 0.000268 0.000000
# 2 -0.002180 0.021731 -0.016571 0.000000 0.000969 0.000000
# 3 -0.008270 -0.016571 0.036061 0.000000 -0.002043 0.000000
# 4 0.000000 0.000000 0.000000 0.045142 0.000000 -0.008662
# 5 0.000268 0.000969 -0.002043 0.000000 0.028117 0.000000
# 6 0.000000 0.000000 0.000000 -0.008662 0.000000 -0.212331
#
#
# Mechanical properties :
#
#
# Convention : Reuss Voigt Hill
#
# Bulk Modulus (GPa) = 74.41893 92.05304 83.23599
# Shear Modulus (GPa) = -382.52612 20.21959 -181.15327
#
# Velocity S-wave (km/s) = -14.27254 3.28138 -9.82186
# Velocity P-wave (km/s) = 15.23079 7.96099 9.18150
#
# Compressibility (1/GPa) = 0.01343744
#
# Stress axis : x y z
#
# Youngs Moduli (GPa) = 103.22340 46.01699 27.73108
#
# Poissons Ratio (x) = 0.10032 0.22933
# Poissons Ratio (y) = 0.22503 0.45953
# Poissons Ratio (z) = 0.85365 0.76255
#
# Static dielectric constant tensor:
#      x y z
#    x 1.633960 0.000000 0.000190 
#    y 0.000000 1.632540 0.000000 
#    z 0.000190 0.000000 1.628230 
# 
# From -- ./inp_files/68701.got.cif
#   From: 2010.05.17/outbox.cif.g08.bks.cpg/sg13_35_cif.got.tgz:68701.got - 2010.06.03 16:44:36.
