data_PCOD9229947
_publ_section_title
;
Structure prediction by ZEFSAII (Michael W. Deem and Ramdas Pophale) SiO2 
 PCOD9229947
Probable space group: P 2/C
;
_chemical_formula_sum "Si O2"
_cell_formula_units_Z 32
_cell_length_a 22.757916
_cell_length_b 10.507617
_cell_length_c 17.867147
_cell_angle_alpha 90.000000
_cell_angle_beta 20.744367
_cell_angle_gamma 90.000000
_cell_volume 1513.350021
_symmetry_space_group_name_H-M "P 2/C"
_symmetry_group_IT_number 13
_symmetry_cell_setting 'monoclinic'
loop_
_space_group_symop_operation_xyz
x,y,z
-x,y,1/2-z
-x,-y,-z
x,-y,1/2+z
loop_
_atom_site_type_symbol
_atom_site_label
_atom_site_fract_x
_atom_site_fract_y
_atom_site_fract_z
Si Si1 0.250773 0.688608 0.316752
Si Si2 0.831025 0.711528 0.494911
Si Si3 0.331553 0.555136 0.362887
Si Si4 0.656398 0.596651 0.453792
Si Si5 0.490126 0.852374 0.681978
Si Si6 0.877482 0.604506 0.742053
Si Si7 0.090659 0.795615 0.931389
Si Si8 0.232490 0.924323 0.250147
O O1 0.335058 0.657492 0.293393
O O2 0.346239 0.628985 0.131246
O O3 0.238610 0.838592 0.316750
O O4 0.068188 0.626445 0.535851
O O5 0.768526 0.570171 0.546981
O O6 0.686453 0.805837 0.637899
O O7 0.867841 0.729920 0.539072
O O8 0.000000 0.737579 0.250000
O O9 0.236340 0.610766 0.548152
O O10 0.519261 0.504464 0.143175
O O11 0.602239 0.724395 0.559676
O O12 0.833068 0.535701 0.263078
O O13 0.500000 0.920121 0.750000
O O14 0.589788 0.926211 0.500320
O O15 0.849867 0.706186 0.708112
O O16 0.176334 0.933197 0.828384
O O17 0.899630 0.840077 0.142224
#
# Coordination Sequence:
#
# PCOD9229947 Si02
#       8
#     4   4   4   4   4   4   4   4
#     4  10  20  35  58  82 110 151 195 241 290 347
#     4  11  22  37  61  91 119 151 196 244 292 355
#     4  11  22  36  55  87 122 149 187 241 299 360
#     4  10  20  35  55  82 116 154 188 234 298 358
#     4  10  20  36  59  86 118 154 193 244 299 348
#     4  11  21  35  58  85 117 152 189 239 297 354
#     4  10  22  41  61  83 116 157 200 244 290 347
#     4   9  21  41  60  81 114 157 203 243 288 347
#
# _framework density 21.145142
#
# number of rings (size 3 to 8) (size 9 to 14) (size 15 to 20)
#    0.000    1.750    0.000    5.250    0.000    6.500 
#    0.000    6.250    0.000    0.000    0.000    0.000 
#    0.000    0.000    0.000    0.000    0.000    0.000 
#
# Total GULP energy -178702.040440 kJ/mol
# GULP energy per Si atom -5584.438764 kJ/mol
# Density = 2.109701 g / cm^3
# Si number density = 21.145142 Si / 1000 Ang^3
#
#
#
# Elastic Constant Matrix: (Units=GPa)
#
#
# Indices 1 2 3 4 5 6 
#
# 1 78.5629 20.3906 19.9240 0.0000 22.2348 0.0000
# 2 20.3906 45.6706 28.3245 0.0000 -6.8691 0.0000
# 3 19.9240 28.3245 107.3340 0.0000 6.1473 0.0000
# 4 0.0000 0.0000 0.0000 19.1741 0.0000 -11.4665
# 5 22.2348 -6.8691 6.1473 0.0000 24.4771 0.0000
# 6 0.0000 0.0000 0.0000 -11.4665 0.0000 11.3849
#
#
#
# Elastic Compliance Matrix: (Units=1/GPa)
#
#
# Indices 1 2 3 4 5 6 
#
# 1 0.023827 -0.015266 0.001106 0.000000 -0.026206 0.000000
# 2 -0.015266 0.038184 -0.008777 0.000000 0.026787 0.000000
# 3 0.001106 -0.008777 0.011796 0.000000 -0.006431 0.000000
# 4 0.000000 0.000000 0.000000 0.131140 0.000000 0.132079
# 5 -0.026206 0.026787 -0.006431 0.000000 0.073793 0.000000
# 6 0.000000 0.000000 0.000000 0.132079 0.000000 0.220861
#
#
# Mechanical properties :
#
#
# Convention : Reuss Voigt Hill
#
# Bulk Modulus (GPa) = 35.79824 40.98286 38.39055
# Shear Modulus (GPa) = 9.01251 21.86911 15.44081
#
# Velocity S-wave (km/s) = 2.06675 3.21945 2.70521
# Velocity P-wave (km/s) = 4.76044 5.76572 5.28703
#
# Compressibility (1/GPa) = 0.02793433
#
# Stress axis : x y z
#
# Youngs Moduli (GPa) = 41.96886 26.18900 84.77645
#
# Poissons Ratio (x) = 0.39980 -0.09380
# Poissons Ratio (y) = 0.64070 0.74407
# Poissons Ratio (z) = -0.04644 0.22986
#
# Static dielectric constant tensor:
#      x y z
#    x 1.812960 0.000000 -0.007820 
#    y 0.000000 1.748450 0.000000 
#    z -0.007820 0.000000 1.791740 
# 
# From -- ./inp_files/71453.got.cif
#   From: 2010.05.17/outbox.cif.g08.bks.cpg/sg13_36_cif.got.tgz:71453.got - 2010.06.03 16:44:36.
