data_PCOD9229121
_publ_section_title
;
Structure prediction by ZEFSAII (Michael W. Deem and Ramdas Pophale) SiO2 
 PCOD9229121
Probable space group: P 2/C
;
_chemical_formula_sum "Si O2"
_cell_formula_units_Z 24
_cell_length_a 22.906189
_cell_length_b 8.203564
_cell_length_c 8.791737
_cell_angle_alpha 90.000000
_cell_angle_beta 43.597196
_cell_angle_gamma 90.000000
_cell_volume 1139.245546
_symmetry_space_group_name_H-M "P 2/C"
_symmetry_group_IT_number 13
_symmetry_cell_setting 'monoclinic'
loop_
_space_group_symop_operation_xyz
x,y,z
-x,y,1/2-z
-x,-y,-z
x,-y,1/2+z
loop_
_atom_site_type_symbol
_atom_site_label
_atom_site_fract_x
_atom_site_fract_y
_atom_site_fract_z
Si Si1 0.938814 0.072245 0.744151
Si Si2 0.170476 0.141936 0.823063
Si Si3 0.580160 0.356237 0.501414
Si Si4 0.700118 0.342979 0.774317
Si Si5 0.682210 0.117452 0.525663
Si Si6 0.431913 0.159826 0.259143
O O1 0.869492 0.161560 0.769779
O O2 0.000000 0.163121 0.750000
O O3 0.000000 0.000000 0.500000
O O4 0.893719 0.931210 0.929673
O O5 0.212091 0.309953 0.803028
O O6 0.241127 0.996741 0.676301
O O7 0.653686 0.487214 0.329354
O O8 0.630470 0.215091 0.496148
O O9 0.539789 0.281663 0.425223
O O10 0.500000 0.418827 0.750000
O O11 0.710629 0.245222 0.598073
O O12 0.634435 0.255423 0.011221
O O13 0.615357 0.992565 0.725583
O O14 0.500000 0.099937 0.250000
#
# Coordination Sequence:
#
# PCOD9229121 Si02
#       6
#     4   4   4   4   4   4
#     4   9  18  34  64 102 131 155 199 256 309 367
#     4  10  19  37  62  97 131 159 206 255 297 380
#     4  12  26  42  60  86 123 168 220 264 317 372
#     4  11  23  38  58  85 125 166 202 260 311 360
#     4  11  23  39  61  89 122 162 216 264 315 362
#     4  11  23  40  62  82 114 160 215 274 317 361
#
# _framework density 21.066573000000002
#
# number of rings (size 3 to 8) (size 9 to 14) (size 15 to 20)
#    0.000    1.333    1.667    5.000    2.333    4.000 
#    0.000    1.667    0.000    0.000    0.000   23.333 
#    0.000    0.000    0.000    0.000    0.000    0.000 
#
# Total GULP energy -133928.596567 kJ/mol
# GULP energy per Si atom -5580.358190 kJ/mol
# Density = 2.101862 g / cm^3
# Si number density = 21.066573 Si / 1000 Ang^3
#
#
#
# Elastic Constant Matrix: (Units=GPa)
#
#
# Indices 1 2 3 4 5 6 
#
# 1 145.9823 22.9384 21.1368 0.0000 5.5026 0.0000
# 2 22.9384 68.5902 18.1740 0.0000 -1.8202 0.0000
# 3 21.1368 18.1740 87.1081 0.0000 5.1798 0.0000
# 4 0.0000 0.0000 0.0000 9.8296 0.0000 9.8166
# 5 5.5026 -1.8202 5.1798 0.0000 28.8347 0.0000
# 6 0.0000 0.0000 0.0000 9.8166 0.0000 16.0034
#
#
#
# Elastic Compliance Matrix: (Units=1/GPa)
#
#
# Indices 1 2 3 4 5 6 
#
# 1 0.007427 -0.002183 -0.001268 0.000000 -0.001327 0.000000
# 2 -0.002183 0.016145 -0.002956 0.000000 0.001967 0.000000
# 3 -0.001268 -0.002956 0.012535 0.000000 -0.002196 0.000000
# 4 0.000000 0.000000 0.000000 0.262601 0.000000 -0.161081
# 5 -0.001327 0.001967 -0.002196 0.000000 0.035452 0.000000
# 6 0.000000 0.000000 0.000000 -0.161081 0.000000 0.161294
#
#
# Mechanical properties :
#
#
# Convention : Reuss Voigt Hill
#
# Bulk Modulus (GPa) = 42.93025 47.35325 45.14175
# Shear Modulus (GPa) = 9.68933 26.89562 18.29248
#
# Velocity S-wave (km/s) = 2.14694 3.57697 2.94992
# Velocity P-wave (km/s) = 5.15446 6.29176 5.75129
#
# Compressibility (1/GPa) = 0.02329360
#
# Stress axis : x y z
#
# Youngs Moduli (GPa) = 134.64832 61.93965 79.77756
#
# Poissons Ratio (x) = 0.13522 0.10114
# Poissons Ratio (y) = 0.29394 0.23579
# Poissons Ratio (z) = 0.17070 0.18307
#
# Static dielectric constant tensor:
#      x y z
#    x 1.848250 0.000000 -0.028690 
#    y 0.000000 1.764050 0.000000 
#    z -0.028690 0.000000 1.765090 
# 
# From -- ./inp_files/20949.got.cif
#   From: 2010.05.17/outbox.cif.g08.bks.cpg/sg13_11_cif.got.tgz:20949.got - 2010.06.03 16:44:36.
