data_PCOD9229859
_publ_section_title
;
Structure prediction by ZEFSAII (Michael W. Deem and Ramdas Pophale) SiO2 
 PCOD9229859
Probable space group: P 2/C
;
_chemical_formula_sum "Si O2"
_cell_formula_units_Z 30
_cell_length_a 8.861786
_cell_length_b 10.480058
_cell_length_c 18.743047
_cell_angle_alpha 90.000000
_cell_angle_beta 59.402874
_cell_angle_gamma 90.000000
_cell_volume 1498.342263
_symmetry_space_group_name_H-M "P 2/C"
_symmetry_group_IT_number 13
_symmetry_cell_setting 'monoclinic'
loop_
_space_group_symop_operation_xyz
x,y,z
-x,y,1/2-z
-x,-y,-z
x,-y,1/2+z
loop_
_atom_site_type_symbol
_atom_site_label
_atom_site_fract_x
_atom_site_fract_y
_atom_site_fract_z
Si Si1 0.642762 0.414121 0.666011
Si Si2 0.823966 0.566128 0.511478
Si Si3 0.135540 0.111194 0.662431
Si Si4 0.998851 0.371508 0.665621
Si Si5 0.827215 0.160546 0.086682
Si Si6 0.486524 0.839525 0.140701
Si Si7 0.500000 0.064989 0.250000
Si Si8 0.207024 0.933013 0.520652
O O1 0.500000 0.480552 0.750000
O O2 0.672057 0.484377 0.584241
O O3 0.575491 0.272584 0.664009
O O4 0.818607 0.408743 0.670606
O O5 0.847940 0.569081 0.420570
O O6 0.809525 0.708418 0.547237
O O7 0.000000 0.500000 0.500000
O O8 0.021567 0.218600 0.650229
O O9 0.290783 0.189861 0.662545
O O10 0.000000 0.049677 0.750000
O O11 0.219548 0.008456 0.591115
O O12 0.000000 0.399502 0.750000
O O13 0.673513 0.142737 0.182997
O O14 0.028083 0.149068 0.065674
O O15 0.810228 0.040548 0.036973
O O16 0.464612 0.968154 0.192691
O O17 0.617849 0.859732 0.042992
#
# Coordination Sequence:
#
# PCOD9229859 Si02
#       8
#     4   4   4   4   4   4   2   4
#     4  11  22  38  62  87 119 157 209 250 295 368
#     4  10  21  38  60  86 120 158 206 251 295 369
#     4  11  21  34  57  86 121 150 193 251 306 362
#     4  10  21  37  60  84 116 155 201 254 301 358
#     4  10  20  36  58  89 114 158 199 241 311 356
#     4  11  22  37  57  90 118 155 200 244 304 365
#     4  10  22  34  60  82 126 146 198 242 292 374
#     4  10  20  34  60  81 119 153 192 250 298 363
#
# _framework density 20.022127000000001
#
# number of rings (size 3 to 8) (size 9 to 14) (size 15 to 20)
#    0.000    1.600    2.000    4.400    4.667    0.000 
#    0.000    2.667    0.000   16.800    0.000    0.000 
#    0.000    0.000    0.000    0.000    0.000    0.000 
#
# Total GULP energy -167288.420407 kJ/mol
# GULP energy per Si atom -5576.280680 kJ/mol
# Density = 1.997656 g / cm^3
# Si number density = 20.022127 Si / 1000 Ang^3
#
#
#
# Elastic Constant Matrix: (Units=GPa)
#
#
# Indices 1 2 3 4 5 6 
#
# 1 60.1988 11.0144 38.1275 0.0000 -16.1259 0.0000
# 2 11.0144 39.1491 42.7139 0.0000 -7.5415 0.0000
# 3 38.1275 42.7139 202.8644 0.0000 -17.7898 0.0000
# 4 0.0000 0.0000 0.0000 32.4941 0.0000 -1.6778
# 5 -16.1259 -7.5415 -17.7898 0.0000 34.1582 0.0000
# 6 0.0000 0.0000 0.0000 -1.6778 0.0000 5.1887
#
#
#
# Elastic Compliance Matrix: (Units=1/GPa)
#
#
# Indices 1 2 3 4 5 6 
#
# 1 0.020857 -0.001052 -0.002992 0.000000 0.008056 0.000000
# 2 -0.001052 0.033708 -0.006592 0.000000 0.003513 0.000000
# 3 -0.002992 -0.006592 0.006945 0.000000 0.000749 0.000000
# 4 0.000000 0.000000 0.000000 0.031297 0.000000 0.010120
# 5 0.008056 0.003513 0.000749 0.000000 0.034244 0.000000
# 6 0.000000 0.000000 0.000000 0.010120 0.000000 0.195999
#
#
# Mechanical properties :
#
#
# Convention : Reuss Voigt Hill
#
# Bulk Modulus (GPa) = 24.85120 53.99156 39.42138
# Shear Modulus (GPa) = 13.97682 28.39197 21.18440
#
# Velocity S-wave (km/s) = 2.64497 3.76976 3.25630
# Velocity P-wave (km/s) = 4.66547 6.78031 5.81976
#
# Compressibility (1/GPa) = 0.04023950
#
# Stress axis : x y z
#
# Youngs Moduli (GPa) = 47.94516 29.66685 143.98114
#
# Poissons Ratio (x) = 0.03120 0.43081
# Poissons Ratio (y) = 0.05042 0.94907
# Poissons Ratio (z) = 0.14346 0.19555
#
# Static dielectric constant tensor:
#      x y z
#    x 1.735650 0.000000 0.000230 
#    y 0.000000 1.695870 0.000000 
#    z 0.000230 0.000000 1.766260 
# 
# From -- ./inp_files/64432.got.cif
#   From: 2010.05.17/outbox.cif.g08.bks.cpg/sg13_33_cif.got.tgz:64432.got - 2010.06.03 16:44:36.
