data_PCOD9229794
_publ_section_title
;
Structure prediction by ZEFSAII (Michael W. Deem and Ramdas Pophale) SiO2 
 PCOD9229794
Probable space group: P 2/C
;
_chemical_formula_sum "Si O2"
_cell_formula_units_Z 24
_cell_length_a 16.918500
_cell_length_b 7.193961
_cell_length_c 21.161571
_cell_angle_alpha 90.000000
_cell_angle_beta 24.065289
_cell_angle_gamma 90.000000
_cell_volume 1050.270005
_symmetry_space_group_name_H-M "P 2/C"
_symmetry_group_IT_number 13
_symmetry_cell_setting 'monoclinic'
loop_
_space_group_symop_operation_xyz
x,y,z
-x,y,1/2-z
-x,-y,-z
x,-y,1/2+z
loop_
_atom_site_type_symbol
_atom_site_label
_atom_site_fract_x
_atom_site_fract_y
_atom_site_fract_z
Si Si1 0.500000 0.904088 0.250000
Si Si2 0.907441 0.039578 0.456251
Si Si3 0.507305 0.351762 0.054419
Si Si4 0.242592 0.783646 0.222234
Si Si5 0.398489 0.693269 0.449683
Si Si6 0.000000 0.884378 0.750000
Si Si7 0.925114 0.589775 0.619695
O O1 0.310273 0.018416 0.368342
O O2 0.427376 0.774543 0.359597
O O3 0.943782 0.009564 0.354845
O O4 0.933336 0.256624 0.455311
O O5 0.083156 0.930116 0.359263
O O6 0.596169 0.471218 0.046080
O O7 0.285758 0.311859 0.232277
O O8 0.500000 0.500000 0.000000
O O9 0.640538 0.189626 0.929080
O O10 0.412152 0.764381 0.150246
O O11 0.121374 0.591249 0.304153
O O12 0.192299 0.764632 0.625877
O O13 0.000000 0.500000 0.500000
#
# Coordination Sequence:
#
# PCOD9229794 Si02
#       7
#     2   4   4   4   4   2   4
#     4  10  22  36  56  88 124 164 200 240 320 390
#     4  11  22  40  61  84 120 160 199 252 307 357
#     4   8  16  33  56  84 111 141 195 248 288 349
#     4  10  21  38  62  87 114 154 207 257 292 345
#     4   9  18  35  57  85 121 157 198 250 300 359
#     4  10  20  34  56  84 118 160 196 234 304 368
#     4  10  20  35  60  90 113 145 196 245 299 362
#
# _framework density 22.851268999999998
#
# number of rings (size 3 to 8) (size 9 to 14) (size 15 to 20)
#    0.000    2.667    0.000    5.000    0.000    5.333 
#    0.000    7.500    0.000    8.000    0.000    0.000 
#    0.000    0.000    0.000    0.000    0.000    0.000 
#
# Total GULP energy -133821.381208 kJ/mol
# GULP energy per Si atom -5575.890884 kJ/mol
# Density = 2.279926 g / cm^3
# Si number density = 22.851269 Si / 1000 Ang^3
#
#
#
# Elastic Constant Matrix: (Units=GPa)
#
#
# Indices 1 2 3 4 5 6 
#
# 1 41.0030 5.6040 25.3124 0.0000 -4.9587 0.0000
# 2 5.6040 50.8183 30.3736 0.0000 -16.2903 0.0000
# 3 25.3124 30.3736 180.8632 0.0000 -14.2109 0.0000
# 4 0.0000 0.0000 0.0000 21.5987 0.0000 -0.2607
# 5 -4.9587 -16.2903 -14.2109 0.0000 44.2147 0.0000
# 6 0.0000 0.0000 0.0000 -0.2607 0.0000 4.8492
#
#
#
# Elastic Compliance Matrix: (Units=1/GPa)
#
#
# Indices 1 2 3 4 5 6 
#
# 1 0.026844 -0.000257 -0.003575 0.000000 0.001767 0.000000
# 2 -0.000257 0.024256 -0.003424 0.000000 0.007807 0.000000
# 3 -0.003575 -0.003424 0.006641 0.000000 0.000472 0.000000
# 4 0.000000 0.000000 0.000000 0.046329 0.000000 0.002490
# 5 0.001767 0.007807 0.000472 0.000000 0.025843 0.000000
# 6 0.000000 0.000000 0.000000 0.002490 0.000000 0.206352
#
#
# Mechanical properties :
#
#
# Convention : Reuss Voigt Hill
#
# Bulk Modulus (GPa) = 23.13258 43.91829 33.52544
# Shear Modulus (GPa) = 13.69161 28.22549 20.95855
#
# Velocity S-wave (km/s) = 2.45043 3.51833 3.03177
# Velocity P-wave (km/s) = 4.26043 5.98045 5.19216
#
# Compressibility (1/GPa) = 0.04322906
#
# Stress axis : x y z
#
# Youngs Moduli (GPa) = 37.25199 41.22774 150.56897
#
# Poissons Ratio (x) = 0.01060 0.53827
# Poissons Ratio (y) = 0.00958 0.51554
# Poissons Ratio (z) = 0.13317 0.14116
#
# Static dielectric constant tensor:
#      x y z
#    x 1.930060 0.000000 -0.024640 
#    y 0.000000 1.945920 0.000000 
#    z -0.024640 0.000000 1.933260 
# 
# From -- ./inp_files/88013.got.cif
#   From: 2010.05.17/outbox.cif.g08.bks.cpg/sg13_45_cif.got.tgz:88013.got - 2010.06.03 16:44:36.
