data_PCOD9229548
_publ_section_title
;
Structure prediction by ZEFSAII (Michael W. Deem and Ramdas Pophale) SiO2 
 PCOD9229548
Probable space group: P 2/C
;
_chemical_formula_sum "Si O2"
_cell_formula_units_Z 28
_cell_length_a 25.856433
_cell_length_b 12.057604
_cell_length_c 25.904557
_cell_angle_alpha 90.000000
_cell_angle_beta 169.021753
_cell_angle_gamma 90.000000
_cell_volume 1537.997123
_symmetry_space_group_name_H-M "P 2/C"
_symmetry_group_IT_number 13
_symmetry_cell_setting 'monoclinic'
loop_
_space_group_symop_operation_xyz
x,y,z
-x,y,1/2-z
-x,-y,-z
x,-y,1/2+z
loop_
_atom_site_type_symbol
_atom_site_label
_atom_site_fract_x
_atom_site_fract_y
_atom_site_fract_z
Si Si1 0.428823 0.297510 0.347170
Si Si2 0.195354 0.791325 0.139885
Si Si3 0.015144 0.034895 0.704284
Si Si4 0.245439 0.118217 0.353844
Si Si5 0.486906 0.185806 0.299144
Si Si6 0.875778 0.609694 0.352733
Si Si7 0.303685 0.079253 0.839778
O O1 0.420980 0.279400 0.277428
O O2 0.643083 0.387323 0.580464
O O3 0.535898 0.180085 0.475959
O O4 0.133606 0.327007 0.080044
O O5 0.447203 0.846150 0.356284
O O6 0.254386 0.677133 0.226531
O O7 0.119113 0.868406 0.114486
O O8 0.940859 0.787530 0.853232
O O9 0.000000 0.019864 0.750000
O O10 0.726428 0.083716 0.402989
O O11 0.139797 0.920669 0.805182
O O12 0.223825 0.136300 0.901378
O O13 0.175817 0.002247 0.255877
O O14 0.500000 0.214495 0.250000
O O15 0.000000 0.500000 0.500000
O O16 0.500000 0.000000 0.000000
#
# Coordination Sequence:
#
# PCOD9229548 Si02
#       7
#     4   4   4   4   4   4   4
#     4  11  21  34  55  78 105 145 174 213 273 318
#     4  10  21  32  47  74  98 138 176 211 249 313
#     4  10  20  32  49  73 108 148 178 205 249 304
#     4  11  19  31  49  72 108 139 171 207 248 302
#     4  10  20  34  51  77 109 143 179 213 253 319
#     4  11  23  39  55  75 105 135 182 227 274 323
#     4   9  18  28  45  70 106 135 167 194 241 300
#
# _framework density 18.205494999999999
#
# number of rings (size 3 to 8) (size 9 to 14) (size 15 to 20)
#    0.000    1.714    1.429    5.143    4.000    0.000 
#    0.000    0.000    0.000    0.000    0.000    4.000 
#    0.000    0.000    0.000    0.000    0.000    0.000 
#
# Total GULP energy -155917.589502 kJ/mol
# GULP energy per Si atom -5568.485339 kJ/mol
# Density = 1.816406 g / cm^3
# Si number density = 18.205495 Si / 1000 Ang^3
#
#
#
# Elastic Constant Matrix: (Units=GPa)
#
#
# Indices 1 2 3 4 5 6 
#
# 1 84.2011 24.6894 16.9420 0.0000 12.2507 0.0000
# 2 24.6894 39.4964 -5.1386 0.0000 1.3562 0.0000
# 3 16.9420 -5.1386 67.6427 0.0000 9.5370 0.0000
# 4 0.0000 0.0000 0.0000 20.9496 0.0000 4.3096
# 5 12.2507 1.3562 9.5370 0.0000 23.4386 0.0000
# 6 0.0000 0.0000 0.0000 4.3096 0.0000 9.7982
#
#
#
# Elastic Compliance Matrix: (Units=1/GPa)
#
#
# Indices 1 2 3 4 5 6 
#
# 1 0.016826 -0.010831 -0.004122 0.000000 -0.006491 0.000000
# 2 -0.010831 0.032673 0.004947 0.000000 0.001758 0.000000
# 3 -0.004122 0.004947 0.016898 0.000000 -0.005007 0.000000
# 4 0.000000 0.000000 0.000000 0.052482 0.000000 -0.023083
# 5 -0.006491 0.001758 -0.005007 0.000000 0.047993 0.000000
# 6 0.000000 0.000000 0.000000 -0.023083 0.000000 0.112212
#
#
# Mechanical properties :
#
#
# Convention : Reuss Voigt Hill
#
# Bulk Modulus (GPa) = 21.55924 29.36955 25.46439
# Shear Modulus (GPa) = 15.89534 21.16044 18.52789
#
# Velocity S-wave (km/s) = 2.95804 3.41297 3.19362
# Velocity P-wave (km/s) = 4.85124 5.63013 5.25514
#
# Compressibility (1/GPa) = 0.04638383
#
# Stress axis : x y z
#
# Youngs Moduli (GPa) = 59.43173 30.60652 59.17935
#
# Poissons Ratio (x) = 0.33151 0.24394
# Poissons Ratio (y) = 0.64373 -0.29276
# Poissons Ratio (z) = 0.24498 -0.15141
#
# Static dielectric constant tensor:
#      x y z
#    x 1.767320 0.000000 0.021280 
#    y 0.000000 1.673390 0.000000 
#    z 0.021280 0.000000 1.674800 
# 
# From -- ./inp_files/94121.got.cif
#   From: 2010.05.17/outbox.cif.g08.bks.cpg/sg13_48_cif.got.tgz:94121.got - 2010.06.03 16:44:36.
