data_PCOD9229387
_publ_section_title
;
Structure prediction by ZEFSAII (Michael W. Deem and Ramdas Pophale) SiO2 
 PCOD9229387
Probable space group: P 2/C
;
_chemical_formula_sum "Si O2"
_cell_formula_units_Z 32
_cell_length_a 13.675573
_cell_length_b 17.193352
_cell_length_c 11.467108
_cell_angle_alpha 90.000000
_cell_angle_beta 148.395630
_cell_angle_gamma 90.000000
_cell_volume 1412.971600
_symmetry_space_group_name_H-M "P 2/C"
_symmetry_group_IT_number 13
_symmetry_cell_setting 'monoclinic'
loop_
_space_group_symop_operation_xyz
x,y,z
-x,y,1/2-z
-x,-y,-z
x,-y,1/2+z
loop_
_atom_site_type_symbol
_atom_site_label
_atom_site_fract_x
_atom_site_fract_y
_atom_site_fract_z
Si Si1 0.455092 0.355444 0.837261
Si Si2 0.908991 0.430455 0.035005
Si Si3 0.281127 0.098681 0.023291
Si Si4 0.246451 0.584850 0.697898
Si Si5 0.930427 0.872505 0.430017
Si Si6 0.690172 0.054599 0.204530
Si Si7 0.865545 0.254678 0.513905
Si Si8 0.553306 0.827669 0.171917
O O1 0.500000 0.377866 0.750000
O O2 0.239971 0.365762 0.647030
O O3 0.490226 0.263697 0.881363
O O4 0.569533 0.411510 0.037864
O O5 0.000000 0.414192 0.250000
O O6 0.072752 0.425574 0.108588
O O7 0.791997 0.511322 0.923484
O O8 0.500000 0.087034 0.250000
O O9 0.230588 0.045242 0.082977
O O10 0.181068 0.090677 0.796839
O O11 0.241536 0.186123 0.026690
O O12 0.242556 0.670628 0.639490
O O13 0.765908 0.851209 0.353720
O O14 0.105258 0.926435 0.648393
O O15 0.022364 0.792976 0.472008
O O16 0.582912 0.133381 0.060575
O O17 0.500000 0.000000 0.000000
O O18 0.000000 0.287728 0.750000
O O19 0.500000 0.853322 0.250000
#
# Coordination Sequence:
#
# PCOD9229387 Si02
#       8
#     4   4   4   4   4   4   4   4
#     4  11  22  40  63  88 123 172 219 270 331 402
#     4  11  23  40  59  85 122 170 222 273 343 403
#     4  10  19  39  69  97 132 170 215 273 338 402
#     4  11  22  38  61  86 126 166 216 280 338 399
#     4  10  21  42  71 102 134 173 224 273 341 400
#     4  11  24  43  70 100 137 173 219 274 339 406
#     4   9  19  36  63  97 127 163 215 276 338 398
#     4  11  25  43  67 100 138 176 229 273 330 412
#
# _framework density 22.647307000000001
#
# number of rings (size 3 to 8) (size 9 to 14) (size 15 to 20)
#    0.000    1.500    2.500    4.125    0.000    1.500 
#    0.000    0.625    2.750    0.000    0.000    0.000 
#    0.000    0.000    0.000    0.000    0.000    0.000 
#
# Total GULP energy -178211.064381 kJ/mol
# GULP energy per Si atom -5569.095762 kJ/mol
# Density = 2.259576 g / cm^3
# Si number density = 22.647307 Si / 1000 Ang^3
#
#
#
# Elastic Constant Matrix: (Units=GPa)
#
#
# Indices 1 2 3 4 5 6 
#
# 1 64.7883 -9.3070 -0.2312 0.0000 19.4174 0.0000
# 2 -9.3070 56.7766 10.6575 0.0000 -0.8837 0.0000
# 3 -0.2312 10.6575 93.0894 0.0000 13.0028 0.0000
# 4 0.0000 0.0000 0.0000 18.4124 0.0000 7.9297
# 5 19.4174 -0.8837 13.0028 0.0000 33.4396 0.0000
# 6 0.0000 0.0000 0.0000 7.9297 0.0000 4.9007
#
#
#
# Elastic Compliance Matrix: (Units=1/GPa)
#
#
# Indices 1 2 3 4 5 6 
#
# 1 0.019335 0.002731 0.001368 0.000000 -0.011687 0.000000
# 2 0.002731 0.018443 -0.002063 0.000000 -0.000296 0.000000
# 3 0.001368 -0.002063 0.011738 0.000000 -0.005413 0.000000
# 4 0.000000 0.000000 0.000000 0.179165 0.000000 -0.289902
# 5 -0.011687 -0.000296 -0.005413 0.000000 0.038788 0.000000
# 6 0.000000 0.000000 0.000000 -0.289902 0.000000 0.673134
#
#
# Mechanical properties :
#
#
# Convention : Reuss Voigt Hill
#
# Bulk Modulus (GPa) = 18.66148 24.09920 21.38034
# Shear Modulus (GPa) = 5.23892 25.58621 15.41256
#
# Velocity S-wave (km/s) = 1.52259 3.36485 2.61156
# Velocity P-wave (km/s) = 3.36882 5.07548 4.30752
#
# Compressibility (1/GPa) = 0.05358632
#
# Stress axis : x y z
#
# Youngs Moduli (GPa) = 51.72065 54.22038 85.19270
#
# Poissons Ratio (x) = -0.14806 -0.11653
# Poissons Ratio (y) = -0.14124 0.17579
# Poissons Ratio (z) = -0.07074 0.11188
#
# Static dielectric constant tensor:
#      x y z
#    x 1.929720 0.000000 0.014790 
#    y 0.000000 1.894370 0.000000 
#    z 0.014790 0.000000 1.893550 
# 
# From -- ./inp_files/37741.got.cif
#   From: 2010.05.17/outbox.cif.g08.bks.cpg/sg13_19_cif.got.tgz:37741.got - 2010.06.03 16:44:36.
