data_PCOD9229327
_publ_section_title
;
Structure prediction by ZEFSAII (Michael W. Deem and Ramdas Pophale) SiO2 
 PCOD9229327
Probable space group: P 2/C
;
_chemical_formula_sum "Si O2"
_cell_formula_units_Z 32
_cell_length_a 24.089103
_cell_length_b 14.484038
_cell_length_c 8.151496
_cell_angle_alpha 90.000000
_cell_angle_beta 151.967453
_cell_angle_gamma 90.000000
_cell_volume 1336.658782
_symmetry_space_group_name_H-M "P 2/C"
_symmetry_group_IT_number 13
_symmetry_cell_setting 'monoclinic'
loop_
_space_group_symop_operation_xyz
x,y,z
-x,y,1/2-z
-x,-y,-z
x,-y,1/2+z
loop_
_atom_site_type_symbol
_atom_site_label
_atom_site_fract_x
_atom_site_fract_y
_atom_site_fract_z
Si Si1 0.971752 0.209508 0.484609
Si Si2 0.127527 0.636723 0.223968
Si Si3 0.451479 0.220872 0.895946
Si Si4 0.214948 0.526620 0.173545
Si Si5 0.322538 0.212738 0.206732
Si Si6 0.834116 0.069517 0.546617
Si Si7 0.614130 0.421566 0.641538
Si Si8 0.747395 0.879202 0.454258
O O1 0.033668 0.287371 0.537239
O O2 0.000000 0.229906 0.750000
O O3 0.831744 0.200755 0.103225
O O4 0.031358 0.109110 0.596683
O O5 0.122499 0.580727 0.042432
O O6 0.150381 0.560225 0.422467
O O7 0.249635 0.693407 0.518652
O O8 0.390639 0.209889 0.558833
O O9 0.428243 0.325130 0.893634
O O10 0.384401 0.154109 0.848448
O O11 0.588064 0.204197 0.210605
O O12 0.324670 0.487764 0.566709
O O13 0.277978 0.590009 0.203601
O O14 0.230652 0.129885 0.982882
O O15 0.797855 0.098760 0.268371
O O16 0.780243 0.968827 0.435327
O O17 0.500000 0.462288 0.250000
#
# Coordination Sequence:
#
# PCOD9229327 Si02
#       8
#     4   4   4   4   4   4   4   4
#     4   9  19  36  66  83 113 153 200 236 301 353
#     4  10  19  39  60  87 116 156 196 250 288 355
#     4  10  20  35  57  82 123 160 195 232 294 359
#     4  10  22  35  60  84 119 152 202 245 298 339
#     4   9  18  35  58  83 116 165 195 230 294 361
#     4   9  19  36  60  86 115 150 199 241 292 348
#     4  11  21  36  55  86 118 156 199 243 286 345
#     4  10  20  38  61  88 115 156 193 244 290 360
#
# _framework density 23.940289
#
# number of rings (size 3 to 8) (size 9 to 14) (size 15 to 20)
#    0.000    2.250    1.250    2.250    0.000    1.500 
#    6.750    0.625    0.000    0.000    0.000    0.000 
#    0.000    0.000    0.000    0.000    0.000    0.000 
#
# Total GULP energy -178837.876210 kJ/mol
# GULP energy per Si atom -5588.683632 kJ/mol
# Density = 2.388580 g / cm^3
# Si number density = 23.940289 Si / 1000 Ang^3
#
#
#
# Elastic Constant Matrix: (Units=GPa)
#
#
# Indices 1 2 3 4 5 6 
#
# 1 157.0568 52.9931 43.3429 0.0000 37.3741 0.0000
# 2 52.9931 72.7237 11.0482 0.0000 16.8936 0.0000
# 3 43.3429 11.0482 51.3492 0.0000 26.7244 0.0000
# 4 0.0000 0.0000 0.0000 39.9315 0.0000 -6.3995
# 5 37.3741 16.8936 26.7244 0.0000 37.3909 0.0000
# 6 0.0000 0.0000 0.0000 -6.3995 0.0000 48.2055
#
#
#
# Elastic Compliance Matrix: (Units=1/GPa)
#
#
# Indices 1 2 3 4 5 6 
#
# 1 0.011051 -0.006223 -0.005897 0.000000 -0.004019 0.000000
# 2 -0.006223 0.018875 0.003810 0.000000 -0.005031 0.000000
# 3 -0.005897 0.003810 0.034172 0.000000 -0.020251 0.000000
# 4 0.000000 0.000000 0.000000 0.025587 0.000000 0.003397
# 5 -0.004019 -0.005031 -0.020251 0.000000 0.047509 0.000000
# 6 0.000000 0.000000 0.000000 0.003397 0.000000 0.021195
#
#
# Mechanical properties :
#
#
# Convention : Reuss Voigt Hill
#
# Bulk Modulus (GPa) = 21.06264 55.09977 38.08121
# Shear Modulus (GPa) = 26.20067 36.68860 31.44463
#
# Velocity S-wave (km/s) = 3.31179 3.91897 3.62810
# Velocity P-wave (km/s) = 4.84159 6.59873 5.78724
#
# Compressibility (1/GPa) = 0.04747743
#
# Stress axis : x y z
#
# Youngs Moduli (GPa) = 90.49211 52.97960 29.26411
#
# Poissons Ratio (x) = 0.32969 0.17257
# Poissons Ratio (y) = 0.56313 -0.11149
# Poissons Ratio (z) = 0.53362 -0.20184
#
# Static dielectric constant tensor:
#      x y z
#    x 1.910370 0.000000 -0.013360 
#    y 0.000000 1.874840 0.000000 
#    z -0.013360 0.000000 1.982110 
# 
# From -- ./inp_files/24252.got.cif
#   From: 2010.05.17/outbox.cif.g08.bks.cpg/sg13_13_cif.got.tgz:24252.got - 2010.06.03 16:44:36.
