data_PCOD9229243
_publ_section_title
;
Structure prediction by ZEFSAII (Michael W. Deem and Ramdas Pophale) SiO2 
 PCOD9229243
Probable space group: P 2/C
;
_chemical_formula_sum "Si O2"
_cell_formula_units_Z 28
_cell_length_a 18.906435
_cell_length_b 5.325004
_cell_length_c 25.836578
_cell_angle_alpha 90.000000
_cell_angle_beta 152.939336
_cell_angle_gamma 90.000000
_cell_volume 1183.348376
_symmetry_space_group_name_H-M "P 2/C"
_symmetry_group_IT_number 13
_symmetry_cell_setting 'monoclinic'
loop_
_space_group_symop_operation_xyz
x,y,z
-x,y,1/2-z
-x,-y,-z
x,-y,1/2+z
loop_
_atom_site_type_symbol
_atom_site_label
_atom_site_fract_x
_atom_site_fract_y
_atom_site_fract_z
Si Si1 0.072039 0.412578 0.415803
Si Si2 0.340716 0.971167 0.086769
Si Si3 0.174584 0.203203 0.066061
Si Si4 0.110428 0.125900 0.132130
Si Si5 0.457530 0.611151 0.528041
Si Si6 0.857330 0.259383 0.629924
Si Si7 0.582298 0.881531 0.162476
O O1 0.241740 0.281661 0.529413
O O2 0.079730 0.610789 0.467511
O O3 0.062940 0.526337 0.353035
O O4 0.922777 0.247881 0.333909
O O5 0.507406 0.933480 0.169977
O O6 0.321468 0.129664 0.126637
O O7 0.238992 0.105552 0.975542
O O8 0.182346 0.283953 0.130859
O O9 0.064555 0.956732 0.996313
O O10 0.232814 0.901670 0.216781
O O11 0.500000 0.500000 0.500000
O O12 0.272830 0.641644 0.415792
O O13 0.528072 0.884204 0.590071
O O14 0.519048 0.389446 0.605323
O O15 0.000000 0.118745 0.750000
#
# Coordination Sequence:
#
# PCOD9229243 Si02
#       7
#     4   4   4   4   4   4   4
#     4  10  19  38  62  88 123 165 211 268 319 384
#     4   9  20  40  60  86 126 167 207 268 316 393
#     4   9  20  39  61  93 124 164 214 263 324 379
#     4  10  22  36  64  93 127 162 216 266 322 394
#     4  11  25  44  63  94 130 170 215 270 324 389
#     4  10  22  38  63  89 124 168 219 265 326 385
#     4  11  24  43  65  93 131 170 212 264 332 381
#
# _framework density 23.661673
#
# number of rings (size 3 to 8) (size 9 to 14) (size 15 to 20)
#    0.000    2.000    1.429    0.857    4.000    3.429 
#    0.000    0.000    0.000    0.000    0.000    0.000 
#    0.000    0.000    0.000    0.000    0.000    0.000 
#
# Total GULP energy -156160.947340 kJ/mol
# GULP energy per Si atom -5577.176691 kJ/mol
# Density = 2.360782 g / cm^3
# Si number density = 23.661673 Si / 1000 Ang^3
#
#
#
# Elastic Constant Matrix: (Units=GPa)
#
#
# Indices 1 2 3 4 5 6 
#
# 1 127.2368 6.2680 14.2688 0.0000 17.0647 0.0000
# 2 6.2680 39.0376 0.1339 0.0000 2.0739 0.0000
# 3 14.2688 0.1339 72.1724 0.0000 7.8888 0.0000
# 4 0.0000 0.0000 0.0000 12.0641 0.0000 1.8738
# 5 17.0647 2.0739 7.8888 0.0000 20.1281 0.0000
# 6 0.0000 0.0000 0.0000 1.8738 0.0000 28.9822
#
#
#
# Elastic Compliance Matrix: (Units=1/GPa)
#
#
# Indices 1 2 3 4 5 6 
#
# 1 0.008977 -0.001060 -0.000996 0.000000 -0.007111 0.000000
# 2 -0.001060 0.025887 0.000371 0.000000 -0.001914 0.000000
# 3 -0.000996 0.000371 0.014589 0.000000 -0.004912 0.000000
# 4 0.000000 0.000000 0.000000 0.083731 0.000000 -0.005413
# 5 -0.007111 -0.001914 -0.004912 0.000000 0.057833 0.000000
# 6 0.000000 0.000000 0.000000 -0.005413 0.000000 0.034854
#
#
# Mechanical properties :
#
#
# Convention : Reuss Voigt Hill
#
# Bulk Modulus (GPa) = 21.70004 31.08757 26.39380
# Shear Modulus (GPa) = 20.44140 26.75330 23.59735
#
# Velocity S-wave (km/s) = 2.94241 3.36618 3.16140
# Velocity P-wave (km/s) = 4.55353 5.31743 4.95024
#
# Compressibility (1/GPa) = 0.04608286
#
# Stress axis : x y z
#
# Youngs Moduli (GPa) = 111.39613 38.62945 68.54599
#
# Poissons Ratio (x) = 0.04095 0.06824
# Poissons Ratio (y) = 0.11810 -0.02542
# Poissons Ratio (z) = 0.11090 -0.01432
#
# Static dielectric constant tensor:
#      x y z
#    x 1.969930 0.000000 -0.056220 
#    y 0.000000 2.010080 0.000000 
#    z -0.056220 0.000000 1.911560 
# 
# From -- ./inp_files/93179.got.cif
#   From: 2010.05.17/outbox.cif.g08.bks.cpg/sg13_47_cif.got.tgz:93179.got - 2010.06.03 16:44:36.
