data_PCOD9229640
_publ_section_title
;
Structure prediction by ZEFSAII (Michael W. Deem and Ramdas Pophale) SiO2 
 PCOD9229640
Probable space group: P 2/C
;
_chemical_formula_sum "Si O2"
_cell_formula_units_Z 32
_cell_length_a 13.085994
_cell_length_b 25.158845
_cell_length_c 5.059923
_cell_angle_alpha 90.000000
_cell_angle_beta 97.390087
_cell_angle_gamma 90.000000
_cell_volume 1652.033162
_symmetry_space_group_name_H-M "P 2/C"
_symmetry_group_IT_number 13
_symmetry_cell_setting 'monoclinic'
loop_
_space_group_symop_operation_xyz
x,y,z
-x,y,1/2-z
-x,-y,-z
x,-y,1/2+z
loop_
_atom_site_type_symbol
_atom_site_label
_atom_site_fract_x
_atom_site_fract_y
_atom_site_fract_z
Si Si1 0.118284 0.294071 0.202078
Si Si2 0.119339 0.167848 0.219264
Si Si3 0.616092 0.964679 0.325736
Si Si4 0.124118 0.531931 0.281997
Si Si5 0.206588 0.352048 0.731415
Si Si6 0.239315 0.868642 0.275692
Si Si7 0.569386 0.325519 0.512550
Si Si8 0.568674 0.202761 0.510284
O O1 0.133920 0.230932 0.174361
O O2 0.190627 0.319904 0.452935
O O3 0.000000 0.302847 0.250000
O O4 0.140110 0.322297 0.932901
O O5 0.188360 0.152761 0.492410
O O6 0.000000 0.159333 0.250000
O O7 0.155062 0.133491 0.979858
O O8 0.500000 0.941869 0.250000
O O9 0.703568 0.923499 0.272582
O O10 0.623641 0.985518 0.627183
O O11 0.155243 0.513726 0.584737
O O12 0.167458 0.587871 0.200569
O O13 0.000000 0.535946 0.250000
O O14 0.323251 0.352167 0.876691
O O15 0.328742 0.829538 0.406163
O O16 0.500000 0.325337 0.750000
O O17 0.594678 0.263950 0.451067
O O18 0.500000 0.347513 0.250000
O O19 0.500000 0.202386 0.750000
O O20 0.500000 0.180107 0.250000
#
# Coordination Sequence:
#
# PCOD9229640 Si02
#       8
#     4   4   4   4   4   4   4   4
#     4  11  22  36  57  89 121 150 189 234 286 350
#     4  11  24  39  57  85 121 157 196 238 277 333
#     4  10  22  40  62  90 119 146 186 242 299 350
#     4  10  21  37  57  83 112 141 182 239 297 347
#     4  12  22  37  61  83 114 157 195 231 288 349
#     4  12  22  38  63  84 115 159 196 231 289 347
#     4  10  21  36  53  78 113 150 188 230 271 325
#     4  10  20  33  53  84 116 144 182 228 280 343
#
# _framework density 19.370070999999999
#
# number of rings (size 3 to 8) (size 9 to 14) (size 15 to 20)
#    0.000    1.250    0.000    7.125    0.000    6.500 
#    0.000    0.000    0.000    9.750    0.000    0.000 
#    0.000    0.000    0.000    0.000    0.000    0.000 
#
# Total GULP energy -178934.016158 kJ/mol
# GULP energy per Si atom -5591.688005 kJ/mol
# Density = 1.932598 g / cm^3
# Si number density = 19.370071 Si / 1000 Ang^3
#
#
#
# Elastic Constant Matrix: (Units=GPa)
#
#
# Indices 1 2 3 4 5 6 
#
# 1 52.4741 27.5594 -8.1146 0.0000 -5.4273 0.0000
# 2 27.5594 51.1529 1.3389 0.0000 -2.8440 0.0000
# 3 -8.1146 1.3389 67.5609 0.0000 1.6687 0.0000
# 4 0.0000 0.0000 0.0000 35.8123 0.0000 -16.0228
# 5 -5.4273 -2.8440 1.6687 0.0000 33.3087 0.0000
# 6 0.0000 0.0000 0.0000 -16.0228 0.0000 19.6288
#
#
#
# Elastic Compliance Matrix: (Units=1/GPa)
#
#
# Indices 1 2 3 4 5 6 
#
# 1 0.027729 -0.014861 0.003549 0.000000 0.003071 0.000000
# 2 -0.014861 0.027620 -0.002334 0.000000 0.000054 0.000000
# 3 0.003549 -0.002334 0.015284 0.000000 -0.000387 0.000000
# 4 0.000000 0.000000 0.000000 0.043989 0.000000 0.035908
# 5 0.003071 0.000054 -0.000387 0.000000 0.030547 0.000000
# 6 0.000000 0.000000 0.000000 0.035908 0.000000 0.080257
#
#
# Mechanical properties :
#
#
# Convention : Reuss Voigt Hill
#
# Bulk Modulus (GPa) = 23.07313 23.63947 23.35630
# Shear Modulus (GPa) = 18.71515 27.77691 23.24603
#
# Velocity S-wave (km/s) = 3.11173 3.79094 3.46800
# Velocity P-wave (km/s) = 4.98479 5.60288 5.30285
#
# Compressibility (1/GPa) = 0.04334045
#
# Stress axis : x y z
#
# Youngs Moduli (GPa) = 36.06363 36.20543 65.42985
#
# Poissons Ratio (x) = 0.53807 -0.23222
# Poissons Ratio (y) = 0.53596 0.15269
# Poissons Ratio (z) = -0.12799 0.08449
#
# Static dielectric constant tensor:
#      x y z
#    x 1.679510 0.000000 -0.004090 
#    y 0.000000 1.661230 0.000000 
#    z -0.004090 0.000000 1.671730 
# 
# From -- ./inp_files/4371.got.cif
#   From: 2010.05.17/outbox.cif.g08.bks.cpg/sg13_3_cif.got.tgz:4371.got - 2010.06.03 16:44:36.
