data_PCOD9229601
_publ_section_title
;
Structure prediction by ZEFSAII (Michael W. Deem and Ramdas Pophale) SiO2 
 PCOD9229601
Probable space group: P 2/C
;
_chemical_formula_sum "Si O2"
_cell_formula_units_Z 28
_cell_length_a 29.187641
_cell_length_b 8.518132
_cell_length_c 29.275335
_cell_angle_alpha 90.000000
_cell_angle_beta 170.128216
_cell_angle_gamma 90.000000
_cell_volume 1247.864415
_symmetry_space_group_name_H-M "P 2/C"
_symmetry_group_IT_number 13
_symmetry_cell_setting 'monoclinic'
loop_
_space_group_symop_operation_xyz
x,y,z
-x,y,1/2-z
-x,-y,-z
x,-y,1/2+z
loop_
_atom_site_type_symbol
_atom_site_label
_atom_site_fract_x
_atom_site_fract_y
_atom_site_fract_z
Si Si1 0.408629 0.671974 0.392400
Si Si2 0.784768 0.072809 0.505490
Si Si3 0.990050 0.244502 0.310846
Si Si4 0.505834 0.544423 0.305872
Si Si5 0.124376 0.293021 0.704767
Si Si6 0.919495 0.332202 0.343173
Si Si7 0.420531 0.251942 0.285170
O O1 0.500000 0.500000 0.500000
O O2 0.252616 0.746723 0.281838
O O3 0.684134 0.739211 0.643276
O O4 0.195973 0.663989 0.142488
O O5 0.500000 0.037073 0.250000
O O6 0.693622 0.154885 0.369225
O O7 0.955938 0.922547 0.658033
O O8 0.000000 0.162094 0.750000
O O9 0.935405 0.241260 0.311255
O O10 0.255243 0.343722 0.564272
O O11 0.759195 0.344445 0.060365
O O12 0.500000 0.466527 0.250000
O O13 0.480976 0.419447 0.321479
O O14 0.146039 0.483593 0.731324
O O15 0.813398 0.258230 0.406877
O O16 0.303715 0.208538 0.919374
#
# Coordination Sequence:
#
# PCOD9229601 Si02
#       7
#     4   4   4   4   4   4   4
#     4  10  20  32  59  92 132 161 198 260 325 394
#     4  12  27  47  65  92 129 181 227 264 330 407
#     4  12  24  41  65  90 128 164 216 270 320 391
#     4  12  23  39  62  92 121 161 210 278 332 368
#     4  11  20  37  60  95 128 164 207 261 329 383
#     4  11  19  36  59  94 127 162 207 261 326 385
#     4  12  23  40  64  90 129 164 214 270 318 390
#
# _framework density 22.438337000000001
#
# number of rings (size 3 to 8) (size 9 to 14) (size 15 to 20)
#    0.000    0.571    2.857    9.000    0.000    1.143 
#    0.000    0.000    0.000    5.143    0.000    0.000 
#    0.000    0.000    0.000    0.000    0.000    0.000 
#
# Total GULP energy -156607.330320 kJ/mol
# GULP energy per Si atom -5593.118940 kJ/mol
# Density = 2.238727 g / cm^3
# Si number density = 22.438337 Si / 1000 Ang^3
#
#
#
# Elastic Constant Matrix: (Units=GPa)
#
#
# Indices 1 2 3 4 5 6 
#
# 1 80.0611 2.0683 14.7701 0.0000 4.2855 0.0000
# 2 2.0683 21.6550 13.8869 0.0000 -0.4506 0.0000
# 3 14.7701 13.8869 130.6103 0.0000 5.8938 0.0000
# 4 0.0000 0.0000 0.0000 29.0492 0.0000 -5.4304
# 5 4.2855 -0.4506 5.8938 0.0000 56.0578 0.0000
# 6 0.0000 0.0000 0.0000 -5.4304 0.0000 15.8564
#
#
#
# Elastic Compliance Matrix: (Units=1/GPa)
#
#
# Indices 1 2 3 4 5 6 
#
# 1 0.012798 -0.000360 -0.001371 0.000000 -0.000837 0.000000
# 2 -0.000360 0.049619 -0.005279 0.000000 0.000981 0.000000
# 3 -0.001371 -0.005279 0.008410 0.000000 -0.000822 0.000000
# 4 0.000000 0.000000 0.000000 0.036779 0.000000 0.012596
# 5 -0.000837 0.000981 -0.000822 0.000000 0.017997 0.000000
# 6 0.000000 0.000000 0.000000 0.012596 0.000000 0.067380
#
#
# Mechanical properties :
#
#
# Convention : Reuss Voigt Hill
#
# Bulk Modulus (GPa) = 17.60416 32.64190 25.12303
# Shear Modulus (GPa) = 22.12992 33.63274 27.88133
#
# Velocity S-wave (km/s) = 3.14388 3.87576 3.52884
# Velocity P-wave (km/s) = 4.58707 5.88283 5.27489
#
# Compressibility (1/GPa) = 0.05680474
#
# Stress axis : x y z
#
# Youngs Moduli (GPa) = 78.14004 20.15361 118.90894
#
# Poissons Ratio (x) = 0.00726 0.16304
# Poissons Ratio (y) = 0.02817 0.62774
# Poissons Ratio (z) = 0.10714 0.10639
#
# Static dielectric constant tensor:
#      x y z
#    x 1.892490 0.000000 -0.022880 
#    y 0.000000 1.813300 0.000000 
#    z -0.022880 0.000000 1.760170 
# 
# From -- ./inp_files/98100.got.cif
#   From: 2010.05.17/outbox.cif.g08.bks.cpg/sg13_50_cif.got.tgz:98100.got - 2010.06.03 16:44:36.
