data_PCOD9229012
_publ_section_title
;
Structure prediction by ZEFSAII (Michael W. Deem and Ramdas Pophale) SiO2 
 PCOD9229012
Probable space group: P 2/C
;
_chemical_formula_sum "Si O2"
_cell_formula_units_Z 26
_cell_length_a 11.000335
_cell_length_b 14.652781
_cell_length_c 8.856879
_cell_angle_alpha 90.000000
_cell_angle_beta 109.137674
_cell_angle_gamma 90.000000
_cell_volume 1348.702058
_symmetry_space_group_name_H-M "P 2/C"
_symmetry_group_IT_number 13
_symmetry_cell_setting 'monoclinic'
loop_
_space_group_symop_operation_xyz
x,y,z
-x,y,1/2-z
-x,-y,-z
x,-y,1/2+z
loop_
_atom_site_type_symbol
_atom_site_label
_atom_site_fract_x
_atom_site_fract_y
_atom_site_fract_z
Si Si1 0.537059 0.593561 0.092560
Si Si2 0.000000 0.827720 0.250000
Si Si3 0.422534 0.134588 0.062448
Si Si4 0.823317 0.038046 0.476519
Si Si5 0.858894 0.132001 0.174016
Si Si6 0.376982 0.227171 0.531404
Si Si7 0.737347 0.731777 0.187341
O O1 0.500000 0.580542 0.250000
O O2 0.685065 0.628748 0.143757
O O3 0.500000 0.500000 0.000000
O O4 0.449302 0.680722 0.008916
O O5 0.922056 0.895779 0.106345
O O6 0.885540 0.761562 0.264533
O O7 0.500000 0.144379 0.250000
O O8 0.527780 0.144252 0.973439
O O9 0.324243 0.051019 0.029718
O O10 0.320930 0.214737 0.980464
O O11 0.829901 0.066851 0.305032
O O12 0.857865 0.934409 0.528487
O O13 0.751756 0.207842 0.113028
O O14 0.000000 0.171627 0.250000
O O15 0.337195 0.235846 0.690201
#
# Coordination Sequence:
#
# PCOD9229012 Si02
#       7
#     4   2   4   4   4   4   4
#     4   9  19  38  63  92 115 151 192 241 306 365
#     4  10  20  40  62  84 122 154 214 240 292 352
#     4  10  19  37  52  82 115 143 200 251 290 343
#     4  11  24  37  56  82 114 163 206 251 291 345
#     4  12  24  38  57  81 119 163 209 245 293 345
#     4  10  21  39  60  85 118 154 200 242 304 356
#     4   9  20  36  64  87 115 158 193 242 301 358
#
# _framework density 19.277792999999999
#
# number of rings (size 3 to 8) (size 9 to 14) (size 15 to 20)
#    0.000    1.846    2.308    2.769    4.308    3.077 
#    0.000    0.000    1.692    1.846    0.000    0.000 
#    0.000    0.000    0.000    0.000    0.000    0.000 
#
# Total GULP energy -144913.640068 kJ/mol
# GULP energy per Si atom -5573.601541 kJ/mol
# Density = 1.923392 g / cm^3
# Si number density = 19.277793 Si / 1000 Ang^3
#
#
#
# Elastic Constant Matrix: (Units=GPa)
#
#
# Indices 1 2 3 4 5 6 
#
# 1 132.4522 45.4458 26.4540 0.0000 26.1471 0.0000
# 2 45.4458 69.3070 29.6845 0.0000 10.5366 0.0000
# 3 26.4540 29.6845 80.7931 0.0000 17.5492 0.0000
# 4 0.0000 0.0000 0.0000 27.7529 0.0000 8.2115
# 5 26.1471 10.5366 17.5492 0.0000 28.6951 0.0000
# 6 0.0000 0.0000 0.0000 8.2115 0.0000 17.9440
#
#
#
# Elastic Compliance Matrix: (Units=1/GPa)
#
#
# Indices 1 2 3 4 5 6 
#
# 1 0.011247 -0.006308 0.000413 0.000000 -0.008185 0.000000
# 2 -0.006308 0.020860 -0.005978 0.000000 0.001744 0.000000
# 3 0.000413 -0.005978 0.016195 0.000000 -0.008085 0.000000
# 4 0.000000 0.000000 0.000000 0.041675 0.000000 -0.019071
# 5 -0.008185 0.001744 -0.008085 0.000000 0.046612 0.000000
# 6 0.000000 0.000000 0.000000 -0.019071 0.000000 0.064456
#
#
# Mechanical properties :
#
#
# Convention : Reuss Voigt Hill
#
# Bulk Modulus (GPa) = 40.72209 53.96900 47.34554
# Shear Modulus (GPa) = 21.46149 26.94293 24.20221
#
# Velocity S-wave (km/s) = 3.34020 3.74252 3.54707
# Velocity P-wave (km/s) = 6.00380 6.83605 6.43339
#
# Compressibility (1/GPa) = 0.02455669
#
# Stress axis : x y z
#
# Youngs Moduli (GPa) = 88.90911 47.93938 61.74866
#
# Poissons Ratio (x) = 0.30238 -0.02548
# Poissons Ratio (y) = 0.56080 0.36911
# Poissons Ratio (z) = -0.03668 0.28656
#
# Static dielectric constant tensor:
#      x y z
#    x 1.754560 0.000000 -0.008720 
#    y 0.000000 1.686670 0.000000 
#    z -0.008720 0.000000 1.710870 
# 
# From -- ./inp_files/16600.got.cif
#   From: 2010.05.17/outbox.cif.g08.bks.cpg/sg13_9_cif.got.tgz:16600.got - 2010.06.03 16:44:36.
