data_PCOD9229604
_publ_section_title
;
Structure prediction by ZEFSAII (Michael W. Deem and Ramdas Pophale) SiO2 
 PCOD9229604
Probable space group: P 2/C
;
_chemical_formula_sum "Si O2"
_cell_formula_units_Z 26
_cell_length_a 12.261240
_cell_length_b 23.219129
_cell_length_c 5.403190
_cell_angle_alpha 90.000000
_cell_angle_beta 55.832353
_cell_angle_gamma 90.000000
_cell_volume 1272.755363
_symmetry_space_group_name_H-M "P 2/C"
_symmetry_group_IT_number 13
_symmetry_cell_setting 'monoclinic'
loop_
_space_group_symop_operation_xyz
x,y,z
-x,y,1/2-z
-x,-y,-z
x,-y,1/2+z
loop_
_atom_site_type_symbol
_atom_site_label
_atom_site_fract_x
_atom_site_fract_y
_atom_site_fract_z
Si Si1 0.796422 0.157101 0.344336
Si Si2 0.414343 0.775308 0.612830
Si Si3 0.000000 0.793354 0.250000
Si Si4 0.159478 0.033114 0.035433
Si Si5 0.656381 0.659509 0.004590
Si Si6 0.145580 0.271236 0.943281
Si Si7 0.659999 0.470347 0.514081
O O1 0.685923 0.171484 0.281938
O O2 0.784314 0.096718 0.491429
O O3 0.793427 0.212320 0.525017
O O4 0.937761 0.165049 0.032735
O O5 0.500000 0.777730 0.750000
O O6 0.343477 0.712588 0.687856
O O7 0.500000 0.778207 0.250000
O O8 0.107393 0.749495 0.220102
O O9 0.000000 0.037274 0.250000
O O10 0.197212 0.993749 0.223370
O O11 0.500000 0.653763 0.250000
O O12 0.698047 0.594711 0.889635
O O13 0.748726 0.680912 0.113975
O O14 0.000000 0.283020 0.250000
O O15 0.500000 0.473775 0.750000
O O16 0.705420 0.511239 0.231016
#
# Coordination Sequence:
#
# PCOD9229604 Si02
#       7
#     4   4   2   4   4   4   4
#     4  10  22  36  58  81 117 150 187 232 288 349
#     4  10  23  38  58  86 116 149 188 235 286 337
#     4  10  20  32  60  82 114 152 184 226 294 362
#     4  10  22  35  54  83 113 143 186 234 284 333
#     4   9  19  34  57  84 114 144 188 240 280 335
#     4   9  19  36  52  84 113 150 185 229 291 345
#     4   9  18  33  51  78 110 146 184 227 279 330
#
# _framework density 20.428121000000001
#
# number of rings (size 3 to 8) (size 9 to 14) (size 15 to 20)
#    0.000    2.462    0.000    1.385   11.846    4.308 
#    5.538    0.000    0.000    3.692    0.000    0.000 
#    0.000    0.000    0.000    0.000    0.000    0.000 
#
# Total GULP energy -144852.108937 kJ/mol
# GULP energy per Si atom -5571.234959 kJ/mol
# Density = 2.038163 g / cm^3
# Si number density = 20.428121 Si / 1000 Ang^3
#
#
#
# Elastic Constant Matrix: (Units=GPa)
#
#
# Indices 1 2 3 4 5 6 
#
# 1 100.0342 45.1182 31.1458 0.0000 27.3686 0.0000
# 2 45.1182 104.9073 14.9068 0.0000 6.5414 0.0000
# 3 31.1458 14.9068 63.2746 0.0000 11.6139 0.0000
# 4 0.0000 0.0000 0.0000 13.2116 0.0000 -0.9364
# 5 27.3686 6.5414 11.6139 0.0000 32.1848 0.0000
# 6 0.0000 0.0000 0.0000 -0.9364 0.0000 17.5649
#
#
#
# Elastic Compliance Matrix: (Units=1/GPa)
#
#
# Indices 1 2 3 4 5 6 
#
# 1 0.017563 -0.006098 -0.005028 0.000000 -0.011881 0.000000
# 2 -0.006098 0.012027 -0.000359 0.000000 0.002871 0.000000
# 3 -0.005028 -0.000359 0.018811 0.000000 -0.002440 0.000000
# 4 0.000000 0.000000 0.000000 0.075978 0.000000 0.004050
# 5 -0.011881 0.002871 -0.002440 0.000000 0.041471 0.000000
# 6 0.000000 0.000000 0.000000 0.004050 0.000000 0.057148
#
#
# Mechanical properties :
#
#
# Convention : Reuss Voigt Hill
#
# Bulk Modulus (GPa) = 39.32012 50.06196 44.69104
# Shear Modulus (GPa) = 19.65067 24.39527 22.02297
#
# Velocity S-wave (km/s) = 3.10488 3.45947 3.28696
# Velocity P-wave (km/s) = 5.66953 6.36528 6.02745
#
# Compressibility (1/GPa) = 0.02543227
#
# Stress axis : x y z
#
# Youngs Moduli (GPa) = 56.93775 83.14710 53.15978
#
# Poissons Ratio (x) = 0.50705 0.26727
# Poissons Ratio (y) = 0.34722 0.01906
# Poissons Ratio (z) = 0.28626 0.02981
#
# Static dielectric constant tensor:
#      x y z
#    x 1.813070 0.000000 -0.011220 
#    y 0.000000 1.725000 0.000000 
#    z -0.011220 0.000000 1.820050 
# 
# From -- ./inp_files/3884.got.cif
#   From: 2010.05.17/outbox.cif.g08.bks.cpg/sg13_2_cif.got.tgz:3884.got - 2010.06.03 16:44:36.
