data_PCOD9229940
_publ_section_title
;
Structure prediction by ZEFSAII (Michael W. Deem and Ramdas Pophale) SiO2 
 PCOD9229940
Probable space group: P 2/C
;
_chemical_formula_sum "Si O2"
_cell_formula_units_Z 28
_cell_length_a 19.744144
_cell_length_b 7.976179
_cell_length_c 7.847038
_cell_angle_alpha 90.000000
_cell_angle_beta 55.774371
_cell_angle_gamma 90.000000
_cell_volume 1021.773635
_symmetry_space_group_name_H-M "P 2/C"
_symmetry_group_IT_number 13
_symmetry_cell_setting 'monoclinic'
loop_
_space_group_symop_operation_xyz
x,y,z
-x,y,1/2-z
-x,-y,-z
x,-y,1/2+z
loop_
_atom_site_type_symbol
_atom_site_label
_atom_site_fract_x
_atom_site_fract_y
_atom_site_fract_z
Si Si1 0.604505 0.115046 0.497835
Si Si2 0.308740 0.402774 0.626815
Si Si3 0.964203 0.824452 0.611372
Si Si4 0.451427 0.767598 0.052720
Si Si5 0.835733 0.304542 0.479839
Si Si6 0.095034 0.663982 0.239554
Si Si7 0.247477 0.256767 0.354385
O O1 0.586813 0.189711 0.707796
O O2 0.548170 0.226462 0.449493
O O3 0.697471 0.113031 0.302414
O O4 0.571555 0.927218 0.529952
O O5 0.404344 0.388457 0.536153
O O6 0.286769 0.319598 0.478256
O O7 0.266943 0.585318 0.702636
O O8 0.259910 0.308479 0.847822
O O9 0.999201 0.693991 0.420793
O O10 0.000000 0.787648 0.750000
O O11 0.868850 0.827340 0.796434
O O12 0.000000 0.000000 0.500000
O O13 0.877244 0.476705 0.349125
O O14 0.869010 0.290283 0.625173
O O15 0.151899 0.771935 0.030899
#
# Coordination Sequence:
#
# PCOD9229940 Si02
#       7
#     4   4   4   4   4   4   4
#     4  10  21  37  56  78 105 139 177 216 262 315
#     4  10  20  35  55  80 108 138 175 218 263 311
#     4  10  21  36  52  76 108 138 173 214 256 304
#     4  10  21  37  56  78 105 139 177 216 262 315
#     4   9  19  35  55  78 104 136 174 214 257 308
#     4   9  19  35  55  78 104 136 174 214 257 308
#     4  10  20  35  55  80 108 138 175 218 263 311
#
# _framework density 27.403328999999999
#
# number of rings (size 3 to 8) (size 9 to 14) (size 15 to 20)
#    0.000    2.286    0.000    2.143    0.000    5.714 
#    0.000    2.857    0.000    0.000    0.000    0.000 
#    0.000    0.000    0.000    0.000    0.000    0.000 
#
# Total GULP energy -156579.213366 kJ/mol
# GULP energy per Si atom -5592.114763 kJ/mol
# Density = 2.734096 g / cm^3
# Si number density = 27.403329 Si / 1000 Ang^3
#
#
#
# Elastic Constant Matrix: (Units=GPa)
#
#
# Indices 1 2 3 4 5 6 
#
# 1 69.4112 -13.8651 30.6677 0.0000 -3.6399 0.0000
# 2 -13.8651 57.8370 15.7115 0.0000 -8.0798 0.0000
# 3 30.6677 15.7115 179.9364 0.0000 4.5932 0.0000
# 4 0.0000 0.0000 0.0000 39.2953 0.0000 -5.0898
# 5 -3.6399 -8.0798 4.5932 0.0000 60.1598 0.0000
# 6 0.0000 0.0000 0.0000 -5.0898 0.0000 24.8631
#
#
#
# Elastic Compliance Matrix: (Units=1/GPa)
#
#
# Indices 1 2 3 4 5 6 
#
# 1 0.017087 0.005308 -0.003427 0.000000 0.002008 0.000000
# 2 0.005308 0.019743 -0.002710 0.000000 0.003180 0.000000
# 3 -0.003427 -0.002710 0.006405 0.000000 -0.001060 0.000000
# 4 0.000000 0.000000 0.000000 0.026142 0.000000 0.005351
# 5 0.002008 0.003180 -0.001060 0.000000 0.017252 0.000000
# 6 0.000000 0.000000 0.000000 0.005351 0.000000 0.041316
#
#
# Mechanical properties :
#
#
# Convention : Reuss Voigt Hill
#
# Bulk Modulus (GPa) = 24.05205 41.35697 32.70451
# Shear Modulus (GPa) = 34.85286 43.17499 39.01393
#
# Velocity S-wave (km/s) = 3.57017 3.97361 3.77728
# Velocity P-wave (km/s) = 5.07847 6.01477 5.56634
#
# Compressibility (1/GPa) = 0.04157650
#
# Stress axis : x y z
#
# Youngs Moduli (GPa) = 58.52572 50.65189 156.12202
#
# Poissons Ratio (x) = -0.26884 0.53501
# Poissons Ratio (y) = -0.31063 0.42303
# Poissons Ratio (z) = 0.20056 0.13725
#
# Static dielectric constant tensor:
#      x y z
#    x 2.280940 0.000000 -0.061360 
#    y 0.000000 2.149700 0.000000 
#    z -0.061360 0.000000 2.105170 
# 
# From -- ./inp_files/24408.got.cif
#   From: 2010.05.17/outbox.cif.g08.bks.cpg/sg13_13_cif.got.tgz:24408.got - 2010.06.03 16:44:36.
