data_PCOD9229694
_publ_section_title
;
Structure prediction by ZEFSAII (Michael W. Deem and Ramdas Pophale) SiO2 
 PCOD9229694
Probable space group: P 2/C
;
_chemical_formula_sum "Si O2"
_cell_formula_units_Z 32
_cell_length_a 8.034158
_cell_length_b 9.222361
_cell_length_c 21.761526
_cell_angle_alpha 90.000000
_cell_angle_beta 79.922149
_cell_angle_gamma 90.000000
_cell_volume 1587.518620
_symmetry_space_group_name_H-M "P 2/C"
_symmetry_group_IT_number 13
_symmetry_cell_setting 'monoclinic'
loop_
_space_group_symop_operation_xyz
x,y,z
-x,y,1/2-z
-x,-y,-z
x,-y,1/2+z
loop_
_atom_site_type_symbol
_atom_site_label
_atom_site_fract_x
_atom_site_fract_y
_atom_site_fract_z
Si Si1 0.363822 0.388543 0.716361
Si Si2 0.066366 0.788539 0.448369
Si Si3 0.143072 0.377586 0.619107
Si Si4 0.401641 0.372223 0.362414
Si Si5 0.754009 0.980101 0.503429
Si Si6 0.900979 0.407170 0.199525
Si Si7 0.573752 0.200952 0.445721
Si Si8 0.268859 0.536780 0.492620
O O1 0.500000 0.304100 0.750000
O O2 0.276591 0.324364 0.661055
O O3 0.480257 0.519248 0.683097
O O4 0.209203 0.459267 0.764574
O O5 0.116340 0.642291 0.480948
O O6 0.999985 0.740025 0.386705
O O7 0.911552 0.873477 0.489230
O O8 0.218123 0.903922 0.443437
O O9 0.226760 0.424120 0.549303
O O10 0.047222 0.521489 0.648798
O O11 0.239070 0.326117 0.332606
O O12 0.525100 0.249456 0.380725
O O13 0.331423 0.458653 0.426745
O O14 0.591004 0.881840 0.519993
O O15 0.726868 0.088729 0.447274
O O16 0.000000 0.333865 0.250000
O O17 0.607658 0.344724 0.483936
#
# Coordination Sequence:
#
# PCOD9229694 Si02
#       8
#     4   4   4   4   4   4   4   4
#     4   9  20  35  50  78 115 145 180 212 273 336
#     4  10  20  34  50  76 115 145 177 215 264 333
#     4  11  19  33  55  84 115 139 170 226 285 336
#     4  11  19  33  55  84 115 139 170 226 285 336
#     4   9  21  36  48  72 119 151 188 208 254 335
#     4   9  20  35  50  78 115 145 180 212 273 336
#     4  10  20  34  50  76 115 145 177 215 264 333
#     4  11  21  30  52  92 113 135 168 220 300 339
#
# _framework density 20.157243999999999
#
# number of rings (size 3 to 8) (size 9 to 14) (size 15 to 20)
#    0.000    2.000    2.500    1.500    3.500    0.000 
#    0.000    0.000    0.000    0.000    0.000   22.750 
#    0.000    0.000    0.000    0.000    0.000    0.000 
#
# Total GULP energy -178241.285287 kJ/mol
# GULP energy per Si atom -5570.040165 kJ/mol
# Density = 2.011136 g / cm^3
# Si number density = 20.157244 Si / 1000 Ang^3
#
#
#
# Elastic Constant Matrix: (Units=GPa)
#
#
# Indices 1 2 3 4 5 6 
#
# 1 94.9682 17.6826 34.3762 0.0000 42.5908 0.0000
# 2 17.6826 48.5040 15.4040 0.0000 16.0103 0.0000
# 3 34.3762 15.4040 85.0932 0.0000 23.6228 0.0000
# 4 0.0000 0.0000 0.0000 9.2103 0.0000 7.2170
# 5 42.5908 16.0103 23.6228 0.0000 59.8089 0.0000
# 6 0.0000 0.0000 0.0000 7.2170 0.0000 24.1083
#
#
#
# Elastic Compliance Matrix: (Units=1/GPa)
#
#
# Indices 1 2 3 4 5 6 
#
# 1 0.016620 -0.001610 -0.003658 0.000000 -0.009960 0.000000
# 2 -0.001610 0.023342 -0.002425 0.000000 -0.004144 0.000000
# 3 -0.003658 -0.002425 0.014337 0.000000 -0.002409 0.000000
# 4 0.000000 0.000000 0.000000 0.141848 0.000000 -0.042463
# 5 -0.009960 -0.004144 -0.002409 0.000000 0.025873 0.000000
# 6 0.000000 0.000000 0.000000 -0.042463 0.000000 0.054191
#
#
# Mechanical properties :
#
#
# Convention : Reuss Voigt Hill
#
# Bulk Modulus (GPa) = 25.69730 40.38789 33.04259
# Shear Modulus (GPa) = 16.41669 29.36568 22.89119
#
# Velocity S-wave (km/s) = 2.85692 3.82099 3.37357
# Velocity P-wave (km/s) = 4.86403 6.28860 5.62162
#
# Compressibility (1/GPa) = 0.03891460
#
# Stress axis : x y z
#
# Youngs Moduli (GPa) = 60.16678 42.84175 69.74860
#
# Poissons Ratio (x) = 0.06897 0.25514
# Poissons Ratio (y) = 0.09686 0.16911
# Poissons Ratio (z) = 0.22009 0.10387
#
# Static dielectric constant tensor:
#      x y z
#    x 1.822500 0.000000 0.070450 
#    y 0.000000 1.726880 0.000000 
#    z 0.070450 0.000000 1.770700 
# 
# From -- ./inp_files/84801.got.cif
#   From: 2010.05.17/outbox.cif.g08.bks.cpg/sg13_43_cif.got.tgz:84801.got - 2010.06.03 16:44:36.
