data_PCOD9229758
_publ_section_title
;
Structure prediction by ZEFSAII (Michael W. Deem and Ramdas Pophale) SiO2 
 PCOD9229758
Probable space group: P 2/C
;
_chemical_formula_sum "Si O2"
_cell_formula_units_Z 24
_cell_length_a 20.868219
_cell_length_b 9.592471
_cell_length_c 8.519797
_cell_angle_alpha 90.000000
_cell_angle_beta 49.650014
_cell_angle_gamma 90.000000
_cell_volume 1299.748234
_symmetry_space_group_name_H-M "P 2/C"
_symmetry_group_IT_number 13
_symmetry_cell_setting 'monoclinic'
loop_
_space_group_symop_operation_xyz
x,y,z
-x,y,1/2-z
-x,-y,-z
x,-y,1/2+z
loop_
_atom_site_type_symbol
_atom_site_label
_atom_site_fract_x
_atom_site_fract_y
_atom_site_fract_z
Si Si1 0.344382 0.645639 0.868596
Si Si2 0.992013 0.157315 0.574620
Si Si3 0.158704 0.659867 0.283954
Si Si4 0.582530 0.588251 0.413906
Si Si5 0.487772 0.846542 0.582063
Si Si6 0.083058 0.391435 0.224850
O O1 0.342190 0.504293 0.771533
O O2 0.397468 0.769442 0.701613
O O3 0.252383 0.682397 0.073600
O O4 0.399838 0.602569 0.931014
O O5 0.900464 0.214208 0.674646
O O6 0.000000 0.163948 0.750000
O O7 0.055219 0.264012 0.382723
O O8 0.000000 0.000000 0.500000
O O9 0.117524 0.520983 0.270524
O O10 0.150748 0.648389 0.484601
O O11 0.500000 0.500000 0.500000
O O12 0.558944 0.743556 0.397508
O O13 0.500000 0.853942 0.750000
O O14 0.500000 0.000000 0.500000
O O15 0.000000 0.427620 0.250000
#
# Coordination Sequence:
#
# PCOD9229758 Si02
#       6
#     4   4   4   4   4   4
#     4  10  20  34  54  83 111 137 182 234 276 319
#     4  11  22  39  59  80 109 151 192 226 276 345
#     4  11  20  35  56  83 113 143 184 240 282 324
#     4   9  18  34  55  77 105 142 180 220 271 334
#     4   9  19  35  53  74 104 142 178 215 265 331
#     4  10  20  35  57  81 110 149 186 223 277 339
#
# _framework density 18.465115000000001
#
# number of rings (size 3 to 8) (size 9 to 14) (size 15 to 20)
#    0.000    2.000    0.000    7.500    0.000    2.667 
#    0.000    8.333    0.000    0.000    0.000    0.000 
#    0.000    0.000    0.000    0.000    0.000    0.000 
#
# Total GULP energy -133735.312508 kJ/mol
# GULP energy per Si atom -5572.304688 kJ/mol
# Density = 1.842309 g / cm^3
# Si number density = 18.465115 Si / 1000 Ang^3
#
#
#
# Elastic Constant Matrix: (Units=GPa)
#
#
# Indices 1 2 3 4 5 6 
#
# 1 49.7771 43.4151 34.8073 0.0000 4.7846 0.0000
# 2 43.4151 160.8727 69.8645 0.0000 -1.6790 0.0000
# 3 34.8073 69.8645 131.8316 0.0000 -10.3600 0.0000
# 4 0.0000 0.0000 0.0000 28.4620 0.0000 10.8385
# 5 4.7846 -1.6790 -10.3600 0.0000 32.5767 0.0000
# 6 0.0000 0.0000 0.0000 10.8385 0.0000 19.5211
#
#
#
# Elastic Compliance Matrix: (Units=1/GPa)
#
#
# Indices 1 2 3 4 5 6 
#
# 1 0.029315 -0.005718 -0.005201 0.000000 -0.006254 0.000000
# 2 -0.005718 0.009220 -0.003357 0.000000 0.000247 0.000000
# 3 -0.005201 -0.003357 0.011061 0.000000 0.004108 0.000000
# 4 0.000000 0.000000 0.000000 0.044555 0.000000 -0.024738
# 5 -0.006254 0.000247 0.004108 0.000000 0.032935 0.000000
# 6 0.000000 0.000000 0.000000 -0.024738 0.000000 0.064962
#
#
# Mechanical properties :
#
#
# Convention : Reuss Voigt Hill
#
# Bulk Modulus (GPa) = 47.52142 70.96171 59.24156
# Shear Modulus (GPa) = 21.96718 29.07156 25.51937
#
# Velocity S-wave (km/s) = 3.45288 3.97218 3.72160
# Velocity P-wave (km/s) = 6.45664 7.71694 7.11475
#
# Compressibility (1/GPa) = 0.02104314
#
# Stress axis : x y z
#
# Youngs Moduli (GPa) = 34.11256 108.46523 90.41127
#
# Poissons Ratio (x) = 0.62017 0.47026
# Poissons Ratio (y) = 0.19504 0.30350
# Poissons Ratio (z) = 0.17743 0.36410
#
# Static dielectric constant tensor:
#      x y z
#    x 1.670980 0.000000 0.015410 
#    y 0.000000 1.644390 0.000000 
#    z 0.015410 0.000000 1.719900 
# 
# From -- ./inp_files/22704.got.cif
#   From: 2010.05.17/outbox.cif.g08.bks.cpg/sg13_12_cif.got.tgz:22704.got - 2010.06.03 16:44:36.
