data_PCOD9229145
_publ_section_title
;
Structure prediction by ZEFSAII (Michael W. Deem and Ramdas Pophale) SiO2 
 PCOD9229145
Probable space group: P 2/C
;
_chemical_formula_sum "Si O2"
_cell_formula_units_Z 30
_cell_length_a 10.997295
_cell_length_b 11.364094
_cell_length_c 14.901539
_cell_angle_alpha 90.000000
_cell_angle_beta 130.194667
_cell_angle_gamma 90.000000
_cell_volume 1422.536339
_symmetry_space_group_name_H-M "P 2/C"
_symmetry_group_IT_number 13
_symmetry_cell_setting 'monoclinic'
loop_
_space_group_symop_operation_xyz
x,y,z
-x,y,1/2-z
-x,-y,-z
x,-y,1/2+z
loop_
_atom_site_type_symbol
_atom_site_label
_atom_site_fract_x
_atom_site_fract_y
_atom_site_fract_z
Si Si1 0.152445 0.938689 0.218815
Si Si2 0.216767 0.869374 0.437950
Si Si3 0.236366 0.544546 0.118868
Si Si4 0.267125 0.901468 0.070431
Si Si5 0.926040 0.193821 0.346542
Si Si6 0.328029 0.278131 0.135488
Si Si7 0.000352 0.547128 0.650695
Si Si8 0.500000 0.268234 0.750000
O O1 0.240641 0.879356 0.343531
O O2 0.229980 0.926387 0.158087
O O3 0.973143 0.884994 0.133097
O O4 0.136336 0.078203 0.233704
O O5 0.290920 0.752695 0.515366
O O6 0.292042 0.979651 0.527069
O O7 0.314043 0.415990 0.148897
O O8 0.101293 0.532626 0.130294
O O9 0.356933 0.644701 0.206811
O O10 0.159695 0.567252 0.984044
O O11 0.418666 0.816827 0.138705
O O12 0.105727 0.839584 0.958938
O O13 0.812316 0.211919 0.377943
O O14 0.922998 0.322538 0.301519
O O15 0.500000 0.236133 0.250000
O O16 0.000000 0.494744 0.750000
#
# Coordination Sequence:
#
# PCOD9229145 Si02
#       8
#     4   4   4   4   4   4   4   2
#     4  10  20  37  62  97 130 160 213 265 321 388
#     4  10  21  37  64  97 121 169 210 260 331 385
#     4  10  23  45  63  93 128 171 213 268 320 373
#     4  11  21  39  63  91 131 167 203 268 316 390
#     4  10  19  37  64  89 126 164 212 256 319 384
#     4  11  21  39  64  85 128 167 209 263 319 384
#     4  10  22  41  71  96 118 167 224 267 314 385
#     4  12  24  42  68  92 132 172 214 264 336 372
#
# _framework density 21.089092999999998
#
# number of rings (size 3 to 8) (size 9 to 14) (size 15 to 20)
#    0.000    1.600    4.667    0.800    4.667    0.000 
#    4.800    6.000    0.000    0.000    0.000    0.000 
#    0.000    0.000    0.000    0.000    0.000    0.000 
#
# Total GULP energy -167440.074938 kJ/mol
# GULP energy per Si atom -5581.335831 kJ/mol
# Density = 2.104109 g / cm^3
# Si number density = 21.089093 Si / 1000 Ang^3
#
#
#
# Elastic Constant Matrix: (Units=GPa)
#
#
# Indices 1 2 3 4 5 6 
#
# 1 33.1622 10.7244 37.6266 0.0000 -6.4788 0.0000
# 2 10.7244 42.0973 11.9069 0.0000 7.0535 0.0000
# 3 37.6266 11.9069 90.8465 0.0000 -14.7833 0.0000
# 4 0.0000 0.0000 0.0000 20.3580 0.0000 11.8862
# 5 -6.4788 7.0535 -14.7833 0.0000 36.7803 0.0000
# 6 0.0000 0.0000 0.0000 11.8862 0.0000 13.2702
#
#
#
# Elastic Compliance Matrix: (Units=1/GPa)
#
#
# Indices 1 2 3 4 5 6 
#
# 1 0.059998 -0.009248 -0.023143 0.000000 0.003040 0.000000
# 2 -0.009248 0.027614 -0.000980 0.000000 -0.007318 0.000000
# 3 -0.023143 -0.000980 0.021494 0.000000 0.004751 0.000000
# 4 0.000000 0.000000 0.000000 0.102972 0.000000 -0.092232
# 5 0.003040 -0.007318 0.004751 0.000000 0.031037 0.000000
# 6 0.000000 0.000000 0.000000 -0.092232 0.000000 0.157970
#
#
# Mechanical properties :
#
#
# Convention : Reuss Voigt Hill
#
# Bulk Modulus (GPa) = 23.60478 31.84688 27.72583
# Shear Modulus (GPa) = 10.37455 21.13825 15.75640
#
# Velocity S-wave (km/s) = 2.22038 3.16940 2.73634
# Velocity P-wave (km/s) = 4.21789 5.34110 4.81238
#
# Compressibility (1/GPa) = 0.04236431
#
# Stress axis : x y z
#
# Youngs Moduli (GPa) = 16.66715 36.21367 46.52376
#
# Poissons Ratio (x) = 0.33492 1.07670
# Poissons Ratio (y) = 0.15414 0.04558
# Poissons Ratio (z) = 0.38573 0.03548
#
# Static dielectric constant tensor:
#      x y z
#    x 1.785530 0.000000 -0.009130 
#    y 0.000000 1.786900 0.000000 
#    z -0.009130 0.000000 1.780810 
# 
# From -- ./inp_files/51188.got.cif
#   From: 2010.05.17/outbox.cif.g08.bks.cpg/sg13_26_cif.got.tgz:51188.got - 2010.06.03 16:44:36.
