data_PCOD9229516
_publ_section_title
;
Structure prediction by ZEFSAII (Michael W. Deem and Ramdas Pophale) SiO2 
 PCOD9229516
Probable space group: P 2/C
;
_chemical_formula_sum "Si O2"
_cell_formula_units_Z 28
_cell_length_a 38.707879
_cell_length_b 5.168538
_cell_length_c 18.999523
_cell_angle_alpha 90.000000
_cell_angle_beta 17.524630
_cell_angle_gamma 90.000000
_cell_volume 1144.572373
_symmetry_space_group_name_H-M "P 2/C"
_symmetry_group_IT_number 13
_symmetry_cell_setting 'monoclinic'
loop_
_space_group_symop_operation_xyz
x,y,z
-x,y,1/2-z
-x,-y,-z
x,-y,1/2+z
loop_
_atom_site_type_symbol
_atom_site_label
_atom_site_fract_x
_atom_site_fract_y
_atom_site_fract_z
Si Si1 0.733587 0.619060 0.225589
Si Si2 0.782614 0.351794 0.781721
Si Si3 0.813544 0.843665 0.806837
Si Si4 0.512636 0.325623 0.333573
Si Si5 0.068344 0.695077 0.188867
Si Si6 0.106933 0.805548 0.693764
Si Si7 0.543580 0.825046 0.351485
O O1 0.798758 0.721602 0.168659
O O2 0.598288 0.614756 0.497472
O O3 0.768338 0.772972 0.087094
O O4 0.795883 0.343041 0.093410
O O5 0.826979 0.631195 0.719854
O O6 0.643899 0.374445 0.057567
O O7 0.823139 0.130736 0.756607
O O8 0.885635 0.789168 0.737153
O O9 0.680930 0.814959 0.088847
O O10 0.496801 0.537125 0.427873
O O11 0.510644 0.018135 0.351604
O O12 0.000000 0.730990 0.250000
O O13 0.042721 0.425237 0.278158
O O14 0.057041 0.924946 0.265343
O O15 0.500000 0.000000 0.500000
#
# Coordination Sequence:
#
# PCOD9229516 Si02
#       7
#     4   4   4   4   4   4   4
#     4  10  24  36  65  86 115 155 207 232 293 341
#     4  10  22  37  56  86 129 161 184 238 279 350
#     4  10  21  37  56  85 123 160 191 229 299 335
#     4  10  21  33  51  83 118 156 194 229 274 332
#     4  10  23  40  64  89 112 141 195 259 298 335
#     4  10  22  38  65  88 112 151 197 242 287 353
#     4  10  20  31  50  77 121 156 192 235 270 330
#
# _framework density 24.463284999999999
#
# number of rings (size 3 to 8) (size 9 to 14) (size 15 to 20)
#    0.857    1.143    0.000    3.000    6.000    1.143 
#    0.000    4.286    0.000    5.143    0.000    0.000 
#    0.000    0.000    0.000    0.000    0.000    0.000 
#
# Total GULP energy -156349.366794 kJ/mol
# GULP energy per Si atom -5583.905957 kJ/mol
# Density = 2.440761 g / cm^3
# Si number density = 24.463285 Si / 1000 Ang^3
#
#
#
# Elastic Constant Matrix: (Units=GPa)
#
#
# Indices 1 2 3 4 5 6 
#
# 1 139.6452 34.1781 -2.3451 0.0000 -8.5619 0.0000
# 2 34.1781 108.0765 -1.8587 0.0000 -11.5148 0.0000
# 3 -2.3451 -1.8587 84.3364 0.0000 -8.0402 0.0000
# 4 0.0000 0.0000 0.0000 31.2665 0.0000 6.8402
# 5 -8.5619 -11.5148 -8.0402 0.0000 28.1294 0.0000
# 6 0.0000 0.0000 0.0000 6.8402 0.0000 22.4252
#
#
#
# Elastic Compliance Matrix: (Units=1/GPa)
#
#
# Indices 1 2 3 4 5 6 
#
# 1 0.007824 -0.002306 0.000312 0.000000 0.001527 0.000000
# 2 -0.002306 0.010385 0.000517 0.000000 0.003697 0.000000
# 3 0.000312 0.000517 0.012240 0.000000 0.003805 0.000000
# 4 0.000000 0.000000 0.000000 0.034270 0.000000 -0.010453
# 5 0.001527 0.003697 0.003805 0.000000 0.038616 0.000000
# 6 0.000000 0.000000 0.000000 -0.010453 0.000000 0.047781
#
#
# Mechanical properties :
#
#
# Convention : Reuss Voigt Hill
#
# Bulk Modulus (GPa) = 36.36948 43.55630 39.96289
# Shear Modulus (GPa) = 30.63068 36.50314 33.56691
#
# Velocity S-wave (km/s) = 3.54235 3.86704 3.70825
# Velocity P-wave (km/s) = 5.62408 6.14671 5.89119
#
# Compressibility (1/GPa) = 0.02749558
#
# Stress axis : x y z
#
# Youngs Moduli (GPa) = 127.80643 96.29428 81.69837
#
# Poissons Ratio (x) = 0.22209 -0.02551
# Poissons Ratio (y) = 0.29476 -0.04225
# Poissons Ratio (z) = -0.03991 -0.04980
#
# Static dielectric constant tensor:
#      x y z
#    x 1.943740 0.000000 0.065030 
#    y 0.000000 1.875400 0.000000 
#    z 0.065030 0.000000 2.055360 
# 
# From -- ./inp_files/72016.got.cif
#   From: 2010.05.17/outbox.cif.g08.bks.cpg/sg13_37_cif.got.tgz:72016.got - 2010.06.03 16:44:36.
