data_PCOD9229499
_publ_section_title
;
Structure prediction by ZEFSAII (Michael W. Deem and Ramdas Pophale) SiO2 
 PCOD9229499
Probable space group: P 2/C
;
_chemical_formula_sum "Si O2"
_cell_formula_units_Z 32
_cell_length_a 20.887889
_cell_length_b 16.384421
_cell_length_c 9.164389
_cell_angle_alpha 90.000000
_cell_angle_beta 144.911871
_cell_angle_gamma 90.000000
_cell_volume 1802.905314
_symmetry_space_group_name_H-M "P 2/C"
_symmetry_group_IT_number 13
_symmetry_cell_setting 'monoclinic'
loop_
_space_group_symop_operation_xyz
x,y,z
-x,y,1/2-z
-x,-y,-z
x,-y,1/2+z
loop_
_atom_site_type_symbol
_atom_site_label
_atom_site_fract_x
_atom_site_fract_y
_atom_site_fract_z
Si Si1 0.606829 0.175979 0.701030
Si Si2 0.633414 0.959717 0.473494
Si Si3 0.444888 0.593396 0.784750
Si Si4 0.349707 0.116381 0.183816
Si Si5 0.870073 0.597688 0.475691
Si Si6 0.598660 0.347409 0.821788
Si Si7 0.709211 0.741205 0.105404
Si Si8 0.244910 0.521701 0.955212
O O1 0.658571 0.100367 0.885142
O O2 0.478465 0.149268 0.430285
O O3 0.615934 0.251789 0.829627
O O4 0.665048 0.207965 0.662618
O O5 0.500000 0.959806 0.250000
O O6 0.677372 0.925225 0.710288
O O7 0.661640 0.049103 0.465407
O O8 0.500000 0.548813 0.750000
O O9 0.383658 0.674596 0.613481
O O10 0.350936 0.537368 0.680511
O O11 0.545244 0.620053 0.072720
O O12 0.278716 0.195009 0.004305
O O13 0.815660 0.685741 0.340337
O O14 0.806057 0.560330 0.495545
O O15 0.841829 0.534926 0.292509
O O16 0.000000 0.603229 0.750000
O O17 0.500000 0.357966 0.750000
O O18 0.706556 0.402637 0.049394
#
# Coordination Sequence:
#
# PCOD9229499 Si02
#       8
#     4   4   4   4   4   4   4   4
#     4  11  19  31  48  76 119 148 184 209 256 316
#     4  10  20  30  48  79 115 157 184 205 247 313
#     4  11  19  33  50  78 112 149 176 214 267 329
#     4  11  19  33  51  79 117 151 183 213 256 319
#     4  11  24  43  59  77 101 138 191 247 288 323
#     4  12  20  30  48  80 116 146 174 215 260 326
#     4  11  20  35  54  75 105 148 184 225 276 323
#     4  11  22  37  56  79 104 140 186 220 282 332
#
# _framework density 17.749127999999999
#
# number of rings (size 3 to 8) (size 9 to 14) (size 15 to 20)
#    0.000    1.000    3.750    7.125    0.000    0.000 
#    0.000    0.000    0.000    0.000    0.000    3.500 
#    0.000    0.000    0.000    0.000    0.000    0.000 
#
# Total GULP energy -178613.132555 kJ/mol
# GULP energy per Si atom -5581.660392 kJ/mol
# Density = 1.770873 g / cm^3
# Si number density = 17.749128 Si / 1000 Ang^3
#
#
#
# Elastic Constant Matrix: (Units=GPa)
#
#
# Indices 1 2 3 4 5 6 
#
# 1 49.1586 29.3205 15.7820 0.0000 -9.8226 0.0000
# 2 29.3205 134.3436 43.7821 0.0000 -3.4580 0.0000
# 3 15.7820 43.7821 64.3768 0.0000 5.2263 0.0000
# 4 0.0000 0.0000 0.0000 20.7207 0.0000 -13.5034
# 5 -9.8226 -3.4580 5.2263 0.0000 22.5151 0.0000
# 6 0.0000 0.0000 0.0000 -13.5034 0.0000 28.6302
#
#
#
# Elastic Compliance Matrix: (Units=1/GPa)
#
#
# Indices 1 2 3 4 5 6 
#
# 1 0.026673 -0.003926 -0.004856 0.000000 0.012161 0.000000
# 2 -0.003926 0.010349 -0.006182 0.000000 0.001312 0.000000
# 3 -0.004856 -0.006182 0.021584 0.000000 -0.008078 0.000000
# 4 0.000000 0.000000 0.000000 0.069678 0.000000 0.032863
# 5 0.012161 0.001312 -0.008078 0.000000 0.051797 0.000000
# 6 0.000000 0.000000 0.000000 0.032863 0.000000 0.050428
#
#
# Mechanical properties :
#
#
# Convention : Reuss Voigt Hill
#
# Bulk Modulus (GPa) = 34.87046 47.29426 41.08236
# Shear Modulus (GPa) = 18.51877 24.97283 21.74580
#
# Velocity S-wave (km/s) = 3.23362 3.75505 3.50405
# Velocity P-wave (km/s) = 5.79919 6.74569 6.29027
#
# Compressibility (1/GPa) = 0.02867757
#
# Stress axis : x y z
#
# Youngs Moduli (GPa) = 37.49146 96.62810 46.32964
#
# Poissons Ratio (x) = 0.37933 0.22499
# Poissons Ratio (y) = 0.14718 0.28643
# Poissons Ratio (z) = 0.18207 0.59739
#
# Static dielectric constant tensor:
#      x y z
#    x 1.609970 0.000000 -0.038770 
#    y 0.000000 1.657140 0.000000 
#    z -0.038770 0.000000 1.612060 
# 
# From -- ./inp_files/23562.got.cif
#   From: 2010.05.17/outbox.cif.g08.bks.cpg/sg13_12_cif.got.tgz:23562.got - 2010.06.03 16:44:36.
