data_PCOD9229270
_publ_section_title
;
Structure prediction by ZEFSAII (Michael W. Deem and Ramdas Pophale) SiO2 
 PCOD9229270
Probable space group: P 2/C
;
_chemical_formula_sum "Si O2"
_cell_formula_units_Z 24
_cell_length_a 9.087555
_cell_length_b 12.460488
_cell_length_c 11.107237
_cell_angle_alpha 90.000000
_cell_angle_beta 125.267394
_cell_angle_gamma 90.000000
_cell_volume 1026.895875
_symmetry_space_group_name_H-M "P 2/C"
_symmetry_group_IT_number 13
_symmetry_cell_setting 'monoclinic'
loop_
_space_group_symop_operation_xyz
x,y,z
-x,y,1/2-z
-x,-y,-z
x,-y,1/2+z
loop_
_atom_site_type_symbol
_atom_site_label
_atom_site_fract_x
_atom_site_fract_y
_atom_site_fract_z
Si Si1 0.236600 0.830291 0.562935
Si Si2 0.809614 0.364334 0.611076
Si Si3 0.683859 0.060026 0.911031
Si Si4 0.807564 0.399267 0.089440
Si Si5 0.712414 0.725800 0.317050
Si Si6 0.625773 0.800072 0.620953
O O1 0.143202 0.725371 0.465448
O O2 0.434420 0.808367 0.596507
O O3 0.236398 0.827225 0.706810
O O4 0.201568 0.953384 0.512103
O O5 0.728500 0.479793 0.539860
O O6 0.720936 0.307405 0.683438
O O7 0.000000 0.401078 0.750000
O O8 0.500000 0.029885 0.750000
O O9 0.775601 0.152685 0.874113
O O10 0.636476 0.117693 0.014766
O O11 0.674714 0.318269 0.097322
O O12 0.000000 0.388640 0.250000
O O13 0.812968 0.353097 0.956385
O O14 0.500000 0.725387 0.250000
#
# Coordination Sequence:
#
# PCOD9229270 Si02
#       6
#     4   4   4   4   4   4
#     4  11  22  36  63  97 125 159 211 264 304 380
#     4  11  26  42  64  91 130 172 213 262 320 376
#     4  10  19  38  64  92 127 165 202 257 325 375
#     4  10  24  43  66  88 128 173 211 262 324 382
#     4  10  23  42  67  94 127 171 211 264 323 378
#     4  10  22  37  64  98 120 162 211 262 310 377
#
# _framework density 23.371404999999999
#
# number of rings (size 3 to 8) (size 9 to 14) (size 15 to 20)
#    0.000    1.667    1.667    3.500    7.000    4.000 
#    0.000    4.167    0.000    0.000    0.000    0.000 
#    0.000    0.000    0.000    0.000    0.000    0.000 
#
# Total GULP energy -133967.327945 kJ/mol
# GULP energy per Si atom -5581.971998 kJ/mol
# Density = 2.331821 g / cm^3
# Si number density = 23.371405 Si / 1000 Ang^3
#
#
#
# Elastic Constant Matrix: (Units=GPa)
#
#
# Indices 1 2 3 4 5 6 
#
# 1 59.9210 33.4262 9.0290 0.0000 -21.0671 0.0000
# 2 33.4262 198.8364 50.4314 0.0000 -24.2209 0.0000
# 3 9.0290 50.4314 115.8842 0.0000 -25.4897 0.0000
# 4 0.0000 0.0000 0.0000 30.2833 0.0000 -0.1638
# 5 -21.0671 -24.2209 -25.4897 0.0000 31.2514 0.0000
# 6 0.0000 0.0000 0.0000 -0.1638 0.0000 17.0156
#
#
#
# Elastic Compliance Matrix: (Units=1/GPa)
#
#
# Indices 1 2 3 4 5 6 
#
# 1 0.023401 -0.002713 0.002882 0.000000 0.016023 0.000000
# 2 -0.002713 0.006191 -0.002230 0.000000 0.001151 0.000000
# 3 0.002882 -0.002230 0.011482 0.000000 0.009580 0.000000
# 4 0.000000 0.000000 0.000000 0.033023 0.000000 0.000318
# 5 0.016023 0.001151 0.009580 0.000000 0.051505 0.000000
# 6 0.000000 0.000000 0.000000 0.000318 0.000000 0.058773
#
#
# Mechanical properties :
#
#
# Convention : Reuss Voigt Hill
#
# Bulk Modulus (GPa) = 27.06185 62.26833 44.66509
# Shear Modulus (GPa) = 24.89851 34.49373 29.69612
#
# Velocity S-wave (km/s) = 3.26750 3.84591 3.56844
# Velocity P-wave (km/s) = 5.08326 6.81338 6.01089
#
# Compressibility (1/GPa) = 0.03695238
#
# Stress axis : x y z
#
# Youngs Moduli (GPa) = 42.73288 161.52305 87.09048
#
# Poissons Ratio (x) = 0.43822 -0.25097
# Poissons Ratio (y) = 0.11594 0.19419
# Poissons Ratio (z) = -0.12315 0.36016
#
# Static dielectric constant tensor:
#      x y z
#    x 1.907790 0.000000 0.068180 
#    y 0.000000 1.931740 0.000000 
#    z 0.068180 0.000000 1.911960 
# 
# From -- ./inp_files/33928.got.cif
#   From: 2010.05.17/outbox.cif.g08.bks.cpg/sg13_17_cif.got.tgz:33928.got - 2010.06.03 16:44:36.
