data_PCOD9229815
_publ_section_title
;
Structure prediction by ZEFSAII (Michael W. Deem and Ramdas Pophale) SiO2 
 PCOD9229815
Probable space group: P 2/C
;
_chemical_formula_sum "Si O2"
_cell_formula_units_Z 24
_cell_length_a 10.835183
_cell_length_b 15.381341
_cell_length_c 15.406623
_cell_angle_alpha 90.000000
_cell_angle_beta 156.058146
_cell_angle_gamma 90.000000
_cell_volume 1041.981328
_symmetry_space_group_name_H-M "P 2/C"
_symmetry_group_IT_number 13
_symmetry_cell_setting 'monoclinic'
loop_
_space_group_symop_operation_xyz
x,y,z
-x,y,1/2-z
-x,-y,-z
x,-y,1/2+z
loop_
_atom_site_type_symbol
_atom_site_label
_atom_site_fract_x
_atom_site_fract_y
_atom_site_fract_z
Si Si1 0.120487 0.213550 0.186758
Si Si2 0.705181 0.384699 0.301008
Si Si3 0.551702 0.240252 0.923236
Si Si4 0.845172 0.093762 0.786529
Si Si5 0.612282 0.570200 0.222342
Si Si6 0.473131 0.063532 0.107709
O O1 0.226188 0.305043 0.216458
O O2 0.273276 0.207572 0.379427
O O3 0.266206 0.136851 0.224867
O O4 0.762563 0.214897 0.977092
O O5 0.500000 0.358260 0.250000
O O6 0.563005 0.470221 0.162752
O O7 0.028239 0.413609 0.547837
O O8 0.231303 0.190335 0.726988
O O9 0.531287 0.344808 0.913194
O O10 0.699201 0.077896 0.596285
O O11 0.649354 0.027616 0.719140
O O12 0.200748 0.072875 0.001617
O O13 0.500000 0.571888 0.250000
#
# Coordination Sequence:
#
# PCOD9229815 Si02
#       6
#     4   4   4   4   4   4
#     4  10  20  35  54  84 111 141 180 228 272 314
#     4  10  22  37  58  79 107 144 185 223 269 328
#     4  10  20  34  57  81 111 142 181 227 271 314
#     4   9  17  30  50  78 108 145 177 219 267 320
#     4  10  20  39  58  78 105 148 187 218 267 331
#     4   9  17  30  50  77 111 141 180 218 266 321
#
# _framework density 23.033041000000001
#
# number of rings (size 3 to 8) (size 9 to 14) (size 15 to 20)
#    0.000    2.333    1.667    1.000    2.333    4.667 
#    0.000    0.000    0.000    2.000    0.000    0.000 
#    0.000    0.000    0.000    0.000    0.000    0.000 
#
# Total GULP energy -134047.982860 kJ/mol
# GULP energy per Si atom -5585.332619 kJ/mol
# Density = 2.298062 g / cm^3
# Si number density = 23.033041 Si / 1000 Ang^3
#
#
#
# Elastic Constant Matrix: (Units=GPa)
#
#
# Indices 1 2 3 4 5 6 
#
# 1 90.9299 34.7266 43.2978 0.0000 38.2416 0.0000
# 2 34.7266 119.1127 8.7877 0.0000 24.3024 0.0000
# 3 43.2978 8.7877 102.7650 0.0000 37.4338 0.0000
# 4 0.0000 0.0000 0.0000 35.5707 0.0000 2.1024
# 5 38.2416 24.3024 37.4338 0.0000 47.6422 0.0000
# 6 0.0000 0.0000 0.0000 2.1024 0.0000 29.4577
#
#
#
# Elastic Compliance Matrix: (Units=1/GPa)
#
#
# Indices 1 2 3 4 5 6 
#
# 1 0.018159 -0.002947 -0.003694 0.000000 -0.010170 0.000000
# 2 -0.002947 0.009978 0.001934 0.000000 -0.004244 0.000000
# 3 -0.003694 0.001934 0.014572 0.000000 -0.009471 0.000000
# 4 0.000000 0.000000 0.000000 0.028232 0.000000 -0.002015
# 5 -0.010170 -0.004244 -0.009471 0.000000 0.038760 0.000000
# 6 0.000000 0.000000 0.000000 -0.002015 0.000000 0.034091
#
#
# Mechanical properties :
#
#
# Convention : Reuss Voigt Hill
#
# Bulk Modulus (GPa) = 30.03395 54.04799 42.04097
# Shear Modulus (GPa) = 30.43152 37.60049 34.01601
#
# Velocity S-wave (km/s) = 3.63879 4.04475 3.84713
# Velocity P-wave (km/s) = 5.54276 6.73274 6.16652
#
# Compressibility (1/GPa) = 0.03329565
#
# Stress axis : x y z
#
# Youngs Moduli (GPa) = 55.06883 100.22314 68.62468
#
# Poissons Ratio (x) = 0.29532 0.25352
# Poissons Ratio (y) = 0.16227 -0.13274
# Poissons Ratio (z) = 0.20344 -0.19387
#
# Static dielectric constant tensor:
#      x y z
#    x 1.839170 0.000000 -0.048100 
#    y 0.000000 1.895060 0.000000 
#    z -0.048100 0.000000 1.894050 
# 
# From -- ./inp_files/12431.got.cif
#   From: 2010.05.17/outbox.cif.g08.bks.cpg/sg13_7_cif.got.tgz:12431.got - 2010.06.03 16:44:36.
