data_PCOD9229661
_publ_section_title
;
Structure prediction by ZEFSAII (Michael W. Deem and Ramdas Pophale) SiO2 
 PCOD9229661
Probable space group: P 2/C
;
_chemical_formula_sum "Si O2"
_cell_formula_units_Z 20
_cell_length_a 21.983201
_cell_length_b 7.913454
_cell_length_c 10.397007
_cell_angle_alpha 90.000000
_cell_angle_beta 145.253840
_cell_angle_gamma 90.000000
_cell_volume 1030.850719
_symmetry_space_group_name_H-M "P 2/C"
_symmetry_group_IT_number 13
_symmetry_cell_setting 'monoclinic'
loop_
_space_group_symop_operation_xyz
x,y,z
-x,y,1/2-z
-x,-y,-z
x,-y,1/2+z
loop_
_atom_site_type_symbol
_atom_site_label
_atom_site_fract_x
_atom_site_fract_y
_atom_site_fract_z
Si Si1 0.951444 0.287378 0.800166
Si Si2 0.504843 0.133904 0.119035
Si Si3 0.276541 0.664872 0.514775
Si Si4 0.075233 0.699430 0.765745
Si Si5 0.705556 0.363780 0.751479
O O1 0.831394 0.237737 0.631829
O O2 0.938393 0.493389 0.766272
O O3 0.000000 0.227903 0.750000
O O4 0.032582 0.241036 0.054744
O O5 0.500000 0.048480 0.250000
O O6 0.617996 0.224806 0.306913
O O7 0.406182 0.265084 0.940503
O O8 0.500000 0.000000 0.000000
O O9 0.298849 0.524877 0.662617
O O10 0.263635 0.596289 0.344595
O O11 0.000000 0.758841 0.750000
O O12 0.195898 0.739363 0.015235
#
# Coordination Sequence:
#
# PCOD9229661 Si02
#       5
#     4   4   4   4   4
#     4   9  17  27  46  77 112 140 168 209 260 316
#     4  10  23  42  57  75 105 143 183 224 268 318
#     4  10  20  34  55  83 112 137 176 223 263 313
#     4   9  15  27  46  75 111 139 166 207 264 313
#     4  10  20  33  56  84 110 138 176 221 265 313
#
# _framework density 19.401453
#
# number of rings (size 3 to 8) (size 9 to 14) (size 15 to 20)
#    0.000    2.400    2.000    0.600    8.400    1.600 
#    0.000    0.000    0.000    2.400    0.000    0.000 
#    0.000    0.000    0.000    0.000    0.000    0.000 
#
# Total GULP energy -111473.167934 kJ/mol
# GULP energy per Si atom -5573.658397 kJ/mol
# Density = 1.935729 g / cm^3
# Si number density = 19.401453 Si / 1000 Ang^3
#
#
#
# Elastic Constant Matrix: (Units=GPa)
#
#
# Indices 1 2 3 4 5 6 
#
# 1 171.9729 23.7076 91.4272 0.0000 -15.4588 0.0000
# 2 23.7076 10.6954 18.6537 0.0000 -11.9644 0.0000
# 3 91.4272 18.6537 152.8868 0.0000 -18.1463 0.0000
# 4 0.0000 0.0000 0.0000 4.0812 0.0000 -16.5985
# 5 -15.4588 -11.9644 -18.1463 0.0000 46.6195 0.0000
# 6 0.0000 0.0000 0.0000 -16.5985 0.0000 4.6086
#
#
#
# Elastic Compliance Matrix: (Units=1/GPa)
#
#
# Indices 1 2 3 4 5 6 
#
# 1 0.010459 -0.019219 -0.004281 0.000000 -0.003131 0.000000
# 2 -0.019219 0.194515 -0.007414 0.000000 0.040662 0.000000
# 3 -0.004281 -0.007414 0.010077 0.000000 0.000600 0.000000
# 4 0.000000 0.000000 0.000000 -0.017953 0.000000 -0.064661
# 5 -0.003131 0.040662 0.000600 0.000000 0.031081 0.000000
# 6 0.000000 0.000000 0.000000 -0.064661 0.000000 -0.015899
#
#
# Mechanical properties :
#
#
# Convention : Reuss Voigt Hill
#
# Bulk Modulus (GPa) = 6.52640 67.01465 36.77053
# Shear Modulus (GPa) = 15.37599 24.51295 19.94447
#
# Velocity S-wave (km/s) = 2.81822 3.55837 3.20970
# Velocity P-wave (km/s) = 3.73644 7.17626 5.72100
#
# Compressibility (1/GPa) = 0.15322387
#
# Stress axis : x y z
#
# Youngs Moduli (GPa) = 95.61204 5.14098 99.23853
#
# Poissons Ratio (x) = 0.09880 0.42486
# Poissons Ratio (y) = 1.83754 0.73572
# Poissons Ratio (z) = 0.40933 0.03811
#
# Static dielectric constant tensor:
#      x y z
#    x 1.695020 0.000000 -0.000540 
#    y 0.000000 1.663900 0.000000 
#    z -0.000540 0.000000 1.696880 
# 
# From -- ./inp_files/20825.got.cif
#   From: 2010.05.17/outbox.cif.g08.bks.cpg/sg13_11_cif.got.tgz:20825.got - 2010.06.03 16:44:36.
