data_PCOD9229539
_publ_section_title
;
Structure prediction by ZEFSAII (Michael W. Deem and Ramdas Pophale) SiO2 
 PCOD9229539
Probable space group: P 2/C
;
_chemical_formula_sum "Si O2"
_cell_formula_units_Z 16
_cell_length_a 7.661380
_cell_length_b 19.374399
_cell_length_c 5.263386
_cell_angle_alpha 90.000000
_cell_angle_beta 120.661794
_cell_angle_gamma 90.000000
_cell_volume 672.041552
_symmetry_space_group_name_H-M "P 2/C"
_symmetry_group_IT_number 13
_symmetry_cell_setting 'monoclinic'
loop_
_space_group_symop_operation_xyz
x,y,z
-x,y,1/2-z
-x,-y,-z
x,-y,1/2+z
loop_
_atom_site_type_symbol
_atom_site_label
_atom_site_fract_x
_atom_site_fract_y
_atom_site_fract_z
Si Si1 0.746862 0.033790 0.398248
Si Si2 0.360859 0.323596 0.398541
Si Si3 0.641102 0.828251 0.604694
Si Si4 0.226232 0.470758 0.193908
O O1 0.500000 0.028091 0.250000
O O2 0.779756 0.106866 0.281883
O O3 0.814462 0.022824 0.739347
O O4 0.500000 0.323225 0.250000
O O5 0.261758 0.247614 0.350963
O O6 0.225014 0.391142 0.270726
O O7 0.500000 0.331918 0.750000
O O8 0.500000 0.822767 0.750000
O O9 0.500000 0.841489 0.250000
O O10 0.317786 0.517629 0.484286
O O11 0.000000 0.500000 0.000000
#
# Coordination Sequence:
#
# PCOD9229539 Si02
#       4
#     4   4   4   4
#     4   9  14  20  32  50  75 112 152 181 211 257
#     4  10  20  32  48  70  95 124 158 196 238 282
#     4   9  16  25  36  55  84 115 149 187 224 263
#     4  10  21  36  52  70  93 122 153 195 242 286
#
# _framework density 23.808052
#
# number of rings (size 3 to 8) (size 9 to 14) (size 15 to 20)
#    0.000    2.500    0.000    5.250    0.000    3.000 
#    0.000    0.000    0.000    0.000    0.000    0.000 
#    0.000    0.000    0.000   27.000    0.000   41.000 
#
# Total GULP energy -89286.267841 kJ/mol
# GULP energy per Si atom -5580.391740 kJ/mol
# Density = 2.375386 g / cm^3
# Si number density = 23.808052 Si / 1000 Ang^3
#
#
#
# Elastic Constant Matrix: (Units=GPa)
#
#
# Indices 1 2 3 4 5 6 
#
# 1 61.3869 14.1892 28.1773 0.0000 -15.8826 0.0000
# 2 14.1892 237.8025 70.2026 0.0000 -5.4497 0.0000
# 3 28.1773 70.2026 186.5805 0.0000 -39.5555 0.0000
# 4 0.0000 0.0000 0.0000 42.0399 0.0000 -9.5230
# 5 -15.8826 -5.4497 -39.5555 0.0000 37.4799 0.0000
# 6 0.0000 0.0000 0.0000 -9.5230 0.0000 7.4943
#
#
#
# Elastic Compliance Matrix: (Units=1/GPa)
#
#
# Indices 1 2 3 4 5 6 
#
# 1 0.018679 -0.000610 -0.001201 0.000000 0.006560 0.000000
# 2 -0.000610 0.004820 -0.002097 0.000000 -0.001770 0.000000
# 3 -0.001201 -0.002097 0.007932 0.000000 0.007558 0.000000
# 4 0.000000 0.000000 0.000000 0.033401 0.000000 0.042443
# 5 0.006560 -0.001770 0.007558 0.000000 0.037179 0.000000
# 6 0.000000 0.000000 0.000000 0.042443 0.000000 0.187366
#
#
# Mechanical properties :
#
#
# Convention : Reuss Voigt Hill
#
# Bulk Modulus (GPa) = 42.34290 78.98977 60.66633
# Shear Modulus (GPa) = 16.38991 42.28286 29.33639
#
# Velocity S-wave (km/s) = 2.62662 4.21882 3.51409
# Velocity P-wave (km/s) = 5.19832 7.54858 6.48088
#
# Compressibility (1/GPa) = 0.02361671
#
# Stress axis : x y z
#
# Youngs Moduli (GPa) = 53.53480 207.46923 126.06888
#
# Poissons Ratio (x) = 0.12650 0.15140
# Poissons Ratio (y) = 0.03264 0.26435
# Poissons Ratio (z) = 0.06429 0.43503
#
# Static dielectric constant tensor:
#      x y z
#    x 1.878480 0.000000 0.003180 
#    y 0.000000 1.958980 0.000000 
#    z 0.003180 0.000000 1.934340 
# 
# From -- ./inp_files/1222.got.cif
#   From: 2010.05.17/outbox.cif.g08.bks.cpg/sg13_1_cif.got.tgz:1222.got - 2010.06.03 16:44:36.
