data_PCOD9229254
_publ_section_title
;
Structure prediction by ZEFSAII (Michael W. Deem and Ramdas Pophale) SiO2 
 PCOD9229254
Probable space group: P 2/C
;
_chemical_formula_sum "Si O2"
_cell_formula_units_Z 24
_cell_length_a 18.898703
_cell_length_b 7.329203
_cell_length_c 25.069300
_cell_angle_alpha 90.000000
_cell_angle_beta 19.557375
_cell_angle_gamma 90.000000
_cell_volume 1162.391351
_symmetry_space_group_name_H-M "P 2/C"
_symmetry_group_IT_number 13
_symmetry_cell_setting 'monoclinic'
loop_
_space_group_symop_operation_xyz
x,y,z
-x,y,1/2-z
-x,-y,-z
x,-y,1/2+z
loop_
_atom_site_type_symbol
_atom_site_label
_atom_site_fract_x
_atom_site_fract_y
_atom_site_fract_z
Si Si1 0.254424 0.560853 0.408094
Si Si2 0.143890 0.817430 0.014187
Si Si3 0.038148 0.716025 0.665447
Si Si4 0.793074 0.085450 0.619862
Si Si5 0.348829 0.054061 0.469079
Si Si6 0.732671 0.033067 0.856156
O O1 0.500000 0.578570 0.250000
O O2 0.193325 0.351746 0.441051
O O3 0.119687 0.604464 0.557261
O O4 0.206306 0.699783 0.393962
O O5 0.898751 0.850959 0.203182
O O6 0.281682 0.806839 0.970324
O O7 0.220681 0.997242 0.929145
O O8 0.000000 0.621242 0.750000
O O9 0.208462 0.874714 0.557071
O O10 0.835804 0.833251 0.791012
O O11 0.588859 0.013561 0.796148
O O12 0.000000 0.000000 0.500000
O O13 0.286202 0.121466 0.571904
O O14 0.500000 0.000000 0.000000
#
# Coordination Sequence:
#
# PCOD9229254 Si02
#       6
#     4   4   4   4   4   4
#     4  12  22  40  66  92 126 164 213 265 313 380
#     4  11  23  40  63  92 120 162 217 258 308 382
#     4   9  19  35  60  87 117 159 208 249 305 371
#     4  12  23  39  63  89 127 164 203 263 324 376
#     4  10  19  38  63  88 120 165 211 255 307 375
#     4  10  20  38  64  92 123 165 205 257 321 373
#
# _framework density 20.647089999999999
#
# number of rings (size 3 to 8) (size 9 to 14) (size 15 to 20)
#    0.000    1.333    5.000    4.000    0.000    2.000 
#    0.000    0.833    0.000    0.000    0.000    0.000 
#    0.000    0.000    0.000    0.000    0.000    0.000 
#
# Total GULP energy -133970.876899 kJ/mol
# GULP energy per Si atom -5582.119871 kJ/mol
# Density = 2.060010 g / cm^3
# Si number density = 20.647090 Si / 1000 Ang^3
#
#
#
# Elastic Constant Matrix: (Units=GPa)
#
#
# Indices 1 2 3 4 5 6 
#
# 1 31.1881 -2.8508 6.5738 0.0000 -7.4269 0.0000
# 2 -2.8508 58.1017 -1.4896 0.0000 -1.5515 0.0000
# 3 6.5738 -1.4896 97.3339 0.0000 -7.4755 0.0000
# 4 0.0000 0.0000 0.0000 15.0986 0.0000 8.7303
# 5 -7.4269 -1.5515 -7.4755 0.0000 40.9562 0.0000
# 6 0.0000 0.0000 0.0000 8.7303 0.0000 18.1209
#
#
#
# Elastic Compliance Matrix: (Units=1/GPa)
#
#
# Indices 1 2 3 4 5 6 
#
# 1 0.034015 0.001780 -0.001817 0.000000 0.005904 0.000000
# 2 0.001780 0.017331 0.000223 0.000000 0.001020 0.000000
# 3 -0.001817 0.000223 0.010523 0.000000 0.001600 0.000000
# 4 0.000000 0.000000 0.000000 0.091807 0.000000 -0.044231
# 5 0.005904 0.001020 0.001600 0.000000 0.025818 0.000000
# 6 0.000000 0.000000 0.000000 -0.044231 0.000000 0.076494
#
#
# Mechanical properties :
#
#
# Convention : Reuss Voigt Hill
#
# Bulk Modulus (GPa) = 16.06605 21.23228 18.64916
# Shear Modulus (GPa) = 18.09220 27.12782 22.61001
#
# Velocity S-wave (km/s) = 2.96338 3.62868 3.31277
# Velocity P-wave (km/s) = 4.41667 5.27847 4.86668
#
# Compressibility (1/GPa) = 0.06224307
#
# Stress axis : x y z
#
# Youngs Moduli (GPa) = 29.39868 57.69842 95.03096
#
# Poissons Ratio (x) = -0.10271 0.17264
# Poissons Ratio (y) = -0.05233 -0.02123
# Poissons Ratio (z) = 0.05341 -0.01289
#
# Static dielectric constant tensor:
#      x y z
#    x 1.784910 0.000000 0.019680 
#    y 0.000000 1.784680 0.000000 
#    z 0.019680 0.000000 1.752750 
# 
# From -- ./inp_files/87855.got.cif
#   From: 2010.05.17/outbox.cif.g08.bks.cpg/sg13_44_cif.got.tgz:87855.got - 2010.06.03 16:44:36.
