data_PCOD9229590
_publ_section_title
;
Structure prediction by ZEFSAII (Michael W. Deem and Ramdas Pophale) SiO2 
 PCOD9229590
Probable space group: P 2/C
;
_chemical_formula_sum "Si O2"
_cell_formula_units_Z 24
_cell_length_a 20.699730
_cell_length_b 7.997597
_cell_length_c 8.412930
_cell_angle_alpha 90.000000
_cell_angle_beta 124.873542
_cell_angle_gamma 90.000000
_cell_volume 1142.629916
_symmetry_space_group_name_H-M "P 2/C"
_symmetry_group_IT_number 13
_symmetry_cell_setting 'monoclinic'
loop_
_space_group_symop_operation_xyz
x,y,z
-x,y,1/2-z
-x,-y,-z
x,-y,1/2+z
loop_
_atom_site_type_symbol
_atom_site_label
_atom_site_fract_x
_atom_site_fract_y
_atom_site_fract_z
Si Si1 0.845452 0.870567 0.967867
Si Si2 0.500000 0.458075 0.250000
Si Si3 0.735534 0.916226 0.083251
Si Si4 0.026491 0.321912 0.974615
Si Si5 0.374887 0.092741 0.814399
Si Si6 0.000000 0.905836 0.750000
Si Si7 0.456949 0.255622 0.479897
O O1 0.793510 0.984821 0.780803
O O2 0.790482 0.817858 0.037333
O O3 0.881459 0.718657 0.918423
O O4 0.920005 0.983262 0.131429
O O5 0.453728 0.337236 0.302244
O O6 0.555335 0.586290 0.424122
O O7 0.673450 0.824401 0.110043
O O8 0.685102 0.048616 0.909577
O O9 0.000000 0.312598 0.750000
O O10 0.000144 0.196454 0.082065
O O11 0.000000 0.500000 0.000000
O O12 0.405131 0.909757 0.916432
O O13 0.452541 0.191997 0.873203
#
# Coordination Sequence:
#
# PCOD9229590 Si02
#       7
#     4   2   4   4   4   2   4
#     4  11  21  40  64  95 118 161 217 268 319 410
#     4  10  20  32  56  90 118 162 200 276 314 364
#     4  10  21  34  62  94 125 155 214 265 339 372
#     4  12  24  40  65  98 131 164 211 275 332 388
#     4  10  20  37  61  91 119 167 212 274 308 383
#     4  12  22  42  72  96 120 168 224 280 318 396
#     4  10  20  36  60  88 123 160 229 257 309 378
#
# _framework density 21.004173999999999
#
# number of rings (size 3 to 8) (size 9 to 14) (size 15 to 20)
#    0.000    1.333    3.333    3.500    0.000    2.667 
#    0.000    0.000    0.000   70.000    0.000    0.000 
#    0.000    0.000    0.000    0.000    0.000    0.000 
#
# Total GULP energy -133740.178103 kJ/mol
# GULP energy per Si atom -5572.507421 kJ/mol
# Density = 2.095637 g / cm^3
# Si number density = 21.004174 Si / 1000 Ang^3
#
#
#
# Elastic Constant Matrix: (Units=GPa)
#
#
# Indices 1 2 3 4 5 6 
#
# 1 122.9516 33.2645 29.4484 0.0000 -15.0831 0.0000
# 2 33.2645 69.6877 13.1483 0.0000 2.6344 0.0000
# 3 29.4484 13.1483 106.6378 0.0000 3.0628 0.0000
# 4 0.0000 0.0000 0.0000 -8.4969 0.0000 22.0268
# 5 -15.0831 2.6344 3.0628 0.0000 40.0122 0.0000
# 6 0.0000 0.0000 0.0000 22.0268 0.0000 -7.8279
#
#
#
# Elastic Compliance Matrix: (Units=1/GPa)
#
#
# Indices 1 2 3 4 5 6 
#
# 1 0.010555 -0.004744 -0.002459 0.000000 0.004479 0.000000
# 2 -0.004744 0.016851 -0.000686 0.000000 -0.002845 0.000000
# 3 -0.002459 -0.000686 0.010189 0.000000 -0.001662 0.000000
# 4 0.000000 0.000000 0.000000 0.018697 0.000000 0.052612
# 5 0.004479 -0.002845 -0.001662 0.000000 0.026995 0.000000
# 6 0.000000 0.000000 0.000000 0.052612 0.000000 0.020295
#
#
# Mechanical properties :
#
#
# Convention : Reuss Voigt Hill
#
# Bulk Modulus (GPa) = 45.83317 50.11107 47.97212
# Shear Modulus (GPa) = 39.48440 19.63186 29.55813
#
# Velocity S-wave (km/s) = 4.34041 3.06055 3.75540
# Velocity P-wave (km/s) = 6.85472 6.03314 6.45701
#
# Compressibility (1/GPa) = 0.02181826
#
# Stress axis : x y z
#
# Youngs Moduli (GPa) = 94.74100 59.34326 98.14710
#
# Poissons Ratio (x) = 0.28151 0.24130
# Poissons Ratio (y) = 0.44943 0.06733
# Poissons Ratio (z) = 0.23293 0.04071
#
# Static dielectric constant tensor:
#      x y z
#    x 1.813320 0.000000 -0.046850 
#    y 0.000000 1.735340 0.000000 
#    z -0.046850 0.000000 1.830820 
# 
# From -- ./inp_files/22582.got.cif
#   From: 2010.05.17/outbox.cif.g08.bks.cpg/sg13_12_cif.got.tgz:22582.got - 2010.06.03 16:44:36.
