data_PCOD9229022
_publ_section_title
;
Structure prediction by ZEFSAII (Michael W. Deem and Ramdas Pophale) SiO2 
 PCOD9229022
Probable space group: P 2/C
;
_chemical_formula_sum "Si O2"
_cell_formula_units_Z 28
_cell_length_a 17.902095
_cell_length_b 14.070992
_cell_length_c 8.774418
_cell_angle_alpha 90.000000
_cell_angle_beta 45.254514
_cell_angle_gamma 90.000000
_cell_volume 1569.829672
_symmetry_space_group_name_H-M "P 2/C"
_symmetry_group_IT_number 13
_symmetry_cell_setting 'monoclinic'
loop_
_space_group_symop_operation_xyz
x,y,z
-x,y,1/2-z
-x,-y,-z
x,-y,1/2+z
loop_
_atom_site_type_symbol
_atom_site_label
_atom_site_fract_x
_atom_site_fract_y
_atom_site_fract_z
Si Si1 0.302206 0.280760 0.249272
Si Si2 0.883580 0.603754 0.983730
Si Si3 0.494321 0.605821 0.941855
Si Si4 0.883664 0.600843 0.349472
Si Si5 0.412688 0.090968 0.757762
Si Si6 0.575509 0.119257 0.263622
Si Si7 0.302721 0.720720 0.383545
O O1 0.399326 0.344268 0.160344
O O2 0.196320 0.319670 0.477030
O O3 0.337195 0.179063 0.271645
O O4 0.296780 0.293431 0.074748
O O5 0.886957 0.597541 0.161708
O O6 0.802555 0.683109 0.043959
O O7 0.848166 0.501880 0.965689
O O8 0.000000 0.620830 0.750000
O O9 0.500000 0.601957 0.750000
O O10 0.500000 0.500000 0.000000
O O11 0.397752 0.664585 0.159718
O O12 0.000000 0.616687 0.250000
O O13 0.500000 0.131533 0.750000
O O14 0.482576 0.090138 0.508753
O O15 0.322556 0.166076 0.851110
O O16 0.381692 0.984199 0.852522
O O17 0.500000 0.173264 0.250000
#
# Coordination Sequence:
#
# PCOD9229022 Si02
#       7
#     4   4   4   4   4   4   4
#     4  12  22  37  56  85 116 153 187 237 284 342
#     4  11  23  41  62  85 111 151 194 241 284 340
#     4  12  24  37  52  79 114 151 186 230 284 344
#     4  11  23  41  62  85 113 149 195 239 285 338
#     4  10  19  37  56  85 117 158 190 235 282 343
#     4  10  21  34  58  84 120 152 196 234 284 339
#     4  12  22  37  58  83 117 151 190 233 286 341
#
# _framework density 17.836331000000001
#
# number of rings (size 3 to 8) (size 9 to 14) (size 15 to 20)
#    0.000    0.857    2.857    6.857    2.000    0.000 
#    0.000    0.000    0.000    0.857    0.000    4.000 
#    0.000    0.000    0.000    0.000    0.000    0.000 
#
# Total GULP energy -156038.943125 kJ/mol
# GULP energy per Si atom -5572.819397 kJ/mol
# Density = 1.779573 g / cm^3
# Si number density = 17.836331 Si / 1000 Ang^3
#
#
#
# Elastic Constant Matrix: (Units=GPa)
#
#
# Indices 1 2 3 4 5 6 
#
# 1 126.0486 53.6168 47.9455 0.0000 21.0903 0.0000
# 2 53.6168 114.3114 39.5366 0.0000 -6.0833 0.0000
# 3 47.9455 39.5366 95.6640 0.0000 21.6353 0.0000
# 4 0.0000 0.0000 0.0000 17.7043 0.0000 -3.4387
# 5 21.0903 -6.0833 21.6353 0.0000 37.6092 0.0000
# 6 0.0000 0.0000 0.0000 -3.4387 0.0000 36.0260
#
#
#
# Elastic Compliance Matrix: (Units=1/GPa)
#
#
# Indices 1 2 3 4 5 6 
#
# 1 0.012117 -0.005123 -0.002565 0.000000 -0.006148 0.000000
# 2 -0.005123 0.013147 -0.004594 0.000000 0.007642 0.000000
# 3 -0.002565 -0.004594 0.015496 0.000000 -0.008219 0.000000
# 4 0.000000 0.000000 0.000000 0.057550 0.000000 0.005493
# 5 -0.006148 0.007642 -0.008219 0.000000 0.036001 0.000000
# 6 0.000000 0.000000 0.000000 0.005493 0.000000 0.028282
#
#
# Mechanical properties :
#
#
# Convention : Reuss Voigt Hill
#
# Bulk Modulus (GPa) = 61.74638 68.69129 65.21884
# Shear Modulus (GPa) = 25.96630 31.26292 28.61461
#
# Velocity S-wave (km/s) = 3.81965 4.19115 4.00970
# Velocity P-wave (km/s) = 7.35842 7.87506 7.62112
#
# Compressibility (1/GPa) = 0.01619528
#
# Stress axis : x y z
#
# Youngs Moduli (GPa) = 82.52751 76.06443 64.53169
#
# Poissons Ratio (x) = 0.38971 0.16553
# Poissons Ratio (y) = 0.42283 0.29645
# Poissons Ratio (z) = 0.21169 0.34944
#
# Static dielectric constant tensor:
#      x y z
#    x 1.721650 0.000000 0.090200 
#    y 0.000000 1.756310 0.000000 
#    z 0.090200 0.000000 1.656870 
# 
# From -- ./inp_files/21953.got.cif
#   From: 2010.05.17/outbox.cif.g08.bks.cpg/sg13_11_cif.got.tgz:21953.got - 2010.06.03 16:44:36.
