data_PCOD9229839
_publ_section_title
;
Structure prediction by ZEFSAII (Michael W. Deem and Ramdas Pophale) SiO2 
 PCOD9229839
Probable space group: P 2/C
;
_chemical_formula_sum "Si O2"
_cell_formula_units_Z 26
_cell_length_a 8.451609
_cell_length_b 23.361606
_cell_length_c 8.006286
_cell_angle_alpha 90.000000
_cell_angle_beta 116.789834
_cell_angle_gamma 90.000000
_cell_volume 1411.113966
_symmetry_space_group_name_H-M "P 2/C"
_symmetry_group_IT_number 13
_symmetry_cell_setting 'monoclinic'
loop_
_space_group_symop_operation_xyz
x,y,z
-x,y,1/2-z
-x,-y,-z
x,-y,1/2+z
loop_
_atom_site_type_symbol
_atom_site_label
_atom_site_fract_x
_atom_site_fract_y
_atom_site_fract_z
Si Si1 0.097995 0.222353 0.619607
Si Si2 0.500000 0.816039 0.250000
Si Si3 0.703566 0.430702 0.306211
Si Si4 0.646917 0.083524 0.030208
Si Si5 0.500000 0.993847 0.750000
Si Si6 0.298535 0.558270 0.090581
Si Si7 0.000000 0.853845 0.750000
Si Si8 0.988308 0.650828 0.540158
O O1 0.315221 0.215848 0.712515
O O2 0.027081 0.183971 0.430384
O O3 0.000000 0.207121 0.750000
O O4 0.045645 0.287485 0.552686
O O5 0.547105 0.859307 0.423110
O O6 0.500000 0.420085 0.250000
O O7 0.758084 0.493350 0.397240
O O8 0.830543 0.380374 0.426735
O O9 0.710038 0.435260 0.111005
O O10 0.547265 0.047788 0.122569
O O11 0.831912 0.105323 0.184696
O O12 0.653514 0.038641 0.878538
O O13 0.500000 0.564890 0.250000
O O14 0.167012 0.607345 0.089935
O O15 0.000000 0.655738 0.750000
#
# Coordination Sequence:
#
# PCOD9229839 Si02
#       8
#     4   2   4   4   2   4   2   4
#     4  11  24  42  64  89 119 167 216 255 313 360
#     4   9  22  42  60  90 126 160 211 260 300 368
#     4  10  20  36  55  83 114 148 190 239 311 378
#     4   9  19  36  60  89 127 163 195 257 298 360
#     4   9  18  34  60  94 122 160 207 232 314 366
#     4  10  20  34  58  81 114 150 184 244 311 365
#     4  10  22  42  60  88 132 160 210 260 292 364
#     4  10  22  40  56  80 118 150 197 262 298 360
#
# _framework density 18.425160000000002
#
# number of rings (size 3 to 8) (size 9 to 14) (size 15 to 20)
#    0.000    2.154    0.769    2.308    3.231    3.077 
#    2.769    0.000    0.000    0.000    0.000    0.000 
#    0.000    0.000    0.000    0.000    0.000    0.000 
#
# Total GULP energy -144849.294297 kJ/mol
# GULP energy per Si atom -5571.126704 kJ/mol
# Density = 1.838322 g / cm^3
# Si number density = 18.425160 Si / 1000 Ang^3
#
#
#
# Elastic Constant Matrix: (Units=GPa)
#
#
# Indices 1 2 3 4 5 6 
#
# 1 66.4258 45.7109 46.5156 0.0000 4.7903 0.0000
# 2 45.7109 106.8146 38.8809 0.0000 14.5249 0.0000
# 3 46.5156 38.8809 67.9379 0.0000 12.4771 0.0000
# 4 0.0000 0.0000 0.0000 46.0096 0.0000 -30.2417
# 5 4.7903 14.5249 12.4771 0.0000 30.8820 0.0000
# 6 0.0000 0.0000 0.0000 -30.2417 0.0000 40.7301
#
#
#
# Elastic Compliance Matrix: (Units=1/GPa)
#
#
# Indices 1 2 3 4 5 6 
#
# 1 0.034227 -0.008306 -0.019900 0.000000 0.006638 0.000000
# 2 -0.008306 0.014114 -0.001521 0.000000 -0.004736 0.000000
# 3 -0.019900 -0.001521 0.030802 0.000000 -0.008643 0.000000
# 4 0.000000 0.000000 0.000000 0.042453 0.000000 0.031521
# 5 0.006638 -0.004736 -0.008643 0.000000 0.037071 0.000000
# 6 0.000000 0.000000 0.000000 0.031521 0.000000 0.047956
#
#
# Mechanical properties :
#
#
# Convention : Reuss Voigt Hill
#
# Bulk Modulus (GPa) = 50.78873 55.93255 53.36064
# Shear Modulus (GPa) = 18.33931 30.86240 24.60086
#
# Velocity S-wave (km/s) = 3.15832 4.09713 3.65797
# Velocity P-wave (km/s) = 6.39724 7.26667 6.84577
#
# Compressibility (1/GPa) = 0.01968941
#
# Stress axis : x y z
#
# Youngs Moduli (GPa) = 29.21707 70.85095 32.46571
#
# Poissons Ratio (x) = 0.58850 0.64605
# Poissons Ratio (y) = 0.24268 0.04937
# Poissons Ratio (z) = 0.58141 0.10775
#
# Static dielectric constant tensor:
#      x y z
#    x 1.711060 0.000000 -0.006470 
#    y 0.000000 1.617530 0.000000 
#    z -0.006470 0.000000 1.674590 
# 
# From -- ./inp_files/13356.got.cif
#   From: 2010.05.17/outbox.cif.g08.bks.cpg/sg13_7_cif.got.tgz:13356.got - 2010.06.03 16:44:36.
