data_PCOD9229570
_publ_section_title
;
Structure prediction by ZEFSAII (Michael W. Deem and Ramdas Pophale) SiO2 
 PCOD9229570
Probable space group: P 2/C
;
_chemical_formula_sum "Si O2"
_cell_formula_units_Z 18
_cell_length_a 11.077984
_cell_length_b 10.533423
_cell_length_c 8.842165
_cell_angle_alpha 90.000000
_cell_angle_beta 109.712321
_cell_angle_gamma 90.000000
_cell_volume 971.319617
_symmetry_space_group_name_H-M "P 2/C"
_symmetry_group_IT_number 13
_symmetry_cell_setting 'monoclinic'
loop_
_space_group_symop_operation_xyz
x,y,z
-x,y,1/2-z
-x,-y,-z
x,-y,1/2+z
loop_
_atom_site_type_symbol
_atom_site_label
_atom_site_fract_x
_atom_site_fract_y
_atom_site_fract_z
Si Si1 0.098608 0.609477 0.494358
Si Si2 0.000000 0.958520 0.750000
Si Si3 0.726882 0.459296 0.167285
Si Si4 0.363676 0.322992 0.664046
Si Si5 0.897035 0.829399 0.416160
O O1 0.177684 0.551191 0.388254
O O2 0.192742 0.622631 0.677711
O O3 0.000000 0.500000 0.500000
O O4 0.014559 0.733508 0.429900
O O5 0.921113 0.875065 0.597898
O O6 0.910042 0.050293 0.812130
O O7 0.639932 0.553265 0.229015
O O8 0.655820 0.373233 0.014767
O O9 0.500000 0.258052 0.750000
O O10 0.238679 0.240536 0.651009
#
# Coordination Sequence:
#
# PCOD9229570 Si02
#       5
#     4   2   4   4   4
#     4  11  19  31  60  89 110 138 172 231 291 327
#     4  10  24  38  56  82 100 146 180 250 268 310
#     4  10  20  32  52  88 117 139 174 216 284 341
#     4  11  22  35  53  78 115 153 179 216 267 339
#     4  11  21  37  57  78 113 135 190 221 283 318
#
# _framework density 18.531490999999999
#
# number of rings (size 3 to 8) (size 9 to 14) (size 15 to 20)
#    0.000    1.333    4.444    4.000    0.000    0.000 
#    0.000    1.111    0.000    0.000    0.000    0.000 
#    0.000    0.000    0.000    0.000    0.000    0.000 
#
# Total GULP energy -100543.553165 kJ/mol
# GULP energy per Si atom -5585.752954 kJ/mol
# Density = 1.848931 g / cm^3
# Si number density = 18.531491 Si / 1000 Ang^3
#
#
#
# Elastic Constant Matrix: (Units=GPa)
#
#
# Indices 1 2 3 4 5 6 
#
# 1 68.8634 11.3805 46.8700 0.0000 19.8610 0.0000
# 2 11.3805 40.3352 15.5579 0.0000 11.5618 0.0000
# 3 46.8700 15.5579 104.5753 0.0000 0.9649 0.0000
# 4 0.0000 0.0000 0.0000 30.8722 0.0000 -6.2471
# 5 19.8610 11.5618 0.9649 0.0000 30.9667 0.0000
# 6 0.0000 0.0000 0.0000 -6.2471 0.0000 13.6152
#
#
#
# Elastic Compliance Matrix: (Units=1/GPa)
#
#
# Indices 1 2 3 4 5 6 
#
# 1 0.028218 0.002302 -0.012818 0.000000 -0.018558 0.000000
# 2 0.002302 0.029766 -0.005345 0.000000 -0.012423 0.000000
# 3 -0.012818 -0.005345 0.016013 0.000000 0.009718 0.000000
# 4 0.000000 0.000000 0.000000 0.035707 0.000000 0.016384
# 5 -0.018558 -0.012423 0.009718 0.000000 0.048531 0.000000
# 6 0.000000 0.000000 0.000000 0.016384 0.000000 0.080965
#
#
# Mechanical properties :
#
#
# Convention : Reuss Voigt Hill
#
# Bulk Modulus (GPa) = 23.65562 40.15450 31.90506
# Shear Modulus (GPa) = 17.54305 24.42187 20.98246
#
# Velocity S-wave (km/s) = 3.08012 3.63417 3.36856
# Velocity P-wave (km/s) = 5.04404 6.27095 5.69066
#
# Compressibility (1/GPa) = 0.04227326
#
# Stress axis : x y z
#
# Youngs Moduli (GPa) = 35.43861 33.59593 62.44869
#
# Poissons Ratio (x) = -0.07734 0.80049
# Poissons Ratio (y) = -0.08158 0.33382
# Poissons Ratio (z) = 0.45426 0.17959
#
# Static dielectric constant tensor:
#      x y z
#    x 1.662710 0.000000 -0.001780 
#    y 0.000000 1.627880 0.000000 
#    z -0.001780 0.000000 1.679700 
# 
# From -- ./inp_files/11245.got.cif
#   From: 2010.05.17/outbox.cif.g08.bks.cpg/sg13_6_cif.got.tgz:11245.got - 2010.06.03 16:44:36.
