data_PCOD9229997
_publ_section_title
;
Structure prediction by ZEFSAII (Michael W. Deem and Ramdas Pophale) SiO2 
 PCOD9229997
Probable space group: P 2/C
;
_chemical_formula_sum "Si O2"
_cell_formula_units_Z 30
_cell_length_a 11.259102
_cell_length_b 8.488854
_cell_length_c 28.954198
_cell_angle_alpha 90.000000
_cell_angle_beta 32.034665
_cell_angle_gamma 90.000000
_cell_volume 1467.892597
_symmetry_space_group_name_H-M "P 2/C"
_symmetry_group_IT_number 13
_symmetry_cell_setting 'monoclinic'
loop_
_space_group_symop_operation_xyz
x,y,z
-x,y,1/2-z
-x,-y,-z
x,-y,1/2+z
loop_
_atom_site_type_symbol
_atom_site_label
_atom_site_fract_x
_atom_site_fract_y
_atom_site_fract_z
Si Si1 0.561957 0.823844 0.466000
Si Si2 0.502609 0.315303 0.607314
Si Si3 0.100743 0.419987 0.866685
Si Si4 0.672967 0.853419 0.607673
Si Si5 0.190815 0.205979 0.918530
Si Si6 0.500000 0.662954 0.750000
Si Si7 0.584347 0.645367 0.552313
Si Si8 0.953325 0.703657 0.215158
O O1 0.434660 0.765913 0.461835
O O2 0.520926 0.707371 0.522622
O O3 0.829011 0.807945 0.367875
O O4 0.500000 0.000000 0.500000
O O5 0.680879 0.321304 0.589263
O O6 0.443041 0.496084 0.615394
O O7 0.288129 0.218957 0.696759
O O8 0.191504 0.269130 0.865953
O O9 0.275779 0.557033 0.820202
O O10 0.088934 0.400968 0.815650
O O11 0.839235 0.424474 0.967163
O O12 0.536459 0.768379 0.692820
O O13 0.579985 0.791303 0.589288
O O14 0.934472 0.802707 0.519719
O O15 0.691968 0.038369 0.611745
O O16 0.000000 0.629761 0.250000
#
# Coordination Sequence:
#
# PCOD9229997 Si02
#       8
#     4   4   4   4   4   2   4   4
#     4  10  21  38  59  83 114 152 192 234 285 344
#     4  11  20  35  60  84 112 150 191 235 286 339
#     4  10  20  35  57  84 116 153 192 232 284 343
#     4  10  22  37  55  83 118 150 191 239 283 339
#     4  10  21  38  58  81 114 158 192 227 288 349
#     4  12  22  34  56  88 118 148 190 244 288 330
#     4  10  20  37  59  85 115 152 195 235 281 344
#     4   9  20  36  57  81 109 144 187 234 279 332
#
# _framework density 20.437462
#
# number of rings (size 3 to 8) (size 9 to 14) (size 15 to 20)
#    0.000    1.867    0.000    4.400    0.000    4.800 
#    0.000    1.333    0.000   20.000    0.000    0.000 
#    0.000    0.000    0.000    0.000    0.000    0.000 
#
# Total GULP energy -167208.165986 kJ/mol
# GULP energy per Si atom -5573.605533 kJ/mol
# Density = 2.039095 g / cm^3
# Si number density = 20.437462 Si / 1000 Ang^3
#
#
#
# Elastic Constant Matrix: (Units=GPa)
#
#
# Indices 1 2 3 4 5 6 
#
# 1 95.0064 9.3352 26.4745 0.0000 15.6322 0.0000
# 2 9.3352 63.8896 27.4943 0.0000 6.6922 0.0000
# 3 26.4745 27.4943 59.3309 0.0000 19.3606 0.0000
# 4 0.0000 0.0000 0.0000 18.1425 0.0000 -4.9958
# 5 15.6322 6.6922 19.3606 0.0000 30.8885 0.0000
# 6 0.0000 0.0000 0.0000 -4.9958 0.0000 22.4330
#
#
#
# Elastic Compliance Matrix: (Units=1/GPa)
#
#
# Indices 1 2 3 4 5 6 
#
# 1 0.012330 0.000553 -0.004630 0.000000 -0.003458 0.000000
# 2 0.000553 0.019657 -0.009900 0.000000 0.001666 0.000000
# 3 -0.004630 -0.009900 0.027711 0.000000 -0.012881 0.000000
# 4 0.000000 0.000000 0.000000 0.058720 0.000000 0.013077
# 5 -0.003458 0.001666 -0.012881 0.000000 0.041837 0.000000
# 6 0.000000 0.000000 0.000000 0.013077 0.000000 0.047489
#
#
# Mechanical properties :
#
#
# Convention : Reuss Voigt Hill
#
# Bulk Modulus (GPa) = 31.50029 38.31500 34.90764
# Shear Modulus (GPa) = 20.30203 24.62098 22.46151
#
# Velocity S-wave (km/s) = 3.15520 3.47464 3.31877
# Velocity P-wave (km/s) = 5.35912 5.90641 5.63941
#
# Compressibility (1/GPa) = 0.03174574
#
# Stress axis : x y z
#
# Youngs Moduli (GPa) = 81.10015 50.87277 36.08613
#
# Poissons Ratio (x) = -0.02813 0.16708
# Poissons Ratio (y) = -0.04485 0.35724
# Poissons Ratio (z) = 0.37549 0.50362
#
# Static dielectric constant tensor:
#      x y z
#    x 1.742180 0.000000 -0.011910 
#    y 0.000000 1.707440 0.000000 
#    z -0.011910 0.000000 1.786120 
# 
# From -- ./inp_files/96609.got.cif
#   From: 2010.05.17/outbox.cif.g08.bks.cpg/sg13_49_cif.got.tgz:96609.got - 2010.06.03 16:44:36.
