data_PCOD9229893
_publ_section_title
;
Structure prediction by ZEFSAII (Michael W. Deem and Ramdas Pophale) SiO2 
 PCOD9229893
Probable space group: P 2/C
;
_chemical_formula_sum "Si O2"
_cell_formula_units_Z 26
_cell_length_a 9.290321
_cell_length_b 8.510366
_cell_length_c 18.510197
_cell_angle_alpha 90.000000
_cell_angle_beta 134.853073
_cell_angle_gamma 90.000000
_cell_volume 1037.494582
_symmetry_space_group_name_H-M "P 2/C"
_symmetry_group_IT_number 13
_symmetry_cell_setting 'monoclinic'
loop_
_space_group_symop_operation_xyz
x,y,z
-x,y,1/2-z
-x,-y,-z
x,-y,1/2+z
loop_
_atom_site_type_symbol
_atom_site_label
_atom_site_fract_x
_atom_site_fract_y
_atom_site_fract_z
Si Si1 0.270802 0.198849 0.153918
Si Si2 0.421498 0.083238 0.635682
Si Si3 0.289790 0.617256 0.239760
Si Si4 0.000000 0.766445 0.250000
Si Si5 0.140522 0.731322 0.924743
Si Si6 0.315066 0.956717 0.883081
Si Si7 0.693957 0.477351 0.416255
O O1 0.500000 0.252688 0.250000
O O2 0.223246 0.301940 0.065249
O O3 0.097210 0.242777 0.148400
O O4 0.288068 0.014605 0.144667
O O5 0.572357 0.224532 0.708761
O O6 0.259891 0.153369 0.522524
O O7 0.574986 0.955980 0.654961
O O8 0.098757 0.659314 0.222184
O O9 0.449763 0.497492 0.334026
O O10 0.252793 0.562123 0.143502
O O11 0.168636 0.891943 0.336167
O O12 0.212372 0.796698 0.873299
O O13 0.209398 0.564250 0.980904
O O14 0.500000 0.000000 0.000000
#
# Coordination Sequence:
#
# PCOD9229893 Si02
#       7
#     4   4   4   2   4   4   4
#     4  12  24  36  58  91 122 153 201 249 292 349
#     4   9  21  38  63  89 120 152 198 247 300 352
#     4   9  19  38  60  85 113 160 195 246 293 357
#     4  10  20  34  64  86 120 156 202 254 304 352
#     4  10  22  38  63  86 119 162 196 243 301 356
#     4   9  20  39  58  93 121 150 199 252 301 355
#     4  10  21  41  57  83 126 158 201 240 297 354
#
# _framework density 25.060373999999999
#
# number of rings (size 3 to 8) (size 9 to 14) (size 15 to 20)
#    0.000    2.154    1.538    1.846    8.615    2.462 
#    0.000    2.308    0.000    0.000    0.000    0.000 
#    0.000    0.000    0.000    0.000    0.000    0.000 
#
# Total GULP energy -145177.272854 kJ/mol
# GULP energy per Si atom -5583.741264 kJ/mol
# Density = 2.500334 g / cm^3
# Si number density = 25.060374 Si / 1000 Ang^3
#
#
#
# Elastic Constant Matrix: (Units=GPa)
#
#
# Indices 1 2 3 4 5 6 
#
# 1 117.8929 6.4986 31.0489 0.0000 14.6617 0.0000
# 2 6.4986 65.0788 17.1500 0.0000 3.0403 0.0000
# 3 31.0489 17.1500 77.7247 0.0000 15.1761 0.0000
# 4 0.0000 0.0000 0.0000 28.2057 0.0000 -4.2825
# 5 14.6617 3.0403 15.1761 0.0000 34.9557 0.0000
# 6 0.0000 0.0000 0.0000 -4.2825 0.0000 41.6789
#
#
#
# Elastic Compliance Matrix: (Units=1/GPa)
#
#
# Indices 1 2 3 4 5 6 
#
# 1 0.009692 0.000043 -0.003373 0.000000 -0.002605 0.000000
# 2 0.000043 0.016316 -0.003646 0.000000 0.000146 0.000000
# 3 -0.003373 -0.003646 0.016039 0.000000 -0.005232 0.000000
# 4 0.000000 0.000000 0.000000 0.036016 0.000000 0.003701
# 5 -0.002605 0.000146 -0.005232 0.000000 0.031959 0.000000
# 6 0.000000 0.000000 0.000000 0.003701 0.000000 0.024373
#
#
# Mechanical properties :
#
#
# Convention : Reuss Voigt Hill
#
# Bulk Modulus (GPa) = 35.59248 41.12128 38.35688
# Shear Modulus (GPa) = 31.70361 34.70131 33.20246
#
# Velocity S-wave (km/s) = 3.56067 3.72520 3.64386
# Velocity P-wave (km/s) = 5.58014 5.91163 5.74828
#
# Compressibility (1/GPa) = 0.02809582
#
# Stress axis : x y z
#
# Youngs Moduli (GPa) = 103.17707 61.29097 62.34773
#
# Poissons Ratio (x) = -0.00261 0.21027
# Poissons Ratio (y) = -0.00440 0.22729
# Poissons Ratio (z) = 0.34797 0.22344
#
# Static dielectric constant tensor:
#      x y z
#    x 2.022320 0.000000 -0.067910 
#    y 0.000000 2.023420 0.000000 
#    z -0.067910 0.000000 2.041460 
# 
# From -- ./inp_files/75999.got.cif
#   From: 2010.05.17/outbox.cif.g08.bks.cpg/sg13_38_cif.got.tgz:75999.got - 2010.06.03 16:44:36.
