data_PCOD9229802
_publ_section_title
;
Structure prediction by ZEFSAII (Michael W. Deem and Ramdas Pophale) SiO2 
 PCOD9229802
Probable space group: P 2/C
;
_chemical_formula_sum "Si O2"
_cell_formula_units_Z 30
_cell_length_a 12.559743
_cell_length_b 10.085221
_cell_length_c 14.085522
_cell_angle_alpha 90.000000
_cell_angle_beta 123.199959
_cell_angle_gamma 90.000000
_cell_volume 1492.940405
_symmetry_space_group_name_H-M "P 2/C"
_symmetry_group_IT_number 13
_symmetry_cell_setting 'monoclinic'
loop_
_space_group_symop_operation_xyz
x,y,z
-x,y,1/2-z
-x,-y,-z
x,-y,1/2+z
loop_
_atom_site_type_symbol
_atom_site_label
_atom_site_fract_x
_atom_site_fract_y
_atom_site_fract_z
Si Si1 0.433166 0.315384 0.618972
Si Si2 0.817046 0.609676 0.411491
Si Si3 0.619903 0.075447 0.014939
Si Si4 0.274289 0.180659 0.002703
Si Si5 0.700672 0.685688 0.690363
Si Si6 0.500000 0.737665 0.750000
Si Si7 0.681249 0.608868 0.142646
Si Si8 0.905741 0.694808 0.938623
O O1 0.500000 0.347974 0.750000
O O2 0.291615 0.368418 0.563859
O O3 0.422681 0.158036 0.597845
O O4 0.530771 0.371271 0.588920
O O5 0.757760 0.640920 0.278158
O O6 0.860558 0.456707 0.436958
O O7 0.942862 0.695613 0.490559
O O8 0.661178 0.192006 0.106122
O O9 0.723183 0.964052 0.042474
O O10 0.500000 0.000000 0.000000
O O11 0.284873 0.293483 0.926805
O O12 0.399653 0.187777 0.132423
O O13 0.154249 0.213396 0.009595
O O14 0.594406 0.663781 0.722211
O O15 0.711122 0.545676 0.642698
O O16 0.832616 0.723463 0.805354
#
# Coordination Sequence:
#
# PCOD9229802 Si02
#       8
#     4   4   4   4   4   2   4   4
#     4  10  22  35  61  89 121 150 200 253 306 351
#     4   9  20  41  64  92 118 156 210 252 304 364
#     4  12  23  38  55  90 126 161 196 251 305 370
#     4  11  23  38  61  90 123 160 201 246 308 363
#     4  10  22  36  62  89 126 155 205 252 311 363
#     4  10  20  34  56  86 120 156 196 242 300 356
#     4  10  21  37  63  98 120 154 196 265 310 364
#     4   9  21  41  65  87 120 164 207 251 303 368
#
# _framework density 20.094573
#
# number of rings (size 3 to 8) (size 9 to 14) (size 15 to 20)
#    0.000    1.867    2.667    0.000    9.333    1.600 
#    0.000    1.333    2.933    0.000    0.000    0.000 
#    0.000    0.000    0.000    0.000    0.000    0.000 
#
# Total GULP energy -167444.332794 kJ/mol
# GULP energy per Si atom -5581.477760 kJ/mol
# Density = 2.004884 g / cm^3
# Si number density = 20.094573 Si / 1000 Ang^3
#
#
#
# Elastic Constant Matrix: (Units=GPa)
#
#
# Indices 1 2 3 4 5 6 
#
# 1 78.0480 22.9978 47.9365 0.0000 18.0358 0.0000
# 2 22.9978 97.2230 36.3440 0.0000 -7.5430 0.0000
# 3 47.9365 36.3440 92.1650 0.0000 13.3520 0.0000
# 4 0.0000 0.0000 0.0000 21.8911 0.0000 -7.5443
# 5 18.0358 -7.5430 13.3520 0.0000 35.2287 0.0000
# 6 0.0000 0.0000 0.0000 -7.5443 0.0000 26.3444
#
#
#
# Elastic Compliance Matrix: (Units=1/GPa)
#
#
# Indices 1 2 3 4 5 6 
#
# 1 0.020608 -0.002210 -0.008729 0.000000 -0.007715 0.000000
# 2 -0.002210 0.013063 -0.004837 0.000000 0.005762 0.000000
# 3 -0.008729 -0.004837 0.017776 0.000000 -0.003304 0.000000
# 4 0.000000 0.000000 0.000000 0.050683 0.000000 0.014514
# 5 -0.007715 0.005762 -0.003304 0.000000 0.034822 0.000000
# 6 0.000000 0.000000 0.000000 0.014514 0.000000 0.042115
#
#
# Mechanical properties :
#
#
# Convention : Reuss Voigt Hill
#
# Bulk Modulus (GPa) = 50.26197 53.55474 51.90836
# Shear Modulus (GPa) = 23.01474 27.37003 25.19239
#
# Velocity S-wave (km/s) = 3.38793 3.69461 3.54459
# Velocity P-wave (km/s) = 6.35383 6.70145 6.52995
#
# Compressibility (1/GPa) = 0.01989576
#
# Stress axis : x y z
#
# Youngs Moduli (GPa) = 48.52385 76.54938 56.25468
#
# Poissons Ratio (x) = 0.16919 0.49107
# Poissons Ratio (y) = 0.10725 0.27208
# Poissons Ratio (z) = 0.42359 0.37023
#
# Static dielectric constant tensor:
#      x y z
#    x 1.700560 0.000000 -0.016620 
#    y 0.000000 1.714170 0.000000 
#    z -0.016620 0.000000 1.783610 
# 
# From -- ./inp_files/51186.got.cif
#   From: 2010.05.17/outbox.cif.g08.bks.cpg/sg13_26_cif.got.tgz:51186.got - 2010.06.03 16:44:36.
