data_PCOD9229021
_publ_section_title
;
Structure prediction by ZEFSAII (Michael W. Deem and Ramdas Pophale) SiO2 
 PCOD9229021
Probable space group: P 2/C
;
_chemical_formula_sum "Si O2"
_cell_formula_units_Z 30
_cell_length_a 11.735212
_cell_length_b 8.090172
_cell_length_c 14.141462
_cell_angle_alpha 90.000000
_cell_angle_beta 93.743265
_cell_angle_gamma 90.000000
_cell_volume 1339.724482
_symmetry_space_group_name_H-M "P 2/C"
_symmetry_group_IT_number 13
_symmetry_cell_setting 'monoclinic'
loop_
_space_group_symop_operation_xyz
x,y,z
-x,y,1/2-z
-x,-y,-z
x,-y,1/2+z
loop_
_atom_site_type_symbol
_atom_site_label
_atom_site_fract_x
_atom_site_fract_y
_atom_site_fract_z
Si Si1 0.482536 0.432817 0.141216
Si Si2 0.895753 0.963956 0.922869
Si Si3 0.904286 0.267134 0.808859
Si Si4 0.493686 0.965531 0.856777
Si Si5 0.000000 0.768181 0.750000
Si Si6 0.689611 0.439751 0.011988
Si Si7 0.885838 0.525656 0.142224
Si Si8 0.311384 0.948218 0.990253
O O1 0.500000 0.482822 0.250000
O O2 0.481757 0.232180 0.137221
O O3 0.367802 0.506978 0.089137
O O4 0.591427 0.482820 0.083528
O O5 0.935769 0.856595 0.835247
O O6 0.851738 0.135737 0.873672
O O7 0.787816 0.926573 0.983369
O O8 0.000000 0.000000 0.000000
O O9 0.834918 0.364895 0.726191
O O10 0.000000 0.172126 0.750000
O O11 0.987881 0.396290 0.866832
O O12 0.500000 0.019996 0.750000
O O13 0.370745 0.000181 0.895611
O O14 0.588605 0.047940 0.926789
O O15 0.091182 0.651805 0.809552
O O16 0.806395 0.526548 0.048179
O O17 0.716895 0.245239 0.022278
#
# Coordination Sequence:
#
# PCOD9229021 Si02
#       8
#     4   4   4   4   2   4   4   4
#     4   9  20  35  58  83 112 147 194 251 297 360
#     4  12  23  37  60  92 128 164 204 249 304 369
#     4   7  18  40  56  81 121 161 198 242 293 351
#     4   9  20  44  61  80 116 155 197 247 308 357
#     4  10  20  40  58  88 126 160 210 250 294 362
#     4  10  19  37  56  85 115 145 199 251 302 355
#     4   8  18  38  65  78 115 170 201 245 300 356
#     4  10  23  37  58  91 116 151 201 248 298 367
#
# _framework density 22.392665000000001
#
# number of rings (size 3 to 8) (size 9 to 14) (size 15 to 20)
#    0.800    1.867    0.667    0.800    0.000    6.933 
#    0.000   10.000    0.000    0.000    0.000    0.000 
#    0.000    0.000    0.000    0.000    0.000    0.000 
#
# Total GULP energy -167178.979864 kJ/mol
# GULP energy per Si atom -5572.632662 kJ/mol
# Density = 2.234170 g / cm^3
# Si number density = 22.392665 Si / 1000 Ang^3
#
#
#
# Elastic Constant Matrix: (Units=GPa)
#
#
# Indices 1 2 3 4 5 6 
#
# 1 29.4585 10.2601 27.7404 0.0000 -5.5796 0.0000
# 2 10.2601 42.8970 25.7695 0.0000 -3.0471 0.0000
# 3 27.7404 25.7695 127.1896 0.0000 -5.5217 0.0000
# 4 0.0000 0.0000 0.0000 -71.1897 0.0000 32.3440
# 5 -5.5796 -3.0471 -5.5217 0.0000 38.9594 0.0000
# 6 0.0000 0.0000 0.0000 32.3440 0.0000 -2.5451
#
#
#
# Elastic Compliance Matrix: (Units=1/GPa)
#
#
# Indices 1 2 3 4 5 6 
#
# 1 0.044656 -0.005254 -0.008467 0.000000 0.004784 0.000000
# 2 -0.005254 0.027228 -0.004338 0.000000 0.000762 0.000000
# 3 -0.008467 -0.004338 0.010586 0.000000 -0.000052 0.000000
# 4 0.000000 0.000000 0.000000 0.002942 0.000000 0.037394
# 5 0.004784 0.000762 -0.000052 0.000000 0.026405 0.000000
# 6 0.000000 0.000000 0.000000 0.037394 0.000000 0.082305
#
#
# Mechanical properties :
#
#
# Convention : Reuss Voigt Hill
#
# Bulk Modulus (GPa) = 21.57443 36.34279 28.95861
# Shear Modulus (GPa) = 20.35081 2.09660 11.22371
#
# Velocity S-wave (km/s) = 3.01793 0.96867 2.24123
# Velocity P-wave (km/s) = 4.66898 4.18522 4.43370
#
# Compressibility (1/GPa) = 0.04635118
#
# Stress axis : x y z
#
# Youngs Moduli (GPa) = 22.39360 36.72661 94.46813
#
# Poissons Ratio (x) = 0.19297 0.79988
# Poissons Ratio (y) = 0.11766 0.40976
# Poissons Ratio (z) = 0.18961 0.15930
#
# Static dielectric constant tensor:
#      x y z
#    x 1.789990 0.000000 -0.070470 
#    y 0.000000 1.873980 0.000000 
#    z -0.070470 0.000000 1.835420 
# 
# From -- ./inp_files/50046.got.cif
#   From: 2010.05.17/outbox.cif.g08.bks.cpg/sg13_26_cif.got.tgz:50046.got - 2010.06.03 16:44:36.
