data_PCOD9229925
_publ_section_title
;
Structure prediction by ZEFSAII (Michael W. Deem and Ramdas Pophale) SiO2 
 PCOD9229925
Probable space group: P 2/C
;
_chemical_formula_sum "Si O2"
_cell_formula_units_Z 30
_cell_length_a 20.190219
_cell_length_b 9.264309
_cell_length_c 7.015630
_cell_angle_alpha 90.000000
_cell_angle_beta 102.828532
_cell_angle_gamma 90.000000
_cell_volume 1279.507053
_symmetry_space_group_name_H-M "P 2/C"
_symmetry_group_IT_number 13
_symmetry_cell_setting 'monoclinic'
loop_
_space_group_symop_operation_xyz
x,y,z
-x,y,1/2-z
-x,-y,-z
x,-y,1/2+z
loop_
_atom_site_type_symbol
_atom_site_label
_atom_site_fract_x
_atom_site_fract_y
_atom_site_fract_z
Si Si1 0.427685 0.156323 0.272851
Si Si2 0.664427 0.057212 0.599826
Si Si3 0.675358 0.503162 0.573598
Si Si4 0.188036 0.359712 0.744473
Si Si5 0.571885 0.487158 0.247574
Si Si6 0.000000 0.616930 0.750000
Si Si7 0.730777 0.803897 0.493394
Si Si8 0.099745 0.611440 0.517592
O O1 0.500000 0.098552 0.250000
O O2 0.440026 0.322095 0.323246
O O3 0.397531 0.054854 0.414467
O O4 0.364372 0.153741 0.085807
O O5 0.677710 0.152048 0.792501
O O6 0.730047 0.955438 0.606051
O O7 0.739657 0.396746 0.615386
O O8 0.656889 0.511301 0.312792
O O9 0.591008 0.460992 0.517789
O O10 0.701550 0.670713 0.594206
O O11 0.203445 0.255381 0.576267
O O12 0.156930 0.512859 0.655910
O O13 0.136615 0.303072 0.872370
O O14 0.500000 0.563049 0.250000
O O15 0.050147 0.693717 0.632209
O O16 0.948713 0.510149 0.607121
#
# Coordination Sequence:
#
# PCOD9229925 Si02
#       8
#     4   4   4   4   4   2   4   4
#     4  10  20  35  54  72  95 128 178 229 284 356
#     4  10  22  38  53  71 101 141 179 234 287 322
#     4  12  21  37  53  79 106 143 178 237 291 339
#     4  11  19  33  57  84 112 147 185 224 272 334
#     4  11  23  36  52  75 106 135 183 233 302 356
#     4   8  16  30  48  80 138 158 170 196 244 336
#     4  11  22  38  54  76 106 143 185 229 278 330
#     4   9  17  30  52  87 122 160 171 205 261 325
#
# _framework density 23.446527
#
# number of rings (size 3 to 8) (size 9 to 14) (size 15 to 20)
#    0.000    1.600    4.000    1.600    0.000    0.000 
#    0.000    0.667    0.000    0.000    0.000    0.000 
#    0.000   53.333    0.000    0.000    0.000    0.000 
#
# Total GULP energy -167076.462877 kJ/mol
# GULP energy per Si atom -5569.215429 kJ/mol
# Density = 2.339316 g / cm^3
# Si number density = 23.446527 Si / 1000 Ang^3
#
#
#
# Elastic Constant Matrix: (Units=GPa)
#
#
# Indices 1 2 3 4 5 6 
#
# 1 164.5028 19.4148 43.1991 0.0000 -55.6888 0.0000
# 2 19.4148 69.9228 11.2944 0.0000 -18.9060 0.0000
# 3 43.1991 11.2944 95.3095 0.0000 -12.7236 0.0000
# 4 0.0000 0.0000 0.0000 31.4015 0.0000 -13.0587
# 5 -55.6888 -18.9060 -12.7236 0.0000 76.6577 0.0000
# 6 0.0000 0.0000 0.0000 -13.0587 0.0000 18.1024
#
#
#
# Elastic Compliance Matrix: (Units=1/GPa)
#
#
# Indices 1 2 3 4 5 6 
#
# 1 0.008964 -0.000376 -0.003233 0.000000 0.005882 0.000000
# 2 -0.000376 0.015509 -0.001220 0.000000 0.003349 0.000000
# 3 -0.003233 -0.001220 0.012015 0.000000 -0.000655 0.000000
# 4 0.000000 0.000000 0.000000 0.045493 0.000000 0.032818
# 5 0.005882 0.003349 -0.000655 0.000000 0.018036 0.000000
# 6 0.000000 0.000000 0.000000 0.032818 0.000000 0.078916
#
#
# Mechanical properties :
#
#
# Convention : Reuss Voigt Hill
#
# Bulk Modulus (GPa) = 37.27417 53.06128 45.16772
# Shear Modulus (GPa) = 25.31226 42.28744 33.79985
#
# Velocity S-wave (km/s) = 3.28925 4.25145 3.80092
# Velocity P-wave (km/s) = 5.50977 6.83957 6.21037
#
# Compressibility (1/GPa) = 0.02682823
#
# Stress axis : x y z
#
# Youngs Moduli (GPa) = 111.56175 64.48045 83.23235
#
# Poissons Ratio (x) = 0.02425 0.26908
# Poissons Ratio (y) = 0.04196 0.10156
# Poissons Ratio (z) = 0.36067 0.07868
#
# Static dielectric constant tensor:
#      x y z
#    x 1.962750 0.000000 -0.191160 
#    y 0.000000 1.824330 0.000000 
#    z -0.191160 0.000000 2.463950 
# 
# From -- ./inp_files/22775.got.cif
#   From: 2010.05.17/outbox.cif.g08.bks.cpg/sg13_12_cif.got.tgz:22775.got - 2010.06.03 16:44:36.
