data_PCOD9229960
_publ_section_title
;
Structure prediction by ZEFSAII (Michael W. Deem and Ramdas Pophale) SiO2 
 PCOD9229960
Probable space group: P 2/C
;
_chemical_formula_sum "Si O2"
_cell_formula_units_Z 30
_cell_length_a 29.284294
_cell_length_b 11.498149
_cell_length_c 23.151390
_cell_angle_alpha 90.000000
_cell_angle_beta 11.065939
_cell_angle_gamma 90.000000
_cell_volume 1496.242658
_symmetry_space_group_name_H-M "P 2/C"
_symmetry_group_IT_number 13
_symmetry_cell_setting 'monoclinic'
loop_
_space_group_symop_operation_xyz
x,y,z
-x,y,1/2-z
-x,-y,-z
x,-y,1/2+z
loop_
_atom_site_type_symbol
_atom_site_label
_atom_site_fract_x
_atom_site_fract_y
_atom_site_fract_z
Si Si1 0.643936 0.755066 0.121481
Si Si2 0.696536 0.771428 0.854412
Si Si3 0.348569 0.397021 0.715053
Si Si4 0.173741 0.754924 0.322599
Si Si5 0.444914 0.145534 0.383686
Si Si6 0.881808 0.023023 0.339419
Si Si7 0.940633 0.983798 0.492064
Si Si8 0.000000 0.596718 0.750000
O O1 0.500000 0.693403 0.250000
O O2 0.461656 0.802147 0.394466
O O3 0.775165 0.869314 0.935980
O O4 0.823090 0.672847 0.931196
O O5 0.771043 0.889074 0.730762
O O6 0.937680 0.714507 0.580727
O O7 0.534003 0.689888 0.016484
O O8 0.500000 0.500000 0.500000
O O9 0.227090 0.324326 0.812686
O O10 0.171930 0.449407 0.984420
O O11 0.119409 0.887704 0.410939
O O12 0.378758 0.767866 0.018493
O O13 0.500000 0.193951 0.250000
O O14 0.210497 0.062777 0.669039
O O15 0.677959 0.068746 0.107186
O O16 0.000000 0.071136 0.250000
O O17 0.081236 0.973559 0.049783
#
# Coordination Sequence:
#
# PCOD9229960 Si02
#       8
#     4   4   4   4   4   4   4   2
#     4  11  19  34  57  85 117 154 197 244 303 346
#     4  10  22  38  63  90 119 156 198 249 298 364
#     4  11  26  44  64  91 121 159 208 256 306 361
#     4  11  21  39  64  88 125 161 197 251 309 357
#     4   9  19  35  52  81 125 165 201 241 289 369
#     4  11  20  28  47  81 127 165 196 233 287 364
#     4  10  20  35  55  88 122 158 201 241 302 362
#     4  10  22  42  62  88 114 146 204 264 304 358
#
# _framework density 20.050224
#
# number of rings (size 3 to 8) (size 9 to 14) (size 15 to 20)
#    0.000    1.600    0.667    6.800    3.733    1.067 
#    0.000    4.000    0.000    0.800    0.000    0.000 
#    0.000    0.000    0.000    0.000    0.000    0.000 
#
# Total GULP energy -167216.841240 kJ/mol
# GULP energy per Si atom -5573.894708 kJ/mol
# Density = 2.000459 g / cm^3
# Si number density = 20.050224 Si / 1000 Ang^3
#
#
#
# Elastic Constant Matrix: (Units=GPa)
#
#
# Indices 1 2 3 4 5 6 
#
# 1 124.2639 26.9035 40.7110 0.0000 10.1719 0.0000
# 2 26.9035 29.6688 16.3491 0.0000 12.9555 0.0000
# 3 40.7110 16.3491 82.0875 0.0000 29.9159 0.0000
# 4 0.0000 0.0000 0.0000 18.2099 0.0000 8.5070
# 5 10.1719 12.9555 29.9159 0.0000 52.1588 0.0000
# 6 0.0000 0.0000 0.0000 8.5070 0.0000 13.6518
#
#
#
# Elastic Compliance Matrix: (Units=1/GPa)
#
#
# Indices 1 2 3 4 5 6 
#
# 1 0.011320 -0.008789 -0.004873 0.000000 0.002771 0.000000
# 2 -0.008789 0.046466 -0.001661 0.000000 -0.008875 0.000000
# 3 -0.004873 -0.001661 0.018247 0.000000 -0.009103 0.000000
# 4 0.000000 0.000000 0.000000 0.077466 0.000000 -0.048272
# 5 0.002771 -0.008875 -0.009103 0.000000 0.026057 0.000000
# 6 0.000000 0.000000 0.000000 -0.048272 0.000000 0.103331
#
#
# Mechanical properties :
#
#
# Convention : Reuss Voigt Hill
#
# Bulk Modulus (GPa) = 22.03327 44.88305 33.45816
# Shear Modulus (GPa) = 15.21306 26.94121 21.07714
#
# Velocity S-wave (km/s) = 2.75753 3.66961 3.24577
# Velocity P-wave (km/s) = 4.59908 6.35520 5.54708
#
# Compressibility (1/GPa) = 0.04538592
#
# Stress axis : x y z
#
# Youngs Moduli (GPa) = 88.33827 21.52092 54.80262
#
# Poissons Ratio (x) = 0.18916 0.26707
# Poissons Ratio (y) = 0.77644 0.09104
# Poissons Ratio (z) = 0.43050 0.03575
#
# Static dielectric constant tensor:
#      x y z
#    x 1.529990 0.000000 0.026990 
#    y 0.000000 1.678920 0.000000 
#    z 0.026990 0.000000 1.797030 
# 
# From -- ./inp_files/89718.got.cif
#   From: 2010.05.17/outbox.cif.g08.bks.cpg/sg13_45_cif.got.tgz:89718.got - 2010.06.03 16:44:36.
