data_PCOD9229821
_publ_section_title
;
Structure prediction by ZEFSAII (Michael W. Deem and Ramdas Pophale) SiO2 
 PCOD9229821
Probable space group: P 2/C
;
_chemical_formula_sum "Si O2"
_cell_formula_units_Z 28
_cell_length_a 10.707403
_cell_length_b 7.047110
_cell_length_c 15.242716
_cell_angle_alpha 90.000000
_cell_angle_beta 58.769159
_cell_angle_gamma 90.000000
_cell_volume 983.483311
_symmetry_space_group_name_H-M "P 2/C"
_symmetry_group_IT_number 13
_symmetry_cell_setting 'monoclinic'
loop_
_space_group_symop_operation_xyz
x,y,z
-x,y,1/2-z
-x,-y,-z
x,-y,1/2+z
loop_
_atom_site_type_symbol
_atom_site_label
_atom_site_fract_x
_atom_site_fract_y
_atom_site_fract_z
Si Si1 0.955460 0.788137 0.045553
Si Si2 0.875349 0.055137 0.736728
Si Si3 0.714332 0.599485 0.878441
Si Si4 0.593783 0.468504 0.093108
Si Si5 0.198592 0.677063 0.832307
Si Si6 0.373911 0.124287 0.861093
Si Si7 0.328499 0.983828 0.049683
O O1 0.779975 0.774529 0.106315
O O2 0.971036 0.798513 0.144492
O O3 0.054385 0.664696 0.945080
O O4 0.000000 0.000000 0.000000
O O5 0.796836 0.896583 0.703692
O O6 0.750477 0.133616 0.845970
O O7 0.000000 0.959339 0.750000
O O8 0.554232 0.620627 0.890728
O O9 0.810478 0.566173 0.756912
O O10 0.742329 0.807955 0.908791
O O11 0.701912 0.469715 0.969214
O O12 0.667525 0.388092 0.154526
O O13 0.550109 0.689711 0.123671
O O14 0.500000 0.054055 0.750000
O O15 0.321493 0.960541 0.947767
O O16 0.500000 0.000000 0.000000
#
# Coordination Sequence:
#
# PCOD9229821 Si02
#       7
#     4   4   4   4   4   4   4
#     4  10  22  39  60  88 120 160 210 267 324 385
#     4  10  21  39  58  83 123 164 203 262 329 384
#     4   9  20  37  61  91 128 168 210 267 321 377
#     4  10  21  39  61  92 130 171 218 266 318 385
#     4  10  20  38  64  89 120 169 216 257 320 389
#     4  11  22  38  60  87 122 162 206 262 323 387
#     4  10  20  34  57  86 117 156 203 253 313 384
#
# _framework density 28.470234000000001
#
# number of rings (size 3 to 8) (size 9 to 14) (size 15 to 20)
#    0.000    2.000    0.000    3.857    0.000    4.000 
#    0.000    4.286    0.000    5.143    0.000    0.000 
#    0.000    0.000    0.000    0.000    0.000    0.000 
#
# Total GULP energy -156377.418763 kJ/mol
# GULP energy per Si atom -5584.907813 kJ/mol
# Density = 2.840543 g / cm^3
# Si number density = 28.470234 Si / 1000 Ang^3
#
#
#
# Elastic Constant Matrix: (Units=GPa)
#
#
# Indices 1 2 3 4 5 6 
#
# 1 110.2857 -14.5939 41.2483 0.0000 -6.1610 0.0000
# 2 -14.5939 58.2692 36.1975 0.0000 -0.1739 0.0000
# 3 41.2483 36.1975 302.8065 0.0000 -13.3609 0.0000
# 4 0.0000 0.0000 0.0000 54.5583 0.0000 1.8022
# 5 -6.1610 -0.1739 -13.3609 0.0000 55.2840 0.0000
# 6 0.0000 0.0000 0.0000 1.8022 0.0000 32.6567
#
#
#
# Elastic Compliance Matrix: (Units=1/GPa)
#
#
# Indices 1 2 3 4 5 6 
#
# 1 0.010274 0.003700 -0.001810 0.000000 0.000719 0.000000
# 2 0.003700 0.019883 -0.002891 0.000000 -0.000224 0.000000
# 3 -0.001810 -0.002891 0.003927 0.000000 0.000738 0.000000
# 4 0.000000 0.000000 0.000000 0.018362 0.000000 -0.001013
# 5 0.000719 -0.000224 0.000738 0.000000 0.018346 0.000000
# 6 0.000000 0.000000 0.000000 -0.001013 0.000000 0.030677
#
#
# Mechanical properties :
#
#
# Convention : Reuss Voigt Hill
#
# Bulk Modulus (GPa) = 31.16943 66.34057 48.75500
# Shear Modulus (GPa) = 43.79540 55.73376 49.76458
#
# Velocity S-wave (km/s) = 3.92636 4.42929 4.18539
# Velocity P-wave (km/s) = 5.61488 7.03637 6.36543
#
# Compressibility (1/GPa) = 0.03208272
#
# Stress axis : x y z
#
# Youngs Moduli (GPa) = 97.33191 50.29307 254.63799
#
# Poissons Ratio (x) = -0.18608 0.46092
# Poissons Ratio (y) = -0.36011 0.73609
# Poissons Ratio (z) = 0.17618 0.14538
#
# Static dielectric constant tensor:
#      x y z
#    x 2.309900 0.000000 0.082560 
#    y 0.000000 2.326800 0.000000 
#    z 0.082560 0.000000 2.401260 
# 
# From -- ./inp_files/50263.got.cif
#   From: 2010.05.17/outbox.cif.g08.bks.cpg/sg13_26_cif.got.tgz:50263.got - 2010.06.03 16:44:36.
