data_PCOD9229578
_publ_section_title
;
Structure prediction by ZEFSAII (Michael W. Deem and Ramdas Pophale) SiO2 
 PCOD9229578
Probable space group: P 2/C
;
_chemical_formula_sum "Si O2"
_cell_formula_units_Z 26
_cell_length_a 15.290566
_cell_length_b 14.115780
_cell_length_c 9.459648
_cell_angle_alpha 90.000000
_cell_angle_beta 34.985070
_cell_angle_gamma 90.000000
_cell_volume 1170.666136
_symmetry_space_group_name_H-M "P 2/C"
_symmetry_group_IT_number 13
_symmetry_cell_setting 'monoclinic'
loop_
_space_group_symop_operation_xyz
x,y,z
-x,y,1/2-z
-x,-y,-z
x,-y,1/2+z
loop_
_atom_site_type_symbol
_atom_site_label
_atom_site_fract_x
_atom_site_fract_y
_atom_site_fract_z
Si Si1 0.162834 0.540282 0.845129
Si Si2 0.258824 0.614951 0.440789
Si Si3 0.373698 0.711682 0.031486
Si Si4 0.764032 0.898239 0.220586
Si Si5 0.000000 0.233985 0.250000
Si Si6 0.818252 0.931180 0.464912
Si Si7 0.823790 0.278749 0.969381
O O1 0.276733 0.558306 0.562505
O O2 0.196262 0.460707 0.914143
O O3 0.187372 0.636209 0.904684
O O4 0.000000 0.500000 0.000000
O O5 0.383891 0.662071 0.171060
O O6 0.130356 0.696159 0.639926
O O7 0.368255 0.822162 0.077445
O O8 0.223819 0.693900 0.129125
O O9 0.500000 0.686002 0.750000
O O10 0.801034 0.942128 0.321406
O O11 0.907477 0.833964 0.978117
O O12 0.736341 0.982636 0.150360
O O13 0.754981 0.826006 0.588711
O O14 0.000000 0.940067 0.250000
O O15 0.000000 0.256723 0.750000
#
# Coordination Sequence:
#
# PCOD9229578 Si02
#       7
#     4   4   4   4   2   4   4
#     4  12  21  36  59  97 129 156 200 263 317 372
#     4  11  22  34  59  88 120 163 203 254 315 368
#     4  10  23  45  63  86 126 172 212 255 315 379
#     4  10  21  35  56  87 120 160 203 254 312 370
#     4  10  20  32  54  84 120 156 204 246 308 368
#     4  10  20  32  55  88 124 157 200 258 318 367
#     4  10  22  37  63  91 126 162 210 262 313 368
#
# _framework density 22.209575999999998
#
# number of rings (size 3 to 8) (size 9 to 14) (size 15 to 20)
#    0.000    1.538    2.308    3.231    6.462    1.231 
#    0.000    6.923    0.000    0.000    0.000    0.000 
#    0.000    0.000    0.000    0.000    0.000    0.000 
#
# Total GULP energy -144784.180156 kJ/mol
# GULP energy per Si atom -5568.622314 kJ/mol
# Density = 2.215903 g / cm^3
# Si number density = 22.209576 Si / 1000 Ang^3
#
#
#
# Elastic Constant Matrix: (Units=GPa)
#
#
# Indices 1 2 3 4 5 6 
#
# 1 54.2451 31.9155 21.6015 0.0000 30.0507 0.0000
# 2 31.9155 112.9828 38.6170 0.0000 31.9906 0.0000
# 3 21.6015 38.6170 73.1315 0.0000 22.0651 0.0000
# 4 0.0000 0.0000 0.0000 35.7499 0.0000 34.7950
# 5 30.0507 31.9906 22.0651 0.0000 35.0404 0.0000
# 6 0.0000 0.0000 0.0000 34.7950 0.0000 30.1319
#
#
#
# Elastic Compliance Matrix: (Units=1/GPa)
#
#
# Indices 1 2 3 4 5 6 
#
# 1 0.035483 -0.001658 -0.001087 0.000000 -0.028232 0.000000
# 2 -0.001658 0.012895 -0.003946 0.000000 -0.007866 0.000000
# 3 -0.001087 -0.003946 0.018161 0.000000 -0.006901 0.000000
# 4 0.000000 0.000000 0.000000 -0.225733 0.000000 0.260668
# 5 -0.028232 -0.007866 -0.006901 0.000000 0.064278 0.000000
# 6 0.000000 0.000000 0.000000 0.260668 0.000000 -0.267821
#
#
# Mechanical properties :
#
#
# Convention : Reuss Voigt Hill
#
# Bulk Modulus (GPa) = 18.81231 47.18083 32.99657
# Shear Modulus (GPa) = -15.07683 30.06612 7.49464
#
# Velocity S-wave (km/s) = -2.60829 3.68332 1.83898
# Velocity P-wave (km/s) = 0.76299 6.27525 4.40435
#
# Compressibility (1/GPa) = 0.05315669
#
# Stress axis : x y z
#
# Youngs Moduli (GPa) = 28.18223 77.54756 55.06268
#
# Poissons Ratio (x) = 0.12856 0.05988
# Poissons Ratio (y) = 0.04672 0.21729
# Poissons Ratio (z) = 0.03065 0.30602
#
# Static dielectric constant tensor:
#      x y z
#    x 1.805160 0.000000 -0.053780 
#    y 0.000000 1.929800 0.000000 
#    z -0.053780 0.000000 2.001610 
# 
# From -- ./inp_files/19854.got.cif
#   From: 2010.05.17/outbox.cif.g08.bks.cpg/sg13_10_cif.got.tgz:19854.got - 2010.06.03 16:44:36.
