data_PCOD9229571
_publ_section_title
;
Structure prediction by ZEFSAII (Michael W. Deem and Ramdas Pophale) SiO2 
 PCOD9229571
Probable space group: P 2/C
;
_chemical_formula_sum "Si O2"
_cell_formula_units_Z 22
_cell_length_a 19.026353
_cell_length_b 5.027274
_cell_length_c 21.022058
_cell_angle_alpha 90.000000
_cell_angle_beta 24.805262
_cell_angle_gamma 90.000000
_cell_volume 843.591121
_symmetry_space_group_name_H-M "P 2/C"
_symmetry_group_IT_number 13
_symmetry_cell_setting 'monoclinic'
loop_
_space_group_symop_operation_xyz
x,y,z
-x,y,1/2-z
-x,-y,-z
x,-y,1/2+z
loop_
_atom_site_type_symbol
_atom_site_label
_atom_site_fract_x
_atom_site_fract_y
_atom_site_fract_z
Si Si1 0.608804 0.834490 0.548894
Si Si2 0.730530 0.414325 0.230222
Si Si3 0.140721 0.340765 0.000716
Si Si4 0.500000 0.774155 0.250000
Si Si5 0.087177 0.810631 0.117495
Si Si6 0.695837 0.068643 0.841309
O O1 0.451488 0.664483 0.651474
O O2 0.745038 0.711592 0.483640
O O3 0.717220 0.935334 0.399308
O O4 0.535991 0.056813 0.656195
O O5 0.847735 0.540698 0.079573
O O6 0.711716 0.642997 0.297867
O O7 0.786495 0.148713 0.222225
O O8 0.333012 0.371604 0.866041
O O9 0.023778 0.540745 0.136907
O O10 0.108085 0.032954 0.045501
O O11 0.000000 0.938781 0.250000
O O12 0.500000 0.000000 0.000000
#
# Coordination Sequence:
#
# PCOD9229571 Si02
#       6
#     4   4   4   2   4   4
#     4  10  20  36  57  86 119 145 183 230 281 337
#     4  11  20  35  57  86 113 142 180 229 288 334
#     4  11  21  37  58  82 113 143 186 235 280 332
#     4  10  20  34  58  90 114 144 180 234 296 330
#     4  11  24  39  58  81 112 154 190 227 273 329
#     4  10  20  32  53  84 117 145 175 222 285 342
#
# _framework density 26.078984999999999
#
# number of rings (size 3 to 8) (size 9 to 14) (size 15 to 20)
#    0.000    1.455    0.000    9.273    0.000    6.545 
#    0.000    0.000    0.000    6.545    0.000    0.000 
#    0.000    0.000    0.000    0.000    0.000    0.000 
#
# Total GULP energy -122816.562268 kJ/mol
# GULP energy per Si atom -5582.571012 kJ/mol
# Density = 2.601963 g / cm^3
# Si number density = 26.078985 Si / 1000 Ang^3
#
#
#
# Elastic Constant Matrix: (Units=GPa)
#
#
# Indices 1 2 3 4 5 6 
#
# 1 142.3927 104.3025 50.2336 0.0000 20.1770 0.0000
# 2 104.3025 1.1417 1.5034 0.0000 56.8496 0.0000
# 3 50.2336 1.5034 71.5440 0.0000 44.5536 0.0000
# 4 0.0000 0.0000 0.0000 189.1633 0.0000 161.0406
# 5 20.1770 56.8496 44.5536 0.0000 46.4140 0.0000
# 6 0.0000 0.0000 0.0000 161.0406 0.0000 159.8439
#
#
#
# Elastic Compliance Matrix: (Units=1/GPa)
#
#
# Indices 1 2 3 4 5 6 
#
# 1 0.004705 0.003861 0.002074 0.000000 -0.008765 0.000000
# 2 0.003861 -0.002843 -0.009384 0.000000 0.010812 0.000000
# 3 0.002074 -0.009384 0.015221 0.000000 -0.004018 0.000000
# 4 0.000000 0.000000 0.000000 0.037151 0.000000 -0.037429
# 5 -0.008765 0.010812 -0.004018 0.000000 0.015970 0.000000
# 6 0.000000 0.000000 0.000000 -0.037429 0.000000 0.043966
#
#
# Mechanical properties :
#
#
# Convention : Reuss Voigt Hill
#
# Bulk Modulus (GPa) = 98.19225 58.57306 78.38265
# Shear Modulus (GPa) = 40.17211 83.02016 61.59613
#
# Velocity S-wave (km/s) = 3.92905 5.64829 4.86522
# Velocity P-wave (km/s) = 7.63655 8.06513 7.85376
#
# Compressibility (1/GPa) = 0.01018410
#
# Stress axis : x y z
#
# Youngs Moduli (GPa) = 212.53395 -351.74670 65.69814
#
# Poissons Ratio (x) = 1.35810 -0.13623
# Poissons Ratio (y) = -0.82059 0.61652
# Poissons Ratio (z) = -0.44070 -3.30084
#
# Static dielectric constant tensor:
#      x y z
#    x 1.347360 0.000000 0.339590 
#    y 0.000000 1.971850 0.000000 
#    z 0.339590 0.000000 1.854090 
# 
# From -- ./inp_files/81211.got.cif
#   From: 2010.05.17/outbox.cif.g08.bks.cpg/sg13_41_cif.got.tgz:81211.got - 2010.06.03 16:44:36.
