data_PCOD9229493
_publ_section_title
;
Structure prediction by ZEFSAII (Michael W. Deem and Ramdas Pophale) SiO2 
 PCOD9229493
Probable space group: P 2/C
;
_chemical_formula_sum "Si O2"
_cell_formula_units_Z 18
_cell_length_a 7.991997
_cell_length_b 11.332684
_cell_length_c 8.956939
_cell_angle_alpha 90.000000
_cell_angle_beta 71.907889
_cell_angle_gamma 90.000000
_cell_volume 771.128150
_symmetry_space_group_name_H-M "P 2/C"
_symmetry_group_IT_number 13
_symmetry_cell_setting 'monoclinic'
loop_
_space_group_symop_operation_xyz
x,y,z
-x,y,1/2-z
-x,-y,-z
x,-y,1/2+z
loop_
_atom_site_type_symbol
_atom_site_label
_atom_site_fract_x
_atom_site_fract_y
_atom_site_fract_z
Si Si1 0.000000 0.514046 0.750000
Si Si2 0.404143 0.236107 0.531167
Si Si3 0.756179 0.445337 0.069590
Si Si4 0.264844 0.725610 0.407786
Si Si5 0.945767 0.121068 0.938838
O O1 0.903041 0.435156 0.899178
O O2 0.848976 0.581389 0.701303
O O3 0.393771 0.357058 0.439295
O O4 0.606296 0.208793 0.511049
O O5 0.327515 0.253832 0.720077
O O6 0.262124 0.150295 0.493780
O O7 0.713795 0.584483 0.079633
O O8 0.069667 0.777205 0.475217
O O9 0.000000 0.114690 0.750000
O O10 0.000000 0.000000 0.000000
#
# Coordination Sequence:
#
# PCOD9229493 Si02
#       5
#     2   4   4   4   4
#     4  10  20  28  56  82 118 160 194 224 280 338
#     4  10  21  38  62  88 120 160 195 233 292 359
#     4  11  19  36  56  91 123 156 191 239 284 359
#     4  10  21  38  62  88 120 160 195 233 292 359
#     4  10  22  42  63  84 112 153 203 248 294 343
#
# _framework density 23.342421000000002
#
# number of rings (size 3 to 8) (size 9 to 14) (size 15 to 20)
#    0.000    1.778    2.222    3.333    3.111    0.889 
#    8.000    0.000    0.000    0.000    0.000    0.000 
#    0.000    0.000    0.000    0.000    0.000    0.000 
#
# Total GULP energy -100547.242466 kJ/mol
# GULP energy per Si atom -5585.957915 kJ/mol
# Density = 2.328929 g / cm^3
# Si number density = 23.342421 Si / 1000 Ang^3
#
#
#
# Elastic Constant Matrix: (Units=GPa)
#
#
# Indices 1 2 3 4 5 6 
#
# 1 138.2721 48.4402 46.8224 0.0000 56.2254 0.0000
# 2 48.4402 103.5234 11.4145 0.0000 25.0405 0.0000
# 3 46.8224 11.4145 58.1737 0.0000 26.8619 0.0000
# 4 0.0000 0.0000 0.0000 27.7501 0.0000 13.2693
# 5 56.2254 25.0405 26.8619 0.0000 45.5117 0.0000
# 6 0.0000 0.0000 0.0000 13.2693 0.0000 22.7510
#
#
#
# Elastic Compliance Matrix: (Units=1/GPa)
#
#
# Indices 1 2 3 4 5 6 
#
# 1 0.016514 -0.003431 -0.005594 0.000000 -0.015212 0.000000
# 2 -0.003431 0.011889 0.002051 0.000000 -0.003513 0.000000
# 3 -0.005594 0.002051 0.025596 0.000000 -0.009324 0.000000
# 4 0.000000 0.000000 0.000000 0.049973 0.000000 -0.029146
# 5 -0.015212 -0.003513 -0.009324 0.000000 0.048202 0.000000
# 6 0.000000 0.000000 0.000000 -0.029146 0.000000 0.060953
#
#
# Mechanical properties :
#
#
# Convention : Reuss Voigt Hill
#
# Bulk Modulus (GPa) = 24.96894 57.03594 41.00244
# Shear Modulus (GPa) = 20.79653 32.08870 26.44261
#
# Velocity S-wave (km/s) = 2.98809 3.71171 3.36938
# Velocity P-wave (km/s) = 4.75657 6.54649 5.72195
#
# Compressibility (1/GPa) = 0.04004975
#
# Stress axis : x y z
#
# Youngs Moduli (GPa) = 60.55450 84.11406 39.06913
#
# Poissons Ratio (x) = 0.28858 0.21856
# Poissons Ratio (y) = 0.20775 -0.08012
# Poissons Ratio (z) = 0.33876 -0.17250
#
# Static dielectric constant tensor:
#      x y z
#    x 2.075590 0.000000 -0.025540 
#    y 0.000000 1.896430 0.000000 
#    z -0.025540 0.000000 1.873480 
# 
# From -- ./inp_files/11770.got.cif
#   From: 2010.05.17/outbox.cif.g08.bks.cpg/sg13_6_cif.got.tgz:11770.got - 2010.06.03 16:44:36.
