data_PCOD9229329
_publ_section_title
;
Structure prediction by ZEFSAII (Michael W. Deem and Ramdas Pophale) SiO2 
 PCOD9229329
Probable space group: P 2/C
;
_chemical_formula_sum "Si O2"
_cell_formula_units_Z 20
_cell_length_a 11.396616
_cell_length_b 9.503889
_cell_length_c 14.113575
_cell_angle_alpha 90.000000
_cell_angle_beta 31.533491
_cell_angle_gamma 90.000000
_cell_volume 799.490659
_symmetry_space_group_name_H-M "P 2/C"
_symmetry_group_IT_number 13
_symmetry_cell_setting 'monoclinic'
loop_
_space_group_symop_operation_xyz
x,y,z
-x,y,1/2-z
-x,-y,-z
x,-y,1/2+z
loop_
_atom_site_type_symbol
_atom_site_label
_atom_site_fract_x
_atom_site_fract_y
_atom_site_fract_z
Si Si1 0.638833 0.325006 0.924113
Si Si2 0.782150 0.004398 0.839932
Si Si3 0.270154 0.337725 0.858644
Si Si4 0.859990 0.598661 0.763895
Si Si5 0.622826 0.028746 0.753916
O O1 0.731522 0.172439 0.885654
O O2 0.700922 0.357581 0.772516
O O3 0.766690 0.457672 0.881160
O O4 0.370184 0.334681 0.117409
O O5 0.786399 0.969843 0.724161
O O6 0.000000 0.978585 0.750000
O O7 0.579738 0.929474 0.035052
O O8 0.500000 0.386673 0.750000
O O9 0.269775 0.166893 0.866473
O O10 0.048053 0.405491 0.053631
O O11 0.000000 0.677231 0.750000
O O12 0.500000 0.949604 0.750000
#
# Coordination Sequence:
#
# PCOD9229329 Si02
#       5
#     4   4   4   4   4
#     4  10  22  39  60  94 130 166 222 270 341 397
#     4  10  21  43  65  91 136 176 216 284 336 393
#     4  10  19  39  60  92 125 166 222 271 330 396
#     4  11  21  37  65  91 126 173 215 281 330 398
#     4   9  21  42  62  96 127 168 230 267 327 408
#
# _framework density 25.015924999999999
#
# number of rings (size 3 to 8) (size 9 to 14) (size 15 to 20)
#    0.000    2.000    2.000    1.200    0.000    0.800 
#   28.800    0.000    4.400    0.000    0.000    0.000 
#    0.000    0.000    0.000    0.000    0.000    0.000 
#
# Total GULP energy -111594.609488 kJ/mol
# GULP energy per Si atom -5579.730474 kJ/mol
# Density = 2.495899 g / cm^3
# Si number density = 25.015925 Si / 1000 Ang^3
#
#
#
# Elastic Constant Matrix: (Units=GPa)
#
#
# Indices 1 2 3 4 5 6 
#
# 1 174.1885 15.4778 48.2161 0.0000 -13.4657 0.0000
# 2 15.4778 117.6061 35.8292 0.0000 -19.5367 0.0000
# 3 48.2161 35.8292 169.8416 0.0000 -27.0851 0.0000
# 4 0.0000 0.0000 0.0000 25.6739 0.0000 -5.7282
# 5 -13.4657 -19.5367 -27.0851 0.0000 53.3205 0.0000
# 6 0.0000 0.0000 0.0000 -5.7282 0.0000 4.5620
#
#
#
# Elastic Compliance Matrix: (Units=1/GPa)
#
#
# Indices 1 2 3 4 5 6 
#
# 1 0.006262 -0.000217 -0.001624 0.000000 0.000677 0.000000
# 2 -0.000217 0.009428 -0.001507 0.000000 0.002634 0.000000
# 3 -0.001624 -0.001507 0.007088 0.000000 0.002638 0.000000
# 4 0.000000 0.000000 0.000000 0.054109 0.000000 0.067942
# 5 0.000677 0.002634 0.002638 0.000000 0.021231 0.000000
# 6 0.000000 0.000000 0.000000 0.067942 0.000000 0.304514
#
#
# Mechanical properties :
#
#
# Convention : Reuss Voigt Hill
#
# Bulk Modulus (GPa) = 62.18361 73.40914 67.79638
# Shear Modulus (GPa) = 12.05726 40.85215 26.45471
#
# Velocity S-wave (km/s) = 2.19779 4.04548 3.25547
# Velocity P-wave (km/s) = 5.59928 7.15751 6.42580
#
# Compressibility (1/GPa) = 0.01608141
#
# Stress axis : x y z
#
# Youngs Moduli (GPa) = 159.69220 106.06373 141.09322
#
# Poissons Ratio (x) = 0.02301 0.22914
# Poissons Ratio (y) = 0.03464 0.21267
# Poissons Ratio (z) = 0.25934 0.15987
#
# Static dielectric constant tensor:
#      x y z
#    x 2.097040 0.000000 -0.037930 
#    y 0.000000 2.123560 0.000000 
#    z -0.037930 0.000000 1.947700 
# 
# From -- ./inp_files/34020.got.cif
#   From: 2010.05.17/outbox.cif.g08.bks.cpg/sg13_18_cif.got.tgz:34020.got - 2010.06.03 16:44:36.
