data_PCOD9229919
_publ_section_title
;
Structure prediction by ZEFSAII (Michael W. Deem and Ramdas Pophale) SiO2 
 PCOD9229919
Probable space group: P 2/C
;
_chemical_formula_sum "Si O2"
_cell_formula_units_Z 30
_cell_length_a 22.050567
_cell_length_b 5.115853
_cell_length_c 24.822225
_cell_angle_alpha 90.000000
_cell_angle_beta 151.947706
_cell_angle_gamma 90.000000
_cell_volume 1316.838401
_symmetry_space_group_name_H-M "P 2/C"
_symmetry_group_IT_number 13
_symmetry_cell_setting 'monoclinic'
loop_
_space_group_symop_operation_xyz
x,y,z
-x,y,1/2-z
-x,-y,-z
x,-y,1/2+z
loop_
_atom_site_type_symbol
_atom_site_label
_atom_site_fract_x
_atom_site_fract_y
_atom_site_fract_z
Si Si1 0.393947 0.249948 0.260868
Si Si2 0.608968 0.154022 0.034626
Si Si3 0.250891 0.629659 0.320347
Si Si4 0.361261 0.102328 0.557022
Si Si5 0.327714 0.224731 0.774039
Si Si6 0.500000 0.518992 0.250000
Si Si7 0.989327 0.622329 0.806826
Si Si8 0.088007 0.128043 0.872734
O O1 0.364376 0.508003 0.272213
O O2 0.397177 0.340719 0.201375
O O3 0.538985 0.131469 0.378405
O O4 0.308850 0.008364 0.216217
O O5 0.652543 0.381327 0.108943
O O6 0.682131 0.880793 0.100045
O O7 0.653728 0.253929 0.010796
O O8 0.454733 0.135295 0.908355
O O9 0.221240 0.719570 0.235904
O O10 0.134356 0.518304 0.264815
O O11 0.427735 0.291376 0.651802
O O12 0.225103 0.991272 0.467143
O O13 0.000000 0.665154 0.750000
O O14 0.011298 0.911093 0.846713
O O15 0.100370 0.414178 0.907086
O O16 0.000000 0.171051 0.750000
#
# Coordination Sequence:
#
# PCOD9229919 Si02
#       8
#     4   4   4   4   4   2   4   4
#     4  11  23  41  61  92 125 159 215 260 311 384
#     4  11  20  34  56  85 125 164 214 243 308 383
#     4  12  22  36  58  86 130 180 199 250 307 379
#     4  11  24  40  65  92 130 164 206 265 319 366
#     4  11  23  37  55  88 129 171 209 245 311 388
#     4  12  24  44  66  92 124 164 212 266 326 360
#     4  10  20  35  53  84 118 160 211 240 290 357
#     4  10  21  36  57  87 123 159 199 248 310 370
#
# _framework density 22.781839999999999
#
# number of rings (size 3 to 8) (size 9 to 14) (size 15 to 20)
#    0.000    1.067    2.667    7.600    1.867    0.000 
#    0.000    0.000    0.000    0.000    0.000    5.600 
#    0.000    0.000    0.000    0.000    0.000    0.000 
#
# Total GULP energy -167447.221408 kJ/mol
# GULP energy per Si atom -5581.574047 kJ/mol
# Density = 2.272999 g / cm^3
# Si number density = 22.781840 Si / 1000 Ang^3
#
#
#
# Elastic Constant Matrix: (Units=GPa)
#
#
# Indices 1 2 3 4 5 6 
#
# 1 114.0419 11.4782 11.1885 0.0000 -2.4320 0.0000
# 2 11.4782 134.2402 -0.8523 0.0000 -12.0807 0.0000
# 3 11.1885 -0.8523 24.8425 0.0000 3.9222 0.0000
# 4 0.0000 0.0000 0.0000 20.1461 0.0000 -2.0984
# 5 -2.4320 -12.0807 3.9222 0.0000 21.7938 0.0000
# 6 0.0000 0.0000 0.0000 -2.0984 0.0000 28.5362
#
#
#
# Elastic Compliance Matrix: (Units=1/GPa)
#
#
# Indices 1 2 3 4 5 6 
#
# 1 0.009305 -0.000693 -0.004444 0.000000 0.001454 0.000000
# 2 -0.000693 0.007897 -0.000099 0.000000 0.004318 0.000000
# 3 -0.004444 -0.000099 0.043577 0.000000 -0.008393 0.000000
# 4 0.000000 0.000000 0.000000 0.050020 0.000000 0.003678
# 5 0.001454 0.004318 -0.008393 0.000000 0.049951 0.000000
# 6 0.000000 0.000000 0.000000 0.003678 0.000000 0.035314
#
#
# Mechanical properties :
#
#
# Convention : Reuss Voigt Hill
#
# Bulk Modulus (GPa) = 19.87798 35.19484 27.53641
# Shear Modulus (GPa) = 22.39094 30.84924 26.62009
#
# Velocity S-wave (km/s) = 3.13843 3.68382 3.42201
# Velocity P-wave (km/s) = 4.67732 5.79450 5.26562
#
# Compressibility (1/GPa) = 0.05030692
#
# Stress axis : x y z
#
# Youngs Moduli (GPa) = 107.46336 126.63808 22.94794
#
# Poissons Ratio (x) = 0.08776 0.10199
# Poissons Ratio (y) = 0.07448 0.00226
# Poissons Ratio (z) = 0.47760 0.01249
#
# Static dielectric constant tensor:
#      x y z
#    x 2.037320 0.000000 -0.042080 
#    y 0.000000 1.937430 0.000000 
#    z -0.042080 0.000000 1.893990 
# 
# From -- ./inp_files/93426.got.cif
#   From: 2010.05.17/outbox.cif.g08.bks.cpg/sg13_47_cif.got.tgz:93426.got - 2010.06.03 16:44:36.
