data_PCOD9229062
_publ_section_title
;
Structure prediction by ZEFSAII (Michael W. Deem and Ramdas Pophale) SiO2 
 PCOD9229062
Probable space group: P 2/C
;
_chemical_formula_sum "Si O2"
_cell_formula_units_Z 20
_cell_length_a 7.757254
_cell_length_b 5.387942
_cell_length_c 26.724210
_cell_angle_alpha 90.000000
_cell_angle_beta 44.402940
_cell_angle_gamma 90.000000
_cell_volume 781.533637
_symmetry_space_group_name_H-M "P 2/C"
_symmetry_group_IT_number 13
_symmetry_cell_setting 'monoclinic'
loop_
_space_group_symop_operation_xyz
x,y,z
-x,y,1/2-z
-x,-y,-z
x,-y,1/2+z
loop_
_atom_site_type_symbol
_atom_site_label
_atom_site_fract_x
_atom_site_fract_y
_atom_site_fract_z
Si Si1 0.454889 0.243516 0.560713
Si Si2 0.265179 0.890300 0.762437
Si Si3 0.206777 0.606042 0.314291
Si Si4 0.862985 0.583179 0.467621
Si Si5 0.481344 0.259943 0.111090
O O1 0.745792 0.306829 0.491854
O O2 0.306624 0.287820 0.540527
O O3 0.387813 0.470865 0.612168
O O4 0.413648 0.976360 0.591677
O O5 0.500000 0.919079 0.750000
O O6 0.110128 0.656781 0.814120
O O7 0.378059 0.813476 0.686091
O O8 0.134472 0.155646 0.796219
O O9 0.500000 0.583753 0.250000
O O10 0.127693 0.625133 0.388726
O O11 0.776840 0.700793 0.538134
#
# Coordination Sequence:
#
# PCOD9229062 Si02
#       5
#     4   4   4   4   4
#     4   9  20  34  63  87 115 143 198 237 287 336
#     4  10  22  40  57  79 123 154 190 239 287 343
#     4  10  22  39  58  81 118 157 190 238 295 335
#     4   9  21  36  64  84 117 151 194 238 285 341
#     4  10  19  37  60  87 114 149 196 237 282 346
#
# _framework density 25.590710000000001
#
# number of rings (size 3 to 8) (size 9 to 14) (size 15 to 20)
#    1.200    1.200    0.000    1.800    2.800    0.000 
#    0.000   14.000    0.000    0.000    0.000    0.000 
#    0.000    0.000    0.000    0.000    0.000    0.000 
#
# Total GULP energy -111579.651357 kJ/mol
# GULP energy per Si atom -5578.982568 kJ/mol
# Density = 2.553246 g / cm^3
# Si number density = 25.590710 Si / 1000 Ang^3
#
#
#
# Elastic Constant Matrix: (Units=GPa)
#
#
# Indices 1 2 3 4 5 6 
#
# 1 41.7072 2.2975 20.0026 0.0000 -5.6167 0.0000
# 2 2.2975 196.4533 32.9176 0.0000 19.2268 0.0000
# 3 20.0026 32.9176 129.4927 0.0000 12.6301 0.0000
# 4 0.0000 0.0000 0.0000 60.3000 0.0000 27.4011
# 5 -5.6167 19.2268 12.6301 0.0000 53.5438 0.0000
# 6 0.0000 0.0000 0.0000 27.4011 0.0000 27.1915
#
#
#
# Elastic Compliance Matrix: (Units=1/GPa)
#
#
# Indices 1 2 3 4 5 6 
#
# 1 0.026651 0.000068 -0.004508 0.000000 0.003835 0.000000
# 2 0.000068 0.005459 -0.001236 0.000000 -0.001662 0.000000
# 3 -0.004508 -0.001236 0.008942 0.000000 -0.002138 0.000000
# 4 0.000000 0.000000 0.000000 0.030593 0.000000 -0.030828
# 5 0.003835 -0.001662 -0.002138 0.000000 0.020180 0.000000
# 6 0.000000 0.000000 0.000000 -0.030828 0.000000 0.067842
#
#
# Mechanical properties :
#
#
# Convention : Reuss Voigt Hill
#
# Bulk Modulus (GPa) = 33.66982 53.12095 43.39538
# Shear Modulus (GPa) = 27.63668 49.03608 38.33638
#
# Velocity S-wave (km/s) = 3.28982 4.38215 3.87468
# Velocity P-wave (km/s) = 5.25511 6.81229 6.08373
#
# Compressibility (1/GPa) = 0.02970019
#
# Stress axis : x y z
#
# Youngs Moduli (GPa) = 37.52141 183.17597 111.83642
#
# Poissons Ratio (x) = -0.01253 0.50418
# Poissons Ratio (y) = -0.00257 0.13826
# Poissons Ratio (z) = 0.16915 0.22646
#
# Static dielectric constant tensor:
#      x y z
#    x 1.894820 0.000000 0.110660 
#    y 0.000000 2.069370 0.000000 
#    z 0.110660 0.000000 1.957610 
# 
# From -- ./inp_files/87008.got.cif
#   From: 2010.05.17/outbox.cif.g08.bks.cpg/sg13_44_cif.got.tgz:87008.got - 2010.06.03 16:44:36.
