data_PCOD9229844
_publ_section_title
;
Structure prediction by ZEFSAII (Michael W. Deem and Ramdas Pophale) SiO2 
 PCOD9229844
Probable space group: P 2/C
;
_chemical_formula_sum "Si O2"
_cell_formula_units_Z 16
_cell_length_a 8.846363
_cell_length_b 11.641089
_cell_length_c 8.067754
_cell_angle_alpha 90.000000
_cell_angle_beta 53.290070
_cell_angle_gamma 90.000000
_cell_volume 666.051421
_symmetry_space_group_name_H-M "P 2/C"
_symmetry_group_IT_number 13
_symmetry_cell_setting 'monoclinic'
loop_
_space_group_symop_operation_xyz
x,y,z
-x,y,1/2-z
-x,-y,-z
x,-y,1/2+z
loop_
_atom_site_type_symbol
_atom_site_label
_atom_site_fract_x
_atom_site_fract_y
_atom_site_fract_z
Si Si1 0.000000 0.310998 0.250000
Si Si2 0.622731 0.350975 0.902049
Si Si3 0.500000 0.053678 0.250000
Si Si4 0.246320 0.433311 0.341941
Si Si5 0.637503 0.841912 0.968757
O O1 0.933137 0.393457 0.144520
O O2 0.821604 0.228152 0.398706
O O3 0.696470 0.432588 0.707359
O O4 0.422313 0.386766 0.115902
O O5 0.754379 0.378224 0.974994
O O6 0.564151 0.225241 0.877598
O O7 0.366932 0.132519 0.225278
O O8 0.376076 0.966541 0.439907
#
# Coordination Sequence:
#
# PCOD9229844 Si02
#       5
#     2   4   2   4   4
#     4  10  20  34  58  88 120 146 184 246 292 330
#     4   9  18  34  54  77 113 154 185 219 277 353
#     4  10  22  40  62  82 108 158 206 234 284 346
#     4   9  18  32  53  80 113 150 183 220 281 349
#     4  10  21  39  61  85 114 151 197 244 284 332
#
# _framework density 24.022168000000001
#
# number of rings (size 3 to 8) (size 9 to 14) (size 15 to 20)
#    0.000    2.500    0.000    3.000    0.000    8.000 
#    0.000    2.500    0.000    4.500    0.000    0.000 
#    0.000    0.000    0.000    0.000    0.000    0.000 
#
# Total GULP energy -89328.745636 kJ/mol
# GULP energy per Si atom -5583.046602 kJ/mol
# Density = 2.396749 g / cm^3
# Si number density = 24.022168 Si / 1000 Ang^3
#
#
#
# Elastic Constant Matrix: (Units=GPa)
#
#
# Indices 1 2 3 4 5 6 
#
# 1 184.1448 58.3336 37.4991 0.0000 17.8523 0.0000
# 2 58.3336 131.7203 18.2507 0.0000 -1.0914 0.0000
# 3 37.4991 18.2507 58.6771 0.0000 -1.0763 0.0000
# 4 0.0000 0.0000 0.0000 26.5257 0.0000 -0.2804
# 5 17.8523 -1.0914 -1.0763 0.0000 37.7921 0.0000
# 6 0.0000 0.0000 0.0000 -0.2804 0.0000 44.3810
#
#
#
# Elastic Compliance Matrix: (Units=1/GPa)
#
#
# Indices 1 2 3 4 5 6 
#
# 1 0.007489 -0.002796 -0.003985 0.000000 -0.003732 0.000000
# 2 -0.002796 0.008978 -0.000978 0.000000 0.001552 0.000000
# 3 -0.003985 -0.000978 0.019938 0.000000 0.002422 0.000000
# 4 0.000000 0.000000 0.000000 0.037702 0.000000 0.000238
# 5 -0.003732 0.001552 0.002422 0.000000 0.028337 0.000000
# 6 0.000000 0.000000 0.000000 0.000238 0.000000 0.022534
#
#
# Mechanical properties :
#
#
# Convention : Reuss Voigt Hill
#
# Bulk Modulus (GPa) = 47.87256 66.96767 57.42012
# Shear Modulus (GPa) = 33.90800 39.10367 36.50583
#
# Velocity S-wave (km/s) = 3.76111 4.03900 3.90253
# Velocity P-wave (km/s) = 6.23161 7.04906 6.65291
#
# Compressibility (1/GPa) = 0.02088879
#
# Stress axis : x y z
#
# Youngs Moduli (GPa) = 133.52110 111.38132 50.15597
#
# Poissons Ratio (x) = 0.31137 0.19989
# Poissons Ratio (y) = 0.37326 0.04903
# Poissons Ratio (z) = 0.53212 0.10888
#
# Static dielectric constant tensor:
#      x y z
#    x 1.984010 0.000000 0.038220 
#    y 0.000000 1.978660 0.000000 
#    z 0.038220 0.000000 2.002460 
# 
# From -- ./inp_files/11194.got.cif
#   From: 2010.05.17/outbox.cif.g08.bks.cpg/sg13_6_cif.got.tgz:11194.got - 2010.06.03 16:44:36.
