data_PCOD9229783
_publ_section_title
;
Structure prediction by ZEFSAII (Michael W. Deem and Ramdas Pophale) SiO2 
 PCOD9229783
Probable space group: P 2/C
;
_chemical_formula_sum "Si O2"
_cell_formula_units_Z 18
_cell_length_a 7.414730
_cell_length_b 8.238195
_cell_length_c 17.217348
_cell_angle_alpha 90.000000
_cell_angle_beta 128.184993
_cell_angle_gamma 90.000000
_cell_volume 826.659427
_symmetry_space_group_name_H-M "P 2/C"
_symmetry_group_IT_number 13
_symmetry_cell_setting 'monoclinic'
loop_
_space_group_symop_operation_xyz
x,y,z
-x,y,1/2-z
-x,-y,-z
x,-y,1/2+z
loop_
_atom_site_type_symbol
_atom_site_label
_atom_site_fract_x
_atom_site_fract_y
_atom_site_fract_z
Si Si1 0.116584 0.148731 0.075383
Si Si2 0.774740 0.338490 0.540278
Si Si3 0.000000 0.835137 0.250000
Si Si4 0.512310 0.088688 0.671376
Si Si5 0.296623 0.722310 0.969159
O O1 0.952995 0.193558 0.104106
O O2 0.368988 0.074680 0.149917
O O3 0.117499 0.293764 0.013580
O O4 0.000000 0.000000 0.000000
O O5 0.746100 0.530541 0.539971
O O6 0.518963 0.256779 0.473606
O O7 0.916468 0.268994 0.652073
O O8 0.774606 0.932758 0.215780
O O9 0.500000 0.181542 0.750000
O O10 0.393574 0.199687 0.574616
#
# Coordination Sequence:
#
# PCOD9229783 Si02
#       5
#     4   4   2   4   4
#     4  10  20  34  56  81 109 144 181 222 271 329
#     4  10  20  37  58  83 109 145 186 225 277 325
#     4  10  20  34  58  80 110 144 182 232 274 326
#     4  10  21  36  54  82 112 145 185 225 275 327
#     4   9  20  37  59  81 109 147 185 226 273 330
#
# _framework density 21.774384999999999
#
# number of rings (size 3 to 8) (size 9 to 14) (size 15 to 20)
#    0.000    2.222    0.000    3.333    0.000    9.778 
#    0.000    7.778    0.000    6.667    0.000    0.000 
#    0.000    0.000    0.000    0.000    0.000    0.000 
#
# Total GULP energy -100256.129063 kJ/mol
# GULP energy per Si atom -5569.784948 kJ/mol
# Density = 2.172483 g / cm^3
# Si number density = 21.774385 Si / 1000 Ang^3
#
#
#
# Elastic Constant Matrix: (Units=GPa)
#
#
# Indices 1 2 3 4 5 6 
#
# 1 131.8773 18.4589 44.2193 0.0000 45.9426 0.0000
# 2 18.4589 39.9889 33.1627 0.0000 24.2951 0.0000
# 3 44.2193 33.1627 88.8260 0.0000 24.5023 0.0000
# 4 0.0000 0.0000 0.0000 11.6097 0.0000 7.3873
# 5 45.9426 24.2951 24.5023 0.0000 39.4727 0.0000
# 6 0.0000 0.0000 0.0000 7.3873 0.0000 41.1831
#
#
#
# Elastic Compliance Matrix: (Units=1/GPa)
#
#
# Indices 1 2 3 4 5 6 
#
# 1 0.015157 0.010065 -0.005705 0.000000 -0.020295 0.000000
# 2 0.010065 0.055240 -0.015715 0.000000 -0.035960 0.000000
# 3 -0.005705 -0.015715 0.018661 0.000000 0.004729 0.000000
# 4 0.000000 0.000000 0.000000 0.097233 0.000000 -0.017441
# 5 -0.020295 -0.035960 0.004729 0.000000 0.068153 0.000000
# 6 0.000000 0.000000 0.000000 -0.017441 0.000000 0.027410
#
#
# Mechanical properties :
#
#
# Convention : Reuss Voigt Hill
#
# Bulk Modulus (GPa) = 15.07200 50.26376 32.66788
# Shear Modulus (GPa) = 15.30548 29.44320 22.37434
#
# Velocity S-wave (km/s) = 2.65413 3.68121 3.20902
# Velocity P-wave (km/s) = 4.04097 6.41891 5.36339
#
# Compressibility (1/GPa) = 0.06634821
#
# Stress axis : x y z
#
# Youngs Moduli (GPa) = 65.97538 18.10269 53.58911
#
# Poissons Ratio (x) = -0.18220 0.30571
# Poissons Ratio (y) = -0.66402 0.84214
# Poissons Ratio (z) = 0.37638 0.28448
#
# Static dielectric constant tensor:
#      x y z
#    x 1.857080 0.000000 0.045720 
#    y 0.000000 1.813360 0.000000 
#    z 0.045720 0.000000 1.861530 
# 
# From -- ./inp_files/75451.got.cif
#   From: 2010.05.17/outbox.cif.g08.bks.cpg/sg13_38_cif.got.tgz:75451.got - 2010.06.03 16:44:36.
