data_PCOD9229026
_publ_section_title
;
Structure prediction by ZEFSAII (Michael W. Deem and Ramdas Pophale) SiO2 
 PCOD9229026
Probable space group: P 2/C
;
_chemical_formula_sum "Si O2"
_cell_formula_units_Z 32
_cell_length_a 13.150803
_cell_length_b 14.647113
_cell_length_c 7.484157
_cell_angle_alpha 90.000000
_cell_angle_beta 101.913754
_cell_angle_gamma 90.000000
_cell_volume 1410.555013
_symmetry_space_group_name_H-M "P 2/C"
_symmetry_group_IT_number 13
_symmetry_cell_setting 'monoclinic'
loop_
_space_group_symop_operation_xyz
x,y,z
-x,y,1/2-z
-x,-y,-z
x,-y,1/2+z
loop_
_atom_site_type_symbol
_atom_site_label
_atom_site_fract_x
_atom_site_fract_y
_atom_site_fract_z
Si Si1 0.399615 0.063701 0.439923
Si Si2 0.585892 0.730249 0.521791
Si Si3 0.817088 0.589438 0.933139
Si Si4 0.953561 0.902452 0.928534
Si Si5 0.987574 0.294254 0.027040
Si Si6 0.356276 0.718074 0.530088
Si Si7 0.221669 0.620321 0.000656
Si Si8 0.283322 0.091038 0.051487
O O1 0.406846 0.162946 0.532078
O O2 0.376625 0.085550 0.227207
O O3 0.500000 0.000000 0.500000
O O4 0.299568 0.003040 0.454664
O O5 0.465589 0.702252 0.473721
O O6 0.618437 0.724007 0.745429
O O7 0.665527 0.666555 0.443307
O O8 0.931026 0.630377 0.016243
O O9 0.729846 0.640398 0.018421
O O10 0.798333 0.615867 0.720053
O O11 0.798226 0.482179 0.941683
O O12 0.986556 0.807176 0.031895
O O13 0.829284 0.903962 0.901268
O O14 0.000000 0.891339 0.750000
O O15 0.000000 0.000000 0.000000
O O16 0.000000 0.296566 0.250000
O O17 0.868747 0.318398 0.948248
O O18 0.306975 0.815387 0.457057
#
# Coordination Sequence:
#
# PCOD9229026 Si02
#       8
#     4   4   4   4   4   4   4   4
#     4  11  21  35  59  86 116 150 194 234 283 342
#     4   9  19  33  55  83 109 145 188 228 277 341
#     4  10  19  37  57  81 106 142 187 234 286 335
#     4  11  23  38  58  87 118 156 194 236 288 345
#     4   9  19  35  59  81 107 147 195 229 272 344
#     4   9  17  34  56  80 108 145 190 227 270 340
#     4  10  21  35  59  81 108 143 187 240 283 337
#     4  11  21  36  58  84 115 154 191 240 282 339
#
# _framework density 22.686105999999999
#
# number of rings (size 3 to 8) (size 9 to 14) (size 15 to 20)
#    0.000    2.000    2.500    1.500    7.000    0.500 
#    0.000    2.500    0.000    0.000    0.000    0.000 
#    0.000    0.000    0.000    0.000    0.000    0.000 
#
# Total GULP energy -178660.257245 kJ/mol
# GULP energy per Si atom -5583.133039 kJ/mol
# Density = 2.263447 g / cm^3
# Si number density = 22.686106 Si / 1000 Ang^3
#
#
#
# Elastic Constant Matrix: (Units=GPa)
#
#
# Indices 1 2 3 4 5 6 
#
# 1 215.4485 100.7082 19.9836 0.0000 -20.5807 0.0000
# 2 100.7082 160.4726 10.8472 0.0000 -8.0239 0.0000
# 3 19.9836 10.8472 25.3120 0.0000 -0.1932 0.0000
# 4 0.0000 0.0000 0.0000 21.0354 0.0000 -7.2247
# 5 -20.5807 -8.0239 -0.1932 0.0000 20.1246 0.0000
# 6 0.0000 0.0000 0.0000 -7.2247 0.0000 41.9638
#
#
#
# Elastic Compliance Matrix: (Units=1/GPa)
#
#
# Indices 1 2 3 4 5 6 
#
# 1 0.007540 -0.004152 -0.004127 0.000000 0.006016 0.000000
# 2 -0.004152 0.008836 -0.000514 0.000000 -0.000728 0.000000
# 3 -0.004127 -0.000514 0.042955 0.000000 -0.004014 0.000000
# 4 0.000000 0.000000 0.000000 0.050527 0.000000 0.008699
# 5 0.006016 -0.000728 -0.004014 0.000000 0.055514 0.000000
# 6 0.000000 0.000000 0.000000 0.008699 0.000000 0.025328
#
#
# Mechanical properties :
#
#
# Convention : Reuss Voigt Hill
#
# Bulk Modulus (GPa) = 23.95570 73.81237 48.88403
# Shear Modulus (GPa) = 22.50229 34.60436 28.55332
#
# Velocity S-wave (km/s) = 3.15286 3.90982 3.55156
# Velocity P-wave (km/s) = 4.88227 7.27937 6.19781
#
# Compressibility (1/GPa) = 0.04174373
#
# Stress axis : x y z
#
# Youngs Moduli (GPa) = 132.63132 113.17888 23.28011
#
# Poissons Ratio (x) = 0.46991 0.09609
# Poissons Ratio (y) = 0.55068 0.01197
# Poissons Ratio (z) = 0.54742 0.05818
#
# Static dielectric constant tensor:
#      x y z
#    x 1.797550 0.000000 -0.008150 
#    y 0.000000 1.903780 0.000000 
#    z -0.008150 0.000000 1.931620 
# 
# From -- ./inp_files/33845.got.cif
#   From: 2010.05.17/outbox.cif.g08.bks.cpg/sg13_17_cif.got.tgz:33845.got - 2010.06.03 16:44:36.
