data_PCOD9229495
_publ_section_title
;
Structure prediction by ZEFSAII (Michael W. Deem and Ramdas Pophale) SiO2 
 PCOD9229495
Probable space group: P 2/C
;
_chemical_formula_sum "Si O2"
_cell_formula_units_Z 32
_cell_length_a 18.685763
_cell_length_b 5.201134
_cell_length_c 21.340184
_cell_angle_alpha 90.000000
_cell_angle_beta 51.321884
_cell_angle_gamma 90.000000
_cell_volume 1619.101452
_symmetry_space_group_name_H-M "P 2/C"
_symmetry_group_IT_number 13
_symmetry_cell_setting 'monoclinic'
loop_
_space_group_symop_operation_xyz
x,y,z
-x,y,1/2-z
-x,-y,-z
x,-y,1/2+z
loop_
_atom_site_type_symbol
_atom_site_label
_atom_site_fract_x
_atom_site_fract_y
_atom_site_fract_z
Si Si1 0.696274 0.642105 0.190197
Si Si2 0.395627 0.988881 0.080316
Si Si3 0.891864 0.214084 0.588222
Si Si4 0.363804 0.484118 0.026326
Si Si5 0.728267 0.638611 0.540433
Si Si6 0.912456 0.284447 0.992605
Si Si7 0.464687 0.335548 0.647234
Si Si8 0.416376 0.010471 0.329385
O O1 0.792736 0.709959 0.169120
O O2 0.715660 0.484685 0.116138
O O3 0.618440 0.512270 0.275319
O O4 0.650580 0.899219 0.186599
O O5 0.349909 0.754729 0.067722
O O6 0.409769 0.896500 0.143338
O O7 0.353495 0.257560 0.082389
O O8 0.500000 0.000000 0.000000
O O9 0.908982 0.429639 0.524580
O O10 0.981662 0.231226 0.582503
O O11 0.889324 0.933233 0.557588
O O12 0.295051 0.459298 0.005326
O O13 0.467442 0.468603 0.939789
O O14 0.832467 0.736526 0.484913
O O15 0.646225 0.846131 0.586091
O O16 0.531942 0.220431 0.662959
O O17 0.500000 0.160179 0.250000
#
# Coordination Sequence:
#
# PCOD9229495 Si02
#       8
#     4   4   4   4   4   4   4   4
#     4  10  20  33  47  75 106 134 169 203 262 311
#     4  10  21  38  50  70  94 138 181 214 246 284
#     4   9  17  33  47  72  99 134 165 199 248 304
#     4  11  22  34  54  69 102 134 175 216 246 294
#     4  11  20  31  49  76 105 133 175 206 263 308
#     4   9  18  30  51  68 102 133 163 204 245 301
#     4  10  20  36  50  70 104 141 174 213 253 303
#     4  10  20  30  44  71 107 141 163 204 251 311
#
# _framework density 19.764050999999998
#
# number of rings (size 3 to 8) (size 9 to 14) (size 15 to 20)
#    0.000    2.000    2.500    3.000    1.750    0.000 
#    2.250    0.000    0.000    0.000    0.000    0.875 
#    0.000    8.000    0.000    0.000    0.000    0.250 
#
# Total GULP energy -178344.904176 kJ/mol
# GULP energy per Si atom -5573.278256 kJ/mol
# Density = 1.971907 g / cm^3
# Si number density = 19.764051 Si / 1000 Ang^3
#
#
#
# Elastic Constant Matrix: (Units=GPa)
#
#
# Indices 1 2 3 4 5 6 
#
# 1 108.8622 14.4637 39.4487 0.0000 -23.5043 0.0000
# 2 14.4637 66.5477 2.5817 0.0000 1.0570 0.0000
# 3 39.4487 2.5817 35.3060 0.0000 -8.1835 0.0000
# 4 0.0000 0.0000 0.0000 15.5027 0.0000 3.0196
# 5 -23.5043 1.0570 -8.1835 0.0000 34.2451 0.0000
# 6 0.0000 0.0000 0.0000 3.0196 0.0000 26.8766
#
#
#
# Elastic Compliance Matrix: (Units=1/GPa)
#
#
# Indices 1 2 3 4 5 6 
#
# 1 0.017818 -0.003311 -0.017794 0.000000 0.008080 0.000000
# 2 -0.003311 0.015704 0.002024 0.000000 -0.002273 0.000000
# 3 -0.017794 0.002024 0.047864 0.000000 -0.000838 0.000000
# 4 0.000000 0.000000 0.000000 0.065948 0.000000 -0.007409
# 5 0.008080 -0.002273 -0.000838 0.000000 0.034617 0.000000
# 6 0.000000 0.000000 0.000000 -0.007409 0.000000 0.038040
#
#
# Mechanical properties :
#
#
# Convention : Reuss Voigt Hill
#
# Bulk Modulus (GPa) = 23.13526 35.96711 29.55118
# Shear Modulus (GPa) = 18.34450 25.60633 21.97541
#
# Velocity S-wave (km/s) = 3.04990 3.60335 3.33812
# Velocity P-wave (km/s) = 4.91260 5.96238 5.46277
#
# Compressibility (1/GPa) = 0.04322407
#
# Stress axis : x y z
#
# Youngs Moduli (GPa) = 56.12149 63.67815 20.89254
#
# Poissons Ratio (x) = 0.21082 0.37177
# Poissons Ratio (y) = 0.18580 -0.04229
# Poissons Ratio (z) = 0.99865 -0.12888
#
# Static dielectric constant tensor:
#      x y z
#    x 1.757690 0.000000 -0.007160 
#    y 0.000000 1.820980 0.000000 
#    z -0.007160 0.000000 1.753260 
# 
# From -- ./inp_files/80661.got.cif
#   From: 2010.05.17/outbox.cif.g08.bks.cpg/sg13_41_cif.got.tgz:80661.got - 2010.06.03 16:44:36.
