data_PCOD9229342
_publ_section_title
;
Structure prediction by ZEFSAII (Michael W. Deem and Ramdas Pophale) SiO2 
 PCOD9229342
Probable space group: P 2/C
;
_chemical_formula_sum "Si O2"
_cell_formula_units_Z 26
_cell_length_a 12.795428
_cell_length_b 13.779383
_cell_length_c 9.560112
_cell_angle_alpha 90.000000
_cell_angle_beta 129.262140
_cell_angle_gamma 90.000000
_cell_volume 1305.069345
_symmetry_space_group_name_H-M "P 2/C"
_symmetry_group_IT_number 13
_symmetry_cell_setting 'monoclinic'
loop_
_space_group_symop_operation_xyz
x,y,z
-x,y,1/2-z
-x,-y,-z
x,-y,1/2+z
loop_
_atom_site_type_symbol
_atom_site_label
_atom_site_fract_x
_atom_site_fract_y
_atom_site_fract_z
Si Si1 0.489243 0.387814 0.455531
Si Si2 0.149543 0.938784 0.185546
Si Si3 0.419372 0.894549 0.565821
Si Si4 0.578007 0.204771 0.952557
Si Si5 0.292327 0.303161 0.053314
Si Si6 0.000000 0.221390 0.750000
Si Si7 0.862427 0.878904 0.643174
O O1 0.500000 0.500000 0.500000
O O2 0.454248 0.317775 0.553252
O O3 0.635050 0.353763 0.518211
O O4 0.368157 0.359886 0.243474
O O5 0.297010 0.940774 0.380926
O O6 0.061983 0.851365 0.182692
O O7 0.099912 0.041360 0.205521
O O8 0.167896 0.925735 0.035221
O O9 0.500000 0.954165 0.750000
O O10 0.517102 0.851920 0.532115
O O11 0.352430 0.805650 0.595555
O O12 0.500000 0.172250 0.750000
O O13 0.734993 0.183126 0.077074
O O14 0.130272 0.286152 0.909484
O O15 0.000000 0.818036 0.750000
#
# Coordination Sequence:
#
# PCOD9229342 Si02
#       7
#     4   4   4   4   4   2   4
#     4  10  21  39  67  95 122 159 212 261 328 394
#     4  11  25  40  61  92 124 177 220 265 309 379
#     4  10  19  39  63  89 121 164 220 259 316 375
#     4  11  23  41  62  90 128 163 209 277 321 374
#     4   9  19  38  62  95 117 164 208 251 322 387
#     4  10  22  40  68  82 132 164 214 262 312 378
#     4  12  27  41  60  91 130 170 223 256 325 373
#
# _framework density 19.922315000000001
#
# number of rings (size 3 to 8) (size 9 to 14) (size 15 to 20)
#    0.000    1.538    5.385    0.462    6.462    1.231 
#    0.000    0.769    1.692    0.000    0.000    0.000 
#    0.000    0.000    0.000    0.000    0.000    0.000 
#
# Total GULP energy -144974.615579 kJ/mol
# GULP energy per Si atom -5575.946753 kJ/mol
# Density = 1.987697 g / cm^3
# Si number density = 19.922315 Si / 1000 Ang^3
#
#
#
# Elastic Constant Matrix: (Units=GPa)
#
#
# Indices 1 2 3 4 5 6 
#
# 1 123.3840 34.6392 46.9504 0.0000 32.7478 0.0000
# 2 34.6392 93.2188 17.0103 0.0000 6.4101 0.0000
# 3 46.9504 17.0103 74.4840 0.0000 12.0416 0.0000
# 4 0.0000 0.0000 0.0000 14.3962 0.0000 13.2079
# 5 32.7478 6.4101 12.0416 0.0000 48.3543 0.0000
# 6 0.0000 0.0000 0.0000 13.2079 0.0000 -35.0600
#
#
#
# Elastic Compliance Matrix: (Units=1/GPa)
#
#
# Indices 1 2 3 4 5 6 
#
# 1 0.013378 -0.003295 -0.006550 0.000000 -0.006992 0.000000
# 2 -0.003295 0.012042 -0.000808 0.000000 0.000837 0.000000
# 3 -0.006550 -0.000808 0.017718 0.000000 0.000131 0.000000
# 4 0.000000 0.000000 0.000000 0.051621 0.000000 0.019447
# 5 -0.006992 0.000837 0.000131 0.000000 0.025273 0.000000
# 6 0.000000 0.000000 0.000000 0.019447 0.000000 -0.021196
#
#
# Mechanical properties :
#
#
# Convention : Reuss Voigt Hill
#
# Bulk Modulus (GPa) = 45.80575 54.25406 50.02990
# Shear Modulus (GPa) = 39.24076 18.37057 28.80566
#
# Velocity S-wave (km/s) = 4.44293 3.03992 3.80662
# Velocity P-wave (km/s) = 7.02578 6.29392 6.66990
#
# Compressibility (1/GPa) = 0.02183132
#
# Stress axis : x y z
#
# Youngs Moduli (GPa) = 74.74912 83.04368 56.44053
#
# Poissons Ratio (x) = 0.27364 0.36967
# Poissons Ratio (y) = 0.24631 0.04562
# Poissons Ratio (z) = 0.48959 0.06712
#
# Static dielectric constant tensor:
#      x y z
#    x 1.824510 0.000000 0.041230 
#    y 0.000000 1.703710 0.000000 
#    z 0.041230 0.000000 1.801730 
# 
# From -- ./inp_files/16591.got.cif
#   From: 2010.05.17/outbox.cif.g08.bks.cpg/sg13_9_cif.got.tgz:16591.got - 2010.06.03 16:44:36.
