data_PCOD9229595
_publ_section_title
;
Structure prediction by ZEFSAII (Michael W. Deem and Ramdas Pophale) SiO2 
 PCOD9229595
Probable space group: P 2/C
;
_chemical_formula_sum "Si O2"
_cell_formula_units_Z 30
_cell_length_a 18.956761
_cell_length_b 9.384867
_cell_length_c 17.724386
_cell_angle_alpha 90.000000
_cell_angle_beta 24.298245
_cell_angle_gamma 90.000000
_cell_volume 1297.534716
_symmetry_space_group_name_H-M "P 2/C"
_symmetry_group_IT_number 13
_symmetry_cell_setting 'monoclinic'
loop_
_space_group_symop_operation_xyz
x,y,z
-x,y,1/2-z
-x,-y,-z
x,-y,1/2+z
loop_
_atom_site_type_symbol
_atom_site_label
_atom_site_fract_x
_atom_site_fract_y
_atom_site_fract_z
Si Si1 0.256824 0.740605 0.612735
Si Si2 0.897734 0.071949 0.987385
Si Si3 0.098631 0.596198 0.053313
Si Si4 0.574578 0.303245 0.995210
Si Si5 0.725652 0.005570 0.810542
Si Si6 0.225212 0.553801 0.775950
Si Si7 0.000000 0.885738 0.750000
Si Si8 0.286383 0.458684 0.512230
O O1 0.340707 0.877616 0.570488
O O2 0.162879 0.667951 0.775476
O O3 0.357077 0.607103 0.478080
O O4 0.128684 0.791517 0.673418
O O5 0.882172 0.234653 0.976494
O O6 0.894815 0.978128 0.913996
O O7 0.767263 0.034317 0.182786
O O8 0.087925 0.046836 0.836236
O O9 0.253636 0.541953 0.955188
O O10 0.911378 0.562091 0.268233
O O11 0.108163 0.531760 0.961299
O O12 0.714087 0.406362 0.819255
O O13 0.609508 0.331057 0.049974
O O14 0.608316 0.143461 0.936295
O O15 0.395128 0.367903 0.144055
#
# Coordination Sequence:
#
# PCOD9229595 Si02
#       8
#     4   4   4   4   4   4   2   4
#     4  10  21  38  55  92 114 161 191 257 293 378
#     4  10  20  33  56  94 117 157 193 251 309 362
#     4  11  20  37  60  92 117 157 198 264 288 375
#     4  10  22  41  60  87 114 171 193 253 294 369
#     4  10  20  36  60  85 124 150 204 242 307 358
#     4  10  23  40  62  85 122 152 219 237 302 352
#     4  10  20  32  58  82 134 144 190 242 320 346
#     4  10  22  35  62  87 123 151 207 241 323 342
#
# _framework density 23.120768000000002
#
# number of rings (size 3 to 8) (size 9 to 14) (size 15 to 20)
#    0.000    1.867    2.667    1.600    1.867    7.467 
#    0.000    0.000    0.000    2.400    0.000    0.000 
#    0.000    0.000    0.000    0.000    0.000    0.000 
#
# Total GULP energy -167634.423386 kJ/mol
# GULP energy per Si atom -5587.814113 kJ/mol
# Density = 2.306814 g / cm^3
# Si number density = 23.120768 Si / 1000 Ang^3
#
#
#
# Elastic Constant Matrix: (Units=GPa)
#
#
# Indices 1 2 3 4 5 6 
#
# 1 140.8892 37.3610 23.8097 0.0000 25.1613 0.0000
# 2 37.3610 139.0335 17.4516 0.0000 6.8184 0.0000
# 3 23.8097 17.4516 60.9511 0.0000 4.9491 0.0000
# 4 0.0000 0.0000 0.0000 14.1584 0.0000 -2.9126
# 5 25.1613 6.8184 4.9491 0.0000 31.6545 0.0000
# 6 0.0000 0.0000 0.0000 -2.9126 0.0000 37.8089
#
#
#
# Elastic Compliance Matrix: (Units=1/GPa)
#
#
# Indices 1 2 3 4 5 6 
#
# 1 0.009171 -0.001828 -0.002531 0.000000 -0.006500 0.000000
# 2 -0.001828 0.007877 -0.001541 0.000000 -0.000003 0.000000
# 3 -0.002531 -0.001541 0.017873 0.000000 -0.000450 0.000000
# 4 0.000000 0.000000 0.000000 0.071767 0.000000 0.005529
# 5 -0.006500 -0.000003 -0.000450 0.000000 0.036829 0.000000
# 6 0.000000 0.000000 0.000000 0.005529 0.000000 0.026875
#
#
# Mechanical properties :
#
#
# Convention : Reuss Voigt Hill
#
# Bulk Modulus (GPa) = 43.25111 55.34647 49.29879
# Shear Modulus (GPa) = 26.32958 34.20779 30.26869
#
# Velocity S-wave (km/s) = 3.37825 3.85063 3.62215
# Velocity P-wave (km/s) = 5.82786 6.61512 6.23393
#
# Compressibility (1/GPa) = 0.02312080
#
# Stress axis : x y z
#
# Youngs Moduli (GPa) = 109.03682 126.94702 55.94947
#
# Poissons Ratio (x) = 0.23205 0.14163
# Poissons Ratio (y) = 0.19931 0.08623
# Poissons Ratio (z) = 0.27602 0.19564
#
# Static dielectric constant tensor:
#      x y z
#    x 1.931290 0.000000 0.004380 
#    y 0.000000 1.878820 0.000000 
#    z 0.004380 0.000000 1.914820 
# 
# From -- ./inp_files/70565.got.cif
#   From: 2010.05.17/outbox.cif.g08.bks.cpg/sg13_36_cif.got.tgz:70565.got - 2010.06.03 16:44:36.
