data_PCOD9229105
_publ_section_title
;
Structure prediction by ZEFSAII (Michael W. Deem and Ramdas Pophale) SiO2 
 PCOD9229105
Probable space group: P 2/C
;
_chemical_formula_sum "Si O2"
_cell_formula_units_Z 24
_cell_length_a 9.944383
_cell_length_b 8.118384
_cell_length_c 13.412603
_cell_angle_alpha 90.000000
_cell_angle_beta 88.922203
_cell_angle_gamma 90.000000
_cell_volume 1082.638977
_symmetry_space_group_name_H-M "P 2/C"
_symmetry_group_IT_number 13
_symmetry_cell_setting 'monoclinic'
loop_
_space_group_symop_operation_xyz
x,y,z
-x,y,1/2-z
-x,-y,-z
x,-y,1/2+z
loop_
_atom_site_type_symbol
_atom_site_label
_atom_site_fract_x
_atom_site_fract_y
_atom_site_fract_z
Si Si1 0.266783 0.082534 0.896463
Si Si2 0.130599 0.457295 0.563212
Si Si3 0.679309 0.058684 0.833623
Si Si4 0.628100 0.742073 0.520658
Si Si5 0.349547 0.715927 0.586535
Si Si6 0.967056 0.123879 0.860295
O O1 0.301845 0.119252 0.779725
O O2 0.104742 0.086013 0.913293
O O3 0.331366 0.905391 0.918937
O O4 0.318988 0.210448 0.977163
O O5 0.241807 0.371847 0.490885
O O6 0.222367 0.599265 0.612548
O O7 0.073613 0.316357 0.636982
O O8 0.000000 0.500000 0.500000
O O9 0.825298 0.042505 0.885748
O O10 0.631359 0.871454 0.840274
O O11 0.602608 0.184145 0.908323
O O12 0.501211 0.649897 0.570744
O O13 0.000000 0.065342 0.750000
#
# Coordination Sequence:
#
# PCOD9229105 Si02
#       6
#     4   4   4   4   4   4
#     4  10  19  37  62  86 116 145 196 237 289 339
#     4  11  22  39  59  79 117 158 191 230 288 343
#     4   9  20  36  61  87 112 149 189 243 285 335
#     4  10  23  37  58  86 119 149 189 238 285 344
#     4  11  22  37  58  88 116 151 190 236 289 340
#     4   9  19  37  58  87 114 148 195 242 280 336
#
# _framework density 22.168054999999999
#
# number of rings (size 3 to 8) (size 9 to 14) (size 15 to 20)
#    0.000    2.000    1.667    2.500    2.333    4.667 
#    3.000    0.000    0.000    4.000    0.000    0.000 
#    0.000    0.000    0.000    0.000    0.000    0.000 
#
# Total GULP energy -133703.910675 kJ/mol
# GULP energy per Si atom -5570.996278 kJ/mol
# Density = 2.211760 g / cm^3
# Si number density = 22.168055 Si / 1000 Ang^3
#
#
#
# Elastic Constant Matrix: (Units=GPa)
#
#
# Indices 1 2 3 4 5 6 
#
# 1 102.8879 4.3890 -4.8176 0.0000 -0.3631 0.0000
# 2 4.3890 48.9606 -14.9460 0.0000 -0.3461 0.0000
# 3 -4.8176 -14.9460 64.2210 0.0000 0.4612 0.0000
# 4 0.0000 0.0000 0.0000 15.1726 0.0000 -2.0945
# 5 -0.3631 -0.3461 0.4612 0.0000 20.7823 0.0000
# 6 0.0000 0.0000 0.0000 -2.0945 0.0000 24.7836
#
#
#
# Elastic Compliance Matrix: (Units=1/GPa)
#
#
# Indices 1 2 3 4 5 6 
#
# 1 0.009776 -0.000702 0.000569 0.000000 0.000147 0.000000
# 2 -0.000702 0.022038 0.005075 0.000000 0.000242 0.000000
# 3 0.000569 0.005075 0.016797 0.000000 -0.000278 0.000000
# 4 0.000000 0.000000 0.000000 0.066686 0.000000 0.005636
# 5 0.000147 0.000242 -0.000278 0.000000 0.048131 0.000000
# 6 0.000000 0.000000 0.000000 0.005636 0.000000 0.040826
#
#
# Mechanical properties :
#
#
# Convention : Reuss Voigt Hill
#
# Bulk Modulus (GPa) = 17.09532 20.59113 18.84323
# Shear Modulus (GPa) = 23.37882 27.57731 25.47806
#
# Velocity S-wave (km/s) = 3.25101 3.53088 3.39383
# Velocity P-wave (km/s) = 4.67124 5.09231 4.88632
#
# Compressibility (1/GPa) = 0.05849553
#
# Stress axis : x y z
#
# Youngs Moduli (GPa) = 102.28702 45.37555 59.53478
#
# Poissons Ratio (x) = 0.03184 -0.03388
# Poissons Ratio (y) = 0.07177 -0.30211
# Poissons Ratio (z) = -0.05821 -0.23026
#
# Static dielectric constant tensor:
#      x y z
#    x 1.918520 0.000000 0.000530 
#    y 0.000000 1.890470 0.000000 
#    z 0.000530 0.000000 1.800980 
# 
# From -- ./inp_files/46108.got.cif
#   From: 2010.05.17/outbox.cif.g08.bks.cpg/sg13_24_cif.got.tgz:46108.got - 2010.06.03 16:44:36.
