data_PCOD9229399
_publ_section_title
;
Structure prediction by ZEFSAII (Michael W. Deem and Ramdas Pophale) SiO2 
 PCOD9229399
Probable space group: P 2/C
;
_chemical_formula_sum "Si O2"
_cell_formula_units_Z 22
_cell_length_a 23.093114
_cell_length_b 7.389119
_cell_length_c 15.151556
_cell_angle_alpha 90.000000
_cell_angle_beta 18.882791
_cell_angle_gamma 90.000000
_cell_volume 836.730348
_symmetry_space_group_name_H-M "P 2/C"
_symmetry_group_IT_number 13
_symmetry_cell_setting 'monoclinic'
loop_
_space_group_symop_operation_xyz
x,y,z
-x,y,1/2-z
-x,-y,-z
x,-y,1/2+z
loop_
_atom_site_type_symbol
_atom_site_label
_atom_site_fract_x
_atom_site_fract_y
_atom_site_fract_z
Si Si1 0.889389 0.102784 0.291337
Si Si2 0.500000 0.485267 0.250000
Si Si3 0.424056 0.644343 0.041009
Si Si4 0.716170 0.016353 0.211116
Si Si5 0.205034 0.752581 0.748291
Si Si6 0.981517 0.503943 0.873526
O O1 0.766052 0.991025 0.536029
O O2 0.834236 0.096835 0.268906
O O3 0.890379 0.320618 0.311157
O O4 0.090037 0.042374 0.024396
O O5 0.525535 0.371775 0.301921
O O6 0.334700 0.613215 0.511915
O O7 0.421198 0.851948 0.075244
O O8 0.216220 0.588899 0.330979
O O9 0.500000 0.500000 0.000000
O O10 0.690081 0.183226 0.315299
O O11 0.024738 0.649697 0.042087
O O12 0.000000 0.416961 0.750000
#
# Coordination Sequence:
#
# PCOD9229399 Si02
#       6
#     4   2   4   4   4   4
#     4  10  19  40  62  89 128 165 208 262 330 380
#     4  10  24  38  56  88 122 166 218 256 302 406
#     4  10  20  41  63  85 122 173 210 256 321 384
#     4  10  21  38  62  93 127 161 215 272 315 386
#     4  11  23  38  62  93 127 165 210 275 325 370
#     4  10  20  38  63  93 125 161 221 265 307 396
#
# _framework density 26.292819000000001
#
# number of rings (size 3 to 8) (size 9 to 14) (size 15 to 20)
#    0.000    1.818    3.636    2.182    2.545    0.727 
#    0.000   10.000    0.000    0.000    0.000    0.000 
#    0.000    0.000    0.000    0.000    0.000    0.000 
#
# Total GULP energy -123030.412228 kJ/mol
# GULP energy per Si atom -5592.291465 kJ/mol
# Density = 2.623297 g / cm^3
# Si number density = 26.292819 Si / 1000 Ang^3
#
#
#
# Elastic Constant Matrix: (Units=GPa)
#
#
# Indices 1 2 3 4 5 6 
#
# 1 133.6284 40.4130 37.4939 0.0000 45.1413 0.0000
# 2 40.4130 88.6088 15.4431 0.0000 19.8715 0.0000
# 3 37.4939 15.4431 88.9467 0.0000 44.2797 0.0000
# 4 0.0000 0.0000 0.0000 46.8876 0.0000 8.9222
# 5 45.1413 19.8715 44.2797 0.0000 50.6312 0.0000
# 6 0.0000 0.0000 0.0000 8.9222 0.0000 45.6466
#
#
#
# Elastic Compliance Matrix: (Units=1/GPa)
#
#
# Indices 1 2 3 4 5 6 
#
# 1 0.011499 -0.003222 0.000330 0.000000 -0.009276 0.000000
# 2 -0.003222 0.013289 0.000385 0.000000 -0.002680 0.000000
# 3 0.000330 0.000385 0.019940 0.000000 -0.017884 0.000000
# 4 0.000000 0.000000 0.000000 0.022152 0.000000 -0.004330
# 5 -0.009276 -0.002680 -0.017884 0.000000 0.044713 0.000000
# 6 0.000000 0.000000 0.000000 -0.004330 0.000000 0.022754
#
#
# Mechanical properties :
#
#
# Convention : Reuss Voigt Hill
#
# Bulk Modulus (GPa) = 25.18006 55.32043 40.25024
# Shear Modulus (GPa) = 32.76615 43.15535 37.96075
#
# Velocity S-wave (km/s) = 3.53399 4.05574 3.80382
# Velocity P-wave (km/s) = 5.12344 6.55880 5.88504
#
# Compressibility (1/GPa) = 0.03971396
#
# Stress axis : x y z
#
# Youngs Moduli (GPa) = 86.96597 75.25143 50.15160
#
# Poissons Ratio (x) = 0.24243 -0.01656
# Poissons Ratio (y) = 0.28017 -0.01930
# Poissons Ratio (z) = -0.02872 -0.02896
#
# Static dielectric constant tensor:
#      x y z
#    x 2.130220 0.000000 -0.091290 
#    y 0.000000 2.166730 0.000000 
#    z -0.091290 0.000000 2.076650 
# 
# From -- ./inp_files/58645.got.cif
#   From: 2010.05.17/outbox.cif.g08.bks.cpg/sg13_30_cif.got.tgz:58645.got - 2010.06.03 16:44:36.
