data_PCOD9229724
_publ_section_title
;
Structure prediction by ZEFSAII (Michael W. Deem and Ramdas Pophale) SiO2 
 PCOD9229724
Probable space group: P 2/C
;
_chemical_formula_sum "Si O2"
_cell_formula_units_Z 32
_cell_length_a 13.192369
_cell_length_b 24.996791
_cell_length_c 5.131709
_cell_angle_alpha 90.000000
_cell_angle_beta 78.128168
_cell_angle_gamma 90.000000
_cell_volume 1656.070524
_symmetry_space_group_name_H-M "P 2/C"
_symmetry_group_IT_number 13
_symmetry_cell_setting 'monoclinic'
loop_
_space_group_symop_operation_xyz
x,y,z
-x,y,1/2-z
-x,-y,-z
x,-y,1/2+z
loop_
_atom_site_type_symbol
_atom_site_label
_atom_site_fract_x
_atom_site_fract_y
_atom_site_fract_z
Si Si1 0.929232 0.807756 0.531371
Si Si2 0.205809 0.708350 0.749426
Si Si3 0.429455 0.872393 0.531330
Si Si4 0.124309 0.471723 0.720954
Si Si5 0.703826 0.969502 0.727251
Si Si6 0.929513 0.069675 0.031555
Si Si7 0.428998 0.251050 0.030230
Si Si8 0.881313 0.348351 0.713843
O O1 0.839309 0.766004 0.639445
O O2 0.894975 0.868706 0.493381
O O3 0.000000 0.809028 0.750000
O O4 0.000000 0.790134 0.250000
O O5 0.325224 0.715007 0.612301
O O6 0.142449 0.684203 0.537462
O O7 0.188667 0.672177 0.011879
O O8 0.500000 0.872265 0.750000
O O9 0.339082 0.913942 0.639611
O O10 0.395891 0.811129 0.502736
O O11 0.500000 0.889010 0.250000
O O12 0.164956 0.486862 0.414559
O O13 0.139428 0.411416 0.809595
O O14 0.000000 0.477840 0.750000
O O15 0.827524 0.964330 0.637846
O O16 0.669578 0.986096 0.456008
O O17 0.000000 0.070570 0.250000
O O18 0.000000 0.052576 0.750000
O O19 0.500000 0.253283 0.250000
O O20 0.500000 0.267066 0.750000
O O21 0.000000 0.342103 0.750000
#
# Coordination Sequence:
#
# PCOD9229724 Si02
#       8
#     4   4   4   4   4   4   4   4
#     4  10  20  34  53  77 106 142 178 210 258 326
#     4  12  21  34  55  80 116 146 177 229 284 325
#     4  10  22  41  62  82 106 135 171 217 271 331
#     4   9  17  31  49  70 106 156 197 226 258 305
#     4  12  25  38  57  83 107 134 171 216 270 321
#     4  10  22  39  56  75 103 141 182 215 248 306
#     4  10  22  40  60  81 106 143 187 226 271 333
#     4  11  22  33  51  84 121 154 188 224 270 325
#
# _framework density 19.322848
#
# number of rings (size 3 to 8) (size 9 to 14) (size 15 to 20)
#    0.000    1.500    0.000    6.000    0.000    5.000 
#    0.000   10.000    0.000    0.000    0.000    0.000 
#    0.000   35.000    0.000    0.000    0.000    0.000 
#
# Total GULP energy -178816.483559 kJ/mol
# GULP energy per Si atom -5588.015111 kJ/mol
# Density = 1.927887 g / cm^3
# Si number density = 19.322848 Si / 1000 Ang^3
#
#
#
# Elastic Constant Matrix: (Units=GPa)
#
#
# Indices 1 2 3 4 5 6 
#
# 1 35.3351 13.8231 26.4192 0.0000 -9.6791 0.0000
# 2 13.8231 65.0559 24.5082 0.0000 -5.7471 0.0000
# 3 26.4192 24.5082 151.0426 0.0000 -4.9966 0.0000
# 4 0.0000 0.0000 0.0000 56.1414 0.0000 11.7027
# 5 -9.6791 -5.7471 -4.9966 0.0000 26.3228 0.0000
# 6 0.0000 0.0000 0.0000 11.7027 0.0000 20.4125
#
#
#
# Elastic Compliance Matrix: (Units=1/GPa)
#
#
# Indices 1 2 3 4 5 6 
#
# 1 0.037426 -0.004900 -0.005365 0.000000 0.011674 0.000000
# 2 -0.004900 0.017267 -0.001892 0.000000 0.001609 0.000000
# 3 -0.005365 -0.001892 0.007836 0.000000 -0.000898 0.000000
# 4 0.000000 0.000000 0.000000 0.020230 0.000000 -0.011598
# 5 0.011674 0.001609 -0.000898 0.000000 0.042463 0.000000
# 6 0.000000 0.000000 0.000000 -0.011598 0.000000 0.055639
#
#
# Mechanical properties :
#
#
# Convention : Reuss Voigt Hill
#
# Bulk Modulus (GPa) = 26.16647 42.32608 34.24628
# Shear Modulus (GPa) = 22.94483 33.02085 27.98284
#
# Velocity S-wave (km/s) = 3.44967 4.13837 3.80962
# Velocity P-wave (km/s) = 5.42569 6.69231 6.09201
#
# Compressibility (1/GPa) = 0.03821685
#
# Stress axis : x y z
#
# Youngs Moduli (GPa) = 26.71911 57.91306 127.61166
#
# Poissons Ratio (x) = 0.28377 0.68465
# Poissons Ratio (y) = 0.13092 0.24138
# Poissons Ratio (z) = 0.14335 0.10954
#
# Static dielectric constant tensor:
#      x y z
#    x 1.647700 0.000000 0.001960 
#    y 0.000000 1.708920 0.000000 
#    z 0.001960 0.000000 1.666760 
# 
# From -- ./inp_files/4428.got.cif
#   From: 2010.05.17/outbox.cif.g08.bks.cpg/sg13_3_cif.got.tgz:4428.got - 2010.06.03 16:44:36.
