data_PCOD9229253
_publ_section_title
;
Structure prediction by ZEFSAII (Michael W. Deem and Ramdas Pophale) SiO2 
 PCOD9229253
Probable space group: P 2/C
;
_chemical_formula_sum "Si O2"
_cell_formula_units_Z 24
_cell_length_a 24.509119
_cell_length_b 10.180070
_cell_length_c 14.205393
_cell_angle_alpha 90.000000
_cell_angle_beta 19.411858
_cell_angle_gamma 90.000000
_cell_volume 1177.973931
_symmetry_space_group_name_H-M "P 2/C"
_symmetry_group_IT_number 13
_symmetry_cell_setting 'monoclinic'
loop_
_space_group_symop_operation_xyz
x,y,z
-x,y,1/2-z
-x,-y,-z
x,-y,1/2+z
loop_
_atom_site_type_symbol
_atom_site_label
_atom_site_fract_x
_atom_site_fract_y
_atom_site_fract_z
Si Si1 0.500000 0.963754 0.750000
Si Si2 0.859767 0.361774 0.399098
Si Si3 0.137336 0.001623 0.357203
Si Si4 0.395890 0.248905 0.574209
Si Si5 0.161569 0.304557 0.807278
Si Si6 0.000000 0.177816 0.750000
Si Si7 0.734439 0.353331 0.075588
O O1 0.529908 0.871297 0.608675
O O2 0.674292 0.038182 0.477631
O O3 0.747549 0.239034 0.613234
O O4 0.756105 0.493694 0.561702
O O5 0.000000 0.375371 0.250000
O O6 0.975620 0.353478 0.119777
O O7 0.074208 0.087702 0.546388
O O8 0.150638 0.847039 0.357587
O O9 0.000000 0.000000 0.500000
O O10 0.308394 0.346966 0.639648
O O11 0.547956 0.307986 0.382911
O O12 0.215615 0.324398 0.613645
O O13 0.143792 0.269007 0.557763
#
# Coordination Sequence:
#
# PCOD9229253 Si02
#       7
#     2   4   4   4   4   2   4
#     4  10  20  40  64  86 116 160 214 248 298 366
#     4  10  22  35  62  94 120 152 203 250 303 378
#     4  11  22  43  64  87 126 164 206 257 307 365
#     4  10  19  38  63  88 115 159 203 247 298 370
#     4  10  21  39  64  87 116 163 209 242 305 369
#     4  12  26  38  62  94 124 166 202 256 314 362
#     4  12  20  42  58  89 129 155 195 255 316 356
#
# _framework density 20.373964999999998
#
# number of rings (size 3 to 8) (size 9 to 14) (size 15 to 20)
#    0.000    1.333    5.833    1.000    5.833    0.000 
#    3.000    4.167    0.000    0.000    0.000    0.000 
#    0.000    0.000    0.000    0.000    0.000    0.000 
#
# Total GULP energy -133635.086754 kJ/mol
# GULP energy per Si atom -5568.128615 kJ/mol
# Density = 2.032759 g / cm^3
# Si number density = 20.373965 Si / 1000 Ang^3
#
#
#
# Elastic Constant Matrix: (Units=GPa)
#
#
# Indices 1 2 3 4 5 6 
#
# 1 74.6665 6.6208 56.4641 0.0000 -16.1245 0.0000
# 2 6.6208 35.6160 8.1408 0.0000 -3.7653 0.0000
# 3 56.4641 8.1408 144.9832 0.0000 -17.5688 0.0000
# 4 0.0000 0.0000 0.0000 21.9774 0.0000 -6.2320
# 5 -16.1245 -3.7653 -17.5688 0.0000 38.1065 0.0000
# 6 0.0000 0.0000 0.0000 -6.2320 0.0000 14.3112
#
#
#
# Elastic Compliance Matrix: (Units=1/GPa)
#
#
# Indices 1 2 3 4 5 6 
#
# 1 0.019973 -0.001562 -0.007081 0.000000 0.005032 0.000000
# 2 -0.001562 0.028739 -0.000785 0.000000 0.001817 0.000000
# 3 -0.007081 -0.000785 0.009879 0.000000 0.001481 0.000000
# 4 0.000000 0.000000 0.000000 0.051911 0.000000 0.022605
# 5 0.005032 0.001817 0.001481 0.000000 0.029234 0.000000
# 6 0.000000 0.000000 0.000000 0.022605 0.000000 0.079719
#
#
# Mechanical properties :
#
#
# Convention : Reuss Voigt Hill
#
# Bulk Modulus (GPa) = 25.16743 44.19078 34.67911
# Shear Modulus (GPa) = 19.87624 27.14834 23.51229
#
# Velocity S-wave (km/s) = 3.12680 3.65430 3.40080
# Velocity P-wave (km/s) = 5.04137 6.28826 5.69902
#
# Compressibility (1/GPa) = 0.03973389
#
# Stress axis : x y z
#
# Youngs Moduli (GPa) = 50.06783 34.79568 101.22941
#
# Poissons Ratio (x) = 0.05436 0.71680
# Poissons Ratio (y) = 0.07822 0.07948
# Poissons Ratio (z) = 0.35453 0.02732
#
# Static dielectric constant tensor:
#      x y z
#    x 1.840540 0.000000 -0.027690 
#    y 0.000000 1.753260 0.000000 
#    z -0.027690 0.000000 1.865400 
# 
# From -- ./inp_files/58882.got.cif
#   From: 2010.05.17/outbox.cif.g08.bks.cpg/sg13_30_cif.got.tgz:58882.got - 2010.06.03 16:44:36.
