data_PCOD9229894
_publ_section_title
;
Structure prediction by ZEFSAII (Michael W. Deem and Ramdas Pophale) SiO2 
 PCOD9229894
Probable space group: P 2/C
;
_chemical_formula_sum "Si O2"
_cell_formula_units_Z 22
_cell_length_a 8.990051
_cell_length_b 8.839548
_cell_length_c 28.875408
_cell_angle_alpha 90.000000
_cell_angle_beta 157.656883
_cell_angle_gamma 90.000000
_cell_volume 872.324298
_symmetry_space_group_name_H-M "P 2/C"
_symmetry_group_IT_number 13
_symmetry_cell_setting 'monoclinic'
loop_
_space_group_symop_operation_xyz
x,y,z
-x,y,1/2-z
-x,-y,-z
x,-y,1/2+z
loop_
_atom_site_type_symbol
_atom_site_label
_atom_site_fract_x
_atom_site_fract_y
_atom_site_fract_z
Si Si1 0.943122 0.664776 0.305283
Si Si2 0.981959 0.836881 0.558003
Si Si3 0.840631 0.257836 0.536688
Si Si4 0.517698 0.069323 0.833425
Si Si5 0.500000 0.000000 0.000000
Si Si6 0.609286 0.549507 0.428371
O O1 0.907410 0.851853 0.292040
O O2 0.562206 0.598350 0.170688
O O3 0.009393 0.637536 0.377756
O O4 0.288485 0.603601 0.373481
O O5 0.685000 0.906942 0.432918
O O6 0.965477 0.658254 0.544638
O O7 0.806131 0.894250 0.555463
O O8 0.399275 0.904888 0.662561
O O9 0.545938 0.139209 0.474651
O O10 0.666643 0.372600 0.449676
O O11 0.205345 0.167991 0.620601
#
# Coordination Sequence:
#
# PCOD9229894 Si02
#       6
#     4   4   4   4   2   4
#     4  10  20  36  62  93 122 167 218 268 327 398
#     4   9  18  36  58  89 117 169 213 262 324 395
#     4  11  21  38  66  92 127 177 214 271 332 406
#     4   9  20  36  61  86 129 160 214 265 335 382
#     4  10  20  34  64  88 120 174 226 250 330 394
#     4  10  21  37  66  90 127 166 221 269 328 395
#
# _framework density 25.219978999999999
#
# number of rings (size 3 to 8) (size 9 to 14) (size 15 to 20)
#    0.000    2.182    1.818    1.091    0.000    2.909 
#    0.000    0.000   44.000    8.727    0.000    0.000 
#    0.000    0.000    0.000    0.000    0.000    0.000 
#
# Total GULP energy -122557.057389 kJ/mol
# GULP energy per Si atom -5570.775336 kJ/mol
# Density = 2.516258 g / cm^3
# Si number density = 25.219979 Si / 1000 Ang^3
#
#
#
# Elastic Constant Matrix: (Units=GPa)
#
#
# Indices 1 2 3 4 5 6 
#
# 1 143.6384 20.5804 18.7457 0.0000 -3.9112 0.0000
# 2 20.5804 126.0949 8.0332 0.0000 11.7169 0.0000
# 3 18.7457 8.0332 38.8278 0.0000 0.0074 0.0000
# 4 0.0000 0.0000 0.0000 16.8206 0.0000 6.1813
# 5 -3.9112 11.7169 0.0074 0.0000 41.4919 0.0000
# 6 0.0000 0.0000 0.0000 6.1813 0.0000 46.3212
#
#
#
# Elastic Compliance Matrix: (Units=1/GPa)
#
#
# Indices 1 2 3 4 5 6 
#
# 1 0.007599 -0.001117 -0.003438 0.000000 0.001032 0.000000
# 2 -0.001117 0.008420 -0.001202 0.000000 -0.002483 0.000000
# 3 -0.003438 -0.001202 0.027663 0.000000 0.000011 0.000000
# 4 0.000000 0.000000 0.000000 0.062516 0.000000 -0.008342
# 5 0.001032 -0.002483 0.000011 0.000000 0.024900 0.000000
# 6 0.000000 0.000000 0.000000 -0.008342 0.000000 0.022702
#
#
# Mechanical properties :
#
#
# Convention : Reuss Voigt Hill
#
# Bulk Modulus (GPa) = 31.08684 44.80883 37.94784
# Shear Modulus (GPa) = 28.40320 38.34020 33.37170
#
# Velocity S-wave (km/s) = 3.35956 3.90324 3.64156
# Velocity P-wave (km/s) = 5.23468 6.17410 5.72370
#
# Compressibility (1/GPa) = 0.03216795
#
# Stress axis : x y z
#
# Youngs Moduli (GPa) = 131.60078 118.76239 36.14916
#
# Poissons Ratio (x) = 0.13267 0.12427
# Poissons Ratio (y) = 0.14702 0.04346
# Poissons Ratio (z) = 0.45240 0.14278
#
# Static dielectric constant tensor:
#      x y z
#    x 1.936230 0.000000 0.007830 
#    y 0.000000 2.213040 0.000000 
#    z 0.007830 0.000000 2.466420 
# 
# From -- ./inp_files/96025.got.cif
#   From: 2010.05.17/outbox.cif.g08.bks.cpg/sg13_49_cif.got.tgz:96025.got - 2010.06.03 16:44:36.
