data_PCOD9229721
_publ_section_title
;
Structure prediction by ZEFSAII (Michael W. Deem and Ramdas Pophale) SiO2 
 PCOD9229721
Probable space group: P 2/C
;
_chemical_formula_sum "Si O2"
_cell_formula_units_Z 30
_cell_length_a 19.901340
_cell_length_b 9.183683
_cell_length_c 8.083495
_cell_angle_alpha 90.000000
_cell_angle_beta 94.457406
_cell_angle_gamma 90.000000
_cell_volume 1472.932394
_symmetry_space_group_name_H-M "P 2/C"
_symmetry_group_IT_number 13
_symmetry_cell_setting 'monoclinic'
loop_
_space_group_symop_operation_xyz
x,y,z
-x,y,1/2-z
-x,-y,-z
x,-y,1/2+z
loop_
_atom_site_type_symbol
_atom_site_label
_atom_site_fract_x
_atom_site_fract_y
_atom_site_fract_z
Si Si1 0.724875 0.466322 0.558537
Si Si2 0.585703 0.371810 0.963832
Si Si3 0.865045 0.625756 0.659437
Si Si4 0.500000 0.390960 0.250000
Si Si5 0.219827 0.793002 0.636745
Si Si6 0.722900 0.021275 0.056760
Si Si7 0.665993 0.793485 0.249863
Si Si8 0.046979 0.605033 0.121442
O O1 0.659464 0.566978 0.526090
O O2 0.792632 0.559361 0.593749
O O3 0.741553 0.352852 0.413558
O O4 0.705310 0.351253 0.699133
O O5 0.547853 0.506258 0.870229
O O6 0.596930 0.255008 0.821211
O O7 0.546893 0.316577 0.119777
O O8 0.850099 0.745943 0.795537
O O9 0.905682 0.680852 0.506563
O O10 0.904950 0.497373 0.758921
O O11 0.259583 0.875731 0.788423
O O12 0.218628 0.907614 0.485882
O O13 0.663944 0.908676 0.099495
O O14 0.705947 0.122969 0.900638
O O15 0.000000 0.683628 0.250000
O O16 0.000000 0.500000 0.000000
#
# Coordination Sequence:
#
# PCOD9229721 Si02
#       8
#     4   4   4   2   4   4   4   4
#     4  11  21  32  58  93 113 138 178 247 301 333
#     4  11  21  39  55  88 114 146 181 238 297 342
#     4  11  19  33  57  90 116 143 183 234 294 334
#     4  10  24  36  56  84 114 154 184 218 302 358
#     4  10  20  34  52  84 116 145 186 231 282 337
#     4   9  21  36  52  81 115 156 184 226 294 319
#     4  10  20  36  56  78 118 142 184 231 283 338
#     4   9  20  35  50  81 127 155 178 209 283 358
#
# _framework density 20.367535
#
# number of rings (size 3 to 8) (size 9 to 14) (size 15 to 20)
#    0.000    1.867    2.667    1.600    3.733    0.000 
#    0.000    0.000    0.000    2.400    0.000   12.133 
#    0.000    0.000    0.000    0.000    0.000    0.000 
#
# Total GULP energy -167150.740462 kJ/mol
# GULP energy per Si atom -5571.691349 kJ/mol
# Density = 2.032118 g / cm^3
# Si number density = 20.367535 Si / 1000 Ang^3
#
#
#
# Elastic Constant Matrix: (Units=GPa)
#
#
# Indices 1 2 3 4 5 6 
#
# 1 89.6025 13.8019 37.2856 0.0000 -23.8161 0.0000
# 2 13.8019 53.2188 19.3914 0.0000 -19.6493 0.0000
# 3 37.2856 19.3914 101.1793 0.0000 -48.4708 0.0000
# 4 0.0000 0.0000 0.0000 25.7905 0.0000 -6.6266
# 5 -23.8161 -19.6493 -48.4708 0.0000 60.6141 0.0000
# 6 0.0000 0.0000 0.0000 -6.6266 0.0000 4.3646
#
#
#
# Elastic Compliance Matrix: (Units=1/GPa)
#
#
# Indices 1 2 3 4 5 6 
#
# 1 0.013445 -0.001443 -0.003844 0.000000 0.001741 0.000000
# 2 -0.001443 0.021599 -0.000851 0.000000 0.005754 0.000000
# 3 -0.003844 -0.000851 0.017194 0.000000 0.011963 0.000000
# 4 0.000000 0.000000 0.000000 0.063574 0.000000 0.096520
# 5 0.001741 0.005754 0.011963 0.000000 0.028614 0.000000
# 6 0.000000 0.000000 0.000000 0.096520 0.000000 0.375653
#
#
# Mechanical properties :
#
#
# Convention : Reuss Voigt Hill
#
# Bulk Modulus (GPa) = 25.02405 42.77315 33.89860
# Shear Modulus (GPa) = 9.16294 29.72196 19.44245
#
# Velocity S-wave (km/s) = 2.12334 3.82420 3.09298
# Velocity P-wave (km/s) = 4.28069 6.36754 5.42540
#
# Compressibility (1/GPa) = 0.03996156
#
# Stress axis : x y z
#
# Youngs Moduli (GPa) = 74.37678 46.29773 58.15890
#
# Poissons Ratio (x) = 0.06683 0.22356
# Poissons Ratio (y) = 0.10736 0.04950
# Poissons Ratio (z) = 0.28590 0.03940
#
# Static dielectric constant tensor:
#      x y z
#    x 1.762470 0.000000 -0.063970 
#    y 0.000000 1.744180 0.000000 
#    z -0.063970 0.000000 1.838560 
# 
# From -- ./inp_files/22784.got.cif
#   From: 2010.05.17/outbox.cif.g08.bks.cpg/sg13_12_cif.got.tgz:22784.got - 2010.06.03 16:44:36.
