data_PCOD9229333
_publ_section_title
;
Structure prediction by ZEFSAII (Michael W. Deem and Ramdas Pophale) SiO2 
 PCOD9229333
Probable space group: P 2/C
;
_chemical_formula_sum "Si O2"
_cell_formula_units_Z 28
_cell_length_a 18.389091
_cell_length_b 5.147146
_cell_length_c 14.166490
_cell_angle_alpha 90.000000
_cell_angle_beta 117.149639
_cell_angle_gamma 90.000000
_cell_volume 1193.136411
_symmetry_space_group_name_H-M "P 2/C"
_symmetry_group_IT_number 13
_symmetry_cell_setting 'monoclinic'
loop_
_space_group_symop_operation_xyz
x,y,z
-x,y,1/2-z
-x,-y,-z
x,-y,1/2+z
loop_
_atom_site_type_symbol
_atom_site_label
_atom_site_fract_x
_atom_site_fract_y
_atom_site_fract_z
Si Si1 0.557181 0.754456 0.034833
Si Si2 0.197541 0.146426 0.582788
Si Si3 0.128318 0.999548 0.738763
Si Si4 0.328670 0.479838 0.758888
Si Si5 0.320771 0.253387 0.069487
Si Si6 0.215002 0.469818 0.360188
Si Si7 0.017523 0.755769 0.945134
O O1 0.609636 0.733061 0.162782
O O2 0.500000 0.500000 0.000000
O O3 0.614338 0.780388 0.976075
O O4 0.500000 0.000000 0.000000
O O5 0.166845 0.977701 0.655993
O O6 0.264543 0.989140 0.564266
O O7 0.247034 0.370428 0.663590
O O8 0.114241 0.242809 0.485607
O O9 0.173314 0.806227 0.834448
O O10 0.040242 0.852653 0.674794
O O11 0.152276 0.295664 0.787477
O O12 0.361685 0.651038 0.692051
O O13 0.291878 0.585862 0.834807
O O14 0.255273 0.445869 0.981469
O O15 0.000000 0.500000 0.000000
O O16 0.000000 0.000000 0.000000
#
# Coordination Sequence:
#
# PCOD9229333 Si02
#       7
#     4   4   4   4   4   4   4
#     4  11  29  52  73 106 146 179 228 300 379 449
#     4  10  22  38  69 100 136 179 250 279 342 430
#     4  10  19  39  61  94 138 185 226 294 350 394
#     4  10  23  44  72 101 136 183 230 287 357 431
#     4  11  25  43  74 101 139 190 241 296 353 439
#     4  10  22  39  66  96 139 182 238 285 346 412
#     4  10  20  35  63  97 137 184 234 290 350 403
#
# _framework density 23.467559999999999
#
# number of rings (size 3 to 8) (size 9 to 14) (size 15 to 20)
#    0.000    1.714    1.429    2.571    8.000    2.857 
#    0.000    0.714    0.000    0.000    0.000    0.000 
#    0.000    0.000    0.000    0.000    0.000    0.000 
#
# Total GULP energy -155977.074056 kJ/mol
# GULP energy per Si atom -5570.609788 kJ/mol
# Density = 2.341415 g / cm^3
# Si number density = 23.467560 Si / 1000 Ang^3
#
#
#
# Elastic Constant Matrix: (Units=GPa)
#
#
# Indices 1 2 3 4 5 6 
#
# 1 123.4511 39.3630 33.5061 0.0000 -5.5649 0.0000
# 2 39.3630 101.9536 11.6609 0.0000 -12.3672 0.0000
# 3 33.5061 11.6609 92.6230 0.0000 -15.5678 0.0000
# 4 0.0000 0.0000 0.0000 33.0300 0.0000 8.9089
# 5 -5.5649 -12.3672 -15.5678 0.0000 34.8285 0.0000
# 6 0.0000 0.0000 0.0000 8.9089 0.0000 25.4921
#
#
#
# Elastic Compliance Matrix: (Units=1/GPa)
#
#
# Indices 1 2 3 4 5 6 
#
# 1 0.010142 -0.003672 -0.003410 0.000000 -0.001207 0.000000
# 2 -0.003672 0.011626 0.000497 0.000000 0.003764 0.000000
# 3 -0.003410 0.000497 0.012872 0.000000 0.005386 0.000000
# 4 0.000000 0.000000 0.000000 0.033426 0.000000 -0.011682
# 5 -0.001207 0.003764 0.005386 0.000000 0.032263 0.000000
# 6 0.000000 0.000000 0.000000 -0.011682 0.000000 0.043310
#
#
# Mechanical properties :
#
#
# Convention : Reuss Voigt Hill
#
# Bulk Modulus (GPa) = 46.57304 54.12085 50.34694
# Shear Modulus (GPa) = 30.49405 34.23661 32.36533
#
# Velocity S-wave (km/s) = 3.60865 3.82369 3.71772
# Velocity P-wave (km/s) = 6.10343 6.52734 6.31894
#
# Compressibility (1/GPa) = 0.02147165
#
# Stress axis : x y z
#
# Youngs Moduli (GPa) = 98.59724 86.01492 77.68543
#
# Poissons Ratio (x) = 0.31587 0.26487
# Poissons Ratio (y) = 0.36208 -0.03864
# Poissons Ratio (z) = 0.33617 -0.04278
#
# Static dielectric constant tensor:
#      x y z
#    x 1.980520 0.000000 0.022510 
#    y 0.000000 1.940510 0.000000 
#    z 0.022510 0.000000 2.013600 
# 
# From -- ./inp_files/54717.got.cif
#   From: 2010.05.17/outbox.cif.g08.bks.cpg/sg13_28_cif.got.tgz:54717.got - 2010.06.03 16:44:36.
