data_PCOD9229031
_publ_section_title
;
Structure prediction by ZEFSAII (Michael W. Deem and Ramdas Pophale) SiO2 
 PCOD9229031
Probable space group: P 2/C
;
_chemical_formula_sum "Si O2"
_cell_formula_units_Z 24
_cell_length_a 14.855572
_cell_length_b 6.138887
_cell_length_c 21.442153
_cell_angle_alpha 90.000000
_cell_angle_beta 37.409709
_cell_angle_gamma 90.000000
_cell_volume 1187.958200
_symmetry_space_group_name_H-M "P 2/C"
_symmetry_group_IT_number 13
_symmetry_cell_setting 'monoclinic'
loop_
_space_group_symop_operation_xyz
x,y,z
-x,y,1/2-z
-x,-y,-z
x,-y,1/2+z
loop_
_atom_site_type_symbol
_atom_site_label
_atom_site_fract_x
_atom_site_fract_y
_atom_site_fract_z
Si Si1 0.000000 0.998227 0.250000
Si Si2 0.500000 0.693112 0.250000
Si Si3 0.894234 0.687625 0.405595
Si Si4 0.423197 0.618010 0.681809
Si Si5 0.841734 0.640693 0.756262
Si Si6 0.663557 0.369370 0.481689
Si Si7 0.336588 0.987822 0.927545
O O1 0.938498 0.156555 0.229521
O O2 0.891126 0.830366 0.343983
O O3 0.577859 0.543224 0.258924
O O4 0.620960 0.844040 0.149641
O O5 0.777757 0.493377 0.464287
O O6 0.052638 0.565067 0.319156
O O7 0.818256 0.857461 0.495286
O O8 0.264530 0.689307 0.743289
O O9 0.507858 0.484477 0.580289
O O10 0.529369 0.816712 0.641358
O O11 0.734991 0.604521 0.874790
O O12 0.659057 0.125477 0.510353
#
# Coordination Sequence:
#
# PCOD9229031 Si02
#       7
#     2   2   4   4   4   4   4
#     4  12  20  34  58  86 134 168 192 234 302 382
#     4  10  22  46  64  84 120 162 224 272 306 340
#     4  11  20  37  60  89 131 170 194 242 304 374
#     4  10  24  37  63  88 122 160 211 267 307 358
#     4  12  21  36  57  97 129 164 199 246 313 383
#     4  10  19  37  57  91 128 161 199 248 312 382
#     4  10  21  40  65  90 116 173 210 253 309 364
#
# _framework density 20.202731
#
# number of rings (size 3 to 8) (size 9 to 14) (size 15 to 20)
#    0.000    1.333    5.000    1.000    0.000    3.333 
#    0.000    0.833    0.000   19.000    0.000    0.000 
#    0.000    0.000    0.000    0.000    0.000    0.000 
#
# Total GULP energy -133688.126219 kJ/mol
# GULP energy per Si atom -5570.338592 kJ/mol
# Density = 2.015675 g / cm^3
# Si number density = 20.202731 Si / 1000 Ang^3
#
#
#
# Elastic Constant Matrix: (Units=GPa)
#
#
# Indices 1 2 3 4 5 6 
#
# 1 58.4371 38.7522 42.9716 0.0000 -4.4196 0.0000
# 2 38.7522 118.3948 51.2519 0.0000 -2.3423 0.0000
# 3 42.9716 51.2519 84.6131 0.0000 -1.4306 0.0000
# 4 0.0000 0.0000 0.0000 33.7240 0.0000 5.7132
# 5 -4.4196 -2.3423 -1.4306 0.0000 15.4936 0.0000
# 6 0.0000 0.0000 0.0000 5.7132 0.0000 6.5226
#
#
#
# Elastic Compliance Matrix: (Units=1/GPa)
#
#
# Indices 1 2 3 4 5 6 
#
# 1 0.029432 -0.004175 -0.012306 0.000000 0.006628 0.000000
# 2 -0.004175 0.012059 -0.005181 0.000000 0.000154 0.000000
# 3 -0.012306 -0.005181 0.021167 0.000000 -0.002339 0.000000
# 4 0.000000 0.000000 0.000000 0.034819 0.000000 -0.030499
# 5 0.006628 0.000154 -0.002339 0.000000 0.066241 0.000000
# 6 0.000000 0.000000 0.000000 -0.030499 0.000000 0.180028
#
#
# Mechanical properties :
#
#
# Convention : Reuss Voigt Hill
#
# Bulk Modulus (GPa) = 51.72618 58.59959 55.16289
# Shear Modulus (GPa) = 12.70598 19.71264 16.20931
#
# Velocity S-wave (km/s) = 2.51056 3.12707 2.83562
# Velocity P-wave (km/s) = 5.83635 6.48898 6.17130
#
# Compressibility (1/GPa) = 0.01933257
#
# Stress axis : x y z
#
# Youngs Moduli (GPa) = 33.97701 82.92653 47.24277
#
# Poissons Ratio (x) = 0.34622 0.58138
# Poissons Ratio (y) = 0.14185 0.24478
# Poissons Ratio (z) = 0.41813 0.42967
#
# Static dielectric constant tensor:
#      x y z
#    x 1.686210 0.000000 -0.005560 
#    y 0.000000 1.733540 0.000000 
#    z -0.005560 0.000000 1.788800 
# 
# From -- ./inp_files/79249.got.cif
#   From: 2010.05.17/outbox.cif.g08.bks.cpg/sg13_40_cif.got.tgz:79249.got - 2010.06.03 16:44:36.
