data_PCOD9229284
_publ_section_title
;
Structure prediction by ZEFSAII (Michael W. Deem and Ramdas Pophale) SiO2 
 PCOD9229284
Probable space group: P 2/C
;
_chemical_formula_sum "Si O2"
_cell_formula_units_Z 28
_cell_length_a 16.804453
_cell_length_b 8.781136
_cell_length_c 20.768705
_cell_angle_alpha 90.000000
_cell_angle_beta 151.380875
_cell_angle_gamma 90.000000
_cell_volume 1467.933295
_symmetry_space_group_name_H-M "P 2/C"
_symmetry_group_IT_number 13
_symmetry_cell_setting 'monoclinic'
loop_
_space_group_symop_operation_xyz
x,y,z
-x,y,1/2-z
-x,-y,-z
x,-y,1/2+z
loop_
_atom_site_type_symbol
_atom_site_label
_atom_site_fract_x
_atom_site_fract_y
_atom_site_fract_z
Si Si1 0.349377 0.807075 0.516532
Si Si2 0.689607 0.021075 0.271393
Si Si3 0.958526 0.734726 0.004317
Si Si4 0.212931 0.853643 0.284120
Si Si5 0.919877 0.945257 0.633033
Si Si6 0.686365 0.577546 0.898828
Si Si7 0.208265 0.257437 0.571726
O O1 0.323172 0.788212 0.420759
O O2 0.289945 0.659027 0.514882
O O3 0.534589 0.864413 0.665479
O O4 0.233471 0.947651 0.456651
O O5 0.696418 0.964864 0.202113
O O6 0.684280 0.866125 0.310593
O O7 0.857736 0.110214 0.412758
O O8 0.816350 0.642030 0.939372
O O9 0.108106 0.745169 0.162429
O O10 0.057836 0.685261 0.011100
O O11 0.066236 0.944868 0.214421
O O12 0.871513 0.838606 0.541456
O O13 0.000000 0.857703 0.750000
O O14 0.500000 0.623637 0.750000
O O15 0.700067 0.396953 0.897583
#
# Coordination Sequence:
#
# PCOD9229284 Si02
#       7
#     4   4   4   4   4   4   4
#     4  11  23  37  62  90 129 155 195 253 313 358
#     4  11  20  38  69  91 120 156 207 261 300 351
#     4  11  20  41  66  87 119 163 206 248 302 366
#     4  10  19  38  65  95 114 156 207 244 303 365
#     4  10  20  37  60  90 119 153 204 255 296 357
#     4  12  25  39  59  89 126 163 203 248 307 370
#     4  11  23  39  62  88 123 161 206 250 303 362
#
# _framework density 19.074435999999999
#
# number of rings (size 3 to 8) (size 9 to 14) (size 15 to 20)
#    0.000    1.143    5.714    1.714    2.000    0.000 
#    2.571    0.000    0.000    3.429    0.000    0.000 
#    0.000    0.000    0.000    0.000    0.000    0.000 
#
# Total GULP energy -155905.150754 kJ/mol
# GULP energy per Si atom -5568.041098 kJ/mol
# Density = 1.903102 g / cm^3
# Si number density = 19.074436 Si / 1000 Ang^3
#
#
#
# Elastic Constant Matrix: (Units=GPa)
#
#
# Indices 1 2 3 4 5 6 
#
# 1 145.8880 91.6541 60.2785 0.0000 -44.4429 0.0000
# 2 91.6541 116.6112 48.0081 0.0000 -35.0286 0.0000
# 3 60.2785 48.0081 96.5219 0.0000 -21.8354 0.0000
# 4 0.0000 0.0000 0.0000 8.3156 0.0000 6.2615
# 5 -44.4429 -35.0286 -21.8354 0.0000 50.5839 0.0000
# 6 0.0000 0.0000 0.0000 6.2615 0.0000 35.9047
#
#
#
# Elastic Compliance Matrix: (Units=1/GPa)
#
#
# Indices 1 2 3 4 5 6 
#
# 1 0.016205 -0.009196 -0.004173 0.000000 0.006068 0.000000
# 2 -0.009196 0.017728 -0.002355 0.000000 0.003181 0.000000
# 3 -0.004173 -0.002355 0.014340 0.000000 0.000892 0.000000
# 4 0.000000 0.000000 0.000000 0.138435 0.000000 -0.024142
# 5 0.006068 0.003181 0.000892 0.000000 0.027688 0.000000
# 6 0.000000 0.000000 0.000000 -0.024142 0.000000 0.032062
#
#
# Mechanical properties :
#
#
# Convention : Reuss Voigt Hill
#
# Bulk Modulus (GPa) = 59.43921 84.32250 71.88085
# Shear Modulus (GPa) = 17.63579 29.56619 23.60099
#
# Velocity S-wave (km/s) = 3.04398 3.94133 3.52136
# Velocity P-wave (km/s) = 6.60180 8.06320 7.36882
#
# Compressibility (1/GPa) = 0.01682391
#
# Stress axis : x y z
#
# Youngs Moduli (GPa) = 61.71065 56.40740 69.73454
#
# Poissons Ratio (x) = 0.51870 0.29104
# Poissons Ratio (y) = 0.56747 0.16426
# Poissons Ratio (z) = 0.25755 0.13286
#
# Static dielectric constant tensor:
#      x y z
#    x 1.729730 0.000000 -0.048930 
#    y 0.000000 1.612750 0.000000 
#    z -0.048930 0.000000 1.722620 
# 
# From -- ./inp_files/80874.got.cif
#   From: 2010.05.17/outbox.cif.g08.bks.cpg/sg13_41_cif.got.tgz:80874.got - 2010.06.03 16:44:36.
