data_PCOD9229350
_publ_section_title
;
Structure prediction by ZEFSAII (Michael W. Deem and Ramdas Pophale) SiO2 
 PCOD9229350
Probable space group: P 2/C
;
_chemical_formula_sum "Si O2"
_cell_formula_units_Z 32
_cell_length_a 13.802580
_cell_length_b 20.330174
_cell_length_c 9.493785
_cell_angle_alpha 90.000000
_cell_angle_beta 141.610569
_cell_angle_gamma 90.000000
_cell_volume 1654.377457
_symmetry_space_group_name_H-M "P 2/C"
_symmetry_group_IT_number 13
_symmetry_cell_setting 'monoclinic'
loop_
_space_group_symop_operation_xyz
x,y,z
-x,y,1/2-z
-x,-y,-z
x,-y,1/2+z
loop_
_atom_site_type_symbol
_atom_site_label
_atom_site_fract_x
_atom_site_fract_y
_atom_site_fract_z
Si Si1 0.968644 0.826918 0.379320
Si Si2 0.156347 0.328036 0.338264
Si Si3 0.168490 0.180537 0.362562
Si Si4 0.664455 0.425027 0.514944
Si Si5 0.341979 0.547525 0.161651
Si Si6 0.166291 0.034108 0.723127
Si Si7 0.940525 0.678988 0.340853
Si Si8 0.665126 0.950471 0.361646
O O1 0.862025 0.888501 0.292142
O O2 0.903792 0.754474 0.343169
O O3 0.000000 0.827932 0.250000
O O4 0.124599 0.834832 0.650394
O O5 0.230458 0.255367 0.434626
O O6 0.253947 0.387002 0.513268
O O7 0.000000 0.323715 0.250000
O O8 0.087742 0.342058 0.104950
O O9 0.277147 0.124580 0.549536
O O10 0.000000 0.177198 0.250000
O O11 0.734729 0.481224 0.490522
O O12 0.638311 0.451498 0.646138
O O13 0.789513 0.366944 0.676636
O O14 0.500000 0.405708 0.250000
O O15 0.500000 0.548431 0.250000
O O16 0.302359 0.028774 0.761558
O O17 0.000000 0.000000 0.500000
O O18 0.219934 0.998550 0.924023
O O19 0.000000 0.679861 0.250000
O O20 0.500000 0.957081 0.250000
#
# Coordination Sequence:
#
# PCOD9229350 Si02
#       8
#     4   4   4   4   4   4   4   4
#     4  10  20  38  64  91 115 151 212 243 291 362
#     4  10  21  39  63  92 120 150 206 259 303 360
#     4  10  19  39  64  85 116 160 201 243 297 376
#     4  11  24  42  61  86 123 164 205 248 308 380
#     4  11  24  40  62  87 121 163 203 249 310 376
#     4  12  22  40  66  87 116 167 209 244 300 373
#     4  10  23  39  64  91 121 157 197 264 306 355
#     4  12  25  39  58  92 127 156 199 262 310 353
#
# _framework density 19.342623
#
# number of rings (size 3 to 8) (size 9 to 14) (size 15 to 20)
#    0.000    1.250    3.750    3.000    3.500    1.500 
#    0.000    0.625    0.000    0.000    0.000    0.000 
#    0.000    0.000    0.000    0.000    0.000    0.000 
#
# Total GULP energy -178411.979143 kJ/mol
# GULP energy per Si atom -5575.374348 kJ/mol
# Density = 1.929860 g / cm^3
# Si number density = 19.342623 Si / 1000 Ang^3
#
#
#
# Elastic Constant Matrix: (Units=GPa)
#
#
# Indices 1 2 3 4 5 6 
#
# 1 68.6968 7.9349 11.3819 0.0000 -16.4272 0.0000
# 2 7.9349 96.8244 27.9915 0.0000 5.7180 0.0000
# 3 11.3819 27.9915 66.3367 0.0000 -25.3336 0.0000
# 4 0.0000 0.0000 0.0000 25.5240 0.0000 -5.4779
# 5 -16.4272 5.7180 -25.3336 0.0000 36.6422 0.0000
# 6 0.0000 0.0000 0.0000 -5.4779 0.0000 23.9522
#
#
#
# Elastic Compliance Matrix: (Units=1/GPa)
#
#
# Indices 1 2 3 4 5 6 
#
# 1 0.016704 -0.002334 0.001519 0.000000 0.008902 0.000000
# 2 -0.002334 0.013654 -0.008933 0.000000 -0.009353 0.000000
# 3 0.001519 -0.008933 0.026327 0.000000 0.020277 0.000000
# 4 0.000000 0.000000 0.000000 0.041201 0.000000 0.009423
# 5 0.008902 -0.009353 0.020277 0.000000 0.046760 0.000000
# 6 0.000000 0.000000 0.000000 0.009423 0.000000 0.043905
#
#
# Mechanical properties :
#
#
# Convention : Reuss Voigt Hill
#
# Bulk Modulus (GPa) = 26.89003 36.27495 31.58249
# Shear Modulus (GPa) = 22.68160 29.52698 26.10429
#
# Velocity S-wave (km/s) = 3.42807 3.91131 3.67764
# Velocity P-wave (km/s) = 5.44069 6.26039 5.86487
#
# Compressibility (1/GPa) = 0.03718850
#
# Stress axis : x y z
#
# Youngs Moduli (GPa) = 59.86769 73.23847 37.98393
#
# Poissons Ratio (x) = 0.17091 -0.05768
# Poissons Ratio (y) = 0.13971 0.33931
# Poissons Ratio (z) = -0.09091 0.65423
#
# Static dielectric constant tensor:
#      x y z
#    x 1.683440 0.000000 -0.042890 
#    y 0.000000 1.730830 0.000000 
#    z -0.042890 0.000000 1.766130 
# 
# From -- ./inp_files/20183.got.cif
#   From: 2010.05.17/outbox.cif.g08.bks.cpg/sg13_11_cif.got.tgz:20183.got - 2010.06.03 16:44:36.
