data_PCOD9229198
_publ_section_title
;
Structure prediction by ZEFSAII (Michael W. Deem and Ramdas Pophale) SiO2 
 PCOD9229198
Probable space group: P 2/C
;
_chemical_formula_sum "Si O2"
_cell_formula_units_Z 30
_cell_length_a 8.484737
_cell_length_b 11.678211
_cell_length_c 28.989268
_cell_angle_alpha 90.000000
_cell_angle_beta 34.600955
_cell_angle_gamma 90.000000
_cell_volume 1631.140201
_symmetry_space_group_name_H-M "P 2/C"
_symmetry_group_IT_number 13
_symmetry_cell_setting 'monoclinic'
loop_
_space_group_symop_operation_xyz
x,y,z
-x,y,1/2-z
-x,-y,-z
x,-y,1/2+z
loop_
_atom_site_type_symbol
_atom_site_label
_atom_site_fract_x
_atom_site_fract_y
_atom_site_fract_z
Si Si1 0.282362 0.663581 0.972884
Si Si2 0.400867 0.845526 0.226144
Si Si3 0.592468 0.108119 0.415463
Si Si4 0.909471 0.699585 0.378119
Si Si5 0.278339 0.532235 0.155557
Si Si6 0.000000 0.980058 0.250000
Si Si7 0.281585 0.718826 0.425066
Si Si8 0.401285 0.863108 0.485715
O O1 0.416140 0.789472 0.936852
O O2 0.518133 0.571678 0.905398
O O3 0.161088 0.657899 0.053840
O O4 0.010635 0.655348 0.007142
O O5 0.500000 0.907906 0.250000
O O6 0.658273 0.800532 0.133395
O O7 0.215128 0.742449 0.291884
O O8 0.202094 0.907434 0.235732
O O9 0.720225 0.150251 0.433626
O O10 0.815213 0.059306 0.326939
O O11 0.407180 0.997077 0.472620
O O12 0.822171 0.597806 0.365710
O O13 0.711651 0.810186 0.416305
O O14 0.465314 0.628780 0.135735
O O15 0.000000 0.499345 0.250000
O O16 0.282026 0.792512 0.471846
#
# Coordination Sequence:
#
# PCOD9229198 Si02
#       8
#     4   4   4   4   4   2   4   4
#     4  11  24  37  57  88 123 163 200 249 314 390
#     4  12  21  36  65  99 123 156 216 271 312 351
#     4  10  21  37  60  85 122 162 203 244 304 390
#     4  10  19  38  59  87 115 150 213 259 299 358
#     4  11  22  38  62  85 115 163 205 251 320 374
#     4  12  22  42  60  92 130 170 202 256 318 368
#     4  11  21  39  61  89 122 153 209 271 309 353
#     4   9  19  36  61  86 115 161 200 250 311 363
#
# _framework density 18.392042
#
# number of rings (size 3 to 8) (size 9 to 14) (size 15 to 20)
#    0.000    1.333    5.333    1.600    0.933    0.533 
#    2.400    0.000    0.000    0.000    0.000    0.000 
#    0.000    0.000    0.000    0.000    0.000    0.000 
#
# Total GULP energy -167236.064698 kJ/mol
# GULP energy per Si atom -5574.535490 kJ/mol
# Density = 1.835018 g / cm^3
# Si number density = 18.392042 Si / 1000 Ang^3
#
#
#
# Elastic Constant Matrix: (Units=GPa)
#
#
# Indices 1 2 3 4 5 6 
#
# 1 94.9163 29.9377 46.4470 0.0000 4.3459 0.0000
# 2 29.9377 53.3355 34.5103 0.0000 2.4363 0.0000
# 3 46.4470 34.5103 110.6672 0.0000 11.1588 0.0000
# 4 0.0000 0.0000 0.0000 24.5152 0.0000 11.4899
# 5 4.3459 2.4363 11.1588 0.0000 19.5238 0.0000
# 6 0.0000 0.0000 0.0000 11.4899 0.0000 1.0633
#
#
#
# Elastic Compliance Matrix: (Units=1/GPa)
#
#
# Indices 1 2 3 4 5 6 
#
# 1 0.014324 -0.005200 -0.004387 0.000000 -0.000032 0.000000
# 2 -0.005200 0.025409 -0.005877 0.000000 0.001346 0.000000
# 3 -0.004387 -0.005877 0.013304 0.000000 -0.005894 0.000000
# 4 0.000000 0.000000 0.000000 -0.010036 0.000000 0.108446
# 5 -0.000032 0.001346 -0.005894 0.000000 0.054428 0.000000
# 6 0.000000 0.000000 0.000000 0.108446 0.000000 -0.231383
#
#
# Mechanical properties :
#
#
# Convention : Reuss Voigt Hill
#
# Bulk Modulus (GPa) = 45.22901 53.41209 49.32055
# Shear Modulus (GPa) = -52.27035 18.88874 -16.69080
#
# Velocity S-wave (km/s) = -5.33683 3.20817 -3.01574
# Velocity P-wave (km/s) = 3.65112 6.54424 3.84033
#
# Compressibility (1/GPa) = 0.02210971
#
# Stress axis : x y z
#
# Youngs Moduli (GPa) = 69.81291 39.35587 75.16426
#
# Poissons Ratio (x) = 0.20466 0.32974
# Poissons Ratio (y) = 0.36304 0.44172
# Poissons Ratio (z) = 0.30626 0.23128
#
# Static dielectric constant tensor:
#      x y z
#    x 1.696330 0.000000 0.006240 
#    y 0.000000 1.619070 0.000000 
#    z 0.006240 0.000000 1.638700 
# 
# From -- ./inp_files/64469.got.cif
#   From: 2010.05.17/outbox.cif.g08.bks.cpg/sg13_33_cif.got.tgz:64469.got - 2010.06.03 16:44:36.
