data_PCOD9229331
_publ_section_title
;
Structure prediction by ZEFSAII (Michael W. Deem and Ramdas Pophale) SiO2 
 PCOD9229331
Probable space group: P 2/C
;
_chemical_formula_sum "Si O2"
_cell_formula_units_Z 28
_cell_length_a 16.594196
_cell_length_b 10.141464
_cell_length_c 23.190841
_cell_angle_alpha 90.000000
_cell_angle_beta 156.479763
_cell_angle_gamma 90.000000
_cell_volume 1557.491411
_symmetry_space_group_name_H-M "P 2/C"
_symmetry_group_IT_number 13
_symmetry_cell_setting 'monoclinic'
loop_
_space_group_symop_operation_xyz
x,y,z
-x,y,1/2-z
-x,-y,-z
x,-y,1/2+z
loop_
_atom_site_type_symbol
_atom_site_label
_atom_site_fract_x
_atom_site_fract_y
_atom_site_fract_z
Si Si1 0.766516 0.524215 0.217251
Si Si2 0.906886 0.604589 0.983561
Si Si3 0.500000 0.518706 0.250000
Si Si4 0.500000 0.965889 0.250000
Si Si5 0.171084 0.890788 0.610101
Si Si6 0.797680 0.760678 0.754956
Si Si7 0.347125 0.332467 0.450760
Si Si8 0.732972 0.257931 0.972211
O O1 0.728474 0.387376 0.227193
O O2 0.970944 0.584266 0.376474
O O3 0.765222 0.461805 0.151557
O O4 0.580436 0.622374 0.104613
O O5 0.672957 0.570036 0.836241
O O6 0.925684 0.753159 0.974086
O O7 0.000000 0.500000 0.000000
O O8 0.383330 0.616060 0.130083
O O9 0.657471 0.056778 0.319632
O O10 0.386340 0.869486 0.129956
O O11 0.249315 0.862056 0.725946
O O12 0.000000 0.000000 0.500000
O O13 0.692254 0.777677 0.624004
O O14 0.038645 0.751451 0.901795
O O15 0.270784 0.281678 0.461756
#
# Coordination Sequence:
#
# PCOD9229331 Si02
#       8
#     4   4   2   2   4   4   4   4
#     4   9  19  35  57  99 121 154 204 261 324 369
#     4  12  21  37  63  91 121 161 207 262 322 374
#     4  11  21  32  58  98 120 156 206 270 316 366
#     4  11  27  42  58  94 124 178 214 258 332 388
#     4  12  25  43  62  88 135 165 210 272 319 385
#     4  10  19  39  61  89 123 167 207 256 323 376
#     4   9  19  34  62  94 126 157 205 268 312 376
#     4  11  20  36  63  94 124 160 220 259 313 393
#
# _framework density 17.977627999999999
#
# number of rings (size 3 to 8) (size 9 to 14) (size 15 to 20)
#    0.857    0.571    4.286    1.714    4.000    0.000 
#    0.000    0.714    0.000    0.000    0.000    0.000 
#    0.000    0.000    0.000    0.000    0.000    0.000 
#
# Total GULP energy -156023.317018 kJ/mol
# GULP energy per Si atom -5572.261322 kJ/mol
# Density = 1.793671 g / cm^3
# Si number density = 17.977628 Si / 1000 Ang^3
#
#
#
# Elastic Constant Matrix: (Units=GPa)
#
#
# Indices 1 2 3 4 5 6 
#
# 1 120.8972 49.0587 50.2698 0.0000 -5.5212 0.0000
# 2 49.0587 102.2049 34.8613 0.0000 0.9887 0.0000
# 3 50.2698 34.8613 80.8127 0.0000 6.8854 0.0000
# 4 0.0000 0.0000 0.0000 21.1760 0.0000 -0.1877
# 5 -5.5212 0.9887 6.8854 0.0000 33.9000 0.0000
# 6 0.0000 0.0000 0.0000 -0.1877 0.0000 28.9386
#
#
#
# Elastic Compliance Matrix: (Units=1/GPa)
#
#
# Indices 1 2 3 4 5 6 
#
# 1 0.012739 -0.003921 -0.006533 0.000000 0.003516 0.000000
# 2 -0.003921 0.012694 -0.003003 0.000000 -0.000399 0.000000
# 3 -0.006533 -0.003003 0.018131 0.000000 -0.004659 0.000000
# 4 0.000000 0.000000 0.000000 0.047226 0.000000 0.000306
# 5 0.003516 -0.000399 -0.004659 0.000000 0.031029 0.000000
# 6 0.000000 0.000000 0.000000 0.000306 0.000000 0.034558
#
#
# Mechanical properties :
#
#
# Convention : Reuss Voigt Hill
#
# Bulk Modulus (GPa) = 60.05730 63.58826 61.82278
# Shear Modulus (GPa) = 26.47723 28.11794 27.29758
#
# Velocity S-wave (km/s) = 3.84186 3.95910 3.90092
# Velocity P-wave (km/s) = 7.29102 7.50645 7.39952
#
# Compressibility (1/GPa) = 0.01665076
#
# Stress axis : x y z
#
# Youngs Moduli (GPa) = 78.49643 78.77440 55.15531
#
# Poissons Ratio (x) = 0.30885 0.36032
# Poissons Ratio (y) = 0.30776 0.16565
# Poissons Ratio (z) = 0.51281 0.23659
#
# Static dielectric constant tensor:
#      x y z
#    x 2.794650 0.000000 0.362730 
#    y 0.000000 1.723640 0.000000 
#    z 0.362730 0.000000 1.785490 
# 
# From -- ./inp_files/80037.got.cif
#   From: 2010.05.17/outbox.cif.g08.bks.cpg/sg13_41_cif.got.tgz:80037.got - 2010.06.03 16:44:36.
