data_PCOD9229069
_publ_section_title
;
Structure prediction by ZEFSAII (Michael W. Deem and Ramdas Pophale) SiO2 
 PCOD9229069
Probable space group: P 2/C
;
_chemical_formula_sum "Si O2"
_cell_formula_units_Z 32
_cell_length_a 19.095839
_cell_length_b 9.011708
_cell_length_c 26.378709
_cell_angle_alpha 90.000000
_cell_angle_beta 161.300556
_cell_angle_gamma 90.000000
_cell_volume 1455.352032
_symmetry_space_group_name_H-M "P 2/C"
_symmetry_group_IT_number 13
_symmetry_cell_setting 'monoclinic'
loop_
_space_group_symop_operation_xyz
x,y,z
-x,y,1/2-z
-x,-y,-z
x,-y,1/2+z
loop_
_atom_site_type_symbol
_atom_site_label
_atom_site_fract_x
_atom_site_fract_y
_atom_site_fract_z
Si Si1 0.143011 0.098194 0.527838
Si Si2 0.755568 0.728279 0.561498
Si Si3 0.842389 0.152530 0.793455
Si Si4 0.687645 0.254506 0.223007
Si Si5 0.528822 0.992843 0.156923
Si Si6 0.717506 0.396583 0.927858
Si Si7 0.911953 0.537764 0.385014
Si Si8 0.495945 0.323734 0.506746
O O1 0.312741 0.047921 0.687493
O O2 0.250913 0.226775 0.568989
O O3 0.924599 0.182561 0.398853
O O4 0.051606 0.955002 0.434648
O O5 0.682782 0.890267 0.490662
O O6 0.716028 0.615579 0.487542
O O7 0.609787 0.695577 0.510676
O O8 0.000000 0.725696 0.750000
O O9 0.659812 0.052670 0.695518
O O10 0.883084 0.288543 0.859532
O O11 0.730456 0.239020 0.669985
O O12 0.702410 0.431125 0.239528
O O13 0.514070 0.169350 0.139034
O O14 0.641473 0.243174 0.131357
O O15 0.500000 0.452154 0.750000
O O16 0.923666 0.485168 0.046612
O O17 0.000000 0.500000 0.500000
O O18 0.500000 0.500000 0.500000
#
# Coordination Sequence:
#
# PCOD9229069 Si02
#       8
#     4   4   4   4   4   4   4   4
#     4  10  19  37  60  91 127 155 205 264 321 375
#     4  11  24  40  63  90 127 174 220 256 329 402
#     4  10  20  34  61  91 123 158 209 265 319 363
#     4  10  20  35  62  93 123 156 205 264 319 370
#     4  10  20  37  62  96 123 158 206 272 324 374
#     4  11  23  40  63  91 129 177 217 265 328 395
#     4  11  21  35  64  96 125 162 219 267 317 383
#     4  11  23  40  62  94 131 169 217 270 320 385
#
# _framework density 21.987808000000001
#
# number of rings (size 3 to 8) (size 9 to 14) (size 15 to 20)
#    0.000    1.500    2.500    5.250    1.750    5.500 
#    0.000    0.625    2.750    0.750    3.250    0.000 
#    0.000    0.000    0.000    0.000    0.000    0.000 
#
# Total GULP energy -178441.609195 kJ/mol
# GULP energy per Si atom -5576.300287 kJ/mol
# Density = 2.193776 g / cm^3
# Si number density = 21.987808 Si / 1000 Ang^3
#
#
#
# Elastic Constant Matrix: (Units=GPa)
#
#
# Indices 1 2 3 4 5 6 
#
# 1 63.3047 2.1531 16.0260 0.0000 -20.4166 0.0000
# 2 2.1531 87.6316 21.9673 0.0000 0.2717 0.0000
# 3 16.0260 21.9673 111.3338 0.0000 -25.6233 0.0000
# 4 0.0000 0.0000 0.0000 26.5782 0.0000 -11.7337
# 5 -20.4166 0.2717 -25.6233 0.0000 31.1758 0.0000
# 6 0.0000 0.0000 0.0000 -11.7337 0.0000 18.4810
#
#
#
# Elastic Compliance Matrix: (Units=1/GPa)
#
#
# Indices 1 2 3 4 5 6 
#
# 1 0.020060 -0.000614 0.000319 0.000000 0.013404 0.000000
# 2 -0.000614 0.012188 -0.003001 0.000000 -0.002975 0.000000
# 3 0.000319 -0.003001 0.011818 0.000000 0.009948 0.000000
# 4 0.000000 0.000000 0.000000 0.052278 0.000000 0.033192
# 5 0.013404 -0.002975 0.009948 0.000000 0.049056 0.000000
# 6 0.000000 0.000000 0.000000 0.033192 0.000000 0.075183
#
#
# Mechanical properties :
#
#
# Convention : Reuss Voigt Hill
#
# Bulk Modulus (GPa) = 26.68653 38.06254 32.37454
# Shear Modulus (GPa) = 20.86220 30.05526 25.45873
#
# Velocity S-wave (km/s) = 3.08361 3.70118 3.40642
# Velocity P-wave (km/s) = 4.98413 5.96769 5.49795
#
# Compressibility (1/GPa) = 0.03747209
#
# Stress axis : x y z
#
# Youngs Moduli (GPa) = 49.85073 82.04766 84.61840
#
# Poissons Ratio (x) = 0.05040 -0.02696
# Poissons Ratio (y) = 0.03062 0.25395
# Poissons Ratio (z) = -0.01588 0.24624
#
# Static dielectric constant tensor:
#      x y z
#    x 1.830310 0.000000 0.012860 
#    y 0.000000 1.924780 0.000000 
#    z 0.012860 0.000000 1.939670 
# 
# From -- ./inp_files/93610.got.cif
#   From: 2010.05.17/outbox.cif.g08.bks.cpg/sg13_47_cif.got.tgz:93610.got - 2010.06.03 16:44:36.
