data_PCOD9229095
_publ_section_title
;
Structure prediction by ZEFSAII (Michael W. Deem and Ramdas Pophale) SiO2 
 PCOD9229095
Probable space group: P 2/C
;
_chemical_formula_sum "Si O2"
_cell_formula_units_Z 26
_cell_length_a 19.352643
_cell_length_b 5.478172
_cell_length_c 17.649153
_cell_angle_alpha 90.000000
_cell_angle_beta 37.390602
_cell_angle_gamma 90.000000
_cell_volume 1136.224479
_symmetry_space_group_name_H-M "P 2/C"
_symmetry_group_IT_number 13
_symmetry_cell_setting 'monoclinic'
loop_
_space_group_symop_operation_xyz
x,y,z
-x,y,1/2-z
-x,-y,-z
x,-y,1/2+z
loop_
_atom_site_type_symbol
_atom_site_label
_atom_site_fract_x
_atom_site_fract_y
_atom_site_fract_z
Si Si1 0.712457 0.554864 0.079024
Si Si2 0.426024 0.526895 0.670588
Si Si3 0.000000 0.789251 0.250000
Si Si4 0.610240 0.796531 0.432419
Si Si5 0.837156 0.955073 0.515453
Si Si6 0.803713 0.477698 0.341519
Si Si7 0.775315 0.199901 0.227432
O O1 0.592919 0.547444 0.226912
O O2 0.764637 0.280741 0.046719
O O3 0.778597 0.782338 0.058879
O O4 0.726128 0.617618 0.978461
O O5 0.515055 0.744691 0.579289
O O6 0.451561 0.309688 0.589502
O O7 0.299668 0.599467 0.751737
O O8 0.943283 0.947388 0.365970
O O9 0.908035 0.617679 0.288518
O O10 0.718098 0.650141 0.370672
O O11 0.673129 0.038652 0.351382
O O12 0.849806 0.913577 0.594853
O O13 0.842410 0.291143 0.242555
#
# Coordination Sequence:
#
# PCOD9229095 Si02
#       7
#     4   4   2   4   4   4   4
#     4  10  21  41  63  95 128 179 213 280 332 416
#     4   9  19  36  64  89 132 168 214 259 352 401
#     4  10  24  46  64  92 132 194 226 290 356 396
#     4  10  19  37  61  96 126 169 216 276 328 415
#     4  10  22  41  68  90 131 170 235 273 343 403
#     4  10  24  39  63  91 134 173 234 282 340 402
#     4  10  20  38  65  97 129 173 223 291 334 412
#
# _framework density 22.882804
#
# number of rings (size 3 to 8) (size 9 to 14) (size 15 to 20)
#    0.000    2.154    1.538    0.462    4.308    3.692 
#    0.000    0.769    0.000    0.000    0.000    0.000 
#    0.000    0.000    0.000    0.000    0.000    0.000 
#
# Total GULP energy -144745.302146 kJ/mol
# GULP energy per Si atom -5567.127006 kJ/mol
# Density = 2.283072 g / cm^3
# Si number density = 22.882804 Si / 1000 Ang^3
#
#
#
# Elastic Constant Matrix: (Units=GPa)
#
#
# Indices 1 2 3 4 5 6 
#
# 1 101.6689 30.6903 50.7654 0.0000 16.3528 0.0000
# 2 30.6903 70.5375 31.8320 0.0000 7.3479 0.0000
# 3 50.7654 31.8320 161.6524 0.0000 23.0857 0.0000
# 4 0.0000 0.0000 0.0000 18.3711 0.0000 -0.0783
# 5 16.3528 7.3479 23.0857 0.0000 27.0214 0.0000
# 6 0.0000 0.0000 0.0000 -0.0783 0.0000 9.5052
#
#
#
# Elastic Compliance Matrix: (Units=1/GPa)
#
#
# Indices 1 2 3 4 5 6 
#
# 1 0.013121 -0.004026 -0.002677 0.000000 -0.004559 0.000000
# 2 -0.004026 0.016875 -0.001995 0.000000 -0.000448 0.000000
# 3 -0.002677 -0.001995 0.008099 0.000000 -0.004757 0.000000
# 4 0.000000 0.000000 0.000000 0.054435 0.000000 0.000448
# 5 -0.004559 -0.000448 -0.004757 0.000000 0.043953 0.000000
# 6 0.000000 0.000000 0.000000 0.000448 0.000000 0.105209
#
#
# Mechanical properties :
#
#
# Convention : Reuss Voigt Hill
#
# Bulk Modulus (GPa) = 48.30808 62.27046 55.28927
# Shear Modulus (GPa) = 18.79790 25.68429 22.24109
#
# Velocity S-wave (km/s) = 2.86927 3.35390 3.12100
# Velocity P-wave (km/s) = 5.66867 6.50154 6.09934
#
# Compressibility (1/GPa) = 0.02070047
#
# Stress axis : x y z
#
# Youngs Moduli (GPa) = 76.21405 59.25790 123.47479
#
# Poissons Ratio (x) = 0.23857 0.33050
# Poissons Ratio (y) = 0.30684 0.24630
# Poissons Ratio (z) = 0.20400 0.11820
#
# Static dielectric constant tensor:
#      x y z
#    x 1.885760 0.000000 0.023110 
#    y 0.000000 1.941180 0.000000 
#    z 0.023110 0.000000 1.970180 
# 
# From -- ./inp_files/70257.got.cif
#   From: 2010.05.17/outbox.cif.g08.bks.cpg/sg13_36_cif.got.tgz:70257.got - 2010.06.03 16:44:36.
