data_PCOD9229168
_publ_section_title
;
Structure prediction by ZEFSAII (Michael W. Deem and Ramdas Pophale) SiO2 
 PCOD9229168
Probable space group: P 2/C
;
_chemical_formula_sum "Si O2"
_cell_formula_units_Z 30
_cell_length_a 12.111963
_cell_length_b 8.574715
_cell_length_c 16.066323
_cell_angle_alpha 90.000000
_cell_angle_beta 63.890960
_cell_angle_gamma 90.000000
_cell_volume 1498.327743
_symmetry_space_group_name_H-M "P 2/C"
_symmetry_group_IT_number 13
_symmetry_cell_setting 'monoclinic'
loop_
_space_group_symop_operation_xyz
x,y,z
-x,y,1/2-z
-x,-y,-z
x,-y,1/2+z
loop_
_atom_site_type_symbol
_atom_site_label
_atom_site_fract_x
_atom_site_fract_y
_atom_site_fract_z
Si Si1 0.765751 0.197873 0.658151
Si Si2 0.500000 0.144779 0.750000
Si Si3 0.244549 0.806237 0.520190
Si Si4 0.879379 0.118974 0.129360
Si Si5 0.224000 0.694218 0.169770
Si Si6 0.860010 0.358922 0.286510
Si Si7 0.112510 0.887634 0.062537
Si Si8 0.513762 0.867503 0.427128
O O1 0.623566 0.246020 0.707786
O O2 0.810757 0.243446 0.551370
O O3 0.825865 0.256734 0.722354
O O4 0.770965 0.009675 0.662639
O O5 0.494483 0.059779 0.663369
O O6 0.173157 0.744506 0.622829
O O7 0.388663 0.766588 0.476645
O O8 0.227420 0.992940 0.527073
O O9 0.856074 0.251906 0.205011
O O10 0.896414 0.176992 0.028743
O O11 0.996389 0.005980 0.111688
O O12 0.226622 0.508571 0.176381
O O13 0.137236 0.761430 0.125480
O O14 0.358856 0.771741 0.111497
O O15 0.000000 0.415090 0.250000
O O16 0.500000 0.000000 0.500000
#
# Coordination Sequence:
#
# PCOD9229168 Si02
#       8
#     4   2   4   4   4   4   4   4
#     4   9  20  37  65  88 117 162 208 258 303 368
#     4   8  18  34  58  96 116 144 200 258 316 336
#     4  10  20  40  64  89 121 162 206 258 311 364
#     4  10  22  38  62  88 122 161 210 261 306 364
#     4  11  24  38  60  94 124 163 205 255 318 375
#     4  12  26  40  57  90 133 167 199 255 324 378
#     4  10  20  40  64  92 116 159 218 259 303 365
#     4  10  19  37  65  90 119 155 208 259 300 365
#
# _framework density 20.022321000000002
#
# number of rings (size 3 to 8) (size 9 to 14) (size 15 to 20)
#    0.000    1.867    2.667    0.800    3.733    1.600 
#    0.000    1.333    0.000    4.800    0.000    0.000 
#    0.000    0.000    0.000    0.000    0.000    0.000 
#
# Total GULP energy -167027.567725 kJ/mol
# GULP energy per Si atom -5567.585591 kJ/mol
# Density = 1.997675 g / cm^3
# Si number density = 20.022321 Si / 1000 Ang^3
#
#
#
# Elastic Constant Matrix: (Units=GPa)
#
#
# Indices 1 2 3 4 5 6 
#
# 1 90.9008 22.3208 46.1044 0.0000 -7.6061 0.0000
# 2 22.3208 73.9559 61.3282 0.0000 15.9730 0.0000
# 3 46.1044 61.3282 168.4368 0.0000 36.8671 0.0000
# 4 0.0000 0.0000 0.0000 9.1795 0.0000 -7.0296
# 5 -7.6061 15.9730 36.8671 0.0000 31.0646 0.0000
# 6 0.0000 0.0000 0.0000 -7.0296 0.0000 13.7382
#
#
#
# Elastic Compliance Matrix: (Units=1/GPa)
#
#
# Indices 1 2 3 4 5 6 
#
# 1 0.015732 -0.002297 -0.006175 0.000000 0.012362 0.000000
# 2 -0.002297 0.019812 -0.005717 0.000000 -0.003964 0.000000
# 3 -0.006175 -0.005717 0.012694 0.000000 -0.013637 0.000000
# 4 0.000000 0.000000 0.000000 0.179130 0.000000 0.091658
# 5 0.012362 -0.003964 -0.013637 0.000000 0.053441 0.000000
# 6 0.000000 0.000000 0.000000 0.091658 0.000000 0.119690
#
#
# Mechanical properties :
#
#
# Convention : Reuss Voigt Hill
#
# Bulk Modulus (GPa) = 50.35664 65.86671 58.11167
# Shear Modulus (GPa) = 11.48114 24.36579 17.92346
#
# Velocity S-wave (km/s) = 2.39721 3.49224 2.99519
# Velocity P-wave (km/s) = 5.73298 7.01634 6.40687
#
# Compressibility (1/GPa) = 0.01985835
#
# Stress axis : x y z
#
# Youngs Moduli (GPa) = 63.56657 50.47438 78.77839
#
# Poissons Ratio (x) = 0.11593 0.48649
# Poissons Ratio (y) = 0.14600 0.45039
# Poissons Ratio (z) = 0.39255 0.28857
#
# Static dielectric constant tensor:
#      x y z
#    x 1.819980 0.000000 -0.015810 
#    y 0.000000 1.694470 0.000000 
#    z -0.015810 0.000000 1.759890 
# 
# From -- ./inp_files/50313.got.cif
#   From: 2010.05.17/outbox.cif.g08.bks.cpg/sg13_26_cif.got.tgz:50313.got - 2010.06.03 16:44:36.
