data_PCOD9229993
_publ_section_title
;
Structure prediction by ZEFSAII (Michael W. Deem and Ramdas Pophale) SiO2 
 PCOD9229993
Probable space group: P 2/C
;
_chemical_formula_sum "Si O2"
_cell_formula_units_Z 24
_cell_length_a 5.868881
_cell_length_b 19.648397
_cell_length_c 10.617087
_cell_angle_alpha 90.000000
_cell_angle_beta 71.634560
_cell_angle_gamma 90.000000
_cell_volume 1161.941670
_symmetry_space_group_name_H-M "P 2/C"
_symmetry_group_IT_number 13
_symmetry_cell_setting 'monoclinic'
loop_
_space_group_symop_operation_xyz
x,y,z
-x,y,1/2-z
-x,-y,-z
x,-y,1/2+z
loop_
_atom_site_type_symbol
_atom_site_label
_atom_site_fract_x
_atom_site_fract_y
_atom_site_fract_z
Si Si1 0.500000 0.518002 0.250000
Si Si2 0.227750 0.618937 0.460125
Si Si3 0.000000 0.931735 0.750000
Si Si4 0.538706 0.751965 0.385181
Si Si5 0.000000 0.336884 0.750000
Si Si6 0.564197 0.885538 0.960542
Si Si7 0.712469 0.006147 0.610896
Si Si8 0.000000 0.557477 0.750000
O O1 0.434234 0.565777 0.381732
O O2 0.251212 0.478834 0.255096
O O3 0.339599 0.694526 0.449611
O O4 0.067505 0.620105 0.361196
O O5 0.091583 0.598065 0.610109
O O6 0.764748 0.886881 0.816033
O O7 0.946319 0.982418 0.644255
O O8 0.500000 0.779360 0.250000
O O9 0.533634 0.812846 0.484981
O O10 0.784723 0.711050 0.332214
O O11 0.366572 0.942690 0.963394
O O12 0.705495 0.919614 0.052363
O O13 0.500000 0.008265 0.750000
#
# Coordination Sequence:
#
# PCOD9229993 Si02
#       8
#     2   4   2   4   2   4   4   2
#     4  12  24  46  74 106 146 186 232 282 352 422
#     4  11  24  45  68 102 139 178 228 286 335 415
#     4  10  20  35  57  81 121 162 198 270 338 382
#     4  10  22  40  66  89 124 173 218 269 332 409
#     4  10  21  44  71  88 138 180 220 276 344 403
#     4  10  20  36  57  87 120 160 212 263 328 393
#     4   9  19  35  55  84 120 154 210 273 320 391
#     4  12  29  41  76 113 139 184 236 288 354 411
#
# _framework density 20.655080999999999
#
# number of rings (size 3 to 8) (size 9 to 14) (size 15 to 20)
#    0.000    1.667    2.500    2.500    2.333    3.333 
#    0.000   14.167    0.000    0.000    0.000    0.000 
#    0.000    0.000    0.000    0.000    0.000    0.000 
#
# Total GULP energy -133782.324537 kJ/mol
# GULP energy per Si atom -5574.263522 kJ/mol
# Density = 2.060807 g / cm^3
# Si number density = 20.655081 Si / 1000 Ang^3
#
#
#
# Elastic Constant Matrix: (Units=GPa)
#
#
# Indices 1 2 3 4 5 6 
#
# 1 74.1904 20.5129 20.7503 0.0000 -1.2398 0.0000
# 2 20.5129 77.6314 55.9250 0.0000 2.5621 0.0000
# 3 20.7503 55.9250 118.8349 0.0000 -13.1028 0.0000
# 4 0.0000 0.0000 0.0000 28.3611 0.0000 11.6327
# 5 -1.2398 2.5621 -13.1028 0.0000 31.4100 0.0000
# 6 0.0000 0.0000 0.0000 11.6327 0.0000 3.4806
#
#
#
# Elastic Compliance Matrix: (Units=1/GPa)
#
#
# Indices 1 2 3 4 5 6 
#
# 1 0.014642 -0.003135 -0.001037 0.000000 0.000401 0.000000
# 2 -0.003135 0.021176 -0.010086 0.000000 -0.006059 0.000000
# 3 -0.001037 -0.010086 0.014076 0.000000 0.006654 0.000000
# 4 0.000000 0.000000 0.000000 -0.095080 0.000000 0.317774
# 5 0.000401 -0.006059 0.006654 0.000000 0.035123 0.000000
# 6 0.000000 0.000000 0.000000 0.317774 0.000000 -0.774746
#
#
# Mechanical properties :
#
#
# Convention : Reuss Voigt Hill
#
# Bulk Modulus (GPa) = 46.77743 51.67035 49.22389
# Shear Modulus (GPa) = -6.67409 24.21490 8.77041
#
# Velocity S-wave (km/s) = -1.79951 3.42767 2.06285
# Velocity P-wave (km/s) = 4.28701 6.38242 5.43663
#
# Compressibility (1/GPa) = 0.02137783
#
# Stress axis : x y z
#
# Youngs Moduli (GPa) = 68.29457 47.22402 71.04079
#
# Poissons Ratio (x) = 0.14805 0.07368
# Poissons Ratio (y) = 0.21411 0.71652
# Poissons Ratio (z) = 0.07083 0.47631
#
# Static dielectric constant tensor:
#      x y z
#    x 1.831960 0.000000 -0.016410 
#    y 0.000000 1.698190 0.000000 
#    z -0.016410 0.000000 1.839360 
# 
# From -- ./inp_files/26512.got.cif
#   From: 2010.05.17/outbox.cif.g08.bks.cpg/sg13_14_cif.got.tgz:26512.got - 2010.06.03 16:44:36.
