data_PCOD9229949
_publ_section_title
;
Structure prediction by ZEFSAII (Michael W. Deem and Ramdas Pophale) SiO2 
 PCOD9229949
Probable space group: P 2/C
;
_chemical_formula_sum "Si O2"
_cell_formula_units_Z 32
_cell_length_a 15.947109
_cell_length_b 21.301650
_cell_length_c 15.528860
_cell_angle_alpha 90.000000
_cell_angle_beta 161.845576
_cell_angle_gamma 90.000000
_cell_volume 1643.626704
_symmetry_space_group_name_H-M "P 2/C"
_symmetry_group_IT_number 13
_symmetry_cell_setting 'monoclinic'
loop_
_space_group_symop_operation_xyz
x,y,z
-x,y,1/2-z
-x,-y,-z
x,-y,1/2+z
loop_
_atom_site_type_symbol
_atom_site_label
_atom_site_fract_x
_atom_site_fract_y
_atom_site_fract_z
Si Si1 0.042167 0.072841 0.067384
Si Si2 0.270246 0.225378 0.957042
Si Si3 0.873586 0.453329 0.039517
Si Si4 0.736624 0.021650 0.047282
Si Si5 0.846098 0.398918 0.517172
Si Si6 0.588671 0.436435 0.033780
Si Si7 0.647892 0.651096 0.061821
Si Si8 0.422936 0.897711 0.501489
O O1 0.151875 0.070718 0.272158
O O2 0.269428 0.102649 0.228236
O O3 0.760140 0.102698 0.763629
O O4 0.000000 0.000000 0.000000
O O5 0.336935 0.158942 0.978532
O O6 0.000000 0.223346 0.750000
O O7 0.500000 0.240516 0.250000
O O8 0.280937 0.277499 0.891725
O O9 0.822754 0.527149 0.005748
O O10 0.000000 0.426111 0.250000
O O11 0.103087 0.444828 0.191492
O O12 0.591270 0.430953 0.727435
O O13 0.000000 0.002292 0.250000
O O14 0.625778 0.962358 0.993494
O O15 0.500000 0.041712 0.750000
O O16 0.557647 0.372153 0.212896
O O17 0.000000 0.370941 0.750000
O O18 0.069042 0.385325 0.662242
O O19 0.515614 0.374106 0.015880
O O20 0.500000 0.500000 0.000000
#
# Coordination Sequence:
#
# PCOD9229949 Si02
#       8
#     4   4   4   4   4   4   4   4
#     4  10  20  35  55  83 115 152 195 238 289 341
#     4  12  25  41  57  84 118 159 205 233 267 336
#     4  11  22  36  55  80 108 141 181 224 288 358
#     4  11  19  31  53  85 116 146 183 237 293 336
#     4  11  20  33  51  76 109 145 176 219 284 338
#     4  12  21  37  55  83 112 143 184 234 292 355
#     4  12  23  35  55  78 112 150 187 235 278 329
#     4  11  21  37  56  78 117 163 197 228 277 339
#
# _framework density 19.469142000000002
#
# number of rings (size 3 to 8) (size 9 to 14) (size 15 to 20)
#    0.000    0.750    2.500    9.000    0.000    2.000 
#    0.000    0.000    0.000    0.000    0.000    8.750 
#    0.000    0.000    0.000    0.000    0.000    0.000 
#
# Total GULP energy -178638.857016 kJ/mol
# GULP energy per Si atom -5582.464282 kJ/mol
# Density = 1.942483 g / cm^3
# Si number density = 19.469142 Si / 1000 Ang^3
#
#
#
# Elastic Constant Matrix: (Units=GPa)
#
#
# Indices 1 2 3 4 5 6 
#
# 1 53.2388 11.7056 10.7030 0.0000 -10.0148 0.0000
# 2 11.7056 49.2515 -2.8082 0.0000 -3.8193 0.0000
# 3 10.7030 -2.8082 105.6978 0.0000 -4.7904 0.0000
# 4 0.0000 0.0000 0.0000 17.0042 0.0000 4.6601
# 5 -10.0148 -3.8193 -4.7904 0.0000 45.9982 0.0000
# 6 0.0000 0.0000 0.0000 4.6601 0.0000 27.7189
#
#
#
# Elastic Compliance Matrix: (Units=1/GPa)
#
#
# Indices 1 2 3 4 5 6 
#
# 1 0.021001 -0.004803 -0.002075 0.000000 0.003957 0.000000
# 2 -0.004803 0.021575 0.001098 0.000000 0.000860 0.000000
# 3 -0.002075 0.001098 0.009730 0.000000 0.000653 0.000000
# 4 0.000000 0.000000 0.000000 0.061650 0.000000 -0.010364
# 5 0.003957 0.000860 0.000653 0.000000 0.022741 0.000000
# 6 0.000000 0.000000 0.000000 -0.010364 0.000000 0.037819
#
#
# Mechanical properties :
#
#
# Convention : Reuss Voigt Hill
#
# Bulk Modulus (GPa) = 24.54144 27.48766 26.01455
# Shear Modulus (GPa) = 25.04318 30.71677 27.87998
#
# Velocity S-wave (km/s) = 3.59040 3.97636 3.78829
# Velocity P-wave (km/s) = 5.46082 5.93558 5.70314
#
# Compressibility (1/GPa) = 0.04074740
#
# Stress axis : x y z
#
# Youngs Moduli (GPa) = 47.61717 46.35053 102.77706
#
# Poissons Ratio (x) = 0.22261 0.21324
# Poissons Ratio (y) = 0.22869 -0.11290
# Poissons Ratio (z) = 0.09880 -0.05092
#
# Static dielectric constant tensor:
#      x y z
#    x 1.791900 0.000000 -0.024220 
#    y 0.000000 1.660820 0.000000 
#    z -0.024220 0.000000 1.716460 
# 
# From -- ./inp_files/54006.got.cif
#   From: 2010.05.17/outbox.cif.g08.bks.cpg/sg13_28_cif.got.tgz:54006.got - 2010.06.03 16:44:36.
