data_PCOD9229985
_publ_section_title
;
Structure prediction by ZEFSAII (Michael W. Deem and Ramdas Pophale) SiO2 
 PCOD9229985
Probable space group: P 2/C
;
_chemical_formula_sum "Si O2"
_cell_formula_units_Z 20
_cell_length_a 8.148658
_cell_length_b 14.139071
_cell_length_c 7.631635
_cell_angle_alpha 90.000000
_cell_angle_beta 76.796069
_cell_angle_gamma 90.000000
_cell_volume 856.029481
_symmetry_space_group_name_H-M "P 2/C"
_symmetry_group_IT_number 13
_symmetry_cell_setting 'monoclinic'
loop_
_space_group_symop_operation_xyz
x,y,z
-x,y,1/2-z
-x,-y,-z
x,-y,1/2+z
loop_
_atom_site_type_symbol
_atom_site_label
_atom_site_fract_x
_atom_site_fract_y
_atom_site_fract_z
Si Si1 0.471281 0.717398 0.969720
Si Si2 0.132427 0.045545 0.336721
Si Si3 0.143697 0.617435 0.976988
Si Si4 0.373253 0.086143 0.558041
Si Si5 0.207713 0.601741 0.546503
O O1 0.500000 0.720698 0.750000
O O2 0.279685 0.682460 0.037569
O O3 0.608730 0.647347 0.021996
O O4 0.480602 0.820108 0.056110
O O5 0.269057 0.105262 0.405350
O O6 0.000000 0.102484 0.250000
O O7 0.236142 0.958556 0.223919
O O8 0.000000 0.000000 0.500000
O O9 0.172696 0.620787 0.760248
O O10 0.944696 0.639590 0.039296
O O11 0.190524 0.510848 0.023936
O O12 0.500000 0.000000 0.500000
#
# Coordination Sequence:
#
# PCOD9229985 Si02
#       5
#     4   4   4   4   4
#     4  10  20  35  56  90 119 158 208 255 313 373
#     4   9  20  40  62  85 114 165 207 253 317 376
#     4   9  18  35  58  83 118 159 202 249 312 369
#     4  11  21  39  62  88 122 162 209 261 312 375
#     4   9  18  35  58  84 116 160 200 253 307 371
#
# _framework density 23.363681
#
# number of rings (size 3 to 8) (size 9 to 14) (size 15 to 20)
#    0.000    2.400    0.000    2.400    0.000    0.000 
#   18.000    4.000   17.600    0.000    0.000    0.000 
#    0.000    0.000    0.000    0.000    0.000    0.000 
#
# Total GULP energy -111551.030670 kJ/mol
# GULP energy per Si atom -5577.551534 kJ/mol
# Density = 2.331050 g / cm^3
# Si number density = 23.363681 Si / 1000 Ang^3
#
#
#
# Elastic Constant Matrix: (Units=GPa)
#
#
# Indices 1 2 3 4 5 6 
#
# 1 158.6390 61.4535 34.8515 0.0000 9.4404 0.0000
# 2 61.4535 82.2981 4.2074 0.0000 -0.3806 0.0000
# 3 34.8515 4.2074 47.1587 0.0000 -7.3262 0.0000
# 4 0.0000 0.0000 0.0000 17.6162 0.0000 -3.1674
# 5 9.4404 -0.3806 -7.3262 0.0000 34.3410 0.0000
# 6 0.0000 0.0000 0.0000 -3.1674 0.0000 9.9602
#
#
#
# Elastic Compliance Matrix: (Units=1/GPa)
#
#
# Indices 1 2 3 4 5 6 
#
# 1 0.011784 -0.008375 -0.008770 0.000000 -0.005203 0.000000
# 2 -0.008375 0.018159 0.005128 0.000000 0.003598 0.000000
# 3 -0.008770 0.005128 0.028559 0.000000 0.008560 0.000000
# 4 0.000000 0.000000 0.000000 0.060208 0.000000 0.019146
# 5 -0.005203 0.003598 0.008560 0.000000 0.032416 0.000000
# 6 0.000000 0.000000 0.000000 0.019146 0.000000 0.106488
#
#
# Mechanical properties :
#
#
# Convention : Reuss Voigt Hill
#
# Bulk Modulus (GPa) = 29.01216 54.34674 41.67945
# Shear Modulus (GPa) = 17.05679 24.88906 20.97293
#
# Velocity S-wave (km/s) = 2.70489 3.26742 2.99937
# Velocity P-wave (km/s) = 4.71167 6.12751 5.46563
#
# Compressibility (1/GPa) = 0.03446830
#
# Stress axis : x y z
#
# Youngs Moduli (GPa) = 84.85797 55.06787 35.01569
#
# Poissons Ratio (x) = 0.46121 0.30709
# Poissons Ratio (y) = 0.71071 -0.17957
# Poissons Ratio (z) = 0.74421 -0.28241
#
# Static dielectric constant tensor:
#      x y z
#    x 2.057540 0.000000 0.176330 
#    y 0.000000 1.837530 0.000000 
#    z 0.176330 0.000000 2.094920 
# 
# From -- ./inp_files/12240.got.cif
#   From: 2010.05.17/outbox.cif.g08.bks.cpg/sg13_7_cif.got.tgz:12240.got - 2010.06.03 16:44:36.
