data_PCOD9229500
_publ_section_title
;
Structure prediction by ZEFSAII (Michael W. Deem and Ramdas Pophale) SiO2 
 PCOD9229500
Probable space group: P 2/C
;
_chemical_formula_sum "Si O2"
_cell_formula_units_Z 30
_cell_length_a 19.301889
_cell_length_b 6.724575
_cell_length_c 22.577362
_cell_angle_alpha 90.000000
_cell_angle_beta 146.697816
_cell_angle_gamma 90.000000
_cell_volume 1608.990379
_symmetry_space_group_name_H-M "P 2/C"
_symmetry_group_IT_number 13
_symmetry_cell_setting 'monoclinic'
loop_
_space_group_symop_operation_xyz
x,y,z
-x,y,1/2-z
-x,-y,-z
x,-y,1/2+z
loop_
_atom_site_type_symbol
_atom_site_label
_atom_site_fract_x
_atom_site_fract_y
_atom_site_fract_z
Si Si1 0.937327 0.133110 0.544312
Si Si2 0.000000 0.914212 0.750000
Si Si3 0.327382 0.044347 0.822161
Si Si4 0.384572 0.030578 0.501626
Si Si5 0.909912 0.784617 0.887369
Si Si6 0.798063 0.782959 0.051159
Si Si7 0.830984 0.392477 0.768950
Si Si8 0.211565 0.393464 0.381372
O O1 0.933959 0.207407 0.474402
O O2 0.812374 0.191826 0.490911
O O3 0.054708 0.240212 0.660989
O O4 0.977516 0.902621 0.565766
O O5 0.903599 0.760528 0.711965
O O6 0.907952 0.063483 0.649970
O O7 0.276700 0.266735 0.775925
O O8 0.337365 0.012551 0.900505
O O9 0.220140 0.900821 0.719902
O O10 0.465063 0.016864 0.893456
O O11 0.330272 0.249806 0.478365
O O12 0.324366 0.873150 0.504063
O O13 0.890176 0.565990 0.849644
O O14 0.815980 0.557808 0.087577
O O15 0.775121 0.482189 0.669084
#
# Coordination Sequence:
#
# PCOD9229500 Si02
#       8
#     4   2   4   4   4   4   4   4
#     4  10  22  36  57  82 116 148 189 226 275 345
#     4  10  20  30  50  78 118 146 172 224 280 352
#     4  10  21  38  57  80 110 145 193 235 278 330
#     4  10  22  37  55  83 112 145 188 235 281 339
#     4  10  21  39  58  82 109 154 189 228 278 331
#     4  11  21  35  53  82 116 147 180 229 285 338
#     4  11  19  33  57  85 111 142 185 232 279 338
#     4  11  20  32  53  85 113 145 182 223 298 332
#
# _framework density 18.645233000000001
#
# number of rings (size 3 to 8) (size 9 to 14) (size 15 to 20)
#    0.000    1.600    2.667    3.200    3.733    2.667 
#    0.000    0.667    0.000    0.000    0.000    0.000 
#    0.000    0.000    0.000    0.000    0.000    0.000 
#
# Total GULP energy -167314.106909 kJ/mol
# GULP energy per Si atom -5577.136897 kJ/mol
# Density = 1.860280 g / cm^3
# Si number density = 18.645233 Si / 1000 Ang^3
#
#
#
# Elastic Constant Matrix: (Units=GPa)
#
#
# Indices 1 2 3 4 5 6 
#
# 1 79.1298 30.2560 9.0722 0.0000 17.0810 0.0000
# 2 30.2560 105.1990 7.5647 0.0000 4.6194 0.0000
# 3 9.0722 7.5647 31.2801 0.0000 14.5879 0.0000
# 4 0.0000 0.0000 0.0000 16.9239 0.0000 -2.9111
# 5 17.0810 4.6194 14.5879 0.0000 25.2835 0.0000
# 6 0.0000 0.0000 0.0000 -2.9111 0.0000 19.8831
#
#
#
# Elastic Compliance Matrix: (Units=1/GPa)
#
#
# Indices 1 2 3 4 5 6 
#
# 1 0.016571 -0.004380 0.001506 0.000000 -0.011264 0.000000
# 2 -0.004380 0.010838 -0.002472 0.000000 0.002405 0.000000
# 3 0.001506 -0.002472 0.044320 0.000000 -0.026137 0.000000
# 4 0.000000 0.000000 0.000000 0.060615 0.000000 0.008875
# 5 -0.011264 0.002405 -0.026137 0.000000 0.061802 0.000000
# 6 0.000000 0.000000 0.000000 0.008875 0.000000 0.051593
#
#
# Mechanical properties :
#
#
# Convention : Reuss Voigt Hill
#
# Bulk Modulus (GPa) = 16.38373 34.37719 25.38046
# Shear Modulus (GPa) = 18.06521 23.66581 20.86551
#
# Velocity S-wave (km/s) = 3.11608 3.56655 3.34890
# Velocity P-wave (km/s) = 4.66399 5.95297 5.34746
#
# Compressibility (1/GPa) = 0.06103615
#
# Stress axis : x y z
#
# Youngs Moduli (GPa) = 60.34723 92.27161 22.56338
#
# Poissons Ratio (x) = 0.40411 -0.03398
# Poissons Ratio (y) = 0.26430 0.05579
# Poissons Ratio (z) = -0.09089 0.22814
#
# Static dielectric constant tensor:
#      x y z
#    x 1.708860 0.000000 -0.008330 
#    y 0.000000 1.663220 0.000000 
#    z -0.008330 0.000000 1.634960 
# 
# From -- ./inp_files/86978.got.cif
#   From: 2010.05.17/outbox.cif.g08.bks.cpg/sg13_44_cif.got.tgz:86978.got - 2010.06.03 16:44:36.
