data_PCOD9229526
_publ_section_title
;
Structure prediction by ZEFSAII (Michael W. Deem and Ramdas Pophale) SiO2 
 PCOD9229526
Probable space group: P 2/C
;
_chemical_formula_sum "Si O2"
_cell_formula_units_Z 28
_cell_length_a 13.799970
_cell_length_b 5.070925
_cell_length_c 16.892452
_cell_angle_alpha 90.000000
_cell_angle_beta 75.636772
_cell_angle_gamma 90.000000
_cell_volume 1145.160626
_symmetry_space_group_name_H-M "P 2/C"
_symmetry_group_IT_number 13
_symmetry_cell_setting 'monoclinic'
loop_
_space_group_symop_operation_xyz
x,y,z
-x,y,1/2-z
-x,-y,-z
x,-y,1/2+z
loop_
_atom_site_type_symbol
_atom_site_label
_atom_site_fract_x
_atom_site_fract_y
_atom_site_fract_z
Si Si1 0.086597 0.347687 0.109413
Si Si2 0.691284 0.092377 0.105292
Si Si3 0.090493 0.003221 0.878309
Si Si4 0.000000 0.267418 0.750000
Si Si5 0.364576 0.577265 0.595861
Si Si6 0.748992 0.073478 0.908440
Si Si7 0.574590 0.406928 0.603773
Si Si8 0.000000 0.500000 0.500000
O O1 0.067254 0.531340 0.186441
O O2 0.145767 0.082996 0.114056
O O3 0.113453 0.515943 0.027456
O O4 0.974898 0.267612 0.093855
O O5 0.793748 0.040393 0.130534
O O6 0.606398 0.871130 0.132828
O O7 0.642982 0.373717 0.130633
O O8 0.718009 0.073540 0.006627
O O9 0.065112 0.086760 0.794310
O O10 0.044250 0.233888 0.940135
O O11 0.324062 0.867498 0.621767
O O12 0.458389 0.483355 0.627785
O O13 0.398079 0.587462 0.496324
O O14 0.275267 0.363628 0.618385
#
# Coordination Sequence:
#
# PCOD9229526 Si02
#       8
#     4   4   4   2   4   4   4   2
#     4  11  23  38  58  85 122 161 206 257 307 380
#     4  10  20  31  56  85 117 158 197 239 302 364
#     4  11  23  38  58  85 122 161 206 257 307 380
#     4  10  26  42  56  76 126 162 214 254 322 358
#     4   9  18  32  50  81 123 157 188 236 298 362
#     4  10  20  31  56  85 117 158 197 239 302 364
#     4   9  18  32  50  81 123 157 188 236 298 362
#     4  10  22  34  60  84 122 156 202 258 314 358
#
# _framework density 24.450717000000001
#
# number of rings (size 3 to 8) (size 9 to 14) (size 15 to 20)
#    0.000    2.000    1.429    1.714    8.000    3.429 
#    0.000    0.000    0.000    0.000    0.000    1.000 
#    0.000    0.000    0.000    0.000    0.000    0.000 
#
# Total GULP energy -156358.850612 kJ/mol
# GULP energy per Si atom -5584.244665 kJ/mol
# Density = 2.439507 g / cm^3
# Si number density = 24.450717 Si / 1000 Ang^3
#
#
#
# Elastic Constant Matrix: (Units=GPa)
#
#
# Indices 1 2 3 4 5 6 
#
# 1 94.7362 -22.6623 10.5186 0.0000 10.2169 0.0000
# 2 -22.6623 71.4284 12.8640 0.0000 -8.2890 0.0000
# 3 10.5186 12.8640 57.8493 0.0000 11.2398 0.0000
# 4 0.0000 0.0000 0.0000 29.8329 0.0000 1.3804
# 5 10.2169 -8.2890 11.2398 0.0000 16.7244 0.0000
# 6 0.0000 0.0000 0.0000 1.3804 0.0000 43.6561
#
#
#
# Elastic Compliance Matrix: (Units=1/GPa)
#
#
# Indices 1 2 3 4 5 6 
#
# 1 0.012149 0.003799 -0.002275 0.000000 -0.004011 0.000000
# 2 0.003799 0.017700 -0.006763 0.000000 0.010997 0.000000
# 3 -0.002275 -0.006763 0.022527 0.000000 -0.017102 0.000000
# 4 0.000000 0.000000 0.000000 0.033569 0.000000 -0.001061
# 5 -0.004011 0.010997 -0.017102 0.000000 0.079187 0.000000
# 6 0.000000 0.000000 0.000000 -0.001061 0.000000 0.022940
#
#
# Mechanical properties :
#
#
# Convention : Reuss Voigt Hill
#
# Bulk Modulus (GPa) = 23.86766 25.05049 24.45907
# Shear Modulus (GPa) = 23.52772 32.92892 28.22832
#
# Velocity S-wave (km/s) = 3.10538 3.67379 3.40148
# Velocity P-wave (km/s) = 4.75821 5.31631 5.04498
#
# Compressibility (1/GPa) = 0.04189770
#
# Stress axis : x y z
#
# Youngs Moduli (GPa) = 82.30808 56.49869 44.39195
#
# Poissons Ratio (x) = -0.21464 0.10098
# Poissons Ratio (y) = -0.31268 0.30023
# Poissons Ratio (z) = 0.18722 0.38211
#
# Static dielectric constant tensor:
#      x y z
#    x 2.026560 0.000000 0.003090 
#    y 0.000000 1.975570 0.000000 
#    z 0.003090 0.000000 2.074670 
# 
# From -- ./inp_files/77261.got.cif
#   From: 2010.05.17/outbox.cif.g08.bks.cpg/sg13_39_cif.got.tgz:77261.got - 2010.06.03 16:44:36.
