data_PCOD9229747
_publ_section_title
;
Structure prediction by ZEFSAII (Michael W. Deem and Ramdas Pophale) SiO2 
 PCOD9229747
Probable space group: P 2/C
;
_chemical_formula_sum "Si O2"
_cell_formula_units_Z 20
_cell_length_a 7.326540
_cell_length_b 13.820252
_cell_length_c 11.214827
_cell_angle_alpha 90.000000
_cell_angle_beta 127.604065
_cell_angle_gamma 90.000000
_cell_volume 899.637840
_symmetry_space_group_name_H-M "P 2/C"
_symmetry_group_IT_number 13
_symmetry_cell_setting 'monoclinic'
loop_
_space_group_symop_operation_xyz
x,y,z
-x,y,1/2-z
-x,-y,-z
x,-y,1/2+z
loop_
_atom_site_type_symbol
_atom_site_label
_atom_site_fract_x
_atom_site_fract_y
_atom_site_fract_z
Si Si1 0.355370 0.208347 0.571526
Si Si2 0.644255 0.996522 0.931761
Si Si3 0.206406 0.404347 0.425693
Si Si4 0.643285 0.601333 0.927354
Si Si5 0.206598 0.201266 0.926071
O O1 0.500000 0.221618 0.750000
O O2 0.197277 0.301077 0.487307
O O3 0.550060 0.203205 0.546883
O O4 0.239046 0.102591 0.526406
O O5 0.500000 0.990685 0.750000
O O6 0.791432 0.898882 0.000711
O O7 0.500000 0.000000 0.000000
O O8 0.219080 0.500929 0.509628
O O9 0.450779 0.401191 0.454269
O O10 0.000000 0.412996 0.250000
O O11 0.500000 0.607131 0.750000
O O12 0.793745 0.697622 0.003967
O O13 0.000000 0.199508 0.750000
#
# Coordination Sequence:
#
# PCOD9229747 Si02
#       5
#     4   4   4   4   4
#     4   9  19  36  53  74 106 139 172 216 263 313
#     4   9  18  35  55  76 108 145 179 221 270 317
#     4  10  21  35  53  77 102 133 174 215 260 315
#     4  10  21  36  53  75 106 137 170 217 265 313
#     4  10  20  34  54  80 107 138 178 220 265 317
#
# _framework density 22.231169000000001
#
# number of rings (size 3 to 8) (size 9 to 14) (size 15 to 20)
#    0.000    2.400    0.000    1.800    0.000    3.200 
#    0.000    9.000    0.000    0.000    0.000    0.000 
#    0.000    0.000    0.000    0.000    0.000    0.000 
#
# Total GULP energy -111619.827168 kJ/mol
# GULP energy per Si atom -5580.991358 kJ/mol
# Density = 2.218057 g / cm^3
# Si number density = 22.231169 Si / 1000 Ang^3
#
#
#
# Elastic Constant Matrix: (Units=GPa)
#
#
# Indices 1 2 3 4 5 6 
#
# 1 96.3538 15.4714 -5.3842 0.0000 -4.4686 0.0000
# 2 15.4714 294.4096 124.9232 0.0000 13.5573 0.0000
# 3 -5.3842 124.9232 137.5423 0.0000 0.4559 0.0000
# 4 0.0000 0.0000 0.0000 52.3909 0.0000 -8.4479
# 5 -4.4686 13.5573 0.4559 0.0000 29.0061 0.0000
# 6 0.0000 0.0000 0.0000 -8.4479 0.0000 -29.1430
#
#
#
# Elastic Compliance Matrix: (Units=1/GPa)
#
#
# Indices 1 2 3 4 5 6 
#
# 1 0.010799 -0.001381 0.001670 0.000000 0.002283 0.000000
# 2 -0.001381 0.005891 -0.005395 0.000000 -0.002881 0.000000
# 3 0.001670 -0.005395 0.012227 0.000000 0.002587 0.000000
# 4 0.000000 0.000000 0.000000 0.018235 0.000000 -0.005286
# 5 0.002283 -0.002881 0.002587 0.000000 0.036133 0.000000
# 6 0.000000 0.000000 0.000000 -0.005286 0.000000 -0.032781
#
#
# Mechanical properties :
#
#
# Convention : Reuss Voigt Hill
#
# Bulk Modulus (GPa) = 53.46287 88.70294 71.08290
# Shear Modulus (GPa) = 74.67901 36.67047 55.67474
#
# Velocity S-wave (km/s) = 5.80215 4.06582 5.00978
# Velocity P-wave (km/s) = 8.30587 7.87579 8.09369
#
# Compressibility (1/GPa) = 0.01870457
#
# Stress axis : x y z
#
# Youngs Moduli (GPa) = 92.59818 169.74572 81.78310
#
# Poissons Ratio (x) = 0.23443 -0.13654
# Poissons Ratio (y) = 0.12788 0.44123
# Poissons Ratio (z) = -0.15460 0.91581
#
# Static dielectric constant tensor:
#      x y z
#    x 1.783280 0.000000 0.001310 
#    y 0.000000 1.851680 0.000000 
#    z 0.001310 0.000000 1.697600 
# 
# From -- ./inp_files/29248.got.cif
#   From: 2010.05.17/outbox.cif.g08.bks.cpg/sg13_15_cif.got.tgz:29248.got - 2010.06.03 16:44:36.
