data_PCOD9229494
_publ_section_title
;
Structure prediction by ZEFSAII (Michael W. Deem and Ramdas Pophale) SiO2 
 PCOD9229494
Probable space group: P 2/C
;
_chemical_formula_sum "Si O2"
_cell_formula_units_Z 30
_cell_length_a 24.824532
_cell_length_b 15.173693
_cell_length_c 24.299192
_cell_angle_alpha 90.000000
_cell_angle_beta 168.524973
_cell_angle_gamma 90.000000
_cell_volume 1820.908257
_symmetry_space_group_name_H-M "P 2/C"
_symmetry_group_IT_number 13
_symmetry_cell_setting 'monoclinic'
loop_
_space_group_symop_operation_xyz
x,y,z
-x,y,1/2-z
-x,-y,-z
x,-y,1/2+z
loop_
_atom_site_type_symbol
_atom_site_label
_atom_site_fract_x
_atom_site_fract_y
_atom_site_fract_z
Si Si1 0.496808 0.253578 0.670521
Si Si2 0.000000 0.746821 0.750000
Si Si3 0.953397 0.486458 0.518605
Si Si4 0.930358 0.990502 0.365574
Si Si5 0.769478 0.808649 0.240966
Si Si6 0.715145 0.687339 0.743577
Si Si7 0.593042 0.103412 0.680036
Si Si8 0.436721 0.404684 0.524535
O O1 0.597507 0.174585 0.732582
O O2 0.399392 0.333793 0.534813
O O3 0.232740 0.217827 0.440042
O O4 0.761395 0.288584 0.969564
O O5 0.829538 0.389092 0.397714
O O6 0.000000 0.500000 0.500000
O O7 0.236313 0.511997 0.829152
O O8 0.738078 0.558009 0.323188
O O9 0.832294 0.890088 0.263422
O O10 0.000000 0.000000 0.500000
O O11 0.195272 0.023903 0.599670
O O12 0.696623 0.058746 0.116991
O O13 0.664697 0.848052 0.194219
O O14 0.042583 0.754931 0.525143
O O15 0.540619 0.741864 0.990923
O O16 0.624943 0.642164 0.595779
#
# Coordination Sequence:
#
# PCOD9229494 Si02
#       8
#     4   2   4   4   4   4   4   4
#     4  11  22  36  56  68  98 128 172 208 260 309
#     4  10  24  38  48  78  92 118 162 238 268 278
#     4  10  20  30  43  68  99 125 170 215 227 263
#     4  10  20  30  43  68  99 125 170 215 227 263
#     4  11  19  29  45  68  98 135 170 203 230 268
#     4  11  19  29  45  68  98 135 170 203 230 268
#     4  11  20  32  49  67  91 135 174 200 236 298
#     4  11  20  32  49  67  91 135 174 200 236 298
#
# _framework density 16.475294000000002
#
# number of rings (size 3 to 8) (size 9 to 14) (size 15 to 20)
#    0.000    1.333    1.333    9.600    1.867    0.000 
#    0.000    0.000    0.000    0.000    0.000    0.000 
#    0.000    0.000    0.000  252.000    0.000    0.533 
#
# Total GULP energy -167014.632019 kJ/mol
# GULP energy per Si atom -5567.154401 kJ/mol
# Density = 1.643780 g / cm^3
# Si number density = 16.475294 Si / 1000 Ang^3
#
#
#
# Elastic Constant Matrix: (Units=GPa)
#
#
# Indices 1 2 3 4 5 6 
#
# 1 42.4096 16.6906 8.9253 0.0000 10.7384 0.0000
# 2 16.6906 62.0042 2.8253 0.0000 1.4673 0.0000
# 3 8.9253 2.8253 82.1387 0.0000 9.7554 0.0000
# 4 0.0000 0.0000 0.0000 46.7790 0.0000 11.4900
# 5 10.7384 1.4673 9.7554 0.0000 27.6898 0.0000
# 6 0.0000 0.0000 0.0000 11.4900 0.0000 -1.0458
#
#
#
# Elastic Compliance Matrix: (Units=1/GPa)
#
#
# Indices 1 2 3 4 5 6 
#
# 1 0.029598 -0.007642 -0.001710 0.000000 -0.010471 0.000000
# 2 -0.007642 0.018139 -0.000033 0.000000 0.002014 0.000000
# 3 -0.001710 -0.000033 0.012819 0.000000 -0.003851 0.000000
# 4 0.000000 0.000000 0.000000 0.005780 0.000000 0.063501
# 5 -0.010471 0.002014 -0.003851 0.000000 0.041425 0.000000
# 6 0.000000 0.000000 0.000000 0.063501 0.000000 -0.258529
#
#
# Mechanical properties :
#
#
# Convention : Reuss Voigt Hill
#
# Bulk Modulus (GPa) = 23.93053 27.04832 25.48942
# Shear Modulus (GPa) = -42.34743 25.22535 -8.56104
#
# Velocity S-wave (km/s) = -5.07537 3.91717 -2.28201
# Velocity P-wave (km/s) = 4.44851 6.07554 2.92600
#
# Compressibility (1/GPa) = 0.04178763
#
# Stress axis : x y z
#
# Youngs Moduli (GPa) = 33.78583 55.13044 78.01002
#
# Poissons Ratio (x) = 0.42129 0.13337
# Poissons Ratio (y) = 0.25818 0.00255
# Poissons Ratio (z) = 0.05776 0.00180
#
# Static dielectric constant tensor:
#      x y z
#    x 1.552230 0.000000 0.006110 
#    y 0.000000 1.592140 0.000000 
#    z 0.006110 0.000000 1.571540 
# 
# From -- ./inp_files/89251.got.cif
#   From: 2010.05.17/outbox.cif.g08.bks.cpg/sg13_45_cif.got.tgz:89251.got - 2010.06.03 16:44:36.
