data_PCOD9229926
_publ_section_title
;
Structure prediction by ZEFSAII (Michael W. Deem and Ramdas Pophale) SiO2 
 PCOD9229926
Probable space group: P 2/C
;
_chemical_formula_sum "Si O2"
_cell_formula_units_Z 30
_cell_length_a 13.108836
_cell_length_b 17.011257
_cell_length_c 8.979260
_cell_angle_alpha 90.000000
_cell_angle_beta 128.762516
_cell_angle_gamma 90.000000
_cell_volume 1561.331798
_symmetry_space_group_name_H-M "P 2/C"
_symmetry_group_IT_number 13
_symmetry_cell_setting 'monoclinic'
loop_
_space_group_symop_operation_xyz
x,y,z
-x,y,1/2-z
-x,-y,-z
x,-y,1/2+z
loop_
_atom_site_type_symbol
_atom_site_label
_atom_site_fract_x
_atom_site_fract_y
_atom_site_fract_z
Si Si1 0.356534 0.126857 0.681635
Si Si2 0.651978 0.050756 0.336981
Si Si3 0.756407 0.814443 0.142094
Si Si4 0.285256 0.828416 0.820376
Si Si5 0.000000 0.506379 0.750000
Si Si6 0.124295 0.396262 0.115162
Si Si7 0.641598 0.692166 0.814544
Si Si8 0.994638 0.772691 0.927234
O O1 0.500000 0.119589 0.750000
O O2 0.353977 0.166447 0.837769
O O3 0.286352 0.181055 0.497261
O O4 0.300253 0.038652 0.628646
O O5 0.500000 0.054388 0.250000
O O6 0.739646 0.110107 0.517190
O O7 0.661045 0.087466 0.180441
O O8 0.885020 0.804188 0.362563
O O9 0.724793 0.735318 0.021799
O O10 0.370429 0.763263 0.814761
O O11 0.134430 0.819419 0.639344
O O12 0.105308 0.558951 0.755135
O O13 0.932759 0.451807 0.565327
O O14 0.268331 0.370640 0.189727
O O15 0.038403 0.317115 0.056949
O O16 0.500000 0.668414 0.750000
O O17 0.000000 0.777434 0.750000
#
# Coordination Sequence:
#
# PCOD9229926 Si02
#       8
#     4   4   4   4   2   4   4   4
#     4  11  20  33  54  78 107 147 199 250 297 348
#     4  10  21  36  52  77 108 147 197 249 297 351
#     4  11  21  35  57  79 111 152 195 239 297 355
#     4  10  20  35  54  76 111 146 189 246 295 335
#     4  10  20  38  64  98 116 156 196 218 272 334
#     4  10  21  38  64  89 122 150 187 235 270 333
#     4  10  21  38  59  88 121 154 190 236 290 338
#     4  11  21  38  56  84 114 143 185 243 285 332
#
# _framework density 19.214365999999998
#
# number of rings (size 3 to 8) (size 9 to 14) (size 15 to 20)
#    0.000    1.600    2.000    4.800    0.000    6.400 
#    0.000    4.667    0.000    0.000    0.000    0.000 
#    0.000    0.000    0.000    0.000    0.000    0.000 
#
# Total GULP energy -167137.818293 kJ/mol
# GULP energy per Si atom -5571.260610 kJ/mol
# Density = 1.917063 g / cm^3
# Si number density = 19.214366 Si / 1000 Ang^3
#
#
#
# Elastic Constant Matrix: (Units=GPa)
#
#
# Indices 1 2 3 4 5 6 
#
# 1 120.9961 41.3885 35.0544 0.0000 -10.6743 0.0000
# 2 41.3885 43.2270 17.6258 0.0000 1.5487 0.0000
# 3 35.0544 17.6258 92.2228 0.0000 -4.3569 0.0000
# 4 0.0000 0.0000 0.0000 15.4276 0.0000 -4.6128
# 5 -10.6743 1.5487 -4.3569 0.0000 37.6449 0.0000
# 6 0.0000 0.0000 0.0000 -4.6128 0.0000 28.7518
#
#
#
# Elastic Compliance Matrix: (Units=1/GPa)
#
#
# Indices 1 2 3 4 5 6 
#
# 1 0.013480 -0.011971 -0.002646 0.000000 0.004008 0.000000
# 2 -0.011971 0.035816 -0.002539 0.000000 -0.005162 0.000000
# 3 -0.002646 -0.002539 0.012372 0.000000 0.000786 0.000000
# 4 0.000000 0.000000 0.000000 0.068085 0.000000 0.010923
# 5 0.004008 -0.005162 0.000786 0.000000 0.028004 0.000000
# 6 0.000000 0.000000 0.000000 0.010923 0.000000 0.036533
#
#
# Mechanical properties :
#
#
# Convention : Reuss Voigt Hill
#
# Bulk Modulus (GPa) = 36.55693 49.39815 42.97754
# Shear Modulus (GPa) = 21.03314 27.19002 24.11158
#
# Velocity S-wave (km/s) = 3.31215 3.76585 3.54626
# Velocity P-wave (km/s) = 5.80467 6.68383 6.25971
#
# Compressibility (1/GPa) = 0.02735459
#
# Stress axis : x y z
#
# Youngs Moduli (GPa) = 74.18393 27.92059 80.83039
#
# Poissons Ratio (x) = 0.33424 0.21392
# Poissons Ratio (y) = 0.88807 0.20521
# Poissons Ratio (z) = 0.19633 0.07088
#
# Static dielectric constant tensor:
#      x y z
#    x 1.723690 0.000000 -0.005670 
#    y 0.000000 1.677460 0.000000 
#    z -0.005670 0.000000 1.722280 
# 
# From -- ./inp_files/17180.got.cif
#   From: 2010.05.17/outbox.cif.g08.bks.cpg/sg13_9_cif.got.tgz:17180.got - 2010.06.03 16:44:36.
