data_PCOD9229809
_publ_section_title
;
Structure prediction by ZEFSAII (Michael W. Deem and Ramdas Pophale) SiO2 
 PCOD9229809
Probable space group: P 2/C
;
_chemical_formula_sum "Si O2"
_cell_formula_units_Z 32
_cell_length_a 6.467794
_cell_length_b 14.463873
_cell_length_c 19.667466
_cell_angle_alpha 90.000000
_cell_angle_beta 78.489473
_cell_angle_gamma 90.000000
_cell_volume 1802.875147
_symmetry_space_group_name_H-M "P 2/C"
_symmetry_group_IT_number 13
_symmetry_cell_setting 'monoclinic'
loop_
_space_group_symop_operation_xyz
x,y,z
-x,y,1/2-z
-x,-y,-z
x,-y,1/2+z
loop_
_atom_site_type_symbol
_atom_site_label
_atom_site_fract_x
_atom_site_fract_y
_atom_site_fract_z
Si Si1 0.120448 0.702004 0.425576
Si Si2 0.759443 0.159434 0.929554
Si Si3 0.400889 0.634431 0.536664
Si Si4 0.597600 0.030895 0.168131
Si Si5 0.957591 0.967767 0.925142
Si Si6 0.590068 0.164945 0.430720
Si Si7 0.529015 0.184464 0.668144
Si Si8 0.164252 0.542364 0.044219
O O1 0.265869 0.669529 0.479597
O O2 0.279365 0.749877 0.363890
O O3 0.944012 0.780078 0.451237
O O4 0.984471 0.615153 0.407842
O O5 0.667124 0.207714 0.868109
O O6 0.840415 0.058285 0.903928
O O7 0.573123 0.149720 0.996604
O O8 0.409898 0.725488 0.582128
O O9 0.635877 0.598908 0.500900
O O10 0.274292 0.545382 0.572561
O O11 0.500000 0.038574 0.250000
O O12 0.478520 0.102599 0.127756
O O13 0.842455 0.050885 0.135791
O O14 0.576324 0.923158 0.148523
O O15 0.812867 0.877646 0.937527
O O16 0.000000 0.000000 0.000000
O O17 0.500000 0.190424 0.750000
O O18 0.000000 0.500000 0.000000
#
# Coordination Sequence:
#
# PCOD9229809 Si02
#       8
#     4   4   4   4   4   4   4   4
#     4  11  19  35  58  83 122 153 189 248 305 361
#     4  12  21  35  57  87 116 153 202 248 291 356
#     4  10  20  34  56  92 117 143 193 252 306 361
#     4  11  25  40  52  82 124 164 206 244 292 356
#     4  12  22  35  60  84 114 159 201 244 296 349
#     4  12  22  35  60  84 119 155 198 250 294 352
#     4  11  23  38  52  79 120 162 205 241 293 362
#     4   9  19  34  57  87 121 144 182 250 320 360
#
# _framework density 17.749427000000001
#
# number of rings (size 3 to 8) (size 9 to 14) (size 15 to 20)
#    0.000    1.000    6.250    1.875    0.000    1.000 
#    0.000    0.000    0.000    0.000    0.000   35.875 
#    0.000    0.000    0.000    0.000    0.000    0.000 
#
# Total GULP energy -178344.819697 kJ/mol
# GULP energy per Si atom -5573.275616 kJ/mol
# Density = 1.770903 g / cm^3
# Si number density = 17.749427 Si / 1000 Ang^3
#
#
#
# Elastic Constant Matrix: (Units=GPa)
#
#
# Indices 1 2 3 4 5 6 
#
# 1 111.1888 47.1240 38.3150 0.0000 -14.3162 0.0000
# 2 47.1240 139.3830 32.7405 0.0000 -8.8058 0.0000
# 3 38.3150 32.7405 66.3733 0.0000 -5.0339 0.0000
# 4 0.0000 0.0000 0.0000 10.6196 0.0000 -4.4038
# 5 -14.3162 -8.8058 -5.0339 0.0000 18.9920 0.0000
# 6 0.0000 0.0000 0.0000 -4.4038 0.0000 47.6395
#
#
#
# Elastic Compliance Matrix: (Units=1/GPa)
#
#
# Indices 1 2 3 4 5 6 
#
# 1 0.012957 -0.002605 -0.005659 0.000000 0.007059 0.000000
# 2 -0.002605 0.008783 -0.002723 0.000000 0.001386 0.000000
# 3 -0.005659 -0.002723 0.019652 0.000000 -0.000320 0.000000
# 4 0.000000 0.000000 0.000000 0.097919 0.000000 0.009052
# 5 0.007059 0.001386 -0.000320 0.000000 0.058533 0.000000
# 6 0.000000 0.000000 0.000000 0.009052 0.000000 0.021828
#
#
# Mechanical properties :
#
#
# Convention : Reuss Voigt Hill
#
# Bulk Modulus (GPa) = 51.50249 61.47822 56.49036
# Shear Modulus (GPa) = 20.15164 28.70125 24.42644
#
# Velocity S-wave (km/s) = 3.37314 4.02559 3.71372
# Velocity P-wave (km/s) = 6.65208 7.50460 7.09116
#
# Compressibility (1/GPa) = 0.01941654
#
# Stress axis : x y z
#
# Youngs Moduli (GPa) = 77.17927 113.86213 50.88520
#
# Poissons Ratio (x) = 0.29665 0.28796
# Poissons Ratio (y) = 0.20108 0.13857
# Poissons Ratio (z) = 0.43676 0.31006
#
# Static dielectric constant tensor:
#      x y z
#    x 1.702480 0.000000 0.006660 
#    y 0.000000 1.648130 0.000000 
#    z 0.006660 0.000000 1.566850 
# 
# From -- ./inp_files/73909.got.cif
#   From: 2010.05.17/outbox.cif.g08.bks.cpg/sg13_37_cif.got.tgz:73909.got - 2010.06.03 16:44:36.
