data_PCOD9229703
_publ_section_title
;
Structure prediction by ZEFSAII (Michael W. Deem and Ramdas Pophale) SiO2 
 PCOD9229703
Probable space group: P 2/C
;
_chemical_formula_sum "Si O2"
_cell_formula_units_Z 26
_cell_length_a 10.732504
_cell_length_b 23.879916
_cell_length_c 5.233402
_cell_angle_alpha 90.000000
_cell_angle_beta 108.948161
_cell_angle_gamma 90.000000
_cell_volume 1268.595347
_symmetry_space_group_name_H-M "P 2/C"
_symmetry_group_IT_number 13
_symmetry_cell_setting 'monoclinic'
loop_
_space_group_symop_operation_xyz
x,y,z
-x,y,1/2-z
-x,-y,-z
x,-y,1/2+z
loop_
_atom_site_type_symbol
_atom_site_label
_atom_site_fract_x
_atom_site_fract_y
_atom_site_fract_z
Si Si1 0.341775 0.530903 0.137241
Si Si2 0.000000 0.700585 0.750000
Si Si3 0.883541 0.198735 0.489155
Si Si4 0.000000 0.891438 0.750000
Si Si5 0.500000 0.960628 0.250000
Si Si6 0.644835 0.730148 0.921404
Si Si7 0.277900 0.660665 0.032750
Si Si8 0.214563 0.963218 0.147289
O O1 0.500000 0.524923 0.250000
O O2 0.290646 0.507044 0.370881
O O3 0.314273 0.595939 0.073568
O O4 0.062357 0.743083 0.588813
O O5 0.880146 0.666615 0.551250
O O6 0.744294 0.217280 0.506310
O O7 0.887173 0.149992 0.284548
O O8 0.000000 0.179790 0.750000
O O9 0.917917 0.929154 0.499059
O O10 0.355240 0.932289 0.180309
O O11 0.500000 0.000000 0.500000
O O12 0.500000 0.749839 0.750000
O O13 0.682369 0.688398 0.711403
O O14 0.656299 0.695439 0.191987
O O15 0.213889 0.986710 0.435139
#
# Coordination Sequence:
#
# PCOD9229703 Si02
#       8
#     4   2   4   2   2   4   4   4
#     4  10  20  34  51  78 117 151 185 238 298 348
#     4   9  20  38  60  84 108 158 196 241 288 360
#     4  10  21  40  58  82 121 155 188 240 303 353
#     4  11  24  36  60  90 118 162 190 241 292 356
#     4   8  16  34  58  80 114 150 188 238 282 318
#     4  11  22  38  63  88 113 148 203 253 287 346
#     4  11  21  37  62  87 113 153 201 239 294 355
#     4  10  21  38  61  89 118 154 200 242 278 338
#
# _framework density 20.495107999999998
#
# number of rings (size 3 to 8) (size 9 to 14) (size 15 to 20)
#    0.000    1.846    1.538    2.769    2.154    1.231 
#    0.000    2.308    1.692    0.000    0.000    0.000 
#    0.000    0.000    0.000    0.000    0.000    0.000 
#
# Total GULP energy -144981.467244 kJ/mol
# GULP energy per Si atom -5576.210279 kJ/mol
# Density = 2.044846 g / cm^3
# Si number density = 20.495108 Si / 1000 Ang^3
#
#
#
# Elastic Constant Matrix: (Units=GPa)
#
#
# Indices 1 2 3 4 5 6 
#
# 1 55.2479 12.3250 10.1652 0.0000 15.7896 0.0000
# 2 12.3250 41.8357 4.2798 0.0000 -0.7647 0.0000
# 3 10.1652 4.2798 86.5922 0.0000 -1.5472 0.0000
# 4 0.0000 0.0000 0.0000 26.2088 0.0000 -17.8525
# 5 15.7896 -0.7647 -1.5472 0.0000 34.6614 0.0000
# 6 0.0000 0.0000 0.0000 -17.8525 0.0000 0.1710
#
#
#
# Elastic Compliance Matrix: (Units=1/GPa)
#
#
# Indices 1 2 3 4 5 6 
#
# 1 0.023176 -0.006762 -0.002580 0.000000 -0.010822 0.000000
# 2 -0.006762 0.026005 -0.000427 0.000000 0.003635 0.000000
# 3 -0.002580 -0.000427 0.011903 0.000000 0.001697 0.000000
# 4 0.000000 0.000000 0.000000 -0.000544 0.000000 -0.056813
# 5 -0.010822 0.003635 0.001697 0.000000 0.033936 0.000000
# 6 0.000000 0.000000 0.000000 -0.056813 0.000000 -0.083406
#
#
# Mechanical properties :
#
#
# Convention : Reuss Voigt Hill
#
# Bulk Modulus (GPa) = 24.06874 26.35731 25.21303
# Shear Modulus (GPa) = 112.47214 22.66863 67.57038
#
# Velocity S-wave (km/s) = 7.41598 3.32934 5.74810
# Velocity P-wave (km/s) = 9.22486 5.26000 7.50885
#
# Compressibility (1/GPa) = 0.04154766
#
# Stress axis : x y z
#
# Youngs Moduli (GPa) = 43.14770 38.45396 84.01491
#
# Poissons Ratio (x) = 0.26001 0.21675
# Poissons Ratio (y) = 0.29175 0.03584
# Poissons Ratio (z) = 0.11131 0.01640
#
# Static dielectric constant tensor:
#      x y z
#    x 1.824710 0.000000 0.014880 
#    y 0.000000 1.678470 0.000000 
#    z 0.014880 0.000000 1.781380 
# 
# From -- ./inp_files/4079.got.cif
#   From: 2010.05.17/outbox.cif.g08.bks.cpg/sg13_3_cif.got.tgz:4079.got - 2010.06.03 16:44:36.
