data_PCOD9229928
_publ_section_title
;
Structure prediction by ZEFSAII (Michael W. Deem and Ramdas Pophale) SiO2 
 PCOD9229928
Probable space group: P 2/C
;
_chemical_formula_sum "Si O2"
_cell_formula_units_Z 24
_cell_length_a 31.649841
_cell_length_b 5.199914
_cell_length_c 23.758182
_cell_angle_alpha 90.000000
_cell_angle_beta 157.408451
_cell_angle_gamma 90.000000
_cell_volume 1502.076588
_symmetry_space_group_name_H-M "P 2/C"
_symmetry_group_IT_number 13
_symmetry_cell_setting 'monoclinic'
loop_
_space_group_symop_operation_xyz
x,y,z
-x,y,1/2-z
-x,-y,-z
x,-y,1/2+z
loop_
_atom_site_type_symbol
_atom_site_label
_atom_site_fract_x
_atom_site_fract_y
_atom_site_fract_z
Si Si1 0.594348 0.678151 0.911844
Si Si2 0.424443 0.250156 0.415075
Si Si3 0.776180 0.645489 0.044025
Si Si4 0.322223 0.084993 0.178732
Si Si5 0.878126 0.131996 0.123798
Si Si6 0.553950 0.171072 0.934647
O O1 0.500000 0.739585 0.750000
O O2 0.601597 0.918858 0.962873
O O3 0.562072 0.417729 0.904617
O O4 0.706377 0.639370 0.014823
O O5 0.500000 0.500000 0.500000
O O6 0.338434 0.222567 0.258416
O O7 0.500000 0.000000 0.500000
O O8 0.387045 0.237914 0.433707
O O9 0.839154 0.385326 0.107919
O O10 0.859174 0.886048 0.140892
O O11 0.691313 0.707619 0.888187
O O12 0.427718 0.908120 0.294122
O O13 0.210517 0.921927 0.035123
O O14 0.000000 0.150045 0.250000
#
# Coordination Sequence:
#
# PCOD9229928 Si02
#       6
#     4   4   4   4   4   4
#     4  12  20  32  49  74 109 142 167 201 248 321
#     4  10  21  33  50  73 108 140 176 208 244 307
#     4  10  21  33  52  77 107 131 170 213 265 307
#     4   9  21  34  52  76 107 135 171 213 258 297
#     4  10  20  35  54  78 101 130 176 223 273 304
#     4  11  21  32  50  77 107 145 168 194 252 317
#
# _framework density 15.977881
#
# number of rings (size 3 to 8) (size 9 to 14) (size 15 to 20)
#    1.000    0.667    1.667    5.000    4.667    0.000 
#    0.000    0.000    0.000    0.000    0.000    7.000 
#    0.000    0.000    0.000    0.000    0.000    0.000 
#
# Total GULP energy -133695.173910 kJ/mol
# GULP energy per Si atom -5570.632246 kJ/mol
# Density = 1.594151 g / cm^3
# Si number density = 15.977881 Si / 1000 Ang^3
#
#
#
# Elastic Constant Matrix: (Units=GPa)
#
#
# Indices 1 2 3 4 5 6 
#
# 1 124.8565 58.4090 58.3362 0.0000 4.9531 0.0000
# 2 58.4090 136.5951 31.6183 0.0000 5.3948 0.0000
# 3 58.3362 31.6183 58.6628 0.0000 11.2867 0.0000
# 4 0.0000 0.0000 0.0000 4.6150 0.0000 0.3132
# 5 4.9531 5.3948 11.2867 0.0000 25.5941 0.0000
# 6 0.0000 0.0000 0.0000 0.3132 0.0000 33.8094
#
#
#
# Elastic Compliance Matrix: (Units=1/GPa)
#
#
# Indices 1 2 3 4 5 6 
#
# 1 0.016902 -0.003787 -0.015616 0.000000 0.004414 0.000000
# 2 -0.003787 0.009214 -0.001058 0.000000 -0.000743 0.000000
# 3 -0.015616 -0.001058 0.035536 0.000000 -0.012426 0.000000
# 4 0.000000 0.000000 0.000000 0.216820 0.000000 -0.002009
# 5 0.004414 -0.000743 -0.012426 0.000000 0.043854 0.000000
# 6 0.000000 0.000000 0.000000 -0.002009 0.000000 0.029596
#
#
# Mechanical properties :
#
#
# Convention : Reuss Voigt Hill
#
# Bulk Modulus (GPa) = 48.23521 68.53792 58.38656
# Shear Modulus (GPa) = 12.50771 24.25377 18.38074
#
# Velocity S-wave (km/s) = 2.80092 3.90033 3.39541
# Velocity P-wave (km/s) = 6.38079 7.95437 7.21063
#
# Compressibility (1/GPa) = 0.02073174
#
# Stress axis : x y z
#
# Youngs Moduli (GPa) = 59.16548 108.52596 28.14041
#
# Poissons Ratio (x) = 0.41099 0.43943
# Poissons Ratio (y) = 0.22406 0.02976
# Poissons Ratio (z) = 0.92391 0.11477
#
# Static dielectric constant tensor:
#      x y z
#    x 1.542090 0.000000 -0.027370 
#    y 0.000000 1.544800 0.000000 
#    z -0.027370 0.000000 1.536890 
# 
# From -- ./inp_files/82311.got.cif
#   From: 2010.05.17/outbox.cif.g08.bks.cpg/sg13_42_cif.got.tgz:82311.got - 2010.06.03 16:44:36.
