data_PCOD9229964
_publ_section_title
;
Structure prediction by ZEFSAII (Michael W. Deem and Ramdas Pophale) SiO2 
 PCOD9229964
Probable space group: P 2/C
;
_chemical_formula_sum "Si O2"
_cell_formula_units_Z 20
_cell_length_a 8.844106
_cell_length_b 21.708944
_cell_length_c 5.352787
_cell_angle_alpha 90.000000
_cell_angle_beta 118.209962
_cell_angle_gamma 90.000000
_cell_volume 905.644125
_symmetry_space_group_name_H-M "P 2/C"
_symmetry_group_IT_number 13
_symmetry_cell_setting 'monoclinic'
loop_
_space_group_symop_operation_xyz
x,y,z
-x,y,1/2-z
-x,-y,-z
x,-y,1/2+z
loop_
_atom_site_type_symbol
_atom_site_label
_atom_site_fract_x
_atom_site_fract_y
_atom_site_fract_z
Si Si1 0.208030 0.252135 0.412605
Si Si2 0.929664 0.069459 0.445627
Si Si3 0.790899 0.676716 0.086119
Si Si4 0.210177 0.535243 0.408374
Si Si5 0.599954 0.127030 0.076144
O O1 0.262127 0.281638 0.719359
O O2 0.293683 0.186518 0.430239
O O3 0.000000 0.247934 0.250000
O O4 0.259889 0.295176 0.219786
O O5 0.727749 0.073466 0.267796
O O6 0.000000 0.099256 0.250000
O O7 0.000000 0.000000 0.500000
O O8 0.000000 0.100779 0.750000
O O9 0.734256 0.606117 0.067968
O O10 0.000000 0.676279 0.250000
O O11 0.264889 0.503504 0.709249
O O12 0.000000 0.535290 0.250000
O O13 0.500000 0.144336 0.250000
O O14 0.500000 0.106537 0.750000
#
# Coordination Sequence:
#
# PCOD9229964 Si02
#       5
#     4   4   4   4   4
#     4  10  20  35  56  79 113 158 199 242 297 367
#     4  10  22  44  69  93 124 166 206 239 288 364
#     4   9  17  29  47  75 108 150 201 243 292 364
#     4   9  15  23  38  64 104 147 184 236 304 358
#     4  12  25  41  63  95 128 157 200 257 310 355
#
# _framework density 22.083732999999999
#
# number of rings (size 3 to 8) (size 9 to 14) (size 15 to 20)
#    0.000    2.000    0.000    4.200    0.000    7.200 
#    0.000   12.000    0.000    0.000    0.000    0.000 
#    0.000   56.000    0.000    0.000    0.000    0.000 
#
# Total GULP energy -111746.635313 kJ/mol
# GULP energy per Si atom -5587.331766 kJ/mol
# Density = 2.203347 g / cm^3
# Si number density = 22.083733 Si / 1000 Ang^3
#
#
#
# Elastic Constant Matrix: (Units=GPa)
#
#
# Indices 1 2 3 4 5 6 
#
# 1 63.6528 44.2885 61.1866 0.0000 -26.5937 0.0000
# 2 44.2885 112.2425 38.2150 0.0000 -8.2505 0.0000
# 3 61.1866 38.2150 176.5113 0.0000 -37.2087 0.0000
# 4 0.0000 0.0000 0.0000 399.4733 0.0000 -258.3760
# 5 -26.5937 -8.2505 -37.2087 0.0000 40.8989 0.0000
# 6 0.0000 0.0000 0.0000 -258.3760 0.0000 158.7517
#
#
#
# Elastic Compliance Matrix: (Units=1/GPa)
#
#
# Indices 1 2 3 4 5 6 
#
# 1 0.036299 -0.010810 -0.007086 0.000000 0.014976 0.000000
# 2 -0.010810 0.012837 0.000040 0.000000 -0.004403 0.000000
# 3 -0.007086 0.000040 0.008839 0.000000 0.003442 0.000000
# 4 0.000000 0.000000 0.000000 -0.047515 0.000000 -0.077332
# 5 0.014976 -0.004403 0.003442 0.000000 0.036431 0.000000
# 6 0.000000 0.000000 0.000000 -0.077332 0.000000 -0.119563
#
#
# Mechanical properties :
#
#
# Convention : Reuss Voigt Hill
#
# Bulk Modulus (GPa) = 44.91600 71.08740 58.00170
# Shear Modulus (GPa) = -169.27425 133.73922 -17.76752
#
# Velocity S-wave (km/s) = -8.76456 7.79048 -2.83954
# Velocity P-wave (km/s) = 9.05761 10.63870 3.94599
#
# Compressibility (1/GPa) = 0.02226378
#
# Stress axis : x y z
#
# Youngs Moduli (GPa) = 27.54862 77.89728 113.14114
#
# Poissons Ratio (x) = 0.84205 0.80169
# Poissons Ratio (y) = 0.29779 -0.00448
# Poissons Ratio (z) = 0.19520 -0.00309
#
# Static dielectric constant tensor:
#      x y z
#    x 2.158160 0.000000 -0.163030 
#    y 0.000000 1.750150 0.000000 
#    z -0.163030 0.000000 1.944240 
# 
# From -- ./inp_files/2161.got.cif
#   From: 2010.05.17/outbox.cif.g08.bks.cpg/sg13_2_cif.got.tgz:2161.got - 2010.06.03 16:44:36.
