data_PCOD9229863
_publ_section_title
;
Structure prediction by ZEFSAII (Michael W. Deem and Ramdas Pophale) SiO2 
 PCOD9229863
Probable space group: P 2/C
;
_chemical_formula_sum "Si O2"
_cell_formula_units_Z 24
_cell_length_a 17.350208
_cell_length_b 11.208985
_cell_length_c 8.549793
_cell_angle_alpha 90.000000
_cell_angle_beta 42.249064
_cell_angle_gamma 90.000000
_cell_volume 1117.956817
_symmetry_space_group_name_H-M "P 2/C"
_symmetry_group_IT_number 13
_symmetry_cell_setting 'monoclinic'
loop_
_space_group_symop_operation_xyz
x,y,z
-x,y,1/2-z
-x,-y,-z
x,-y,1/2+z
loop_
_atom_site_type_symbol
_atom_site_label
_atom_site_fract_x
_atom_site_fract_y
_atom_site_fract_z
Si Si1 0.137288 0.171003 0.535445
Si Si2 0.368527 0.863950 0.163569
Si Si3 0.000000 0.170958 0.250000
Si Si4 0.172818 0.970852 0.679739
Si Si5 0.500000 0.045144 0.750000
Si Si6 0.795845 0.661416 0.174159
Si Si7 0.136386 0.573542 0.082237
O O1 0.180515 0.079522 0.340847
O O2 0.173630 0.304593 0.438445
O O3 0.000000 0.175830 0.750000
O O4 0.176154 0.111786 0.640553
O O5 0.266703 0.912701 0.426405
O O6 0.320789 0.738763 0.168090
O O7 0.467864 0.873309 0.147751
O O8 0.406709 0.952747 0.965738
O O9 0.947221 0.083853 0.200352
O O10 0.899952 0.255199 0.461124
O O11 0.835275 0.610619 0.283061
O O12 0.796462 0.544441 0.064419
O O13 0.000000 0.554750 0.250000
#
# Coordination Sequence:
#
# PCOD9229863 Si02
#       7
#     4   4   2   4   2   4   4
#     4  11  23  34  55  90 138 178 213 253 308 376
#     4  10  24  42  75 100 129 164 221 281 352 398
#     4  10  20  34  60  84 146 162 220 256 312 388
#     4  11  22  36  58  98 129 172 206 268 327 394
#     4  10  22  50  72 104 124 162 216 300 358 402
#     4  11  24  41  62  98 131 188 222 264 316 396
#     4  11  24  39  62  90 142 189 227 252 304 388
#
# _framework density 21.467735000000001
#
# number of rings (size 3 to 8) (size 9 to 14) (size 15 to 20)
#    0.000    1.333    1.667    4.000   11.667    0.000 
#    0.000    0.000    0.000    3.000    0.000    0.000 
#    0.000    0.000    0.000    0.000    0.000    0.000 
#
# Total GULP energy -133949.173366 kJ/mol
# GULP energy per Si atom -5581.215557 kJ/mol
# Density = 2.141887 g / cm^3
# Si number density = 21.467735 Si / 1000 Ang^3
#
#
#
# Elastic Constant Matrix: (Units=GPa)
#
#
# Indices 1 2 3 4 5 6 
#
# 1 97.2629 55.2888 22.0499 0.0000 17.2714 0.0000
# 2 55.2888 137.9634 34.4826 0.0000 1.2762 0.0000
# 3 22.0499 34.4826 83.4145 0.0000 9.6337 0.0000
# 4 0.0000 0.0000 0.0000 36.3998 0.0000 3.4936
# 5 17.2714 1.2762 9.6337 0.0000 29.4810 0.0000
# 6 0.0000 0.0000 0.0000 3.4936 0.0000 27.5027
#
#
#
# Elastic Compliance Matrix: (Units=1/GPa)
#
#
# Indices 1 2 3 4 5 6 
#
# 1 0.015278 -0.005888 -0.000624 0.000000 -0.008492 0.000000
# 2 -0.005888 0.010370 -0.003197 0.000000 0.004045 0.000000
# 3 -0.000624 -0.003197 0.013943 0.000000 -0.004052 0.000000
# 4 0.000000 0.000000 0.000000 0.027812 0.000000 -0.003533
# 5 -0.008492 0.004045 -0.004052 0.000000 0.040044 0.000000
# 6 0.000000 0.000000 0.000000 -0.003533 0.000000 0.036809
#
#
# Mechanical properties :
#
#
# Convention : Reuss Voigt Hill
#
# Bulk Modulus (GPa) = 49.57400 60.25372 54.91386
# Shear Modulus (GPa) = 29.34309 32.46469 30.90389
#
# Velocity S-wave (km/s) = 3.70110 3.89299 3.79826
# Velocity P-wave (km/s) = 6.43480 6.95235 6.69858
#
# Compressibility (1/GPa) = 0.02017186
#
# Stress axis : x y z
#
# Youngs Moduli (GPa) = 65.45436 96.43467 71.72051
#
# Poissons Ratio (x) = 0.56782 0.04474
# Poissons Ratio (y) = 0.38540 0.22932
# Poissons Ratio (z) = 0.04083 0.30835
#
# Static dielectric constant tensor:
#      x y z
#    x 1.930010 0.000000 0.012340 
#    y 0.000000 1.806630 0.000000 
#    z 0.012340 0.000000 1.786000 
# 
# From -- ./inp_files/15995.got.cif
#   From: 2010.05.17/outbox.cif.g08.bks.cpg/sg13_8_cif.got.tgz:15995.got - 2010.06.03 16:44:36.
