data_PCOD9229980
_publ_section_title
;
Structure prediction by ZEFSAII (Michael W. Deem and Ramdas Pophale) SiO2 
 PCOD9229980
Probable space group: P 2/C
;
_chemical_formula_sum "Si O2"
_cell_formula_units_Z 18
_cell_length_a 7.510839
_cell_length_b 7.644864
_cell_length_c 17.370166
_cell_angle_alpha 90.000000
_cell_angle_beta 130.206317
_cell_angle_gamma 90.000000
_cell_volume 761.726585
_symmetry_space_group_name_H-M "P 2/C"
_symmetry_group_IT_number 13
_symmetry_cell_setting 'monoclinic'
loop_
_space_group_symop_operation_xyz
x,y,z
-x,y,1/2-z
-x,-y,-z
x,-y,1/2+z
loop_
_atom_site_type_symbol
_atom_site_label
_atom_site_fract_x
_atom_site_fract_y
_atom_site_fract_z
Si Si1 0.933660 0.865065 0.821058
Si Si2 0.580752 0.722965 0.974643
Si Si3 0.500000 0.904542 0.250000
Si Si4 0.107094 0.498984 0.354377
Si Si5 0.365363 0.093237 0.555742
O O1 0.714739 0.979234 0.781237
O O2 0.000000 0.903902 0.750000
O O3 0.924098 0.654192 0.821756
O O4 0.128643 0.901426 0.940671
O O5 0.815244 0.613643 0.051586
O O6 0.547046 0.818821 0.047966
O O7 0.352104 0.601812 0.901297
O O8 0.592274 0.885484 0.920776
O O9 0.603891 0.810914 0.354533
O O10 0.000000 0.594277 0.250000
#
# Coordination Sequence:
#
# PCOD9229980 Si02
#       5
#     4   4   2   4   4
#     4  10  21  38  60  85 116 155 193 236 292 344
#     4   9  18  34  58  83 112 149 192 238 284 342
#     4  12  22  36  60  88 122 154 194 244 286 346
#     4   9  17  32  56  84 110 146 192 234 287 344
#     4  10  20  35  56  86 116 150 194 237 287 341
#
# _framework density 23.630526
#
# number of rings (size 3 to 8) (size 9 to 14) (size 15 to 20)
#    0.000    2.222    0.000    6.000    0.000    2.667 
#    0.000    2.222    0.000   37.333    0.000    0.000 
#    0.000    0.000    0.000    0.000    0.000    0.000 
#
# Total GULP energy -100365.201524 kJ/mol
# GULP energy per Si atom -5575.844529 kJ/mol
# Density = 2.357674 g / cm^3
# Si number density = 23.630526 Si / 1000 Ang^3
#
#
#
# Elastic Constant Matrix: (Units=GPa)
#
#
# Indices 1 2 3 4 5 6 
#
# 1 41.1235 -11.7539 6.6790 0.0000 -13.0313 0.0000
# 2 -11.7539 24.8138 1.7378 0.0000 0.5498 0.0000
# 3 6.6790 1.7378 151.7393 0.0000 -32.0297 0.0000
# 4 0.0000 0.0000 0.0000 30.1156 0.0000 9.0682
# 5 -13.0313 0.5498 -32.0297 0.0000 30.1451 0.0000
# 6 0.0000 0.0000 0.0000 9.0682 0.0000 9.1423
#
#
#
# Elastic Compliance Matrix: (Units=1/GPa)
#
#
# Indices 1 2 3 4 5 6 
#
# 1 0.033526 0.015403 0.001737 0.000000 0.016058 0.000000
# 2 0.015403 0.047468 0.000001 0.000000 0.005794 0.000000
# 3 0.001737 0.000001 0.008601 0.000000 0.009890 0.000000
# 4 0.000000 0.000000 0.000000 0.047346 0.000000 -0.046962
# 5 0.016058 0.005794 0.009890 0.000000 0.050517 0.000000
# 6 0.000000 0.000000 0.000000 -0.046962 0.000000 0.155962
#
#
# Mechanical properties :
#
#
# Convention : Reuss Voigt Hill
#
# Bulk Modulus (GPa) = 8.07237 23.44471 15.75854
# Shear Modulus (GPa) = 14.26818 28.61485 21.44152
#
# Velocity S-wave (km/s) = 2.45991 3.48361 3.01552
# Velocity P-wave (km/s) = 3.38994 5.11113 4.33678
#
# Compressibility (1/GPa) = 0.12387937
#
# Stress axis : x y z
#
# Youngs Moduli (GPa) = 29.82779 21.06685 116.25976
#
# Poissons Ratio (x) = -0.32450 -0.20200
# Poissons Ratio (y) = -0.45944 -0.00017
# Poissons Ratio (z) = -0.05183 -0.00003
#
# Static dielectric constant tensor:
#      x y z
#    x 1.911520 0.000000 -0.020470 
#    y 0.000000 2.001110 0.000000 
#    z -0.020470 0.000000 2.016810 
# 
# From -- ./inp_files/45616.got.cif
#   From: 2010.05.17/outbox.cif.g08.bks.cpg/sg13_23_cif.got.tgz:45616.got - 2010.06.03 16:44:36.
