data_PCOD9229696
_publ_section_title
;
Structure prediction by ZEFSAII (Michael W. Deem and Ramdas Pophale) SiO2 
 PCOD9229696
Probable space group: P 2/C
;
_chemical_formula_sum "Si O2"
_cell_formula_units_Z 28
_cell_length_a 19.041505
_cell_length_b 11.404298
_cell_length_c 8.811118
_cell_angle_alpha 90.000000
_cell_angle_beta 126.112239
_cell_angle_gamma 90.000000
_cell_volume 1545.749465
_symmetry_space_group_name_H-M "P 2/C"
_symmetry_group_IT_number 13
_symmetry_cell_setting 'monoclinic'
loop_
_space_group_symop_operation_xyz
x,y,z
-x,y,1/2-z
-x,-y,-z
x,-y,1/2+z
loop_
_atom_site_type_symbol
_atom_site_label
_atom_site_fract_x
_atom_site_fract_y
_atom_site_fract_z
Si Si1 0.074839 0.360337 0.063777
Si Si2 0.058592 0.938651 0.200467
Si Si3 0.121371 0.597380 0.272162
Si Si4 0.318729 0.036456 0.396633
Si Si5 0.159808 0.841503 0.852749
Si Si6 0.562147 0.949624 0.709975
Si Si7 0.214412 0.796999 0.246908
O O1 0.119250 0.460459 0.225141
O O2 0.101293 0.238997 0.173364
O O3 0.108167 0.380753 0.934556
O O4 0.969908 0.365791 0.926099
O O5 0.132676 0.861441 0.221240
O O6 0.000000 0.873964 0.250000
O O7 0.106841 0.046204 0.345702
O O8 0.000000 0.000000 0.000000
O O9 0.204589 0.670654 0.316801
O O10 0.392248 0.042867 0.620149
O O11 0.290895 0.897149 0.351072
O O12 0.235784 0.106394 0.346175
O O13 0.355952 0.090042 0.287738
O O14 0.197039 0.777810 0.047233
O O15 0.500000 0.879880 0.750000
O O16 0.500000 0.000000 0.500000
#
# Coordination Sequence:
#
# PCOD9229696 Si02
#       7
#     4   4   4   4   4   4   4
#     4  10  22  37  54  70  99 136 192 233 270 302
#     4  11  22  32  44  67  98 138 180 212 255 311
#     4  10  22  37  53  72  95 140 188 237 266 304
#     4  10  20  34  50  83 115 139 168 206 259 315
#     4  11  22  33  49  73 105 142 169 222 267 303
#     4   9  18  34  56  77 109 144 168 197 242 322
#     4  11  22  32  51  71 107 139 172 220 268 303
#
# _framework density 18.114191000000002
#
# number of rings (size 3 to 8) (size 9 to 14) (size 15 to 20)
#    0.000    1.714    2.857    1.714    6.000    1.143 
#    0.000    0.000    0.000    0.000    0.000    0.000 
#    0.000   22.857    0.000    0.000    0.000    0.000 
#
# Total GULP energy -155918.937251 kJ/mol
# GULP energy per Si atom -5568.533473 kJ/mol
# Density = 1.807296 g / cm^3
# Si number density = 18.114191 Si / 1000 Ang^3
#
#
#
# Elastic Constant Matrix: (Units=GPa)
#
#
# Indices 1 2 3 4 5 6 
#
# 1 106.5956 11.5476 7.8754 0.0000 -17.8445 0.0000
# 2 11.5476 61.2819 6.1628 0.0000 -1.4116 0.0000
# 3 7.8754 6.1628 52.4385 0.0000 -12.0606 0.0000
# 4 0.0000 0.0000 0.0000 14.1120 0.0000 -9.7671
# 5 -17.8445 -1.4116 -12.0606 0.0000 28.3826 0.0000
# 6 0.0000 0.0000 0.0000 -9.7671 0.0000 9.8063
#
#
#
# Elastic Compliance Matrix: (Units=1/GPa)
#
#
# Indices 1 2 3 4 5 6 
#
# 1 0.010694 -0.001876 0.000154 0.000000 0.006696 0.000000
# 2 -0.001876 0.016842 -0.001969 0.000000 -0.001179 0.000000
# 3 0.000154 -0.001969 0.021366 0.000000 0.009078 0.000000
# 4 0.000000 0.000000 0.000000 0.228107 0.000000 0.227195
# 5 0.006696 -0.001179 0.009078 0.000000 0.043241 0.000000
# 6 0.000000 0.000000 0.000000 0.227195 0.000000 0.328261
#
#
# Mechanical properties :
#
#
# Convention : Reuss Voigt Hill
#
# Bulk Modulus (GPa) = 24.08407 30.16531 27.12469
# Shear Modulus (GPa) = 7.46565 23.44220 15.45393
#
# Velocity S-wave (km/s) = 2.03234 3.60131 2.92402
# Velocity P-wave (km/s) = 4.33956 5.82937 5.13874
#
# Compressibility (1/GPa) = 0.04152121
#
# Stress axis : x y z
#
# Youngs Moduli (GPa) = 93.51027 59.37377 46.80321
#
# Poissons Ratio (x) = 0.11141 -0.00723
# Poissons Ratio (y) = 0.17546 0.09214
# Poissons Ratio (z) = -0.01444 0.11689
#
# Static dielectric constant tensor:
#      x y z
#    x 1.705240 0.000000 0.006560 
#    y 0.000000 1.680970 0.000000 
#    z 0.006560 0.000000 1.655660 
# 
# From -- ./inp_files/23132.got.cif
#   From: 2010.05.17/outbox.cif.g08.bks.cpg/sg13_12_cif.got.tgz:23132.got - 2010.06.03 16:44:36.
