data_PCOD9229591
_publ_section_title
;
Structure prediction by ZEFSAII (Michael W. Deem and Ramdas Pophale) SiO2 
 PCOD9229591
Probable space group: P 2/C
;
_chemical_formula_sum "Si O2"
_cell_formula_units_Z 30
_cell_length_a 18.610300
_cell_length_b 12.544553
_cell_length_c 15.592686
_cell_angle_alpha 90.000000
_cell_angle_beta 21.980534
_cell_angle_gamma 90.000000
_cell_volume 1362.509497
_symmetry_space_group_name_H-M "P 2/C"
_symmetry_group_IT_number 13
_symmetry_cell_setting 'monoclinic'
loop_
_space_group_symop_operation_xyz
x,y,z
-x,y,1/2-z
-x,-y,-z
x,-y,1/2+z
loop_
_atom_site_type_symbol
_atom_site_label
_atom_site_fract_x
_atom_site_fract_y
_atom_site_fract_z
Si Si1 0.500000 0.090410 0.250000
Si Si2 0.389492 0.397571 0.086629
Si Si3 0.091126 0.663156 0.790477
Si Si4 0.070664 0.840680 0.420214
Si Si5 0.289615 0.317664 0.895818
Si Si6 0.228322 0.928923 0.497000
Si Si7 0.746856 0.951294 0.704374
Si Si8 0.516085 0.787266 0.556010
O O1 0.522098 0.167977 0.306986
O O2 0.326087 0.005366 0.459327
O O3 0.521965 0.350661 0.863409
O O4 0.500000 0.500000 0.000000
O O5 0.179233 0.400022 0.274437
O O6 0.399542 0.314865 0.154223
O O7 0.232166 0.642014 0.553809
O O8 0.060895 0.785932 0.859737
O O9 0.883384 0.647337 0.976561
O O10 0.922560 0.866497 0.508995
O O11 0.175176 0.953256 0.323681
O O12 0.255770 0.766567 0.202434
O O13 0.297009 0.191058 0.907141
O O14 0.000000 0.924940 0.750000
O O15 0.281926 0.993033 0.353385
O O16 0.558894 0.879913 0.926674
#
# Coordination Sequence:
#
# PCOD9229591 Si02
#       8
#     2   4   4   4   4   4   4   4
#     4  10  26  36  60  96 140 190 216 268 326 420
#     4  12  27  46  69  93 126 180 231 290 349 394
#     4  11  22  42  69  99 131 160 215 281 338 401
#     4  11  19  35  61  94 129 172 205 262 325 404
#     4  11  23  42  67 102 133 161 211 280 341 399
#     4  11  19  36  59  97 136 175 216 262 330 404
#     4  10  20  32  56  92 132 173 211 250 324 406
#     4  11  22  42  58  88 133 175 227 268 325 394
#
# _framework density 22.018194999999999
#
# number of rings (size 3 to 8) (size 9 to 14) (size 15 to 20)
#    0.000    1.067    5.333    1.600    1.867    2.667 
#    2.400    0.000    0.000    0.000    0.000    0.000 
#    0.000    0.000    0.000    0.000    0.000    0.000 
#
# Total GULP energy -167063.717785 kJ/mol
# GULP energy per Si atom -5568.790593 kJ/mol
# Density = 2.196808 g / cm^3
# Si number density = 22.018195 Si / 1000 Ang^3
#
#
#
# Elastic Constant Matrix: (Units=GPa)
#
#
# Indices 1 2 3 4 5 6 
#
# 1 117.1597 38.4568 22.7322 0.0000 -28.3761 0.0000
# 2 38.4568 74.6300 12.8281 0.0000 -9.1874 0.0000
# 3 22.7322 12.8281 55.5079 0.0000 -6.6252 0.0000
# 4 0.0000 0.0000 0.0000 52.5762 0.0000 -30.4294
# 5 -28.3761 -9.1874 -6.6252 0.0000 37.6443 0.0000
# 6 0.0000 0.0000 0.0000 -30.4294 0.0000 31.2512
#
#
#
# Elastic Compliance Matrix: (Units=1/GPa)
#
#
# Indices 1 2 3 4 5 6 
#
# 1 0.012675 -0.005042 -0.003097 0.000000 0.007779 0.000000
# 2 -0.005042 0.016276 -0.001712 0.000000 -0.000129 0.000000
# 3 -0.003097 -0.001712 0.019766 0.000000 0.000726 0.000000
# 4 0.000000 0.000000 0.000000 0.043579 0.000000 0.042433
# 5 0.007779 -0.000129 0.000726 0.000000 0.032524 0.000000
# 6 0.000000 0.000000 0.000000 0.042433 0.000000 0.073316
#
#
# Mechanical properties :
#
#
# Convention : Reuss Voigt Hill
#
# Bulk Modulus (GPa) = 34.46471 43.92578 39.19524
# Shear Modulus (GPa) = 21.97708 35.84636 28.91172
#
# Velocity S-wave (km/s) = 3.16275 4.03927 3.62758
# Velocity P-wave (km/s) = 5.38741 6.46122 5.94859
#
# Compressibility (1/GPa) = 0.02901519
#
# Stress axis : x y z
#
# Youngs Moduli (GPa) = 78.89395 61.44132 50.59129
#
# Poissons Ratio (x) = 0.30976 0.15670
# Poissons Ratio (y) = 0.39774 0.08662
# Poissons Ratio (z) = 0.24436 0.10520
#
# Static dielectric constant tensor:
#      x y z
#    x 1.919960 0.000000 -0.072030 
#    y 0.000000 1.857610 0.000000 
#    z -0.072030 0.000000 1.902500 
# 
# From -- ./inp_files/70687.got.cif
#   From: 2010.05.17/outbox.cif.g08.bks.cpg/sg13_36_cif.got.tgz:70687.got - 2010.06.03 16:44:36.
