data_PCOD9229279
_publ_section_title
;
Structure prediction by ZEFSAII (Michael W. Deem and Ramdas Pophale) SiO2 
 PCOD9229279
Probable space group: P 2/C
;
_chemical_formula_sum "Si O2"
_cell_formula_units_Z 28
_cell_length_a 9.361128
_cell_length_b 16.276890
_cell_length_c 11.733855
_cell_angle_alpha 90.000000
_cell_angle_beta 136.907409
_cell_angle_gamma 90.000000
_cell_volume 1221.448217
_symmetry_space_group_name_H-M "P 2/C"
_symmetry_group_IT_number 13
_symmetry_cell_setting 'monoclinic'
loop_
_space_group_symop_operation_xyz
x,y,z
-x,y,1/2-z
-x,-y,-z
x,-y,1/2+z
loop_
_atom_site_type_symbol
_atom_site_label
_atom_site_fract_x
_atom_site_fract_y
_atom_site_fract_z
Si Si1 0.805806 0.920479 0.061609
Si Si2 0.667967 0.088138 0.008309
Si Si3 0.406743 0.607437 0.322904
Si Si4 0.614995 0.221469 0.591953
Si Si5 0.080673 0.870110 0.616561
Si Si6 0.203256 0.551725 0.789164
Si Si7 0.691038 0.708081 0.770938
O O1 0.000000 0.949985 0.250000
O O2 0.632464 0.991166 0.972325
O O3 0.748284 0.830807 0.077796
O O4 0.871170 0.918670 0.969583
O O5 0.471191 0.147786 0.880327
O O6 0.766060 0.104185 0.191113
O O7 0.849238 0.116641 0.027811
O O8 0.500000 0.609294 0.250000
O O9 0.311760 0.697077 0.300108
O O10 0.600612 0.578145 0.516419
O O11 0.239841 0.536173 0.251934
O O12 0.422823 0.259867 0.409504
O O13 0.133941 0.776980 0.609780
O O14 0.205580 0.620775 0.692339
O O15 0.000000 0.553360 0.750000
O O16 0.500000 0.704253 0.750000
#
# Coordination Sequence:
#
# PCOD9229279 Si02
#       7
#     4   4   4   4   4   4   4
#     4  12  23  39  58  91 131 170 211 270 325 379
#     4  10  22  39  63  85 121 167 225 267 312 373
#     4  10  23  45  64  96 140 165 210 276 330 392
#     4  10  23  40  60  89 124 168 205 261 322 378
#     4  10  21  38  61  90 121 162 216 266 308 375
#     4  10  23  41  71  99 126 169 219 264 322 400
#     4  10  19  38  65  91 119 160 211 259 307 375
#
# _framework density 22.923608000000002
#
# number of rings (size 3 to 8) (size 9 to 14) (size 15 to 20)
#    0.000    1.714    2.857    1.286    6.000    2.286 
#    0.000    0.000    0.000    0.000    0.000    0.000 
#    0.000    0.000    0.000    0.000    0.000    0.000 
#
# Total GULP energy -156353.778975 kJ/mol
# GULP energy per Si atom -5584.063535 kJ/mol
# Density = 2.287143 g / cm^3
# Si number density = 22.923608 Si / 1000 Ang^3
#
#
#
# Elastic Constant Matrix: (Units=GPa)
#
#
# Indices 1 2 3 4 5 6 
#
# 1 146.8107 73.3796 19.7436 0.0000 -28.7917 0.0000
# 2 73.3796 191.1585 31.3433 0.0000 -18.8605 0.0000
# 3 19.7436 31.3433 32.8857 0.0000 -18.8041 0.0000
# 4 0.0000 0.0000 0.0000 21.3005 0.0000 11.5437
# 5 -28.7917 -18.8605 -18.8041 0.0000 35.6050 0.0000
# 6 0.0000 0.0000 0.0000 11.5437 0.0000 30.0304
#
#
#
# Elastic Compliance Matrix: (Units=1/GPa)
#
#
# Indices 1 2 3 4 5 6 
#
# 1 0.009559 -0.003195 0.001087 0.000000 0.006611 0.000000
# 2 -0.003195 0.007270 -0.006140 0.000000 -0.001976 0.000000
# 3 0.001087 -0.006140 0.049069 0.000000 0.023541 0.000000
# 4 0.000000 0.000000 0.000000 0.059301 0.000000 -0.022795
# 5 0.006611 -0.001976 0.023541 0.000000 0.044818 0.000000
# 6 0.000000 0.000000 0.000000 -0.022795 0.000000 0.042062
#
#
# Mechanical properties :
#
#
# Convention : Reuss Voigt Hill
#
# Bulk Modulus (GPa) = 20.24285 68.86531 44.55408
# Shear Modulus (GPa) = 20.40462 33.81308 27.10885
#
# Velocity S-wave (km/s) = 2.98671 3.84478 3.44259
# Velocity P-wave (km/s) = 4.55452 7.05806 5.93969
#
# Compressibility (1/GPa) = 0.04940017
#
# Stress axis : x y z
#
# Youngs Moduli (GPa) = 104.61377 137.55824 20.37959
#
# Poissons Ratio (x) = 0.43954 -0.02215
# Poissons Ratio (y) = 0.33427 0.12513
# Poissons Ratio (z) = -0.11369 0.84462
#
# Static dielectric constant tensor:
#      x y z
#    x 1.840300 0.000000 0.011520 
#    y 0.000000 1.920100 0.000000 
#    z 0.011520 0.000000 1.903590 
# 
# From -- ./inp_files/30225.got.cif
#   From: 2010.05.17/outbox.cif.g08.bks.cpg/sg13_16_cif.got.tgz:30225.got - 2010.06.03 16:44:36.
