data_PCOD9229876
_publ_section_title
;
Structure prediction by ZEFSAII (Michael W. Deem and Ramdas Pophale) SiO2 
 PCOD9229876
Probable space group: P 2/C
;
_chemical_formula_sum "Si O2"
_cell_formula_units_Z 18
_cell_length_a 9.100532
_cell_length_b 11.239217
_cell_length_c 8.884196
_cell_angle_alpha 90.000000
_cell_angle_beta 117.777311
_cell_angle_gamma 90.000000
_cell_volume 803.987311
_symmetry_space_group_name_H-M "P 2/C"
_symmetry_group_IT_number 13
_symmetry_cell_setting 'monoclinic'
loop_
_space_group_symop_operation_xyz
x,y,z
-x,y,1/2-z
-x,-y,-z
x,-y,1/2+z
loop_
_atom_site_type_symbol
_atom_site_label
_atom_site_fract_x
_atom_site_fract_y
_atom_site_fract_z
Si Si1 0.002628 0.131901 0.432705
Si Si2 0.000000 0.466527 0.250000
Si Si3 0.319682 0.265908 0.091539
Si Si4 0.226126 0.542175 0.097182
Si Si5 0.662167 0.224542 0.748953
O O1 0.169873 0.184525 0.588003
O O2 0.000000 0.128795 0.250000
O O3 0.838996 0.205359 0.404971
O O4 0.000000 0.000000 0.500000
O O5 0.083603 0.539768 0.157389
O O6 0.149970 0.403653 0.406619
O O7 0.500000 0.242350 0.250000
O O8 0.288122 0.409465 0.089196
O O9 0.325670 0.215138 0.924588
O O10 0.349091 0.633931 0.228723
O O11 0.500000 0.168110 0.750000
#
# Coordination Sequence:
#
# PCOD9229876 Si02
#       5
#     4   2   4   4   4
#     4  12  28  51  79 104 138 183 237 297 359 420
#     4  10  20  34  60  96 134 192 228 278 332 414
#     4  12  27  45  71 107 147 189 239 291 351 423
#     4  11  23  38  66 103 151 186 235 281 352 417
#     4  12  27  45  71 107 147 189 239 291 351 423
#
# _framework density 22.388411999999999
#
# number of rings (size 3 to 8) (size 9 to 14) (size 15 to 20)
#    0.000    0.444    2.222    6.667    9.333    2.667 
#    0.000    4.444    0.000    0.000    0.000    0.000 
#    0.000    0.000    0.000    0.000    0.000    0.000 
#
# Total GULP energy -100497.717221 kJ/mol
# GULP energy per Si atom -5583.206512 kJ/mol
# Density = 2.233746 g / cm^3
# Si number density = 22.388412 Si / 1000 Ang^3
#
#
#
# Elastic Constant Matrix: (Units=GPa)
#
#
# Indices 1 2 3 4 5 6 
#
# 1 181.6377 43.0158 108.5806 0.0000 3.8444 0.0000
# 2 43.0158 95.4623 34.5069 0.0000 0.2957 0.0000
# 3 108.5806 34.5069 207.5961 0.0000 -22.0622 0.0000
# 4 0.0000 0.0000 0.0000 0.0197 0.0000 -27.1694
# 5 3.8444 0.2957 -22.0622 0.0000 44.8709 0.0000
# 6 0.0000 0.0000 0.0000 -27.1694 0.0000 0.7491
#
#
#
# Elastic Compliance Matrix: (Units=1/GPa)
#
#
# Indices 1 2 3 4 5 6 
#
# 1 0.008843 -0.002329 -0.004555 0.000000 -0.002982 0.000000
# 2 -0.002329 0.011804 -0.000771 0.000000 -0.000258 0.000000
# 3 -0.004555 -0.000771 0.007776 0.000000 0.004219 0.000000
# 4 0.000000 0.000000 0.000000 -0.001015 0.000000 -0.036807
# 5 -0.002982 -0.000258 0.004219 0.000000 0.024618 0.000000
# 6 0.000000 0.000000 0.000000 -0.036807 0.000000 -0.000027
#
#
# Mechanical properties :
#
#
# Convention : Reuss Voigt Hill
#
# Bulk Modulus (GPa) = 76.26151 95.21142 85.73646
# Shear Modulus (GPa) = 69.75310 29.03412 49.39361
#
# Velocity S-wave (km/s) = 5.58780 3.60507 4.70213
# Velocity P-wave (km/s) = 8.70450 7.74262 8.23761
#
# Compressibility (1/GPa) = 0.01311278
#
# Stress axis : x y z
#
# Youngs Moduli (GPa) = 113.08282 84.71403 128.59979
#
# Poissons Ratio (x) = 0.19730 0.58578
# Poissons Ratio (y) = 0.26337 0.09920
# Poissons Ratio (z) = 0.51510 0.06535
#
# Static dielectric constant tensor:
#      x y z
#    x 1.904040 0.000000 0.075720 
#    y 0.000000 1.902800 0.000000 
#    z 0.075720 0.000000 1.877190 
# 
# From -- ./inp_files/11936.got.cif
#   From: 2010.05.17/outbox.cif.g08.bks.cpg/sg13_6_cif.got.tgz:11936.got - 2010.06.03 16:44:36.
