data_PCOD9229676
_publ_section_title
;
Structure prediction by ZEFSAII (Michael W. Deem and Ramdas Pophale) SiO2 
 PCOD9229676
Probable space group: P 2/C
;
_chemical_formula_sum "Si O2"
_cell_formula_units_Z 32
_cell_length_a 20.559366
_cell_length_b 8.790428
_cell_length_c 28.514557
_cell_angle_alpha 90.000000
_cell_angle_beta 20.846435
_cell_angle_gamma 90.000000
_cell_volume 1833.880348
_symmetry_space_group_name_H-M "P 2/C"
_symmetry_group_IT_number 13
_symmetry_cell_setting 'monoclinic'
loop_
_space_group_symop_operation_xyz
x,y,z
-x,y,1/2-z
-x,-y,-z
x,-y,1/2+z
loop_
_atom_site_type_symbol
_atom_site_label
_atom_site_fract_x
_atom_site_fract_y
_atom_site_fract_z
Si Si1 0.479011 0.927775 0.565666
Si Si2 0.813354 0.291892 0.855227
Si Si3 0.689038 0.457399 0.104257
Si Si4 0.232473 0.673496 0.768034
Si Si5 0.430374 0.505943 0.419028
Si Si6 0.890487 0.356477 0.549210
Si Si7 0.655387 0.210594 0.789937
Si Si8 0.916145 0.629230 0.182186
O O1 0.665513 0.839830 0.450501
O O2 0.324114 0.797592 0.673175
O O3 0.500000 0.000000 0.500000
O O4 0.428984 0.048620 0.640106
O O5 0.862768 0.362193 0.771892
O O6 0.000000 0.229659 0.750000
O O7 0.727691 0.422100 0.945797
O O8 0.500000 0.384065 0.250000
O O9 0.633398 0.527010 0.091385
O O10 0.760479 0.574622 0.096063
O O11 0.868118 0.356162 0.973303
O O12 0.390187 0.603399 0.695771
O O13 0.152421 0.530967 0.793018
O O14 0.059215 0.735766 0.913301
O O15 0.494139 0.664109 0.398612
O O16 0.770115 0.256474 0.665930
O O17 0.000000 0.500000 0.500000
O O18 0.799665 0.244713 0.733829
#
# Coordination Sequence:
#
# PCOD9229676 Si02
#       8
#     4   4   4   4   4   4   4   4
#     4  11  24  39  58  82 122 164 199 235 293 355
#     4  11  22  39  58  86 119 152 199 251 296 347
#     4  11  18  31  57  93 115 142 181 253 306 341
#     4   9  21  36  57  90 111 150 198 244 290 345
#     4  10  20  33  59  87 113 144 197 248 296 339
#     4  11  18  35  60  88 117 144 194 252 290 344
#     4  11  21  37  58  87 115 160 197 236 297 352
#     4  10  20  35  61  86 115 148 199 249 290 344
#
# _framework density 17.449338999999998
#
# number of rings (size 3 to 8) (size 9 to 14) (size 15 to 20)
#    0.000    1.500    7.500    0.000    1.750    2.000 
#    0.000    3.125    0.000    0.000    6.500    0.000 
#    0.000    0.000    0.000    0.000    0.000    0.000 
#
# Total GULP energy -178251.002504 kJ/mol
# GULP energy per Si atom -5570.343828 kJ/mol
# Density = 1.740962 g / cm^3
# Si number density = 17.449339 Si / 1000 Ang^3
#
#
#
# Elastic Constant Matrix: (Units=GPa)
#
#
# Indices 1 2 3 4 5 6 
#
# 1 101.6844 11.5843 43.8015 0.0000 4.5304 0.0000
# 2 11.5843 46.0683 42.8242 0.0000 2.0710 0.0000
# 3 43.8015 42.8242 146.4239 0.0000 4.3118 0.0000
# 4 0.0000 0.0000 0.0000 19.1963 0.0000 8.7659
# 5 4.5304 2.0710 4.3118 0.0000 31.0351 0.0000
# 6 0.0000 0.0000 0.0000 8.7659 0.0000 17.8341
#
#
#
# Elastic Compliance Matrix: (Units=1/GPa)
#
#
# Indices 1 2 3 4 5 6 
#
# 1 0.011339 0.000443 -0.003486 0.000000 -0.001200 0.000000
# 2 0.000443 0.029848 -0.008838 0.000000 -0.000829 0.000000
# 3 -0.003486 -0.008838 0.010468 0.000000 -0.000356 0.000000
# 4 0.000000 0.000000 0.000000 0.067170 0.000000 -0.033015
# 5 -0.001200 -0.000829 -0.000356 0.000000 0.032502 0.000000
# 6 0.000000 0.000000 0.000000 -0.033015 0.000000 0.072300
#
#
# Mechanical properties :
#
#
# Convention : Reuss Voigt Hill
#
# Bulk Modulus (GPa) = 35.85074 54.51073 45.18073
# Shear Modulus (GPa) = 19.47909 26.67753 23.07831
#
# Velocity S-wave (km/s) = 3.34477 3.91430 3.64069
# Velocity P-wave (km/s) = 5.95876 7.19279 6.60466
#
# Compressibility (1/GPa) = 0.02789343
#
# Stress axis : x y z
#
# Youngs Moduli (GPa) = 88.19044 33.50293 95.53232
#
# Poissons Ratio (x) = -0.01486 0.33306
# Poissons Ratio (y) = -0.03911 0.84430
# Poissons Ratio (z) = 0.30746 0.29609
#
# Static dielectric constant tensor:
#      x y z
#    x 1.612680 0.000000 0.025330 
#    y 0.000000 1.584870 0.000000 
#    z 0.025330 0.000000 1.648170 
# 
# From -- ./inp_files/71160.got.cif
#   From: 2010.05.17/outbox.cif.g08.bks.cpg/sg13_36_cif.got.tgz:71160.got - 2010.06.03 16:44:36.
