data_PCOD9229337
_publ_section_title
;
Structure prediction by ZEFSAII (Michael W. Deem and Ramdas Pophale) SiO2 
 PCOD9229337
Probable space group: P 2/C
;
_chemical_formula_sum "Si O2"
_cell_formula_units_Z 18
_cell_length_a 5.089400
_cell_length_b 22.255422
_cell_length_c 7.755585
_cell_angle_alpha 90.000000
_cell_angle_beta 105.275261
_cell_angle_gamma 90.000000
_cell_volume 847.415342
_symmetry_space_group_name_H-M "P 2/C"
_symmetry_group_IT_number 13
_symmetry_cell_setting 'monoclinic'
loop_
_space_group_symop_operation_xyz
x,y,z
-x,y,1/2-z
-x,-y,-z
x,-y,1/2+z
loop_
_atom_site_type_symbol
_atom_site_label
_atom_site_fract_x
_atom_site_fract_y
_atom_site_fract_z
Si Si1 0.500000 0.180463 0.750000
Si Si2 0.579300 0.566951 0.962379
Si Si3 0.500000 0.030869 0.250000
Si Si4 0.923070 0.636794 0.532475
Si Si5 0.000000 0.266698 0.750000
Si Si6 0.267617 0.918151 0.402318
O O1 0.742132 0.224138 0.737185
O O2 0.503476 0.130904 0.904283
O O3 0.500000 0.573606 0.750000
O O4 0.390391 0.615496 0.027636
O O5 0.896425 0.582652 0.016436
O O6 0.500000 0.500000 0.000000
O O7 0.716603 0.070493 0.392553
O O8 0.334576 0.983760 0.338105
O O9 0.000000 0.646386 0.750000
O O10 0.000620 0.691922 0.422073
O O11 0.000000 0.898488 0.250000
#
# Coordination Sequence:
#
# PCOD9229337 Si02
#       6
#     2   4   2   4   2   4
#     4  11  24  42  62  94 122 170 221 272 304 388
#     4  10  21  36  60  92 123 149 194 252 317 387
#     4   9  20  34  66 100 126 178 201 264 334 404
#     4  10  23  41  60  87 118 161 207 253 311 384
#     4  12  24  44  66  82 126 172 220 264 320 360
#     4  10  19  39  62  95 136 165 216 264 330 385
#
# _framework density 21.241059
#
# number of rings (size 3 to 8) (size 9 to 14) (size 15 to 20)
#    0.000    1.778    1.111    2.667    3.111    0.000 
#    4.000    0.000    0.000    0.000    0.000    0.000 
#    0.000    0.000    0.000    0.000    0.000    0.000 
#
# Total GULP energy -100203.747825 kJ/mol
# GULP energy per Si atom -5566.874879 kJ/mol
# Density = 2.119271 g / cm^3
# Si number density = 21.241059 Si / 1000 Ang^3
#
#
#
# Elastic Constant Matrix: (Units=GPa)
#
#
# Indices 1 2 3 4 5 6 
#
# 1 114.2685 38.2608 35.6553 0.0000 -19.8548 0.0000
# 2 38.2608 114.6138 45.1083 0.0000 -23.2096 0.0000
# 3 35.6553 45.1083 95.4819 0.0000 -12.5646 0.0000
# 4 0.0000 0.0000 0.0000 24.5959 0.0000 -14.7619
# 5 -19.8548 -23.2096 -12.5646 0.0000 19.0343 0.0000
# 6 0.0000 0.0000 0.0000 -14.7619 0.0000 51.0133
#
#
#
# Elastic Compliance Matrix: (Units=1/GPa)
#
#
# Indices 1 2 3 4 5 6 
#
# 1 0.011468 -0.000956 -0.002639 0.000000 0.009055 0.000000
# 2 -0.000956 0.013214 -0.004267 0.000000 0.012299 0.000000
# 3 -0.002639 -0.004267 0.013610 0.000000 0.001027 0.000000
# 4 0.000000 0.000000 0.000000 0.049202 0.000000 0.014238
# 5 0.009055 0.012299 0.001027 0.000000 0.077656 0.000000
# 6 0.000000 0.000000 0.000000 0.014238 0.000000 0.023723
#
#
# Mechanical properties :
#
#
# Convention : Reuss Voigt Hill
#
# Bulk Modulus (GPa) = 44.31267 62.49034 53.40151
# Shear Modulus (GPa) = 23.57139 32.61801 28.09470
#
# Velocity S-wave (km/s) = 3.33484 3.92294 3.64078
# Velocity P-wave (km/s) = 5.97790 7.07126 6.54744
#
# Compressibility (1/GPa) = 0.02256691
#
# Stress axis : x y z
#
# Youngs Moduli (GPa) = 87.19699 75.67702 73.47534
#
# Poissons Ratio (x) = 0.07235 0.19393
# Poissons Ratio (y) = 0.08336 0.31354
# Poissons Ratio (z) = 0.23015 0.32294
#
# Static dielectric constant tensor:
#      x y z
#    x 1.864790 0.000000 0.010770 
#    y 0.000000 1.773840 0.000000 
#    z 0.010770 0.000000 1.884260 
# 
# From -- ./inp_files/9811.got.cif
#   From: 2010.05.17/outbox.cif.g08.bks.cpg/sg13_5_cif.got.tgz:9811.got - 2010.06.03 16:44:36.
