data_PCOD9229482
_publ_section_title
;
Structure prediction by ZEFSAII (Michael W. Deem and Ramdas Pophale) SiO2 
 PCOD9229482
Probable space group: P 2/C
;
_chemical_formula_sum "Si O2"
_cell_formula_units_Z 28
_cell_length_a 14.930457
_cell_length_b 16.870879
_cell_length_c 5.404455
_cell_angle_alpha 90.000000
_cell_angle_beta 116.748175
_cell_angle_gamma 90.000000
_cell_volume 1215.656586
_symmetry_space_group_name_H-M "P 2/C"
_symmetry_group_IT_number 13
_symmetry_cell_setting 'monoclinic'
loop_
_space_group_symop_operation_xyz
x,y,z
-x,y,1/2-z
-x,-y,-z
x,-y,1/2+z
loop_
_atom_site_type_symbol
_atom_site_label
_atom_site_fract_x
_atom_site_fract_y
_atom_site_fract_z
Si Si1 0.500000 0.295736 0.750000
Si Si2 0.113854 0.467606 0.112748
Si Si3 0.650015 0.786356 0.756511
Si Si4 0.830609 0.298754 0.188345
Si Si5 0.333145 0.662081 0.361045
Si Si6 0.500000 0.448584 0.250000
Si Si7 0.735955 0.952606 0.734943
Si Si8 0.058235 0.137479 0.083117
O O1 0.454655 0.241026 0.482815
O O2 0.592369 0.347632 0.776440
O O3 0.163523 0.502055 0.423016
O O4 0.114933 0.372907 0.118739
O O5 0.000000 0.500000 0.000000
O O6 0.738775 0.735289 0.736237
O O7 0.669392 0.876805 0.722742
O O8 0.657278 0.753921 0.041723
O O9 0.900396 0.221880 0.260466
O O10 0.780667 0.336871 0.878203
O O11 0.396236 0.605277 0.624434
O O12 0.500000 0.500000 0.500000
O O13 0.849310 0.919025 0.872420
O O14 0.719583 0.985736 0.438312
O O15 0.000000 0.102815 0.250000
O O16 0.000000 0.150154 0.750000
#
# Coordination Sequence:
#
# PCOD9229482 Si02
#       8
#     2   4   4   4   4   2   4   4
#     4  10  19  42  72 103 130 180 238 274 339 414
#     4  10  24  42  62  90 131 181 222 284 358 389
#     4  10  23  42  74  99 135 188 230 279 344 426
#     4  10  26  40  70  98 139 180 246 281 349 420
#     4  11  23  44  71  99 140 188 232 287 345 423
#     4  12  27  44  68 105 142 180 232 296 347 400
#     4  11  26  46  70 104 147 180 223 290 355 416
#     4  11  26  43  72 103 135 187 241 293 343 419
#
# _framework density 23.032820000000001
#
# number of rings (size 3 to 8) (size 9 to 14) (size 15 to 20)
#    0.000    1.429    1.429    1.286   18.000    2.857 
#    0.000    0.714    0.000    0.000    0.000    0.000 
#    0.000    0.000    0.000    0.000    0.000    0.000 
#
# Total GULP energy -156117.192554 kJ/mol
# GULP energy per Si atom -5575.614020 kJ/mol
# Density = 2.298040 g / cm^3
# Si number density = 23.032820 Si / 1000 Ang^3
#
#
#
# Elastic Constant Matrix: (Units=GPa)
#
#
# Indices 1 2 3 4 5 6 
#
# 1 39.2434 3.4305 19.5443 0.0000 -10.9403 0.0000
# 2 3.4305 82.9038 6.4670 0.0000 -10.5360 0.0000
# 3 19.5443 6.4670 99.7773 0.0000 -17.7812 0.0000
# 4 0.0000 0.0000 0.0000 27.8778 0.0000 -13.9886
# 5 -10.9403 -10.5360 -17.7812 0.0000 35.6237 0.0000
# 6 0.0000 0.0000 0.0000 -13.9886 0.0000 22.4691
#
#
#
# Elastic Compliance Matrix: (Units=1/GPa)
#
#
# Indices 1 2 3 4 5 6 
#
# 1 0.029672 -0.000003 -0.004597 0.000000 0.006817 0.000000
# 2 -0.000003 0.012536 -0.000166 0.000000 0.003624 0.000000
# 3 -0.004597 -0.000166 0.011715 0.000000 0.004387 0.000000
# 4 0.000000 0.000000 0.000000 0.052168 0.000000 0.032478
# 5 0.006817 0.003624 0.004387 0.000000 0.033426 0.000000
# 6 0.000000 0.000000 0.000000 0.032478 0.000000 0.064726
#
#
# Mechanical properties :
#
#
# Convention : Reuss Voigt Hill
#
# Bulk Modulus (GPa) = 22.52706 31.20089 26.86398
# Shear Modulus (GPa) = 21.87494 30.02629 25.95062
#
# Velocity S-wave (km/s) = 3.08511 3.61450 3.36025
# Velocity P-wave (km/s) = 4.74259 5.56733 5.17143
#
# Compressibility (1/GPa) = 0.04439105
#
# Stress axis : x y z
#
# Youngs Moduli (GPa) = 33.70160 79.77167 85.35839
#
# Poissons Ratio (x) = 0.00023 0.39240
# Poissons Ratio (y) = 0.00010 0.01418
# Poissons Ratio (z) = 0.15493 0.01325
#
# Static dielectric constant tensor:
#      x y z
#    x 1.909130 0.000000 -0.023780 
#    y 0.000000 1.869870 0.000000 
#    z -0.023780 0.000000 1.986140 
# 
# From -- ./inp_files/6296.got.cif
#   From: 2010.05.17/outbox.cif.g08.bks.cpg/sg13_4_cif.got.tgz:6296.got - 2010.06.03 16:44:36.
