data_PCOD9229681
_publ_section_title
;
Structure prediction by ZEFSAII (Michael W. Deem and Ramdas Pophale) SiO2 
 PCOD9229681
Probable space group: P 2/C
;
_chemical_formula_sum "Si O2"
_cell_formula_units_Z 28
_cell_length_a 25.820378
_cell_length_b 8.128815
_cell_length_c 9.455471
_cell_angle_alpha 90.000000
_cell_angle_beta 40.871813
_cell_angle_gamma 90.000000
_cell_volume 1298.660542
_symmetry_space_group_name_H-M "P 2/C"
_symmetry_group_IT_number 13
_symmetry_cell_setting 'monoclinic'
loop_
_space_group_symop_operation_xyz
x,y,z
-x,y,1/2-z
-x,-y,-z
x,-y,1/2+z
loop_
_atom_site_type_symbol
_atom_site_label
_atom_site_fract_x
_atom_site_fract_y
_atom_site_fract_z
Si Si1 0.316091 0.812058 0.379572
Si Si2 0.237435 0.311175 0.788691
Si Si3 0.751734 0.312554 0.201112
Si Si4 0.071773 0.356868 0.006776
Si Si5 0.485542 0.331928 0.446118
Si Si6 0.926429 0.296633 0.830246
Si Si7 0.646293 0.818905 0.672675
O O1 0.254249 0.814983 0.379050
O O2 0.279527 0.700697 0.576350
O O3 0.332318 0.993487 0.402959
O O4 0.398171 0.736047 0.154847
O O5 0.236353 0.494300 0.857690
O O6 0.156510 0.280669 0.871880
O O7 0.310717 0.295227 0.531121
O O8 0.686200 0.233301 0.236778
O O9 0.837629 0.226943 0.013318
O O10 0.057743 0.344506 0.867189
O O11 0.079049 0.544035 0.052768
O O12 0.000000 0.286155 0.250000
O O13 0.500000 0.356960 0.250000
O O14 0.500000 0.500000 0.500000
O O15 0.552981 0.207669 0.361303
O O16 0.000000 0.200783 0.750000
#
# Coordination Sequence:
#
# PCOD9229681 Si02
#       7
#     4   4   4   4   4   4   4
#     4  12  27  43  69  96 130 181 209 272 331 389
#     4  11  22  42  66  98 130 169 227 271 321 388
#     4  11  24  40  70  97 129 172 224 272 326 386
#     4  10  20  33  60  94 131 169 216 279 329 376
#     4  12  27  47  71 100 130 168 221 273 320 385
#     4  10  20  34  58  95 132 167 217 279 328 379
#     4  12  25  47  66  96 137 170 219 263 331 398
#
# _framework density 21.560677999999999
#
# number of rings (size 3 to 8) (size 9 to 14) (size 15 to 20)
#    0.000    0.857    2.857    5.571   10.000    0.000 
#    0.000    0.000    0.000    5.143    0.000    0.000 
#    0.000    0.000    0.000    0.000    0.000    0.000 
#
# Total GULP energy -156453.709119 kJ/mol
# GULP energy per Si atom -5587.632469 kJ/mol
# Density = 2.151161 g / cm^3
# Si number density = 21.560678 Si / 1000 Ang^3
#
#
#
# Elastic Constant Matrix: (Units=GPa)
#
#
# Indices 1 2 3 4 5 6 
#
# 1 158.7829 10.4956 49.5413 0.0000 1.7590 0.0000
# 2 10.4956 50.2476 -9.0815 0.0000 -6.2227 0.0000
# 3 49.5413 -9.0815 107.5589 0.0000 -0.9891 0.0000
# 4 0.0000 0.0000 0.0000 -1.6431 0.0000 8.0743
# 5 1.7590 -6.2227 -0.9891 0.0000 38.3290 0.0000
# 6 0.0000 0.0000 0.0000 8.0743 0.0000 13.7516
#
#
#
# Elastic Compliance Matrix: (Units=1/GPa)
#
#
# Indices 1 2 3 4 5 6 
#
# 1 0.007624 -0.002367 -0.003719 0.000000 -0.000830 0.000000
# 2 -0.002367 0.021378 0.002929 0.000000 0.003655 0.000000
# 3 -0.003719 0.002929 0.011266 0.000000 0.000937 0.000000
# 4 0.000000 0.000000 0.000000 -0.156643 0.000000 0.091973
# 5 -0.000830 0.003655 0.000937 0.000000 0.026746 0.000000
# 6 0.000000 0.000000 0.000000 0.091973 0.000000 0.018717
#
#
# Mechanical properties :
#
#
# Convention : Reuss Voigt Hill
#
# Bulk Modulus (GPa) = 29.45239 46.50002 37.97621
# Shear Modulus (GPa) = -93.84401 27.79642 -33.02379
#
# Velocity S-wave (km/s) = -6.60455 3.59446 -3.91790
# Velocity P-wave (km/s) = 6.66859 6.23224 1.67770
#
# Compressibility (1/GPa) = 0.03395310
#
# Stress axis : x y z
#
# Youngs Moduli (GPa) = 131.16503 46.77710 88.76135
#
# Poissons Ratio (x) = 0.11074 0.33011
# Poissons Ratio (y) = 0.31053 -0.25999
# Poissons Ratio (z) = 0.48782 -0.13701
#
# Static dielectric constant tensor:
#      x y z
#    x 1.831990 0.000000 -0.010830 
#    y 0.000000 1.761070 0.000000 
#    z -0.010830 0.000000 1.802440 
# 
# From -- ./inp_files/24415.got.cif
#   From: 2010.05.17/outbox.cif.g08.bks.cpg/sg13_13_cif.got.tgz:24415.got - 2010.06.03 16:44:36.
