data_PCOD9229748
_publ_section_title
;
Structure prediction by ZEFSAII (Michael W. Deem and Ramdas Pophale) SiO2 
 PCOD9229748
Probable space group: P 2/C
;
_chemical_formula_sum "Si O2"
_cell_formula_units_Z 32
_cell_length_a 19.440001
_cell_length_b 9.270241
_cell_length_c 10.651661
_cell_angle_alpha 90.000000
_cell_angle_beta 122.780006
_cell_angle_gamma 90.000000
_cell_volume 1613.891766
_symmetry_space_group_name_H-M "P 2/C"
_symmetry_group_IT_number 13
_symmetry_cell_setting 'monoclinic'
loop_
_space_group_symop_operation_xyz
x,y,z
-x,y,1/2-z
-x,-y,-z
x,-y,1/2+z
loop_
_atom_site_type_symbol
_atom_site_label
_atom_site_fract_x
_atom_site_fract_y
_atom_site_fract_z
Si Si1 0.521646 0.118262 0.628032
Si Si2 0.256109 0.501825 0.258884
Si Si3 0.359505 0.250551 0.414834
Si Si4 0.859504 0.750551 0.914833
Si Si5 0.798885 0.731782 0.134489
Si Si6 0.701115 0.231781 0.865511
Si Si7 0.978354 0.618262 0.371968
Si Si8 0.243891 0.998176 0.241116
O O1 0.500000 0.066388 0.750000
O O2 0.455074 0.241216 0.532784
O O3 0.612826 0.184127 0.719414
O O4 0.500000 0.000000 0.500000
O O5 0.330700 0.392204 0.315229
O O6 0.177365 0.396311 0.180583
O O7 0.257410 0.594618 0.387940
O O8 0.260259 0.626495 0.158772
O O9 0.314560 0.255098 0.504805
O O10 0.322635 0.103689 0.319417
O O11 0.830700 0.892203 0.815228
O O12 0.814560 0.755099 0.004804
O O13 0.955074 0.741216 0.032784
O O14 0.887174 0.684127 0.280585
O O15 0.760259 0.873505 0.158771
O O16 0.757411 0.094617 0.887940
O O17 0.000000 0.566388 0.250000
O O18 0.000000 0.500000 0.500000
#
# Coordination Sequence:
#
# PCOD9229748 Si02
#       8
#     4   4   4   4   4   4   4   4
#     4  10  20  37  56  80 112 146 184 225 276 328
#     4  10  20  34  54  80 108 138 184 222 272 328
#     4  10  20  35  55  78 109 143 180 227 273 323
#     4  10  20  35  55  78 109 143 180 227 273 323
#     4  10  20  35  55  78 109 143 180 227 273 323
#     4  10  20  35  55  78 109 143 180 227 273 323
#     4  10  20  37  56  80 112 146 184 225 276 328
#     4  10  20  34  54  80 108 138 184 222 272 328
#
# _framework density 19.827846000000001
#
# number of rings (size 3 to 8) (size 9 to 14) (size 15 to 20)
#    0.000    2.000    2.500    1.500    0.000    1.000 
#    0.000    2.500    0.000    0.000    0.000    0.000 
#    0.000    0.000    0.000    0.000    0.000    0.000 
#
# Total GULP energy -178276.783469 kJ/mol
# GULP energy per Si atom -5571.149483 kJ/mol
# Density = 1.978272 g / cm^3
# Si number density = 19.827846 Si / 1000 Ang^3
#
#
#
# Elastic Constant Matrix: (Units=GPa)
#
#
# Indices 1 2 3 4 5 6 
#
# 1 30.4403 11.7430 -6.1287 0.0000 5.9547 0.0000
# 2 11.7430 121.6377 19.8503 0.0000 0.8688 0.0000
# 3 -6.1287 19.8503 53.3697 0.0000 9.7336 0.0000
# 4 0.0000 0.0000 0.0000 16.7287 0.0000 -1.8540
# 5 5.9547 0.8688 9.7336 0.0000 21.5069 0.0000
# 6 0.0000 0.0000 0.0000 -1.8540 0.0000 15.6235
#
#
#
# Elastic Compliance Matrix: (Units=1/GPa)
#
#
# Indices 1 2 3 4 5 6 
#
# 1 0.039646 -0.005226 0.009221 0.000000 -0.014939 0.000000
# 2 -0.005226 0.009471 -0.004705 0.000000 0.003194 0.000000
# 3 0.009221 -0.004705 0.023954 0.000000 -0.013204 0.000000
# 4 0.000000 0.000000 0.000000 0.060574 0.000000 0.007188
# 5 -0.014939 0.003194 -0.013204 0.000000 0.056480 0.000000
# 6 0.000000 0.000000 0.000000 0.007188 0.000000 0.064859
#
#
# Mechanical properties :
#
#
# Convention : Reuss Voigt Hill
#
# Bulk Modulus (GPa) = 13.95642 28.48632 21.22137
# Shear Modulus (GPa) = 17.83884 22.77069 20.30477
#
# Velocity S-wave (km/s) = 3.00273 3.39251 3.20355
# Velocity P-wave (km/s) = 4.36760 5.45376 4.94062
#
# Compressibility (1/GPa) = 0.07165160
#
# Stress axis : x y z
#
# Youngs Moduli (GPa) = 25.22322 105.58962 41.74622
#
# Poissons Ratio (x) = 0.55176 -0.38494
# Poissons Ratio (y) = 0.13181 0.19642
# Poissons Ratio (z) = -0.23258 0.49680
#
# Static dielectric constant tensor:
#      x y z
#    x 1.712200 0.000000 -0.004520 
#    y 0.000000 1.682300 0.000000 
#    z -0.004520 0.000000 1.719280 
# 
# From -- ./inp_files/40504.got.cif
#   From: 2010.05.17/outbox.cif.g08.bks.cpg/sg13_21_cif.got.tgz:40504.got - 2010.06.03 16:44:36.
