data_PCOD9229013
_publ_section_title
;
Structure prediction by ZEFSAII (Michael W. Deem and Ramdas Pophale) SiO2 
 PCOD9229013
Probable space group: P 2/C
;
_chemical_formula_sum "Si O2"
_cell_formula_units_Z 20
_cell_length_a 19.034479
_cell_length_b 9.391271
_cell_length_c 11.357503
_cell_angle_alpha 90.000000
_cell_angle_beta 153.992829
_cell_angle_gamma 90.000000
_cell_volume 890.228750
_symmetry_space_group_name_H-M "P 2/C"
_symmetry_group_IT_number 13
_symmetry_cell_setting 'monoclinic'
loop_
_space_group_symop_operation_xyz
x,y,z
-x,y,1/2-z
-x,-y,-z
x,-y,1/2+z
loop_
_atom_site_type_symbol
_atom_site_label
_atom_site_fract_x
_atom_site_fract_y
_atom_site_fract_z
Si Si1 0.596238 0.695895 0.671400
Si Si2 0.648810 0.719282 0.381064
Si Si3 0.812419 0.317819 0.693202
Si Si4 0.343920 0.045919 0.097898
Si Si5 0.144685 0.417636 0.118775
O O1 0.428547 0.664511 0.357214
O O2 0.612824 0.865840 0.718658
O O3 0.735828 0.646668 0.795169
O O4 0.646341 0.639671 0.875521
O O5 0.500000 0.716804 0.250000
O O6 0.790073 0.633829 0.655037
O O7 0.700637 0.883753 0.447067
O O8 0.789083 0.147899 0.664309
O O9 0.839296 0.411886 0.848929
O O10 0.965072 0.359346 0.842970
O O11 0.500000 0.047976 0.250000
#
# Coordination Sequence:
#
# PCOD9229013 Si02
#       5
#     4   4   4   4   4
#     4   9  19  35  59  74 103 144 177 216 266 318
#     4   9  18  33  57  81 108 135 177 221 263 317
#     4   9  21  34  56  76 108 142 172 225 259 320
#     4   9  19  35  54  81 108 140 177 222 263 310
#     4  10  19  37  53  80 106 140 180 215 272 314
#
# _framework density 22.466134
#
# number of rings (size 3 to 8) (size 9 to 14) (size 15 to 20)
#    1.200    1.600    0.000    1.200    0.000    4.000 
#    3.600    0.000    0.000    0.000    0.000    0.000 
#    0.000    0.000    0.000    0.000    0.000    0.000 
#
# Total GULP energy -111410.887429 kJ/mol
# GULP energy per Si atom -5570.544371 kJ/mol
# Density = 2.241500 g / cm^3
# Si number density = 22.466134 Si / 1000 Ang^3
#
#
#
# Elastic Constant Matrix: (Units=GPa)
#
#
# Indices 1 2 3 4 5 6 
#
# 1 61.2322 11.3254 0.5091 0.0000 20.8887 0.0000
# 2 11.3254 66.6300 34.7146 0.0000 12.0617 0.0000
# 3 0.5091 34.7146 102.9826 0.0000 -1.6947 0.0000
# 4 0.0000 0.0000 0.0000 1.8194 0.0000 7.5823
# 5 20.8887 12.0617 -1.6947 0.0000 16.2272 0.0000
# 6 0.0000 0.0000 0.0000 7.5823 0.0000 23.8314
#
#
#
# Elastic Compliance Matrix: (Units=1/GPa)
#
#
# Indices 1 2 3 4 5 6 
#
# 1 0.029686 0.003387 -0.001962 0.000000 -0.040936 0.000000
# 2 0.003387 0.022571 -0.007987 0.000000 -0.021971 0.000000
# 3 -0.001962 -0.007987 0.012573 0.000000 0.009775 0.000000
# 4 0.000000 0.000000 0.000000 -1.686258 0.000000 0.536511
# 5 -0.040936 -0.021971 0.009775 0.000000 0.131673 0.000000
# 6 0.000000 0.000000 0.000000 0.536511 0.000000 -0.128739
#
#
# Mechanical properties :
#
#
# Convention : Reuss Voigt Hill
#
# Bulk Modulus (GPa) = 19.33998 35.99368 27.66683
# Shear Modulus (GPa) = -3.14835 20.66197 8.75681
#
# Velocity S-wave (km/s) = -1.18508 3.03594 1.97642
# Velocity P-wave (km/s) = 2.59897 5.32403 4.18927
#
# Compressibility (1/GPa) = 0.05170636
#
# Stress axis : x y z
#
# Youngs Moduli (GPa) = 33.68571 44.30453 79.53403
#
# Poissons Ratio (x) = -0.15005 0.15605
# Poissons Ratio (y) = -0.11409 0.63522
# Poissons Ratio (z) = 0.06609 0.35385
#
# Static dielectric constant tensor:
#      x y z
#    x 1.825290 0.000000 -0.072300 
#    y 0.000000 1.867680 0.000000 
#    z -0.072300 0.000000 1.841350 
# 
# From -- ./inp_files/49496.got.cif
#   From: 2010.05.17/outbox.cif.g08.bks.cpg/sg13_25_cif.got.tgz:49496.got - 2010.06.03 16:44:36.
