data_PCOD9229277
_publ_section_title
;
Structure prediction by ZEFSAII (Michael W. Deem and Ramdas Pophale) SiO2 
 PCOD9229277
Probable space group: P 2/C
;
_chemical_formula_sum "Si O2"
_cell_formula_units_Z 32
_cell_length_a 25.000326
_cell_length_b 9.372543
_cell_length_c 13.999904
_cell_angle_alpha 90.000000
_cell_angle_beta 25.949758
_cell_angle_gamma 90.000000
_cell_volume 1435.451257
_symmetry_space_group_name_H-M "P 2/C"
_symmetry_group_IT_number 13
_symmetry_cell_setting 'monoclinic'
loop_
_space_group_symop_operation_xyz
x,y,z
-x,y,1/2-z
-x,-y,-z
x,-y,1/2+z
loop_
_atom_site_type_symbol
_atom_site_label
_atom_site_fract_x
_atom_site_fract_y
_atom_site_fract_z
Si Si1 0.760983 0.582332 0.510818
Si Si2 0.104775 0.165941 0.159529
Si Si3 0.279032 0.518183 0.147592
Si Si4 0.422239 0.885772 0.227460
Si Si5 0.650113 0.665916 0.296436
Si Si6 0.323981 0.820723 0.585961
Si Si7 0.247475 0.902175 0.908136
Si Si8 0.997696 0.566692 0.900692
O O1 0.730206 0.551882 0.449576
O O2 0.667832 0.487828 0.720676
O O3 0.755410 0.746463 0.543801
O O4 0.895582 0.521804 0.321991
O O5 0.000000 0.171676 0.250000
O O6 0.049043 0.272412 0.327069
O O7 0.227207 0.239801 0.920591
O O8 0.140470 0.003785 0.119716
O O9 0.364156 0.628499 0.069665
O O10 0.315574 0.352391 0.103246
O O11 0.141463 0.548336 0.408632
O O12 0.440420 0.756438 0.122986
O O13 0.323886 0.855099 0.472173
O O14 0.369262 0.017529 0.252142
O O15 0.549541 0.887804 0.078088
O O16 0.236630 0.885086 0.809647
O O17 0.000000 0.500000 0.000000
#
# Coordination Sequence:
#
# PCOD9229277 Si02
#       8
#     4   4   4   4   4   4   4   4
#     4  10  21  38  59  99 127 162 214 265 309 380
#     4  10  20  37  59  90 128 167 205 247 313 380
#     4  11  20  37  68  95 126 164 220 266 315 370
#     4  10  24  44  67  87 128 166 212 266 327 389
#     4  10  19  38  65  88 121 166 208 268 313 371
#     4  11  23  43  67  91 120 172 213 261 330 376
#     4  11  24  40  63  92 131 165 211 261 316 389
#     4   9  20  37  62  90 128 168 209 255 312 368
#
# _framework density 22.292639999999999
#
# number of rings (size 3 to 8) (size 9 to 14) (size 15 to 20)
#    0.000    1.750    3.750    0.375    1.750    3.500 
#    0.000    2.500    0.000    0.000    0.000    0.000 
#    0.000    0.000    0.000    0.000    0.000    0.000 
#
# Total GULP energy -178343.421077 kJ/mol
# GULP energy per Si atom -5573.231909 kJ/mol
# Density = 2.224190 g / cm^3
# Si number density = 22.292640 Si / 1000 Ang^3
#
#
#
# Elastic Constant Matrix: (Units=GPa)
#
#
# Indices 1 2 3 4 5 6 
#
# 1 87.8811 13.6198 11.1097 0.0000 32.1659 0.0000
# 2 13.6198 139.9565 18.8446 0.0000 19.0953 0.0000
# 3 11.1097 18.8446 35.8495 0.0000 12.0279 0.0000
# 4 0.0000 0.0000 0.0000 25.5421 0.0000 1.5532
# 5 32.1659 19.0953 12.0279 0.0000 17.8124 0.0000
# 6 0.0000 0.0000 0.0000 1.5532 0.0000 36.0147
#
#
#
# Elastic Compliance Matrix: (Units=1/GPa)
#
#
# Indices 1 2 3 4 5 6 
#
# 1 0.043835 0.006892 0.015296 0.000000 -0.096876 0.000000
# 2 0.006892 0.009543 0.000589 0.000000 -0.023075 0.000000
# 3 0.015296 0.000589 0.041792 0.000000 -0.056473 0.000000
# 4 0.000000 0.000000 0.000000 0.039254 0.000000 -0.001693
# 5 -0.096876 -0.023075 -0.056473 0.000000 0.293952 0.000000
# 6 0.000000 0.000000 0.000000 -0.001693 0.000000 0.027839
#
#
# Mechanical properties :
#
#
# Convention : Reuss Voigt Hill
#
# Bulk Modulus (GPa) = 7.10606 38.98167 23.04387
# Shear Modulus (GPa) = 10.92730 30.54803 20.73766
#
# Velocity S-wave (km/s) = 2.21639 3.70580 3.05330
# Velocity P-wave (km/s) = 3.12160 5.98622 4.77385
#
# Compressibility (1/GPa) = 0.14072495
#
# Stress axis : x y z
#
# Youngs Moduli (GPa) = 22.81259 104.78604 23.92810
#
# Poissons Ratio (x) = -0.72221 -0.36599
# Poissons Ratio (y) = -0.15723 -0.01410
# Poissons Ratio (z) = -0.34893 -0.06177
#
# Static dielectric constant tensor:
#      x y z
#    x 1.793740 0.000000 -0.034860 
#    y 0.000000 1.819500 0.000000 
#    z -0.034860 0.000000 1.983210 
# 
# From -- ./inp_files/59483.got.cif
#   From: 2010.05.17/outbox.cif.g08.bks.cpg/sg13_30_cif.got.tgz:59483.got - 2010.06.03 16:44:36.
