data_PCOD9229512
_publ_section_title
;
Structure prediction by ZEFSAII (Michael W. Deem and Ramdas Pophale) SiO2 
 PCOD9229512
Probable space group: P 2/C
;
_chemical_formula_sum "Si O2"
_cell_formula_units_Z 24
_cell_length_a 15.283928
_cell_length_b 13.820457
_cell_length_c 9.241921
_cell_angle_alpha 90.000000
_cell_angle_beta 144.821669
_cell_angle_gamma 90.000000
_cell_volume 1124.695686
_symmetry_space_group_name_H-M "P 2/C"
_symmetry_group_IT_number 13
_symmetry_cell_setting 'monoclinic'
loop_
_space_group_symop_operation_xyz
x,y,z
-x,y,1/2-z
-x,-y,-z
x,-y,1/2+z
loop_
_atom_site_type_symbol
_atom_site_label
_atom_site_fract_x
_atom_site_fract_y
_atom_site_fract_z
Si Si1 0.655746 0.171157 0.498815
Si Si2 0.115010 0.969663 0.032439
Si Si3 0.288203 0.371943 0.869803
Si Si4 0.080398 0.633663 0.597836
Si Si5 0.166986 0.814944 0.545958
Si Si6 0.775186 0.504134 0.960207
O O1 0.500000 0.118199 0.250000
O O2 0.771272 0.108205 0.748389
O O3 0.629604 0.271375 0.544909
O O4 0.724826 0.208803 0.440860
O O5 0.198754 0.071349 0.114697
O O6 0.000000 0.936802 0.750000
O O7 0.000000 0.000000 0.000000
O O8 0.319929 0.440973 0.779109
O O9 0.101746 0.355667 0.626715
O O10 0.317844 0.426524 0.059684
O O11 0.156349 0.738445 0.663545
O O12 0.123085 0.569677 0.513089
O O13 0.141478 0.572502 0.818033
O O14 0.000000 0.811731 0.250000
#
# Coordination Sequence:
#
# PCOD9229512 Si02
#       6
#     4   4   4   4   4   4
#     4  12  26  43  65  99 139 173 208 267 339 392
#     4  11  22  43  73  99 122 167 223 267 318 386
#     4  11  19  35  56  91 127 170 213 267 321 380
#     4  11  17  32  60  93 129 162 216 280 316 369
#     4  11  20  40  65  90 127 170 213 268 323 377
#     4  10  20  30  59  97 125 163 226 277 313 364
#
# _framework density 21.339105
#
# number of rings (size 3 to 8) (size 9 to 14) (size 15 to 20)
#    0.000    1.000    6.667    4.000    0.000    3.333 
#    0.000    0.833    0.000    0.000    0.000    0.000 
#    0.000    0.000    0.000    0.000    0.000    0.000 
#
# Total GULP energy -133858.797340 kJ/mol
# GULP energy per Si atom -5577.449889 kJ/mol
# Density = 2.129054 g / cm^3
# Si number density = 21.339105 Si / 1000 Ang^3
#
#
#
# Elastic Constant Matrix: (Units=GPa)
#
#
# Indices 1 2 3 4 5 6 
#
# 1 51.9017 12.6228 42.6555 0.0000 -16.9644 0.0000
# 2 12.6228 128.8117 57.1156 0.0000 -5.6217 0.0000
# 3 42.6555 57.1156 111.3884 0.0000 -11.6986 0.0000
# 4 0.0000 0.0000 0.0000 17.3323 0.0000 -20.6529
# 5 -16.9644 -5.6217 -11.6986 0.0000 29.2705 0.0000
# 6 0.0000 0.0000 0.0000 -20.6529 0.0000 -2.3586
#
#
#
# Elastic Compliance Matrix: (Units=1/GPa)
#
#
# Indices 1 2 3 4 5 6 
#
# 1 0.034270 0.003127 -0.013129 0.000000 0.015215 0.000000
# 2 0.003127 0.010334 -0.006365 0.000000 0.001253 0.000000
# 3 -0.013129 -0.006365 0.017057 0.000000 -0.002014 0.000000
# 4 0.000000 0.000000 0.000000 0.005046 0.000000 -0.044185
# 5 0.015215 0.001253 -0.002014 0.000000 0.042418 0.000000
# 6 0.000000 0.000000 0.000000 -0.044185 0.000000 -0.037081
#
#
# Mechanical properties :
#
#
# Convention : Reuss Voigt Hill
#
# Bulk Modulus (GPa) = 34.56847 57.43219 46.00033
# Shear Modulus (GPa) = 43.69876 20.82937 32.26406
#
# Velocity S-wave (km/s) = 4.53020 3.12767 3.89262
# Velocity P-wave (km/s) = 6.60291 6.32579 6.46583
#
# Compressibility (1/GPa) = 0.02892810
#
# Stress axis : x y z
#
# Youngs Moduli (GPa) = 29.18004 96.77169 58.62619
#
# Poissons Ratio (x) = -0.30263 0.76970
# Poissons Ratio (y) = -0.09125 0.37313
# Poissons Ratio (z) = 0.38311 0.61591
#
# Static dielectric constant tensor:
#      x y z
#    x 1.702610 0.000000 0.080270 
#    y 0.000000 1.744550 0.000000 
#    z 0.080270 0.000000 1.743510 
# 
# From -- ./inp_files/22005.got.cif
#   From: 2010.05.17/outbox.cif.g08.bks.cpg/sg13_12_cif.got.tgz:22005.got - 2010.06.03 16:44:36.
