data_PCOD9229645
_publ_section_title
;
Structure prediction by ZEFSAII (Michael W. Deem and Ramdas Pophale) SiO2 
 PCOD9229645
Probable space group: P 2/C
;
_chemical_formula_sum "Si O2"
_cell_formula_units_Z 32
_cell_length_a 23.763843
_cell_length_b 14.083211
_cell_length_c 9.508466
_cell_angle_alpha 90.000000
_cell_angle_beta 143.628346
_cell_angle_gamma 90.000000
_cell_volume 1887.116032
_symmetry_space_group_name_H-M "P 2/C"
_symmetry_group_IT_number 13
_symmetry_cell_setting 'monoclinic'
loop_
_space_group_symop_operation_xyz
x,y,z
-x,y,1/2-z
-x,-y,-z
x,-y,1/2+z
loop_
_atom_site_type_symbol
_atom_site_label
_atom_site_fract_x
_atom_site_fract_y
_atom_site_fract_z
Si Si1 0.588390 0.303922 0.641026
Si Si2 0.610108 0.902557 0.301940
Si Si3 0.302925 0.603335 0.902549
Si Si4 0.708195 0.619779 0.151215
Si Si5 0.912314 0.392916 0.152090
Si Si6 0.366921 0.707724 0.761145
Si Si7 0.912138 0.595101 0.987423
Si Si8 0.380130 0.083124 0.356033
O O1 0.624998 0.201617 0.768145
O O2 0.623199 0.324279 0.554848
O O3 0.476119 0.307766 0.437168
O O4 0.640588 0.383352 0.839483
O O5 0.646980 0.913715 0.534738
O O6 0.647296 0.986896 0.278095
O O7 0.495333 0.912410 0.081065
O O8 0.305195 0.493274 0.862000
O O9 0.353992 0.669163 0.891924
O O10 0.193486 0.634851 0.701440
O O11 0.807976 0.649783 0.420731
O O12 0.702964 0.648181 0.978155
O O13 0.929374 0.408743 0.353378
O O14 0.000000 0.341694 0.250000
O O15 0.905293 0.491063 0.047393
O O16 0.346186 0.819840 0.715210
O O17 0.000000 0.641317 0.250000
#
# Coordination Sequence:
#
# PCOD9229645 Si02
#       8
#     4   4   4   4   4   4   4   4
#     4  11  21  38  49  74 106 144 179 217 253 297
#     4   9  18  32  53  69  98 126 171 221 267 306
#     4  11  22  36  52  72 106 143 183 215 251 301
#     4  11  24  34  50  76 105 143 182 214 250 302
#     4  10  20  34  53  73  98 129 172 223 270 305
#     4  11  23  34  53  72 107 144 182 214 249 306
#     4  10  20  33  54  74  96 130 172 221 272 306
#     4   9  18  33  50  74  92 131 170 219 270 300
#
# _framework density 16.957090999999998
#
# number of rings (size 3 to 8) (size 9 to 14) (size 15 to 20)
#    0.000    1.750    2.500    3.000    8.750    3.000 
#    0.000    0.000    0.000    0.000    0.000    0.000 
#    0.000    6.000    0.000    0.000    0.000    0.000 
#
# Total GULP energy -178331.301125 kJ/mol
# GULP energy per Si atom -5572.853160 kJ/mol
# Density = 1.691850 g / cm^3
# Si number density = 16.957091 Si / 1000 Ang^3
#
#
#
# Elastic Constant Matrix: (Units=GPa)
#
#
# Indices 1 2 3 4 5 6 
#
# 1 66.2525 17.6870 18.9513 0.0000 -1.5581 0.0000
# 2 17.6870 62.6892 10.0201 0.0000 4.0463 0.0000
# 3 18.9513 10.0201 72.8457 0.0000 -1.9772 0.0000
# 4 0.0000 0.0000 0.0000 9.7380 0.0000 -12.0485
# 5 -1.5581 4.0463 -1.9772 0.0000 24.6705 0.0000
# 6 0.0000 0.0000 0.0000 -12.0485 0.0000 9.4680
#
#
#
# Elastic Compliance Matrix: (Units=1/GPa)
#
#
# Indices 1 2 3 4 5 6 
#
# 1 0.017412 -0.004389 -0.003885 0.000000 0.001508 0.000000
# 2 -0.004389 0.017621 -0.001371 0.000000 -0.003277 0.000000
# 3 -0.003885 -0.001371 0.014959 0.000000 0.001178 0.000000
# 4 0.000000 0.000000 0.000000 -0.178759 0.000000 -0.227478
# 5 0.001508 -0.003277 0.001178 0.000000 0.041261 0.000000
# 6 0.000000 0.000000 0.000000 -0.227478 0.000000 -0.183857
#
#
# Mechanical properties :
#
#
# Convention : Reuss Voigt Hill
#
# Bulk Modulus (GPa) = 32.57159 32.78937 32.68048
# Shear Modulus (GPa) = -20.67494 19.11725 -0.77884
#
# Velocity S-wave (km/s) = -3.49556 3.36130 -0.67845
# Velocity P-wave (km/s) = 1.71988 5.86883 4.32441
#
# Compressibility (1/GPa) = 0.03070160
#
# Stress axis : x y z
#
# Youngs Moduli (GPa) = 57.43065 56.75159 66.84952
#
# Poissons Ratio (x) = 0.24908 0.25973
# Poissons Ratio (y) = 0.25206 0.09164
# Poissons Ratio (z) = 0.22313 0.07780
#
# Static dielectric constant tensor:
#      x y z
#    x 1.592740 0.000000 0.019990 
#    y 0.000000 1.554110 0.000000 
#    z 0.019990 0.000000 1.599140 
# 
# From -- ./inp_files/23553.got.cif
#   From: 2010.05.17/outbox.cif.g08.bks.cpg/sg13_12_cif.got.tgz:23553.got - 2010.06.03 16:44:36.
