data_PCOD9229768
_publ_section_title
;
Structure prediction by ZEFSAII (Michael W. Deem and Ramdas Pophale) SiO2 
 PCOD9229768
Probable space group: P 2/C
;
_chemical_formula_sum "Si O2"
_cell_formula_units_Z 28
_cell_length_a 10.494736
_cell_length_b 5.461120
_cell_length_c 20.773846
_cell_angle_alpha 90.000000
_cell_angle_beta 78.886292
_cell_angle_gamma 90.000000
_cell_volume 1168.283652
_symmetry_space_group_name_H-M "P 2/C"
_symmetry_group_IT_number 13
_symmetry_cell_setting 'monoclinic'
loop_
_space_group_symop_operation_xyz
x,y,z
-x,y,1/2-z
-x,-y,-z
x,-y,1/2+z
loop_
_atom_site_type_symbol
_atom_site_label
_atom_site_fract_x
_atom_site_fract_y
_atom_site_fract_z
Si Si1 0.205192 0.426916 0.078100
Si Si2 0.738647 0.441194 0.290694
Si Si3 0.410167 0.951422 0.321336
Si Si4 0.650760 0.551385 0.654608
Si Si5 0.042452 0.928528 0.107376
Si Si6 0.152033 0.055995 0.764047
Si Si7 0.870147 0.385899 0.545878
O O1 0.299744 0.412961 0.130605
O O2 0.138899 0.696897 0.089235
O O3 0.106432 0.194134 0.094622
O O4 0.238162 0.389984 0.999778
O O5 0.652650 0.439370 0.233516
O O6 0.830611 0.206905 0.270213
O O7 0.807828 0.702616 0.278279
O O8 0.500000 0.957722 0.250000
O O9 0.417932 0.200157 0.359942
O O10 0.264289 0.950024 0.308299
O O11 0.425738 0.695198 0.355152
O O12 0.797452 0.524375 0.611989
O O13 0.926239 0.869311 0.067878
O O14 0.978850 0.914160 0.183873
O O15 0.000000 0.500000 0.500000
#
# Coordination Sequence:
#
# PCOD9229768 Si02
#       7
#     4   4   4   4   4   4   4
#     4  11  24  33  53  78 110 152 196 213 253 336
#     4  10  20  36  51  78 106 151 181 227 268 315
#     4  10  20  35  60  88 104 134 186 240 290 333
#     4  10  21  38  58  79 118 144 177 236 284 322
#     4  11  21  36  50  75 109 150 182 226 261 311
#     4  10  20  34  55  73 109 137 173 231 287 312
#     4  10  22  38  53  79 115 158 187 218 270 324
#
# _framework density 23.966784000000001
#
# number of rings (size 3 to 8) (size 9 to 14) (size 15 to 20)
#    0.000    1.714    2.857    2.571    6.000    5.714 
#    0.000    0.000    0.000    0.000    0.000   24.000 
#    0.000    0.000    0.000    0.000    0.000    0.000 
#
# Total GULP energy -156031.103013 kJ/mol
# GULP energy per Si atom -5572.539393 kJ/mol
# Density = 2.391223 g / cm^3
# Si number density = 23.966784 Si / 1000 Ang^3
#
#
#
# Elastic Constant Matrix: (Units=GPa)
#
#
# Indices 1 2 3 4 5 6 
#
# 1 92.5568 -71.0047 98.9892 0.0000 17.0254 0.0000
# 2 -71.0047 442.4046 -189.9921 0.0000 -63.7989 0.0000
# 3 98.9892 -189.9921 274.4013 0.0000 59.1489 0.0000
# 4 0.0000 0.0000 0.0000 65.3511 0.0000 74.2481
# 5 17.0254 -63.7989 59.1489 0.0000 53.9227 0.0000
# 6 0.0000 0.0000 0.0000 74.2481 0.0000 178.6404
#
#
#
# Elastic Compliance Matrix: (Units=1/GPa)
#
#
# Indices 1 2 3 4 5 6 
#
# 1 0.017757 0.000289 -0.006641 0.000000 0.002020 0.000000
# 2 0.000289 0.003358 0.001813 0.000000 0.001894 0.000000
# 3 -0.006641 0.001813 0.008357 0.000000 -0.004925 0.000000
# 4 0.000000 0.000000 0.000000 0.028993 0.000000 -0.012050
# 5 0.002020 0.001894 -0.004925 0.000000 0.025550 0.000000
# 6 0.000000 0.000000 0.000000 -0.012050 0.000000 0.010606
#
#
# Mechanical properties :
#
#
# Convention : Reuss Voigt Hill
#
# Bulk Modulus (GPa) = 49.03321 53.92750 51.48035
# Shear Modulus (GPa) = 45.25011 124.34087 84.79549
#
# Velocity S-wave (km/s) = 4.34987 7.21063 5.95460
# Velocity P-wave (km/s) = 6.76252 9.58509 8.29475
#
# Compressibility (1/GPa) = 0.02039434
#
# Stress axis : x y z
#
# Youngs Moduli (GPa) = 56.31603 297.76221 119.66394
#
# Poissons Ratio (x) = -0.08615 0.79468
# Poissons Ratio (y) = -0.01629 -0.21692
# Poissons Ratio (z) = 0.37399 -0.53976
#
# Static dielectric constant tensor:
#      x y z
#    x 2.001010 0.000000 0.056650 
#    y 0.000000 0.712500 0.000000 
#    z 0.056650 0.000000 1.949500 
# 
# From -- ./inp_files/77469.got.cif
#   From: 2010.05.17/outbox.cif.g08.bks.cpg/sg13_39_cif.got.tgz:77469.got - 2010.06.03 16:44:36.
