data_PCOD9229260
_publ_section_title
;
Structure prediction by ZEFSAII (Michael W. Deem and Ramdas Pophale) SiO2 
 PCOD9229260
Probable space group: P 2/C
;
_chemical_formula_sum "Si O2"
_cell_formula_units_Z 32
_cell_length_a 6.907869
_cell_length_b 37.040762
_cell_length_c 5.411479
_cell_angle_alpha 90.000000
_cell_angle_beta 101.806460
_cell_angle_gamma 90.000000
_cell_volume 1355.356711
_symmetry_space_group_name_H-M "P 2/C"
_symmetry_group_IT_number 13
_symmetry_cell_setting 'monoclinic'
loop_
_space_group_symop_operation_xyz
x,y,z
-x,y,1/2-z
-x,-y,-z
x,-y,1/2+z
loop_
_atom_site_type_symbol
_atom_site_label
_atom_site_fract_x
_atom_site_fract_y
_atom_site_fract_z
Si Si1 0.873648 0.596878 0.966951
Si Si2 0.762218 0.142324 0.181983
Si Si3 0.376404 0.223093 0.462715
Si Si4 0.792006 0.295710 0.963547
Si Si5 0.265536 0.517325 0.678431
Si Si6 0.758441 0.897126 0.180957
Si Si7 0.241239 0.020056 0.820215
Si Si8 0.244917 0.675043 0.550067
O O1 0.767650 0.559104 0.890592
O O2 0.741876 0.632231 0.980314
O O3 0.000000 0.604406 0.750000
O O4 0.000000 0.592757 0.250000
O O5 0.697426 0.127401 0.432137
O O6 0.000000 0.140539 0.250000
O O7 0.703663 0.183497 0.119378
O O8 0.697247 0.118297 0.931123
O O9 0.500000 0.221066 0.750000
O O10 0.211379 0.253478 0.472754
O O11 0.500000 0.234164 0.250000
O O12 0.694115 0.302880 0.674280
O O13 0.681542 0.315062 0.159987
O O14 0.010276 0.313200 0.005004
O O15 0.500000 0.510592 0.750000
O O16 0.188986 0.493177 0.430170
O O17 0.696807 0.938525 0.129648
O O18 0.000000 0.896982 0.250000
O O19 0.000000 0.019991 0.750000
O O20 0.301014 0.003853 0.571277
#
# Coordination Sequence:
#
# PCOD9229260 Si02
#       8
#     4   4   4   4   4   4   4   4
#     4  12  21  37  65  96 125 152 204 257 298 340
#     4  10  21  37  58  82 110 156 196 240 293 351
#     4  12  26  43  60  90 123 151 197 252 298 360
#     4  10  20  38  62  84 117 156 184 241 299 352
#     4  10  23  42  60  86 128 172 206 244 301 359
#     4   9  17  31  49  77 114 147 196 241 282 351
#     4   9  15  23  40  69 108 152 182 222 291 351
#     4  10  19  38  63  92 115 154 197 241 288 360
#
# _framework density 23.610023000000002
#
# number of rings (size 3 to 8) (size 9 to 14) (size 15 to 20)
#    0.000    1.750    2.500    3.000    1.750    4.500 
#    4.500    1.875    0.000    0.000    0.000    0.000 
#    0.000   35.000    0.000    0.000    0.000    0.000 
#
# Total GULP energy -179087.013171 kJ/mol
# GULP energy per Si atom -5596.469162 kJ/mol
# Density = 2.355629 g / cm^3
# Si number density = 23.610023 Si / 1000 Ang^3
#
#
#
# Elastic Constant Matrix: (Units=GPa)
#
#
# Indices 1 2 3 4 5 6 
#
# 1 58.5136 -1.7525 35.9822 0.0000 -3.1883 0.0000
# 2 -1.7525 185.8814 75.7544 0.0000 7.3135 0.0000
# 3 35.9822 75.7544 226.2549 0.0000 -6.4254 0.0000
# 4 0.0000 0.0000 0.0000 46.9621 0.0000 -2.7636
# 5 -3.1883 7.3135 -6.4254 0.0000 44.2665 0.0000
# 6 0.0000 0.0000 0.0000 -2.7636 0.0000 7.7497
#
#
#
# Elastic Compliance Matrix: (Units=1/GPa)
#
#
# Indices 1 2 3 4 5 6 
#
# 1 0.019394 0.001632 -0.003614 0.000000 0.000603 0.000000
# 2 0.001632 0.006447 -0.002455 0.000000 -0.001304 0.000000
# 3 -0.003614 -0.002455 0.005845 0.000000 0.000994 0.000000
# 4 0.000000 0.000000 0.000000 0.021750 0.000000 0.007756
# 5 0.000603 -0.001304 0.000994 0.000000 0.022994 0.000000
# 6 0.000000 0.000000 0.000000 0.007756 0.000000 0.131802
#
#
# Mechanical properties :
#
#
# Convention : Reuss Voigt Hill
#
# Bulk Modulus (GPa) = 43.83681 76.73536 60.28609
# Shear Modulus (GPa) = 22.25095 43.84004 33.04549
#
# Velocity S-wave (km/s) = 3.07324 4.31378 3.74523
# Velocity P-wave (km/s) = 5.58574 7.57518 6.65522
#
# Compressibility (1/GPa) = 0.02281188
#
# Stress axis : x y z
#
# Youngs Moduli (GPa) = 51.56271 155.11017 171.09488
#
# Poissons Ratio (x) = -0.25311 0.61825
# Poissons Ratio (y) = -0.08414 0.42006
# Poissons Ratio (z) = 0.18632 0.38082
#
# Static dielectric constant tensor:
#      x y z
#    x 1.963720 0.000000 -0.019170 
#    y 0.000000 1.811910 0.000000 
#    z -0.019170 0.000000 1.859950 
# 
# From -- ./inp_files/2730.got.cif
#   From: 2010.05.17/outbox.cif.g08.bks.cpg/sg13_2_cif.got.tgz:2730.got - 2010.06.03 16:44:36.
