data_PCOD9229261
_publ_section_title
;
Structure prediction by ZEFSAII (Michael W. Deem and Ramdas Pophale) SiO2 
 PCOD9229261
Probable space group: P 2/C
;
_chemical_formula_sum "Si O2"
_cell_formula_units_Z 32
_cell_length_a 11.329997
_cell_length_b 9.146535
_cell_length_c 30.023626
_cell_angle_alpha 90.000000
_cell_angle_beta 150.336569
_cell_angle_gamma 90.000000
_cell_volume 1539.822442
_symmetry_space_group_name_H-M "P 2/C"
_symmetry_group_IT_number 13
_symmetry_cell_setting 'monoclinic'
loop_
_space_group_symop_operation_xyz
x,y,z
-x,y,1/2-z
-x,-y,-z
x,-y,1/2+z
loop_
_atom_site_type_symbol
_atom_site_label
_atom_site_fract_x
_atom_site_fract_y
_atom_site_fract_z
Si Si1 0.314813 0.116160 0.567965
Si Si2 0.311670 0.602619 0.122766
Si Si3 0.157967 0.475298 0.668789
Si Si4 0.505086 0.162769 0.178255
Si Si5 0.489061 0.584079 0.607450
Si Si6 0.137543 0.805792 0.635719
Si Si7 0.721968 0.281874 0.651549
Si Si8 0.331573 0.366262 0.959775
O O1 0.262216 0.235045 0.589184
O O2 0.556906 0.174887 0.625455
O O3 0.100257 0.125153 0.462197
O O4 0.365861 0.960143 0.605651
O O5 0.588678 0.569605 0.226931
O O6 0.172160 0.577257 0.122437
O O7 0.286494 0.496048 0.071554
O O8 0.103483 0.647417 0.646543
O O9 0.944957 0.409313 0.627302
O O10 0.588482 0.290429 0.172384
O O11 0.721918 0.104309 0.280092
O O12 0.317653 0.222119 0.153455
O O13 0.653017 0.447940 0.644957
O O14 0.403567 0.663441 0.534319
O O15 0.652560 0.259721 0.576946
O O16 0.000000 0.258641 0.750000
O O17 0.500000 0.500000 0.000000
#
# Coordination Sequence:
#
# PCOD9229261 Si02
#       8
#     4   4   4   4   4   4   4   4
#     4  11  25  42  65  95 133 177 216 272 334 396
#     4  10  20  36  60 100 128 159 211 267 338 384
#     4  11  19  35  65  98 128 164 210 273 323 393
#     4  11  23  43  63  96 135 176 213 262 341 397
#     4  10  19  38  63  93 120 164 215 268 321 398
#     4  11  22  40  67  93 144 166 213 271 333 410
#     4  10  22  44  65  89 131 168 221 283 323 373
#     4  10  21  34  58  92 121 161 211 265 323 368
#
# _framework density 20.781617000000001
#
# number of rings (size 3 to 8) (size 9 to 14) (size 15 to 20)
#    0.000    1.500    2.500    4.875    1.750    3.000 
#    4.500    1.250    0.000    0.000    0.000    0.000 
#    0.000    0.000    0.000    0.000    0.000    0.000 
#
# Total GULP energy -178550.617455 kJ/mol
# GULP energy per Si atom -5579.706795 kJ/mol
# Density = 2.073432 g / cm^3
# Si number density = 20.781617 Si / 1000 Ang^3
#
#
#
# Elastic Constant Matrix: (Units=GPa)
#
#
# Indices 1 2 3 4 5 6 
#
# 1 66.9186 3.0925 14.9770 0.0000 -25.7759 0.0000
# 2 3.0925 41.7161 10.8385 0.0000 -13.5796 0.0000
# 3 14.9770 10.8385 94.0776 0.0000 -8.7060 0.0000
# 4 0.0000 0.0000 0.0000 17.5751 0.0000 -3.3633
# 5 -25.7759 -13.5796 -8.7060 0.0000 35.3378 0.0000
# 6 0.0000 0.0000 0.0000 -3.3633 0.0000 8.7061
#
#
#
# Elastic Compliance Matrix: (Units=1/GPa)
#
#
# Indices 1 2 3 4 5 6 
#
# 1 0.021866 0.004579 -0.002425 0.000000 0.017111 0.000000
# 2 0.004579 0.028824 -0.002779 0.000000 0.013732 0.000000
# 3 -0.002425 -0.002779 0.011332 0.000000 -0.000045 0.000000
# 4 0.000000 0.000000 0.000000 0.061441 0.000000 0.023736
# 5 0.017111 0.013732 -0.000045 0.000000 0.046046 0.000000
# 6 0.000000 0.000000 0.000000 0.023736 0.000000 0.124032
#
#
# Mechanical properties :
#
#
# Convention : Reuss Voigt Hill
#
# Bulk Modulus (GPa) = 16.45494 28.94759 22.70127
# Shear Modulus (GPa) = 15.87064 23.91074 19.89069
#
# Velocity S-wave (km/s) = 2.76649 3.39569 3.09711
# Velocity P-wave (km/s) = 4.25909 5.41608 4.87205
#
# Compressibility (1/GPa) = 0.06077201
#
# Stress axis : x y z
#
# Youngs Moduli (GPa) = 45.73370 34.69298 88.24895
#
# Poissons Ratio (x) = -0.15887 0.21401
# Poissons Ratio (y) = -0.20943 0.24525
# Poissons Ratio (z) = 0.11091 0.09641
#
# Static dielectric constant tensor:
#      x y z
#    x 1.735190 0.000000 -0.012380 
#    y 0.000000 1.731340 0.000000 
#    z -0.012380 0.000000 1.815710 
# 
# From -- ./inp_files/96720.got.cif
#   From: 2010.05.17/outbox.cif.g08.bks.cpg/sg13_49_cif.got.tgz:96720.got - 2010.06.03 16:44:36.
