data_PCOD9229756
_publ_section_title
;
Structure prediction by ZEFSAII (Michael W. Deem and Ramdas Pophale) SiO2 
 PCOD9229756
Probable space group: P 2/C
;
_chemical_formula_sum "Si O2"
_cell_formula_units_Z 32
_cell_length_a 16.874580
_cell_length_b 20.434268
_cell_length_c 16.535480
_cell_angle_alpha 90.000000
_cell_angle_beta 17.179541
_cell_angle_gamma 90.000000
_cell_volume 1684.111040
_symmetry_space_group_name_H-M "P 2/C"
_symmetry_group_IT_number 13
_symmetry_cell_setting 'monoclinic'
loop_
_space_group_symop_operation_xyz
x,y,z
-x,y,1/2-z
-x,-y,-z
x,-y,1/2+z
loop_
_atom_site_type_symbol
_atom_site_label
_atom_site_fract_x
_atom_site_fract_y
_atom_site_fract_z
Si Si1 0.508701 0.294085 0.331149
Si Si2 0.605736 0.836252 0.476128
Si Si3 0.223178 0.512620 0.473142
Si Si4 0.441190 0.065022 0.002586
Si Si5 0.123147 0.114386 0.544973
Si Si6 0.036287 0.377222 0.838633
Si Si7 0.909665 0.042424 0.427547
Si Si8 0.745992 0.545413 0.232103
O O1 0.500000 0.263172 0.250000
O O2 0.429310 0.240708 0.475380
O O3 0.278721 0.349340 0.549159
O O4 0.793850 0.325650 0.075687
O O5 0.499309 0.871344 0.499719
O O6 0.915307 0.855665 0.183576
O O7 0.422389 0.867304 0.726892
O O8 0.500000 0.501003 0.250000
O O9 0.092478 0.444274 0.569572
O O10 0.277665 0.555679 0.340365
O O11 0.000000 0.542176 0.750000
O O12 0.137384 0.061543 0.269412
O O13 0.628551 0.063994 0.740288
O O14 0.500000 0.000000 0.000000
O O15 0.000000 0.138456 0.750000
O O16 0.102545 0.036350 0.564349
O O17 0.187227 0.393249 0.776142
O O18 0.000000 0.065207 0.250000
O O19 0.500000 0.500000 0.500000
O O20 0.000000 0.500000 0.000000
#
# Coordination Sequence:
#
# PCOD9229756 Si02
#       8
#     4   4   4   4   4   4   4   4
#     4  12  24  37  53  79 112 155 197 223 260 327
#     4  12  24  36  54  78 111 148 187 232 273 326
#     4  11  20  33  56  87 116 146 184 235 284 323
#     4  12  21  38  57  83 111 143 182 232 292 350
#     4  11  20  34  52  76 110 143 173 217 278 334
#     4  11  22  37  55  77 115 159 193 223 266 329
#     4  11  22  36  57  83 107 139 178 222 287 357
#     4  10  20  34  54  82 113 148 189 232 281 326
#
# _framework density 19.001121999999999
#
# number of rings (size 3 to 8) (size 9 to 14) (size 15 to 20)
#    0.000    0.750    2.500    8.625    0.000    2.000 
#    0.000    0.000    0.000    0.000    0.000    8.750 
#    0.000    0.000    0.000    0.000    0.000    0.000 
#
# Total GULP energy -178722.474858 kJ/mol
# GULP energy per Si atom -5585.077339 kJ/mol
# Density = 1.895787 g / cm^3
# Si number density = 19.001122 Si / 1000 Ang^3
#
#
#
# Elastic Constant Matrix: (Units=GPa)
#
#
# Indices 1 2 3 4 5 6 
#
# 1 89.9878 26.5050 16.9602 0.0000 3.8799 0.0000
# 2 26.5050 42.7229 7.6939 0.0000 0.2724 0.0000
# 3 16.9602 7.6939 101.6205 0.0000 -3.5445 0.0000
# 4 0.0000 0.0000 0.0000 13.4035 0.0000 5.6198
# 5 3.8799 0.2724 -3.5445 0.0000 39.1099 0.0000
# 6 0.0000 0.0000 0.0000 5.6198 0.0000 25.4378
#
#
#
# Elastic Compliance Matrix: (Units=1/GPa)
#
#
# Indices 1 2 3 4 5 6 
#
# 1 0.013962 -0.008337 -0.001751 0.000000 -0.001486 0.000000
# 2 -0.008337 0.028713 -0.000763 0.000000 0.000558 0.000000
# 3 -0.001751 -0.000763 0.010229 0.000000 0.001106 0.000000
# 4 0.000000 0.000000 0.000000 0.082223 0.000000 -0.018165
# 5 -0.001486 0.000558 0.001106 0.000000 0.025813 0.000000
# 6 0.000000 0.000000 0.000000 -0.018165 0.000000 0.043325
#
#
# Mechanical properties :
#
#
# Convention : Reuss Voigt Hill
#
# Bulk Modulus (GPa) = 32.04923 37.40549 34.72736
# Shear Modulus (GPa) = 21.15344 27.80172 24.47758
#
# Velocity S-wave (km/s) = 3.34019 3.82928 3.59307
# Velocity P-wave (km/s) = 5.63733 6.26736 5.96068
#
# Compressibility (1/GPa) = 0.03120200
#
# Stress axis : x y z
#
# Youngs Moduli (GPa) = 71.62111 34.82747 97.76043
#
# Poissons Ratio (x) = 0.29037 0.17117
# Poissons Ratio (y) = 0.59713 0.07459
# Poissons Ratio (z) = 0.12540 0.02657
#
# Static dielectric constant tensor:
#      x y z
#    x 1.738240 0.000000 0.041930 
#    y 0.000000 1.649280 0.000000 
#    z 0.041930 0.000000 1.661240 
# 
# From -- ./inp_files/53980.got.cif
#   From: 2010.05.17/outbox.cif.g08.bks.cpg/sg13_27_cif.got.tgz:53980.got - 2010.06.03 16:44:36.
