data_PCOD9229130
_publ_section_title
;
Structure prediction by ZEFSAII (Michael W. Deem and Ramdas Pophale) SiO2 
 PCOD9229130
Probable space group: P 2/C
;
_chemical_formula_sum "Si O2"
_cell_formula_units_Z 24
_cell_length_a 15.400101
_cell_length_b 10.027706
_cell_length_c 14.675136
_cell_angle_alpha 90.000000
_cell_angle_beta 29.082551
_cell_angle_gamma 90.000000
_cell_volume 1101.553133
_symmetry_space_group_name_H-M "P 2/C"
_symmetry_group_IT_number 13
_symmetry_cell_setting 'monoclinic'
loop_
_space_group_symop_operation_xyz
x,y,z
-x,y,1/2-z
-x,-y,-z
x,-y,1/2+z
loop_
_atom_site_type_symbol
_atom_site_label
_atom_site_fract_x
_atom_site_fract_y
_atom_site_fract_z
Si Si1 0.116924 0.304811 0.470917
Si Si2 0.932693 0.996503 0.413377
Si Si3 0.562768 0.476281 0.289809
Si Si4 0.383271 0.094180 0.697540
Si Si5 0.733461 0.144120 0.311528
Si Si6 0.285365 0.350172 0.683223
O O1 0.088858 0.156772 0.536639
O O2 0.268665 0.381086 0.386670
O O3 0.206925 0.282258 0.288120
O O4 0.924572 0.373687 0.641059
O O5 0.000000 0.999363 0.250000
O O6 0.752896 0.081649 0.594372
O O7 0.087220 0.067091 0.329673
O O8 0.500000 0.532382 0.250000
O O9 0.406308 0.395509 0.486932
O O10 0.639502 0.577590 0.295053
O O11 0.585772 0.142704 0.526018
O O12 0.305609 0.194953 0.692437
O O13 0.369520 0.944143 0.670079
#
# Coordination Sequence:
#
# PCOD9229130 Si02
#       6
#     4   4   4   4   4   4
#     4  11  21  41  69  90 125 174 215 263 329 383
#     4  11  23  36  58 102 133 160 211 268 314 390
#     4  11  27  43  64  99 126 167 232 274 326 382
#     4  10  19  38  65  87 124 169 206 249 323 388
#     4  10  19  37  63  92 120 167 207 246 325 394
#     4  11  22  45  70  89 130 177 215 276 323 385
#
# _framework density 21.787419
#
# number of rings (size 3 to 8) (size 9 to 14) (size 15 to 20)
#    0.000    1.333    5.000    1.500    2.333    0.667 
#    3.000    0.000    0.000    0.000    0.000    0.000 
#    0.000    0.000    0.000    0.000    0.000    0.000 
#
# Total GULP energy -133897.890021 kJ/mol
# GULP energy per Si atom -5579.078751 kJ/mol
# Density = 2.173783 g / cm^3
# Si number density = 21.787419 Si / 1000 Ang^3
#
#
#
# Elastic Constant Matrix: (Units=GPa)
#
#
# Indices 1 2 3 4 5 6 
#
# 1 58.2718 -4.7074 38.5327 0.0000 13.2871 0.0000
# 2 -4.7074 23.0900 17.1257 0.0000 0.6277 0.0000
# 3 38.5327 17.1257 184.7227 0.0000 -4.8555 0.0000
# 4 0.0000 0.0000 0.0000 31.1579 0.0000 -9.3358
# 5 13.2871 0.6277 -4.8555 0.0000 30.5591 0.0000
# 6 0.0000 0.0000 0.0000 -9.3358 0.0000 15.1534
#
#
#
# Elastic Compliance Matrix: (Units=1/GPa)
#
#
# Indices 1 2 3 4 5 6 
#
# 1 0.025052 0.010255 -0.006495 0.000000 -0.012135 0.000000
# 2 0.010255 0.050787 -0.007022 0.000000 -0.006618 0.000000
# 3 -0.006495 -0.007022 0.007529 0.000000 0.004165 0.000000
# 4 0.000000 0.000000 0.000000 0.039360 0.000000 0.024249
# 5 -0.012135 -0.006618 0.004165 0.000000 0.038797 0.000000
# 6 0.000000 0.000000 0.000000 0.024249 0.000000 0.080931
#
#
# Mechanical properties :
#
#
# Convention : Reuss Voigt Hill
#
# Bulk Modulus (GPa) = 13.01344 40.88738 26.95041
# Shear Modulus (GPa) = 18.20857 29.71632 23.96245
#
# Velocity S-wave (km/s) = 2.89405 3.69714 3.31997
# Velocity P-wave (km/s) = 4.14165 6.08542 5.20507
#
# Compressibility (1/GPa) = 0.07684366
#
# Stress axis : x y z
#
# Youngs Moduli (GPa) = 39.91759 19.68992 132.82156
#
# Poissons Ratio (x) = -0.20192 0.86273
# Poissons Ratio (y) = -0.40935 0.93262
# Poissons Ratio (z) = 0.25928 0.13826
#
# Static dielectric constant tensor:
#      x y z
#    x 1.828100 0.000000 0.023560 
#    y 0.000000 1.815100 0.000000 
#    z 0.023560 0.000000 1.907740 
# 
# From -- ./inp_files/53616.got.cif
#   From: 2010.05.17/outbox.cif.g08.bks.cpg/sg13_27_cif.got.tgz:53616.got - 2010.06.03 16:44:36.
