data_PCOD9229127
_publ_section_title
;
Structure prediction by ZEFSAII (Michael W. Deem and Ramdas Pophale) SiO2 
 PCOD9229127
Probable space group: P 2/C
;
_chemical_formula_sum "Si O2"
_cell_formula_units_Z 22
_cell_length_a 12.299080
_cell_length_b 11.777423
_cell_length_c 9.929924
_cell_angle_alpha 90.000000
_cell_angle_beta 131.610886
_cell_angle_gamma 90.000000
_cell_volume 1075.424441
_symmetry_space_group_name_H-M "P 2/C"
_symmetry_group_IT_number 13
_symmetry_cell_setting 'monoclinic'
loop_
_space_group_symop_operation_xyz
x,y,z
-x,y,1/2-z
-x,-y,-z
x,-y,1/2+z
loop_
_atom_site_type_symbol
_atom_site_label
_atom_site_fract_x
_atom_site_fract_y
_atom_site_fract_z
Si Si1 0.174534 0.760041 0.401968
Si Si2 0.710857 0.477356 0.563478
Si Si3 0.758447 0.201830 0.842553
Si Si4 0.500000 0.354584 0.750000
Si Si5 0.125315 0.572222 0.036965
Si Si6 0.107366 0.018773 0.964894
O O1 0.274261 0.647909 0.492219
O O2 0.230316 0.816768 0.308407
O O3 0.000000 0.727687 0.250000
O O4 0.180846 0.857149 0.519823
O O5 0.576880 0.559259 0.419076
O O6 0.837806 0.540004 0.584172
O O7 0.745546 0.458833 0.748929
O O8 0.618785 0.271482 0.779631
O O9 0.889952 0.292396 0.971960
O O10 0.781265 0.085251 0.938931
O O11 0.000000 0.500000 0.000000
O O12 0.000000 0.014567 0.750000
O O13 0.000000 0.000000 0.000000
#
# Coordination Sequence:
#
# PCOD9229127 Si02
#       6
#     4   4   4   2   4   4
#     4  10  19  37  63  89 123 155 203 267 326 362
#     4  10  21  37  59  85 123 167 200 253 310 373
#     4  10  21  39  58  88 126 165 202 262 302 374
#     4  10  24  42  60  88 132 176 216 244 302 390
#     4  10  20  34  60  90 122 151 207 264 325 362
#     4  11  21  38  66  94 123 156 206 266 333 363
#
# _framework density 20.457039999999999
#
# number of rings (size 3 to 8) (size 9 to 14) (size 15 to 20)
#    0.000    1.818    3.636    2.727    0.000    9.455 
#    0.000    1.818    0.000    0.000    0.000    0.000 
#    0.000    0.000    0.000    0.000    0.000    0.000 
#
# Total GULP energy -122495.087158 kJ/mol
# GULP energy per Si atom -5567.958507 kJ/mol
# Density = 2.041048 g / cm^3
# Si number density = 20.457040 Si / 1000 Ang^3
#
#
#
# Elastic Constant Matrix: (Units=GPa)
#
#
# Indices 1 2 3 4 5 6 
#
# 1 94.0249 24.4074 16.6305 0.0000 7.2936 0.0000
# 2 24.4074 128.4665 18.7593 0.0000 20.9989 0.0000
# 3 16.6305 18.7593 37.4068 0.0000 6.9172 0.0000
# 4 0.0000 0.0000 0.0000 37.1444 0.0000 0.9649
# 5 7.2936 20.9989 6.9172 0.0000 35.1172 0.0000
# 6 0.0000 0.0000 0.0000 0.9649 0.0000 44.5804
#
#
#
# Elastic Compliance Matrix: (Units=1/GPa)
#
#
# Indices 1 2 3 4 5 6 
#
# 1 0.011855 -0.001496 -0.004390 0.000000 -0.000703 0.000000
# 2 -0.001496 0.009282 -0.003135 0.000000 -0.004622 0.000000
# 3 -0.004390 -0.003135 0.030866 0.000000 -0.003294 0.000000
# 4 0.000000 0.000000 0.000000 0.026937 0.000000 -0.000583
# 5 -0.000703 -0.004622 -0.003294 0.000000 0.032035 0.000000
# 6 0.000000 0.000000 0.000000 -0.000583 0.000000 0.022444
#
#
# Mechanical properties :
#
#
# Convention : Reuss Voigt Hill
#
# Bulk Modulus (GPa) = 29.44640 42.16583 35.80611
# Shear Modulus (GPa) = 30.71616 36.70847 33.71231
#
# Velocity S-wave (km/s) = 3.87912 4.24065 4.06391
# Velocity P-wave (km/s) = 5.87273 6.68088 6.28980
#
# Compressibility (1/GPa) = 0.03396001
#
# Stress axis : x y z
#
# Youngs Moduli (GPa) = 84.35314 107.73930 32.39811
#
# Poissons Ratio (x) = 0.16122 0.14223
# Poissons Ratio (y) = 0.12623 0.10156
# Poissons Ratio (z) = 0.37032 0.33774
#
# Static dielectric constant tensor:
#      x y z
#    x 1.628410 0.000000 0.058440 
#    y 0.000000 1.795020 0.000000 
#    z 0.058440 0.000000 1.787410 
# 
# From -- ./inp_files/36987.got.cif
#   From: 2010.05.17/outbox.cif.g08.bks.cpg/sg13_19_cif.got.tgz:36987.got - 2010.06.03 16:44:36.
