data_PCOD9229460
_publ_section_title
;
Structure prediction by ZEFSAII (Michael W. Deem and Ramdas Pophale) SiO2 
 PCOD9229460
Probable space group: P 2/C
;
_chemical_formula_sum "Si O2"
_cell_formula_units_Z 26
_cell_length_a 8.925566
_cell_length_b 17.353949
_cell_length_c 13.386293
_cell_angle_alpha 90.000000
_cell_angle_beta 39.038927
_cell_angle_gamma 90.000000
_cell_volume 1305.961370
_symmetry_space_group_name_H-M "P 2/C"
_symmetry_group_IT_number 13
_symmetry_cell_setting 'monoclinic'
loop_
_space_group_symop_operation_xyz
x,y,z
-x,y,1/2-z
-x,-y,-z
x,-y,1/2+z
loop_
_atom_site_type_symbol
_atom_site_label
_atom_site_fract_x
_atom_site_fract_y
_atom_site_fract_z
Si Si1 0.723625 0.691663 0.062767
Si Si2 0.409639 0.439855 0.629189
Si Si3 0.000000 0.234002 0.750000
Si Si4 0.000000 0.979094 0.750000
Si Si5 0.273253 0.891293 0.223413
Si Si6 0.188827 0.134571 0.992795
Si Si7 0.945609 0.360297 0.930701
Si Si8 0.500000 0.552898 0.750000
O O1 0.500000 0.713323 0.250000
O O2 0.607365 0.627011 0.049785
O O3 0.823352 0.774030 0.975309
O O4 0.921894 0.655307 0.032511
O O5 0.500000 0.500000 0.500000
O O6 0.368546 0.494767 0.744923
O O7 0.152221 0.400339 0.756003
O O8 0.204031 0.182615 0.693819
O O9 0.105213 0.283462 0.604854
O O10 0.035912 0.921502 0.639311
O O11 0.802104 0.037419 0.807327
O O12 0.545382 0.890398 0.113908
O O13 0.143316 0.881557 0.398676
O O14 0.698616 0.401595 0.084477
#
# Coordination Sequence:
#
# PCOD9229460 Si02
#       8
#     4   4   2   2   4   4   4   2
#     4  10  19  41  68  84 118 174 213 258 316 387
#     4  11  23  41  66  93 121 169 222 266 326 391
#     4  11  20  40  66  93 110 166 226 253 308 394
#     4  11  24  36  60 103 126 156 210 269 320 386
#     4  10  21  39  67  87 125 169 209 256 321 389
#     4  11  20  42  64  89 126 168 208 259 320 385
#     4  11  22  41  62  88 129 162 214 271 324 386
#     4  12  24  40  58  90 132 164 202 278 334 388
#
# _framework density 19.908705000000001
#
# number of rings (size 3 to 8) (size 9 to 14) (size 15 to 20)
#    0.000    1.231    5.385    3.231    0.000    0.000 
#    5.538    0.000    0.000    0.000    0.000    0.000 
#    0.000    0.000    0.000    0.000    0.000    0.000 
#
# Total GULP energy -144859.803177 kJ/mol
# GULP energy per Si atom -5571.530891 kJ/mol
# Density = 1.986339 g / cm^3
# Si number density = 19.908705 Si / 1000 Ang^3
#
#
#
# Elastic Constant Matrix: (Units=GPa)
#
#
# Indices 1 2 3 4 5 6 
#
# 1 94.3777 38.9392 9.5078 0.0000 -2.5216 0.0000
# 2 38.9392 132.9061 30.3618 0.0000 6.9310 0.0000
# 3 9.5078 30.3618 29.5652 0.0000 1.7221 0.0000
# 4 0.0000 0.0000 0.0000 42.7755 0.0000 28.7329
# 5 -2.5216 6.9310 1.7221 0.0000 24.1453 0.0000
# 6 0.0000 0.0000 0.0000 28.7329 0.0000 40.6077
#
#
#
# Elastic Compliance Matrix: (Units=1/GPa)
#
#
# Indices 1 2 3 4 5 6 
#
# 1 0.012183 -0.003613 -0.000344 0.000000 0.002334 0.000000
# 2 -0.003613 0.011010 -0.009980 0.000000 -0.002826 0.000000
# 3 -0.000344 -0.009980 0.044202 0.000000 -0.000324 0.000000
# 4 0.000000 0.000000 0.000000 0.044553 0.000000 -0.031525
# 5 0.002334 -0.002826 -0.000324 0.000000 0.042494 0.000000
# 6 0.000000 0.000000 0.000000 -0.031525 0.000000 0.046932
#
#
# Mechanical properties :
#
#
# Convention : Reuss Voigt Hill
#
# Bulk Modulus (GPa) = 25.30257 46.05183 35.67720
# Shear Modulus (GPa) = 20.62523 33.37506 27.00014
#
# Velocity S-wave (km/s) = 3.22217 4.09883 3.68665
# Velocity P-wave (km/s) = 5.15559 6.75147 6.00676
#
# Compressibility (1/GPa) = 0.03952167
#
# Stress axis : x y z
#
# Youngs Moduli (GPa) = 82.07986 90.82808 22.62344
#
# Poissons Ratio (x) = 0.32813 0.00778
# Poissons Ratio (y) = 0.29652 0.22578
# Poissons Ratio (z) = 0.02824 0.90647
#
# Static dielectric constant tensor:
#      x y z
#    x 1.276090 0.000000 -0.159340 
#    y 0.000000 1.723820 0.000000 
#    z -0.159340 0.000000 1.567050 
# 
# From -- ./inp_files/47906.got.cif
#   From: 2010.05.17/outbox.cif.g08.bks.cpg/sg13_24_cif.got.tgz:47906.got - 2010.06.03 16:44:36.
