data_PCOD9229733
_publ_section_title
;
Structure prediction by ZEFSAII (Michael W. Deem and Ramdas Pophale) SiO2 
 PCOD9229733
Probable space group: P 2/C
;
_chemical_formula_sum "Si O2"
_cell_formula_units_Z 20
_cell_length_a 8.486938
_cell_length_b 5.386918
_cell_length_c 26.098271
_cell_angle_alpha 90.000000
_cell_angle_beta 137.822392
_cell_angle_gamma 90.000000
_cell_volume 801.132837
_symmetry_space_group_name_H-M "P 2/C"
_symmetry_group_IT_number 13
_symmetry_cell_setting 'monoclinic'
loop_
_space_group_symop_operation_xyz
x,y,z
-x,y,1/2-z
-x,-y,-z
x,-y,1/2+z
loop_
_atom_site_type_symbol
_atom_site_label
_atom_site_fract_x
_atom_site_fract_y
_atom_site_fract_z
Si Si1 0.284207 0.759298 0.418869
Si Si2 0.873215 0.811523 0.929719
Si Si3 0.128578 0.475892 0.726380
Si Si4 0.828525 0.976589 0.805396
Si Si5 0.678589 0.472991 0.468473
O O1 0.093525 0.540906 0.365510
O O2 0.113137 0.987773 0.366835
O O3 0.492398 0.692820 0.431190
O O4 0.365277 0.727390 0.496730
O O5 0.674678 0.669212 0.914087
O O6 0.797329 0.943244 0.858745
O O7 0.067913 0.600736 0.965097
O O8 0.000000 0.000000 0.000000
O O9 0.268323 0.228099 0.743866
O O10 0.000000 0.457556 0.750000
O O11 0.248783 0.733180 0.742918
#
# Coordination Sequence:
#
# PCOD9229733 Si02
#       5
#     4   4   4   4   4
#     4   9  20  35  54  86 113 148 188 235 280 338
#     4  11  19  32  52  83 117 154 182 224 290 354
#     4  10  20  37  59  83 106 144 195 244 282 326
#     4  10  20  35  56  84 112 145 191 236 285 338
#     4  10  20  34  53  83 121 150 182 229 289 349
#
# _framework density 24.964649000000001
#
# number of rings (size 3 to 8) (size 9 to 14) (size 15 to 20)
#    1.200    0.800    4.000    0.600    2.800    2.400 
#    0.000    0.000    0.000    1.200    0.000    0.000 
#    0.000    0.000    0.000    0.000    0.000    0.000 
#
# Total GULP energy -111613.267781 kJ/mol
# GULP energy per Si atom -5580.663389 kJ/mol
# Density = 2.490783 g / cm^3
# Si number density = 24.964649 Si / 1000 Ang^3
#
#
#
# Elastic Constant Matrix: (Units=GPa)
#
#
# Indices 1 2 3 4 5 6 
#
# 1 98.6974 32.3286 38.4218 0.0000 -24.8536 0.0000
# 2 32.3286 176.8238 51.5068 0.0000 -34.5235 0.0000
# 3 38.4218 51.5068 95.0734 0.0000 -32.3725 0.0000
# 4 0.0000 0.0000 0.0000 15.9772 0.0000 -21.7541
# 5 -24.8536 -34.5235 -32.3725 0.0000 45.8300 0.0000
# 6 0.0000 0.0000 0.0000 -21.7541 0.0000 23.8240
#
#
#
# Elastic Compliance Matrix: (Units=1/GPa)
#
#
# Indices 1 2 3 4 5 6 
#
# 1 0.012666 -0.000520 -0.003465 0.000000 0.004030 0.000000
# 2 -0.000520 0.007132 -0.002529 0.000000 0.003305 0.000000
# 3 -0.003465 -0.002529 0.015800 0.000000 0.007377 0.000000
# 4 0.000000 0.000000 0.000000 -0.257286 0.000000 -0.234932
# 5 0.004030 0.003305 0.007377 0.000000 0.031705 0.000000
# 6 0.000000 0.000000 0.000000 -0.234932 0.000000 -0.172545
#
#
# Mechanical properties :
#
#
# Convention : Reuss Voigt Hill
#
# Bulk Modulus (GPa) = 44.30338 68.34544 56.32441
# Shear Modulus (GPa) = -14.62083 33.68206 9.53062
#
# Velocity S-wave (km/s) = -2.42267 3.67712 1.95600
# Velocity P-wave (km/s) = 3.15582 6.74274 5.26421
#
# Compressibility (1/GPa) = 0.02257164
#
# Stress axis : x y z
#
# Youngs Moduli (GPa) = 78.95269 140.21053 63.29040
#
# Poissons Ratio (x) = 0.07285 0.21930
# Poissons Ratio (y) = 0.04102 0.16004
# Poissons Ratio (z) = 0.27357 0.35455
#
# Static dielectric constant tensor:
#      x y z
#    x 1.984720 0.000000 -0.006200 
#    y 0.000000 2.029230 0.000000 
#    z -0.006200 0.000000 1.993100 
# 
# From -- ./inp_files/83994.got.cif
#   From: 2010.05.17/outbox.cif.g08.bks.cpg/sg13_42_cif.got.tgz:83994.got - 2010.06.03 16:44:36.
