data_PCOD9229163
_publ_section_title
;
Structure prediction by ZEFSAII (Michael W. Deem and Ramdas Pophale) SiO2 
 PCOD9229163
Probable space group: P 2/C
;
_chemical_formula_sum "Si O2"
_cell_formula_units_Z 28
_cell_length_a 11.633923
_cell_length_b 15.837068
_cell_length_c 9.503832
_cell_angle_alpha 90.000000
_cell_angle_beta 126.237792
_cell_angle_gamma 90.000000
_cell_volume 1412.349212
_symmetry_space_group_name_H-M "P 2/C"
_symmetry_group_IT_number 13
_symmetry_cell_setting 'monoclinic'
loop_
_space_group_symop_operation_xyz
x,y,z
-x,y,1/2-z
-x,-y,-z
x,-y,1/2+z
loop_
_atom_site_type_symbol
_atom_site_label
_atom_site_fract_x
_atom_site_fract_y
_atom_site_fract_z
Si Si1 0.365817 0.098026 0.962737
Si Si2 0.978409 0.087675 0.398967
Si Si3 0.671084 0.068846 0.241383
Si Si4 0.888316 0.788966 0.292032
Si Si5 0.781479 0.393278 0.741315
Si Si6 0.527135 0.585898 0.434981
Si Si7 0.164133 0.442850 0.400599
O O1 0.264117 0.175676 0.864474
O O2 0.334127 0.024193 0.829233
O O3 0.532900 0.116899 0.084301
O O4 0.335163 0.061656 0.095638
O O5 0.815128 0.113123 0.302476
O O6 0.000000 0.073233 0.250000
O O7 0.071531 0.160435 0.537707
O O8 0.000000 0.000000 0.500000
O O9 0.878748 0.689175 0.302144
O O10 0.000000 0.812019 0.250000
O O11 0.614407 0.363401 0.618343
O O12 0.815085 0.462385 0.645888
O O13 0.812860 0.436906 0.914978
O O14 0.500000 0.572325 0.250000
O O15 0.500000 0.500000 0.500000
O O16 0.697095 0.606712 0.566605
O O17 0.000000 0.416102 0.250000
#
# Coordination Sequence:
#
# PCOD9229163 Si02
#       7
#     4   4   4   4   4   4   4
#     4  10  21  37  64  88 124 164 210 254 304 372
#     4  12  23  39  64  93 126 169 211 256 312 376
#     4  10  20  38  62  90 122 165 213 246 302 376
#     4  12  24  41  61  92 127 166 210 269 317 371
#     4  10  22  39  63  89 122 163 209 261 322 381
#     4   8  16  33  58  83 112 150 196 245 303 383
#     4  10  19  37  65  88 115 156 207 258 318 387
#
# _framework density 19.825125
#
# number of rings (size 3 to 8) (size 9 to 14) (size 15 to 20)
#    0.000    1.714    2.857    2.143    0.000    0.571 
#    0.000    5.714   31.429    0.000    0.000    0.000 
#    0.000    0.000    0.000    0.000    0.000    0.000 
#
# Total GULP energy -156045.948248 kJ/mol
# GULP energy per Si atom -5573.069580 kJ/mol
# Density = 1.978000 g / cm^3
# Si number density = 19.825125 Si / 1000 Ang^3
#
#
#
# Elastic Constant Matrix: (Units=GPa)
#
#
# Indices 1 2 3 4 5 6 
#
# 1 103.0944 12.5325 44.7170 0.0000 25.3273 0.0000
# 2 12.5325 62.1878 43.8852 0.0000 -4.6635 0.0000
# 3 44.7170 43.8852 94.3014 0.0000 4.5456 0.0000
# 4 0.0000 0.0000 0.0000 30.7767 0.0000 3.6982
# 5 25.3273 -4.6635 4.5456 0.0000 38.9238 0.0000
# 6 0.0000 0.0000 0.0000 3.6982 0.0000 25.0260
#
#
#
# Elastic Compliance Matrix: (Units=1/GPa)
#
#
# Indices 1 2 3 4 5 6 
#
# 1 0.014798 0.001539 -0.007319 0.000000 -0.008590 0.000000
# 2 0.001539 0.024804 -0.012438 0.000000 0.003423 0.000000
# 3 -0.007319 -0.012438 0.019817 0.000000 0.000958 0.000000
# 4 0.000000 0.000000 0.000000 0.033079 0.000000 -0.004888
# 5 -0.008590 0.003423 0.000958 0.000000 0.031579 0.000000
# 6 0.000000 0.000000 0.000000 -0.004888 0.000000 0.040681
#
#
# Mechanical properties :
#
#
# Convention : Reuss Voigt Hill
#
# Bulk Modulus (GPa) = 43.51137 51.31702 47.41419
# Shear Modulus (GPa) = 23.94015 29.50856 26.72435
#
# Velocity S-wave (km/s) = 3.47878 3.86222 3.67550
# Velocity P-wave (km/s) = 6.17504 6.76979 6.47924
#
# Compressibility (1/GPa) = 0.02298250
#
# Stress axis : x y z
#
# Youngs Moduli (GPa) = 67.57876 40.31596 50.46221
#
# Poissons Ratio (x) = -0.06203 0.36933
# Poissons Ratio (y) = -0.10397 0.62763
# Poissons Ratio (z) = 0.49460 0.50144
#
# Static dielectric constant tensor:
#      x y z
#    x 1.774320 0.000000 0.050580 
#    y 0.000000 1.684560 0.000000 
#    z 0.050580 0.000000 1.707100 
# 
# From -- ./inp_files/16848.got.cif
#   From: 2010.05.17/outbox.cif.g08.bks.cpg/sg13_9_cif.got.tgz:16848.got - 2010.06.03 16:44:36.
