data_PCOD9229720
_publ_section_title
;
Structure prediction by ZEFSAII (Michael W. Deem and Ramdas Pophale) SiO2 
 PCOD9229720
Probable space group: P 2/C
;
_chemical_formula_sum "Si O2"
_cell_formula_units_Z 32
_cell_length_a 5.654381
_cell_length_b 15.979750
_cell_length_c 13.938269
_cell_angle_alpha 90.000000
_cell_angle_beta 78.463214
_cell_angle_gamma 90.000000
_cell_volume 1233.956287
_symmetry_space_group_name_H-M "P 2/C"
_symmetry_group_IT_number 13
_symmetry_cell_setting 'monoclinic'
loop_
_space_group_symop_operation_xyz
x,y,z
-x,y,1/2-z
-x,-y,-z
x,-y,1/2+z
loop_
_atom_site_type_symbol
_atom_site_label
_atom_site_fract_x
_atom_site_fract_y
_atom_site_fract_z
Si Si1 0.575659 0.792312 0.132311
Si Si2 0.320487 0.411999 0.027453
Si Si3 0.439673 0.990980 0.368023
Si Si4 0.947436 0.735371 0.868261
Si Si5 0.075711 0.726386 0.139020
Si Si6 0.060182 0.930873 0.631030
Si Si7 0.922581 0.544252 0.133090
Si Si8 0.664966 0.606641 0.655074
O O1 0.500000 0.773790 0.250000
O O2 0.576150 0.891654 0.117845
O O3 0.345530 0.755660 0.093438
O O4 0.849061 0.759218 0.095246
O O5 0.558012 0.433869 0.067115
O O6 0.272934 0.321759 0.080444
O O7 0.110641 0.476771 0.075087
O O8 0.279663 0.410798 0.917786
O O9 0.500000 0.005546 0.250000
O O10 0.674416 0.028296 0.403515
O O11 0.174007 0.031013 0.403254
O O12 0.163765 0.680574 0.894903
O O13 0.000000 0.727967 0.750000
O O14 0.926805 0.832312 0.891338
O O15 0.000000 0.761499 0.250000
O O16 0.073561 0.625547 0.149294
O O17 0.000000 0.939914 0.750000
O O18 0.774189 0.474540 0.204446
O O19 0.500000 0.645594 0.750000
#
# Coordination Sequence:
#
# PCOD9229720 Si02
#       8
#     4   4   4   4   4   4   4   4
#     4   9  18  33  52  80 115 146 184 234 296 341
#     4  10  22  41  55  77 116 150 191 239 286 342
#     4   9  16  29  48  77 113 149 177 226 291 345
#     4  10  20  34  52  84 113 149 188 235 286 338
#     4  10  21  34  56  83 112 146 190 244 284 343
#     4   9  18  27  49  79 114 146 184 228 280 345
#     4  10  24  38  56  82 110 150 198 236 287 343
#     4  11  22  34  61  80 113 151 188 241 288 342
#
# _framework density 25.932849000000001
#
# number of rings (size 3 to 8) (size 9 to 14) (size 15 to 20)
#    0.000    2.250    1.250    1.125    5.250    4.000 
#    0.000    0.000    0.000    0.000    0.000    5.250 
#    0.000    0.000    0.000    0.000    0.000    0.000 
#
# Total GULP energy -178594.565693 kJ/mol
# GULP energy per Si atom -5581.080178 kJ/mol
# Density = 2.587382 g / cm^3
# Si number density = 25.932849 Si / 1000 Ang^3
#
#
#
# Elastic Constant Matrix: (Units=GPa)
#
#
# Indices 1 2 3 4 5 6 
#
# 1 195.6634 111.0220 17.9846 0.0000 13.2848 0.0000
# 2 111.0220 153.6449 1.1831 0.0000 9.0870 0.0000
# 3 17.9846 1.1831 63.2152 0.0000 12.4804 0.0000
# 4 0.0000 0.0000 0.0000 19.7664 0.0000 1.5665
# 5 13.2848 9.0870 12.4804 0.0000 43.0701 0.0000
# 6 0.0000 0.0000 0.0000 1.5665 0.0000 45.7850
#
#
#
# Elastic Compliance Matrix: (Units=1/GPa)
#
#
# Indices 1 2 3 4 5 6 
#
# 1 0.009048 -0.006476 -0.002304 0.000000 -0.000757 0.000000
# 2 -0.006476 0.011227 0.001809 0.000000 -0.000895 0.000000
# 3 -0.002304 0.001809 0.017369 0.000000 -0.004704 0.000000
# 4 0.000000 0.000000 0.000000 0.050729 0.000000 -0.001736
# 5 -0.000757 -0.000895 -0.004704 0.000000 0.025004 0.000000
# 6 0.000000 0.000000 0.000000 -0.001736 0.000000 0.021901
#
#
# Mechanical properties :
#
#
# Convention : Reuss Voigt Hill
#
# Bulk Modulus (GPa) = 42.18723 74.76697 58.47710
# Shear Modulus (GPa) = 31.82301 40.54653 36.18477
#
# Velocity S-wave (km/s) = 3.50684 3.95843 3.73946
# Velocity P-wave (km/s) = 5.71843 7.05590 6.42208
#
# Compressibility (1/GPa) = 0.02370385
#
# Stress axis : x y z
#
# Youngs Moduli (GPa) = 110.51701 89.07228 57.57308
#
# Poissons Ratio (x) = 0.57681 0.13262
# Poissons Ratio (y) = 0.71568 -0.10415
# Poissons Ratio (z) = 0.25458 -0.16113
#
# Static dielectric constant tensor:
#      x y z
#    x 2.139910 0.000000 0.052070 
#    y 0.000000 1.965070 0.000000 
#    z 0.052070 0.000000 2.197750 
# 
# From -- ./inp_files/61606.got.cif
#   From: 2010.05.17/outbox.cif.g08.bks.cpg/sg13_31_cif.got.tgz:61606.got - 2010.06.03 16:44:36.
