data_PCOD9229455
_publ_section_title
;
Structure prediction by ZEFSAII (Michael W. Deem and Ramdas Pophale) SiO2 
 PCOD9229455
Probable space group: P 2/C
;
_chemical_formula_sum "Si O2"
_cell_formula_units_Z 18
_cell_length_a 16.640255
_cell_length_b 5.126377
_cell_length_c 13.816512
_cell_angle_alpha 90.000000
_cell_angle_beta 33.324374
_cell_angle_gamma 90.000000
_cell_volume 647.501024
_symmetry_space_group_name_H-M "P 2/C"
_symmetry_group_IT_number 13
_symmetry_cell_setting 'monoclinic'
loop_
_space_group_symop_operation_xyz
x,y,z
-x,y,1/2-z
-x,-y,-z
x,-y,1/2+z
loop_
_atom_site_type_symbol
_atom_site_label
_atom_site_fract_x
_atom_site_fract_y
_atom_site_fract_z
Si Si1 0.755829 0.797825 0.788011
Si Si2 0.000000 0.515058 0.750000
Si Si3 0.437944 0.650381 0.672296
Si Si4 0.179737 0.309197 0.893141
Si Si5 0.278637 0.830546 0.015244
O O1 0.821012 0.044207 0.664629
O O2 0.743781 0.893499 0.909589
O O3 0.159610 0.453237 0.336902
O O4 0.595460 0.751847 0.901606
O O5 0.934071 0.680539 0.904769
O O6 0.870813 0.325121 0.844404
O O7 0.605032 0.669850 0.535416
O O8 0.339067 0.390056 0.777267
O O9 0.353736 0.833709 0.834958
#
# Coordination Sequence:
#
# PCOD9229455 Si02
#       5
#     4   2   4   4   4
#     4  10  21  42  67  96 122 168 216 266 315 377
#     4  10  22  42  64  96 134 176 210 260 326 382
#     4   8  20  41  63  97 126 165 216 264 321 373
#     4   9  22  41  64  93 127 160 220 259 318 379
#     4  10  19  41  65  94 132 170 209 268 315 383
#
# _framework density 27.799182999999999
#
# number of rings (size 3 to 8) (size 9 to 14) (size 15 to 20)
#    1.333    1.333    0.000    0.667    0.000    3.556 
#    8.000    4.444    0.000    0.000    0.000    0.000 
#    0.000    0.000    0.000    0.000    0.000    0.000 
#
# Total GULP energy -100916.041057 kJ/mol
# GULP energy per Si atom -5606.446725 kJ/mol
# Density = 2.773591 g / cm^3
# Si number density = 27.799183 Si / 1000 Ang^3
#
#
#
# Elastic Constant Matrix: (Units=GPa)
#
#
# Indices 1 2 3 4 5 6 
#
# 1 125.3131 28.7237 50.7076 0.0000 5.1014 0.0000
# 2 28.7237 123.9082 28.7435 0.0000 -1.6385 0.0000
# 3 50.7076 28.7435 191.3447 0.0000 -4.4896 0.0000
# 4 0.0000 0.0000 0.0000 26.6259 0.0000 12.5673
# 5 5.1014 -1.6385 -4.4896 0.0000 68.3859 0.0000
# 6 0.0000 0.0000 0.0000 12.5673 0.0000 47.0298
#
#
#
# Elastic Compliance Matrix: (Units=1/GPa)
#
#
# Indices 1 2 3 4 5 6 
#
# 1 0.009299 -0.001648 -0.002237 0.000000 -0.000880 0.000000
# 2 -0.001648 0.008655 -0.000857 0.000000 0.000274 0.000000
# 3 -0.002237 -0.000857 0.005960 0.000000 0.000538 0.000000
# 4 0.000000 0.000000 0.000000 0.042978 0.000000 -0.011485
# 5 -0.000880 0.000274 0.000538 0.000000 0.014730 0.000000
# 6 0.000000 0.000000 0.000000 -0.011485 0.000000 0.024332
#
#
# Mechanical properties :
#
#
# Convention : Reuss Voigt Hill
#
# Bulk Modulus (GPa) = 69.30316 72.99062 71.14689
# Shear Modulus (GPa) = 41.58011 50.56774 46.07392
#
# Velocity S-wave (km/s) = 3.87166 4.26964 4.07551
# Velocity P-wave (km/s) = 6.70600 7.11476 6.91340
#
# Compressibility (1/GPa) = 0.01442936
#
# Stress axis : x y z
#
# Youngs Moduli (GPa) = 107.53873 115.54037 167.77350
#
# Poissons Ratio (x) = 0.19044 0.37537
# Poissons Ratio (y) = 0.17725 0.14377
# Poissons Ratio (z) = 0.24060 0.09901
#
# Static dielectric constant tensor:
#      x y z
#    x 2.197410 0.000000 -0.040960 
#    y 0.000000 2.152870 0.000000 
#    z -0.040960 0.000000 2.135210 
# 
# From -- ./inp_files/62125.got.cif
#   From: 2010.05.17/outbox.cif.g08.bks.cpg/sg13_32_cif.got.tgz:62125.got - 2010.06.03 16:44:36.
