data_PCOD9229534
_publ_section_title
;
Structure prediction by ZEFSAII (Michael W. Deem and Ramdas Pophale) SiO2 
 PCOD9229534
Probable space group: P 2/C
;
_chemical_formula_sum "Si O2"
_cell_formula_units_Z 20
_cell_length_a 13.712013
_cell_length_b 12.398586
_cell_length_c 17.857835
_cell_angle_alpha 90.000000
_cell_angle_beta 163.438040
_cell_angle_gamma 90.000000
_cell_volume 865.418854
_symmetry_space_group_name_H-M "P 2/C"
_symmetry_group_IT_number 13
_symmetry_cell_setting 'monoclinic'
loop_
_space_group_symop_operation_xyz
x,y,z
-x,y,1/2-z
-x,-y,-z
x,-y,1/2+z
loop_
_atom_site_type_symbol
_atom_site_label
_atom_site_fract_x
_atom_site_fract_y
_atom_site_fract_z
Si Si1 0.554260 0.913768 0.203657
Si Si2 0.869851 0.645879 0.959249
Si Si3 0.399894 0.246279 0.467563
Si Si4 0.866577 0.448231 0.288926
Si Si5 0.350959 0.852256 0.768690
O O1 0.500000 0.885844 0.250000
O O2 0.352271 0.840898 0.996613
O O3 0.952352 0.887174 0.480143
O O4 0.469140 0.039567 0.127345
O O5 0.244325 0.695164 0.250206
O O6 0.862589 0.546412 0.013057
O O7 0.860977 0.594572 0.869762
O O8 0.621835 0.748380 0.765299
O O9 0.114080 0.339735 0.246125
O O10 0.448506 0.185619 0.423886
O O11 0.500000 0.500000 0.000000
#
# Coordination Sequence:
#
# PCOD9229534 Si02
#       5
#     4   4   4   4   4
#     4  10  20  32  47  70  98 130 165 205 253 306
#     4   8  14  25  44  71  95 121 161 202 242 294
#     4   9  16  28  46  69  97 126 162 207 249 298
#     4   8  13  23  43  72  96 121 159 200 246 296
#     4   9  18  32  48  69  97 127 165 207 248 302
#
# _framework density 23.110195000000001
#
# number of rings (size 3 to 8) (size 9 to 14) (size 15 to 20)
#    0.000    3.200    0.000    0.600    0.000    0.800 
#    0.000    0.000    0.000    0.000    0.000  182.000 
#    0.000    0.000    0.000    0.000    0.000    0.000 
#
# Total GULP energy -111475.787901 kJ/mol
# GULP energy per Si atom -5573.789395 kJ/mol
# Density = 2.305760 g / cm^3
# Si number density = 23.110195 Si / 1000 Ang^3
#
#
#
# Elastic Constant Matrix: (Units=GPa)
#
#
# Indices 1 2 3 4 5 6 
#
# 1 85.1705 54.5300 33.6849 0.0000 -36.2526 0.0000
# 2 54.5300 189.8404 45.5600 0.0000 -48.1585 0.0000
# 3 33.6849 45.5600 106.4375 0.0000 -34.2276 0.0000
# 4 0.0000 0.0000 0.0000 21.0688 0.0000 -20.6621
# 5 -36.2526 -48.1585 -34.2276 0.0000 39.6220 0.0000
# 6 0.0000 0.0000 0.0000 -20.6621 0.0000 1.5675
#
#
#
# Elastic Compliance Matrix: (Units=1/GPa)
#
#
# Indices 1 2 3 4 5 6 
#
# 1 0.019565 -0.001544 -0.000523 0.000000 0.015573 0.000000
# 2 -0.001544 0.007749 -0.000351 0.000000 0.007703 0.000000
# 3 -0.000523 -0.000351 0.013043 0.000000 0.010361 0.000000
# 4 0.000000 0.000000 0.000000 -0.003979 0.000000 -0.052455
# 5 0.015573 0.007703 0.010361 0.000000 0.057800 0.000000
# 6 0.000000 0.000000 0.000000 -0.052455 0.000000 -0.053488
#
#
# Mechanical properties :
#
#
# Convention : Reuss Voigt Hill
#
# Bulk Modulus (GPa) = 28.15261 72.11091 50.13176
# Shear Modulus (GPa) = 87.15643 28.96322 58.05983
#
# Velocity S-wave (km/s) = 6.14779 3.54399 5.01773
# Velocity P-wave (km/s) = 7.91215 6.92945 7.43705
#
# Compressibility (1/GPa) = 0.03552068
#
# Stress axis : x y z
#
# Youngs Moduli (GPa) = 51.11154 129.04165 76.66826
#
# Poissons Ratio (x) = 0.19922 0.04011
# Poissons Ratio (y) = 0.07891 0.02695
# Poissons Ratio (z) = 0.02674 0.04536
#
# Static dielectric constant tensor:
#      x y z
#    x 1.781400 0.000000 -0.008550 
#    y 0.000000 1.954120 0.000000 
#    z -0.008550 0.000000 1.820520 
# 
# From -- ./inp_files/26163.got.cif
#   From: 2010.05.17/outbox.cif.g08.bks.cpg/sg13_14_cif.got.tgz:26163.got - 2010.06.03 16:44:36.
