data_PCOD9229923
_publ_section_title
;
Structure prediction by ZEFSAII (Michael W. Deem and Ramdas Pophale) SiO2 
 PCOD9229923
Probable space group: P 2/C
;
_chemical_formula_sum "Si O2"
_cell_formula_units_Z 26
_cell_length_a 10.941888
_cell_length_b 21.871633
_cell_length_c 5.476261
_cell_angle_alpha 90.000000
_cell_angle_beta 113.832851
_cell_angle_gamma 90.000000
_cell_volume 1198.808059
_symmetry_space_group_name_H-M "P 2/C"
_symmetry_group_IT_number 13
_symmetry_cell_setting 'monoclinic'
loop_
_space_group_symop_operation_xyz
x,y,z
-x,y,1/2-z
-x,-y,-z
x,-y,1/2+z
loop_
_atom_site_type_symbol
_atom_site_label
_atom_site_fract_x
_atom_site_fract_y
_atom_site_fract_z
Si Si1 0.647122 0.221974 0.249830
Si Si2 0.155075 0.024947 0.608894
Si Si3 0.920891 0.289425 0.943453
Si Si4 0.845891 0.538779 0.099725
Si Si5 0.314712 0.654409 0.450769
Si Si6 0.855170 0.156821 0.744152
Si Si7 0.500000 0.284770 0.750000
O O1 0.500000 0.211046 0.250000
O O2 0.704093 0.287304 0.388986
O O3 0.749584 0.172584 0.442295
O O4 0.611976 0.237984 0.942046
O O5 0.172922 0.097716 0.616856
O O6 0.214809 0.996319 0.414070
O O7 0.000000 0.000000 0.500000
O O8 0.796578 0.334539 0.844923
O O9 0.874802 0.218940 0.909550
O O10 0.000000 0.296057 0.750000
O O11 0.000000 0.302171 0.250000
O O12 0.833099 0.501223 0.342866
O O13 0.729727 0.589865 0.983347
O O14 0.000000 0.563447 0.250000
O O15 0.453077 0.670336 0.428847
O O16 0.000000 0.142513 0.750000
#
# Coordination Sequence:
#
# PCOD9229923 Si02
#       7
#     4   4   4   4   4   4   2
#     4   9  21  42  60  92 124 169 209 264 326 381
#     4  10  20  35  53  85 125 169 196 252 315 376
#     4  10  23  34  57  92 124 156 197 264 320 376
#     4  10  23  41  64  95 129 168 209 258 319 380
#     4  10  22  39  63  87 127 164 211 259 316 382
#     4  10  20  35  61  92 126 155 216 261 318 378
#     4  10  22  40  66  86 124 174 210 258 328 384
#
# _framework density 21.688210000000002
#
# number of rings (size 3 to 8) (size 9 to 14) (size 15 to 20)
#    0.000    2.154    1.538    0.462   10.769    2.462 
#    5.538    0.769    0.000    0.923    0.000    0.000 
#    0.000    0.000    0.000    0.000    0.000    0.000 
#
# Total GULP energy -144903.721397 kJ/mol
# GULP energy per Si atom -5573.220054 kJ/mol
# Density = 2.163885 g / cm^3
# Si number density = 21.688210 Si / 1000 Ang^3
#
#
#
# Elastic Constant Matrix: (Units=GPa)
#
#
# Indices 1 2 3 4 5 6 
#
# 1 51.9215 2.1977 10.8955 0.0000 4.1101 0.0000
# 2 2.1977 71.1308 3.0488 0.0000 2.9835 0.0000
# 3 10.8955 3.0488 104.9090 0.0000 0.5666 0.0000
# 4 0.0000 0.0000 0.0000 15.1735 0.0000 -0.0812
# 5 4.1101 2.9835 0.5666 0.0000 34.3330 0.0000
# 6 0.0000 0.0000 0.0000 -0.0812 0.0000 8.7214
#
#
#
# Elastic Compliance Matrix: (Units=1/GPa)
#
#
# Indices 1 2 3 4 5 6 
#
# 1 0.019889 -0.000430 -0.002041 0.000000 -0.002310 0.000000
# 2 -0.000430 0.014136 -0.000360 0.000000 -0.001171 0.000000
# 3 -0.002041 -0.000360 0.009754 0.000000 0.000115 0.000000
# 4 0.000000 0.000000 0.000000 0.065907 0.000000 0.000614
# 5 -0.002310 -0.001171 0.000115 0.000000 0.029503 0.000000
# 6 0.000000 0.000000 0.000000 0.000614 0.000000 0.114666
#
#
# Mechanical properties :
#
#
# Convention : Reuss Voigt Hill
#
# Bulk Modulus (GPa) = 26.23423 28.91616 27.57519
# Shear Modulus (GPa) = 18.36727 25.76687 22.06707
#
# Velocity S-wave (km/s) = 2.91327 3.45056 3.19324
# Velocity P-wave (km/s) = 4.84134 5.40710 5.13202
#
# Compressibility (1/GPa) = 0.03811814
#
# Stress axis : x y z
#
# Youngs Moduli (GPa) = 50.27877 70.73920 102.52372
#
# Poissons Ratio (x) = 0.03043 0.20921
# Poissons Ratio (y) = 0.02163 0.03689
# Poissons Ratio (z) = 0.10260 0.02545
#
# Static dielectric constant tensor:
#      x y z
#    x 1.920720 0.000000 0.003440 
#    y 0.000000 1.792620 0.000000 
#    z 0.003440 0.000000 1.867600 
# 
# From -- ./inp_files/4202.got.cif
#   From: 2010.05.17/outbox.cif.g08.bks.cpg/sg13_3_cif.got.tgz:4202.got - 2010.06.03 16:44:36.
