data_PCOD9229014
_publ_section_title
;
Structure prediction by ZEFSAII (Michael W. Deem and Ramdas Pophale) SiO2 
 PCOD9229014
Probable space group: P 2/C
;
_chemical_formula_sum "Si O2"
_cell_formula_units_Z 30
_cell_length_a 14.929268
_cell_length_b 10.817536
_cell_length_c 30.117449
_cell_angle_alpha 90.000000
_cell_angle_beta 17.923117
_cell_angle_gamma 90.000000
_cell_volume 1496.820578
_symmetry_space_group_name_H-M "P 2/C"
_symmetry_group_IT_number 13
_symmetry_cell_setting 'monoclinic'
loop_
_space_group_symop_operation_xyz
x,y,z
-x,y,1/2-z
-x,-y,-z
x,-y,1/2+z
loop_
_atom_site_type_symbol
_atom_site_label
_atom_site_fract_x
_atom_site_fract_y
_atom_site_fract_z
Si Si1 0.793582 0.590202 0.502395
Si Si2 0.178221 0.294997 0.000329
Si Si3 0.841765 0.633808 0.576273
Si Si4 0.000000 0.307215 0.250000
Si Si5 0.474955 0.834031 0.043954
Si Si6 0.683538 0.092616 0.976446
Si Si7 0.209515 0.755556 0.253988
Si Si8 0.754764 0.704580 0.778268
O O1 0.811997 0.444101 0.499501
O O2 0.859223 0.667791 0.516265
O O3 0.465153 0.619467 0.644686
O O4 0.011131 0.641575 0.362896
O O5 0.005618 0.281159 0.035165
O O6 0.999255 0.253340 0.128206
O O7 0.503760 0.241313 0.850339
O O8 0.500000 0.620631 0.750000
O O9 0.000000 0.500000 0.500000
O O10 0.759202 0.223714 0.387582
O O11 0.858903 0.368429 0.273319
O O12 0.287429 0.872732 0.089541
O O13 0.324648 0.742780 0.149401
O O14 0.571666 0.953165 0.026892
O O15 0.985987 0.127948 0.857666
O O16 0.433885 0.179036 0.115406
#
# Coordination Sequence:
#
# PCOD9229014 Si02
#       8
#     4   4   4   2   4   4   4   4
#     4  10  22  38  57  83 120 154 196 242 289 350
#     4  11  21  36  60  82 121 153 194 242 293 340
#     4  10  21  35  60  89 112 149 200 254 300 342
#     4  10  20  34  56  82 116 140 196 232 296 342
#     4  10  20  36  59  82 113 151 191 254 296 332
#     4   9  22  35  59  83 117 146 198 249 296 340
#     4  11  22  34  57  90 118 150 193 241 299 363
#     4  10  19  37  53  80 117 154 185 239 288 349
#
# _framework density 20.042483000000001
#
# number of rings (size 3 to 8) (size 9 to 14) (size 15 to 20)
#    0.000    1.867    2.667    1.200   11.200    0.000 
#    0.000    0.667    8.800    0.000    0.000   16.800 
#    0.000    0.000    0.000    0.000    0.000    0.000 
#
# Total GULP energy -167205.412070 kJ/mol
# GULP energy per Si atom -5573.513736 kJ/mol
# Density = 1.999687 g / cm^3
# Si number density = 20.042483 Si / 1000 Ang^3
#
#
#
# Elastic Constant Matrix: (Units=GPa)
#
#
# Indices 1 2 3 4 5 6 
#
# 1 129.1121 26.9437 25.7209 0.0000 -16.3398 0.0000
# 2 26.9437 32.2944 18.7944 0.0000 1.9265 0.0000
# 3 25.7209 18.7944 97.2053 0.0000 -9.2400 0.0000
# 4 0.0000 0.0000 0.0000 7.3459 0.0000 -8.5423
# 5 -16.3398 1.9265 -9.2400 0.0000 40.0015 0.0000
# 6 0.0000 0.0000 0.0000 -8.5423 0.0000 21.8519
#
#
#
# Elastic Compliance Matrix: (Units=1/GPa)
#
#
# Indices 1 2 3 4 5 6 
#
# 1 0.010182 -0.008377 -0.000655 0.000000 0.004411 0.000000
# 2 -0.008377 0.042217 -0.006610 0.000000 -0.006982 0.000000
# 3 -0.000655 -0.006610 0.012007 0.000000 0.002824 0.000000
# 4 0.000000 0.000000 0.000000 0.249592 0.000000 0.097571
# 5 0.004411 -0.006982 0.002824 0.000000 0.027790 0.000000
# 6 0.000000 0.000000 0.000000 0.097571 0.000000 0.083905
#
#
# Mechanical properties :
#
#
# Convention : Reuss Voigt Hill
#
# Bulk Modulus (GPa) = 30.19056 44.61442 37.40249
# Shear Modulus (GPa) = 10.68334 26.31670 18.50002
#
# Velocity S-wave (km/s) = 2.31126 3.62753 3.04145
# Velocity P-wave (km/s) = 4.71366 6.31297 5.57100
#
# Compressibility (1/GPa) = 0.03312293
#
# Stress axis : x y z
#
# Youngs Moduli (GPa) = 98.21097 23.68698 83.28245
#
# Poissons Ratio (x) = 0.19842 0.05457
# Poissons Ratio (y) = 0.82271 0.55047
# Poissons Ratio (z) = 0.06435 0.15656
#
# Static dielectric constant tensor:
#      x y z
#    x 1.800670 0.000000 -0.037040 
#    y 0.000000 1.701760 0.000000 
#    z -0.037040 0.000000 1.744410 
# 
# From -- ./inp_files/96995.got.cif
#   From: 2010.05.17/outbox.cif.g08.bks.cpg/sg13_49_cif.got.tgz:96995.got - 2010.06.03 16:44:36.
