data_PCOD9229543
_publ_section_title
;
Structure prediction by ZEFSAII (Michael W. Deem and Ramdas Pophale) SiO2 
 PCOD9229543
Probable space group: P 2/C
;
_chemical_formula_sum "Si O2"
_cell_formula_units_Z 32
_cell_length_a 22.592238
_cell_length_b 7.151285
_cell_length_c 7.494816
_cell_angle_alpha 90.000000
_cell_angle_beta 89.962932
_cell_angle_gamma 90.000000
_cell_volume 1210.888697
_symmetry_space_group_name_H-M "P 2/C"
_symmetry_group_IT_number 13
_symmetry_cell_setting 'monoclinic'
loop_
_space_group_symop_operation_xyz
x,y,z
-x,y,1/2-z
-x,-y,-z
x,-y,1/2+z
loop_
_atom_site_type_symbol
_atom_site_label
_atom_site_fract_x
_atom_site_fract_y
_atom_site_fract_z
Si Si1 0.062367 0.203648 0.265407
Si Si2 0.189942 0.619590 0.156570
Si Si3 0.439879 0.095252 0.149403
Si Si4 0.938645 0.380264 0.842546
Si Si5 0.688938 0.595159 0.149885
Si Si6 0.561853 0.298702 0.730707
Si Si7 0.687004 0.203263 0.270157
Si Si8 0.188842 0.201639 0.264337
O O1 0.063916 0.284883 0.465378
O O2 0.058852 0.392349 0.145496
O O3 0.125400 0.107554 0.227634
O O4 0.000000 0.098482 0.250000
O O5 0.125702 0.657921 0.246176
O O6 0.251276 0.661456 0.254684
O O7 0.191656 0.391453 0.144985
O O8 0.187774 0.720267 0.966247
O O9 0.500000 0.149483 0.250000
O O10 0.376927 0.113120 0.251738
O O11 0.444231 0.871352 0.130201
O O12 0.436639 0.208246 0.966550
O O13 0.000000 0.327126 0.750000
O O14 0.625912 0.611797 0.251767
O O15 0.694114 0.371877 0.130487
O O16 0.685229 0.703533 0.965284
O O17 0.500000 0.410517 0.750000
O O18 0.749288 0.093946 0.261358
#
# Coordination Sequence:
#
# PCOD9229543 Si02
#       8
#     4   4   4   4   4   4   4   4
#     4   9  15  21  31  49  74 108 148 184 221 265
#     4   9  16  25  38  57  83 116 151 187 228 271
#     4  10  21  36  54  74  95 122 155 190 231 277
#     4   9  15  21  31  49  74 108 148 184 221 265
#     4  10  20  32  48  71  96 124 157 191 231 277
#     4  10  21  36  54  74  95 122 155 190 231 277
#     4  10  20  32  48  71  96 124 157 191 231 277
#     4   9  16  25  38  57  83 116 151 187 228 271
#
# _framework density 26.426870999999998
#
# number of rings (size 3 to 8) (size 9 to 14) (size 15 to 20)
#    0.000    2.500    0.000    6.000    0.000    7.500 
#    0.000    2.500    0.000    0.000    0.000    0.000 
#    0.000    1.000    0.000   11.000    0.000   12.250 
#
# Total GULP energy -178777.317781 kJ/mol
# GULP energy per Si atom -5586.791181 kJ/mol
# Density = 2.636672 g / cm^3
# Si number density = 26.426871 Si / 1000 Ang^3
#
#
#
# Elastic Constant Matrix: (Units=GPa)
#
#
# Indices 1 2 3 4 5 6 
#
# 1 361.6021 27.0276 42.6249 0.0000 13.8897 0.0000
# 2 27.0276 59.7681 -8.3807 0.0000 3.1986 0.0000
# 3 42.6249 -8.3807 77.1189 0.0000 9.8792 0.0000
# 4 0.0000 0.0000 0.0000 6.8275 0.0000 1.0057
# 5 13.8897 3.1986 9.8792 0.0000 43.5427 0.0000
# 6 0.0000 0.0000 0.0000 1.0057 0.0000 94.5082
#
#
#
# Elastic Compliance Matrix: (Units=1/GPa)
#
#
# Indices 1 2 3 4 5 6 
#
# 1 0.003124 -0.001647 -0.001847 0.000000 -0.000456 0.000000
# 2 -0.001647 0.017984 0.003056 0.000000 -0.001489 0.000000
# 3 -0.001847 0.003056 0.014701 0.000000 -0.002971 0.000000
# 4 0.000000 0.000000 0.000000 0.146696 0.000000 -0.001561
# 5 -0.000456 -0.001489 -0.002971 0.000000 0.023895 0.000000
# 6 0.000000 0.000000 0.000000 -0.001561 0.000000 0.010598
#
#
# Mechanical properties :
#
#
# Convention : Reuss Voigt Hill
#
# Bulk Modulus (GPa) = 28.62770 69.00363 48.81567
# Shear Modulus (GPa) = 21.78474 58.12352 39.95413
#
# Velocity S-wave (km/s) = 2.87425 4.69487 3.89250
# Velocity P-wave (km/s) = 4.67669 7.45366 6.22207
#
# Compressibility (1/GPa) = 0.03493120
#
# Stress axis : x y z
#
# Youngs Moduli (GPa) = 320.11679 55.60388 68.02471
#
# Poissons Ratio (x) = 0.09159 0.12565
# Poissons Ratio (y) = 0.52730 -0.20786
# Poissons Ratio (z) = 0.59130 -0.16990
#
# Static dielectric constant tensor:
#      x y z
#    x 2.184430 0.000000 -0.019280 
#    y 0.000000 2.058670 0.000000 
#    z -0.019280 0.000000 2.067490 
# 
# From -- ./inp_files/23124.got.cif
#   From: 2010.05.17/outbox.cif.g08.bks.cpg/sg13_12_cif.got.tgz:23124.got - 2010.06.03 16:44:36.
