data_PCOD9229698
_publ_section_title
;
Structure prediction by ZEFSAII (Michael W. Deem and Ramdas Pophale) SiO2 
 PCOD9229698
Probable space group: P 2/C
;
_chemical_formula_sum "Si O2"
_cell_formula_units_Z 28
_cell_length_a 19.332488
_cell_length_b 13.125115
_cell_length_c 23.107214
_cell_angle_alpha 90.000000
_cell_angle_beta 17.025639
_cell_angle_gamma 90.000000
_cell_volume 1716.757460
_symmetry_space_group_name_H-M "P 2/C"
_symmetry_group_IT_number 13
_symmetry_cell_setting 'monoclinic'
loop_
_space_group_symop_operation_xyz
x,y,z
-x,y,1/2-z
-x,-y,-z
x,-y,1/2+z
loop_
_atom_site_type_symbol
_atom_site_label
_atom_site_fract_x
_atom_site_fract_y
_atom_site_fract_z
Si Si1 0.961322 0.323580 0.519323
Si Si2 0.615751 0.170556 0.049444
Si Si3 0.915104 0.395531 0.684632
Si Si4 0.096612 0.101150 0.451673
Si Si5 0.673584 0.446458 0.663210
Si Si6 0.483838 0.395528 0.115885
Si Si7 0.954885 0.170566 0.879901
O O1 0.996180 0.203663 0.501890
O O2 0.220949 0.373311 0.301784
O O3 0.870068 0.373295 0.652681
O O4 0.789024 0.353152 0.605492
O O5 0.379916 0.109965 0.223705
O O6 0.555353 0.290579 0.091119
O O7 0.724819 0.151350 0.025171
O O8 0.819481 0.148026 0.840245
O O9 0.108767 0.484056 0.533638
O O10 0.030602 0.290592 0.615895
O O11 0.679050 0.415152 0.910467
O O12 0.034711 0.109992 0.568930
O O13 0.000000 0.000000 0.500000
O O14 0.500000 0.419827 0.750000
O O15 0.539154 0.515951 0.818448
#
# Coordination Sequence:
#
# PCOD9229698 Si02
#       7
#     4   4   4   4   4   4   4
#     4   9  20  34  47  69  96 124 161 202 237 272
#     4   9  17  30  50  76  99 116 146 199 250 283
#     4   9  17  31  52  74  96 124 156 191 234 282
#     4  10  20  34  51  69  91 125 164 199 239 286
#     4  11  21  30  43  68 103 135 159 183 218 276
#     4   9  17  31  52  74  96 124 156 191 234 282
#     4   9  17  30  50  76  99 116 146 199 250 283
#
# _framework density 16.309816999999999
#
# number of rings (size 3 to 8) (size 9 to 14) (size 15 to 20)
#    0.000    2.571    0.000    3.857    0.000    4.571 
#    0.000    1.429    0.000    0.000    0.000    0.000 
#    0.000    0.000    0.000    0.000    0.000    0.000 
#
# Total GULP energy -156186.651356 kJ/mol
# GULP energy per Si atom -5578.094691 kJ/mol
# Density = 1.627270 g / cm^3
# Si number density = 16.309817 Si / 1000 Ang^3
#
#
#
# Elastic Constant Matrix: (Units=GPa)
#
#
# Indices 1 2 3 4 5 6 
#
# 1 151.0480 71.9823 69.1165 0.0000 -23.1518 0.0000
# 2 71.9823 73.2015 45.4760 0.0000 -10.1278 0.0000
# 3 69.1165 45.4760 106.6281 0.0000 6.1462 0.0000
# 4 0.0000 0.0000 0.0000 10.4829 0.0000 -3.4987
# 5 -23.1518 -10.1278 6.1462 0.0000 21.8082 0.0000
# 6 0.0000 0.0000 0.0000 -3.4987 0.0000 19.6450
#
#
#
# Elastic Compliance Matrix: (Units=1/GPa)
#
#
# Indices 1 2 3 4 5 6 
#
# 1 0.017583 -0.010033 -0.008057 0.000000 0.016278 0.000000
# 2 -0.010033 0.027356 -0.005369 0.000000 0.003566 0.000000
# 3 -0.008057 -0.005369 0.017817 0.000000 -0.016068 0.000000
# 4 0.000000 0.000000 0.000000 0.101422 0.000000 0.018063
# 5 0.016278 0.003566 -0.016068 0.000000 0.069320 0.000000
# 6 0.000000 0.000000 0.000000 0.018063 0.000000 0.054121
#
#
# Mechanical properties :
#
#
# Convention : Reuss Voigt Hill
#
# Bulk Modulus (GPa) = 63.13919 78.22526 70.68222
# Shear Modulus (GPa) = 14.71381 20.00737 17.36059
#
# Velocity S-wave (km/s) = 3.00683 3.50624 3.26609
# Velocity P-wave (km/s) = 7.13100 8.02856 7.59305
#
# Compressibility (1/GPa) = 0.01583802
#
# Stress axis : x y z
#
# Youngs Moduli (GPa) = 56.87188 36.55517 56.12641
#
# Poissons Ratio (x) = 0.36676 0.45220
# Poissons Ratio (y) = 0.57060 0.30135
# Poissons Ratio (z) = 0.45821 0.19627
#
# Static dielectric constant tensor:
#      x y z
#    x 1.546230 0.000000 0.006790 
#    y 0.000000 1.522020 0.000000 
#    z 0.006790 0.000000 1.563960 
# 
# From -- ./inp_files/70723.got.cif
#   From: 2010.05.17/outbox.cif.g08.bks.cpg/sg13_36_cif.got.tgz:70723.got - 2010.06.03 16:44:36.
