data_PCOD9229356
_publ_section_title
;
Structure prediction by ZEFSAII (Michael W. Deem and Ramdas Pophale) SiO2 
 PCOD9229356
Probable space group: P 2/C
;
_chemical_formula_sum "Si O2"
_cell_formula_units_Z 22
_cell_length_a 12.178335
_cell_length_b 12.136273
_cell_length_c 15.072234
_cell_angle_alpha 90.000000
_cell_angle_beta 150.489690
_cell_angle_gamma 90.000000
_cell_volume 1097.306124
_symmetry_space_group_name_H-M "P 2/C"
_symmetry_group_IT_number 13
_symmetry_cell_setting 'monoclinic'
loop_
_space_group_symop_operation_xyz
x,y,z
-x,y,1/2-z
-x,-y,-z
x,-y,1/2+z
loop_
_atom_site_type_symbol
_atom_site_label
_atom_site_fract_x
_atom_site_fract_y
_atom_site_fract_z
Si Si1 0.500000 0.934726 0.750000
Si Si2 0.458011 0.376393 0.937285
Si Si3 0.797691 0.683349 0.542814
Si Si4 0.084292 0.075388 0.400762
Si Si5 0.303415 0.795946 0.763367
Si Si6 0.957519 0.370777 0.959707
O O1 0.468866 0.863737 0.817449
O O2 0.270530 0.004377 0.581299
O O3 0.201315 0.353679 0.735964
O O4 0.500000 0.500000 0.000000
O O5 0.579221 0.370170 0.927604
O O6 0.572482 0.283136 0.078548
O O7 0.787767 0.814971 0.542806
O O8 0.847930 0.659607 0.477017
O O9 0.000000 0.647159 0.750000
O O10 0.000000 0.020183 0.250000
O O11 0.877324 0.123024 0.314436
O O12 0.168086 0.710052 0.606071
O O13 0.000000 0.500000 0.000000
#
# Coordination Sequence:
#
# PCOD9229356 Si02
#       6
#     2   4   4   4   4   4
#     4  12  28  42  68  96 136 178 218 288 340 368
#     4  12  22  40  67  97 132 174 211 270 334 390
#     4  10  19  39  64  93 128 166 223 267 307 405
#     4  10  22  43  69  93 127 175 231 271 325 397
#     4  11  25  45  61 101 136 166 230 271 326 408
#     4  11  22  39  66  95 131 171 216 264 332 396
#
# _framework density 20.049099999999999
#
# number of rings (size 3 to 8) (size 9 to 14) (size 15 to 20)
#    0.000    1.091    7.273    1.091    5.091    3.636 
#    0.000    1.818    0.000    0.000    0.000    0.000 
#    0.000    0.000    0.000    0.000    0.000    0.000 
#
# Total GULP energy -122710.365261 kJ/mol
# GULP energy per Si atom -5577.743875 kJ/mol
# Density = 2.000347 g / cm^3
# Si number density = 20.049100 Si / 1000 Ang^3
#
#
#
# Elastic Constant Matrix: (Units=GPa)
#
#
# Indices 1 2 3 4 5 6 
#
# 1 60.3641 31.2619 3.8863 0.0000 0.1566 0.0000
# 2 31.2619 63.7177 40.2822 0.0000 0.6065 0.0000
# 3 3.8863 40.2822 134.8338 0.0000 -14.8049 0.0000
# 4 0.0000 0.0000 0.0000 27.4012 0.0000 -0.0806
# 5 0.1566 0.6065 -14.8049 0.0000 22.8178 0.0000
# 6 0.0000 0.0000 0.0000 -0.0806 0.0000 20.0347
#
#
#
# Elastic Compliance Matrix: (Units=1/GPa)
#
#
# Indices 1 2 3 4 5 6 
#
# 1 0.023554 -0.013978 0.003790 0.000000 0.002669 0.000000
# 2 -0.013978 0.028101 -0.008683 0.000000 -0.006284 0.000000
# 3 0.003790 -0.008683 0.010685 0.000000 0.007137 0.000000
# 4 0.000000 0.000000 0.000000 0.036495 0.000000 0.000147
# 5 0.002669 -0.006284 0.007137 0.000000 0.048605 0.000000
# 6 0.000000 0.000000 0.000000 0.000147 0.000000 0.049914
#
#
# Mechanical properties :
#
#
# Convention : Reuss Voigt Hill
#
# Bulk Modulus (GPa) = 40.65097 45.53071 43.09084
# Shear Modulus (GPa) = 20.55115 26.28307 23.41711
#
# Velocity S-wave (km/s) = 3.20510 3.62461 3.42129
# Velocity P-wave (km/s) = 5.83238 6.34634 6.09478
#
# Compressibility (1/GPa) = 0.02459966
#
# Stress axis : x y z
#
# Youngs Moduli (GPa) = 42.45513 35.58572 93.58969
#
# Poissons Ratio (x) = 0.49742 -0.35472
# Poissons Ratio (y) = 0.59344 0.81259
# Poissons Ratio (z) = -0.16091 0.30897
#
# Static dielectric constant tensor:
#      x y z
#    x 1.706300 0.000000 -0.009870 
#    y 0.000000 1.722800 0.000000 
#    z -0.009870 0.000000 1.819500 
# 
# From -- ./inp_files/51272.got.cif
#   From: 2010.05.17/outbox.cif.g08.bks.cpg/sg13_26_cif.got.tgz:51272.got - 2010.06.03 16:44:36.
