data_PCOD9229280
_publ_section_title
;
Structure prediction by ZEFSAII (Michael W. Deem and Ramdas Pophale) SiO2 
 PCOD9229280
Probable space group: P 2/C
;
_chemical_formula_sum "Si O2"
_cell_formula_units_Z 32
_cell_length_a 12.734074
_cell_length_b 13.907903
_cell_length_c 18.121131
_cell_angle_alpha 90.000000
_cell_angle_beta 152.063904
_cell_angle_gamma 90.000000
_cell_volume 1503.527557
_symmetry_space_group_name_H-M "P 2/C"
_symmetry_group_IT_number 13
_symmetry_cell_setting 'monoclinic'
loop_
_space_group_symop_operation_xyz
x,y,z
-x,y,1/2-z
-x,-y,-z
x,-y,1/2+z
loop_
_atom_site_type_symbol
_atom_site_label
_atom_site_fract_x
_atom_site_fract_y
_atom_site_fract_z
Si Si1 0.597547 0.168619 0.607538
Si Si2 0.064772 0.203792 0.478559
Si Si3 0.448101 0.463961 0.806680
Si Si4 0.920110 0.323907 0.863050
Si Si5 0.566640 0.136938 0.148679
Si Si6 0.743262 0.036308 0.831342
Si Si7 0.779346 0.692041 0.564958
Si Si8 0.598654 0.666485 0.891914
O O1 0.771302 0.258343 0.715636
O O2 0.543420 0.114577 0.498144
O O3 0.699106 0.093625 0.728398
O O4 0.372009 0.220783 0.497022
O O5 0.024265 0.253733 0.532800
O O6 0.250133 0.119608 0.602889
O O7 0.154818 0.279721 0.476936
O O8 0.829295 0.163212 0.303191
O O9 0.500000 0.459470 0.750000
O O10 0.218749 0.411377 0.687223
O O11 0.465487 0.575124 0.840408
O O12 0.632218 0.403109 0.965507
O O13 0.141697 0.357546 0.959173
O O14 0.439512 0.233915 0.091537
O O15 0.576216 0.053730 0.216792
O O16 0.000000 0.000000 0.000000
O O17 0.000000 0.679477 0.750000
O O18 0.500000 0.683171 0.750000
#
# Coordination Sequence:
#
# PCOD9229280 Si02
#       8
#     4   4   4   4   4   4   4   4
#     4  10  22  39  65  92 123 166 208 269 320 379
#     4  10  19  38  65  91 123 161 203 272 317 372
#     4  10  22  39  65  94 123 168 220 263 321 378
#     4  10  21  41  62  92 131 159 219 269 312 384
#     4  11  21  41  61  89 130 168 210 256 326 383
#     4   9  21  39  66  91 124 165 216 263 317 387
#     4  11  21  39  63  96 124 156 206 270 330 375
#     4  11  24  40  64  94 128 176 218 260 321 386
#
# _framework density 21.283282
#
# number of rings (size 3 to 8) (size 9 to 14) (size 15 to 20)
#    0.000    1.750    3.750    0.375    0.000    3.500 
#    4.500    1.250    0.000    0.000    0.000    0.000 
#    0.000    0.000    0.000    0.000    0.000    0.000 
#
# Total GULP energy -178537.820168 kJ/mol
# GULP energy per Si atom -5579.306880 kJ/mol
# Density = 2.123484 g / cm^3
# Si number density = 21.283282 Si / 1000 Ang^3
#
#
#
# Elastic Constant Matrix: (Units=GPa)
#
#
# Indices 1 2 3 4 5 6 
#
# 1 26.0557 24.4769 33.0045 0.0000 -6.9122 0.0000
# 2 24.4769 98.1348 22.5885 0.0000 -6.5973 0.0000
# 3 33.0045 22.5885 113.8408 0.0000 -8.2029 0.0000
# 4 0.0000 0.0000 0.0000 18.0820 0.0000 -7.4382
# 5 -6.9122 -6.5973 -8.2029 0.0000 32.3703 0.0000
# 6 0.0000 0.0000 0.0000 -7.4382 0.0000 7.8506
#
#
#
# Elastic Compliance Matrix: (Units=1/GPa)
#
#
# Indices 1 2 3 4 5 6 
#
# 1 0.079065 -0.014659 -0.019366 0.000000 0.008988 0.000000
# 2 -0.014659 0.013485 0.001575 0.000000 0.000017 0.000000
# 3 -0.019366 0.001575 0.014068 0.000000 -0.000249 0.000000
# 4 0.000000 0.000000 0.000000 0.090625 0.000000 0.085865
# 5 0.008988 0.000017 -0.000249 0.000000 0.032752 0.000000
# 6 0.000000 0.000000 0.000000 0.085865 0.000000 0.208733
#
#
# Mechanical properties :
#
#
# Convention : Reuss Voigt Hill
#
# Bulk Modulus (GPa) = 23.96969 44.24123 34.10546
# Shear Modulus (GPa) = 9.66121 22.19134 15.92627
#
# Velocity S-wave (km/s) = 2.13288 3.23254 2.73847
# Velocity P-wave (km/s) = 4.16560 5.89613 5.10473
#
# Compressibility (1/GPa) = 0.04171936
#
# Stress axis : x y z
#
# Youngs Moduli (GPa) = 12.64778 74.15761 71.08199
#
# Poissons Ratio (x) = 1.08705 1.37659
# Poissons Ratio (y) = 0.18540 -0.11198
# Poissons Ratio (z) = 0.24494 -0.11683
#
# Static dielectric constant tensor:
#      x y z
#    x 1.822680 0.000000 0.029430 
#    y 0.000000 1.806480 0.000000 
#    z 0.029430 0.000000 1.773500 
# 
# From -- ./inp_files/66952.got.cif
#   From: 2010.05.17/outbox.cif.g08.bks.cpg/sg13_34_cif.got.tgz:66952.got - 2010.06.03 16:44:36.
