data_PCOD9229688
_publ_section_title
;
Structure prediction by ZEFSAII (Michael W. Deem and Ramdas Pophale) SiO2 
 PCOD9229688
Probable space group: P 2/C
;
_chemical_formula_sum "Si O2"
_cell_formula_units_Z 30
_cell_length_a 13.058517
_cell_length_b 14.951796
_cell_length_c 19.049881
_cell_angle_alpha 90.000000
_cell_angle_beta 26.471988
_cell_angle_gamma 90.000000
_cell_volume 1657.985785
_symmetry_space_group_name_H-M "P 2/C"
_symmetry_group_IT_number 13
_symmetry_cell_setting 'monoclinic'
loop_
_space_group_symop_operation_xyz
x,y,z
-x,y,1/2-z
-x,-y,-z
x,-y,1/2+z
loop_
_atom_site_type_symbol
_atom_site_label
_atom_site_fract_x
_atom_site_fract_y
_atom_site_fract_z
Si Si1 0.609314 0.008411 0.259474
Si Si2 0.886635 0.674012 0.068840
Si Si3 0.800959 0.877327 0.427651
Si Si4 0.500000 0.426674 0.750000
Si Si5 0.009895 0.868751 0.455425
Si Si6 0.871867 0.602039 0.220142
Si Si7 0.281441 0.557803 0.774052
Si Si8 0.681668 0.327453 0.981179
O O1 0.500000 0.990620 0.250000
O O2 0.409892 0.052946 0.430064
O O3 0.746742 0.920340 0.199189
O O4 0.817780 0.077364 0.117110
O O5 0.715549 0.640029 0.114019
O O6 0.962969 0.775150 0.021579
O O7 0.781029 0.661050 0.211093
O O8 0.089995 0.601476 0.940841
O O9 0.711791 0.779162 0.459012
O O10 0.000000 0.905402 0.250000
O O11 0.912337 0.861303 0.436285
O O12 0.441191 0.491284 0.721283
O O13 0.831643 0.500792 0.218750
O O14 0.739478 0.626417 0.371881
O O15 0.131718 0.632341 0.078466
O O16 0.432109 0.640103 0.655608
#
# Coordination Sequence:
#
# PCOD9229688 Si02
#       8
#     4   4   4   2   4   4   4   4
#     4   9  21  37  58  84 112 138 179 231 283 338
#     4  11  20  35  54  78 105 143 181 227 271 327
#     4  11  20  36  58  84 110 143 187 225 279 332
#     4  10  22  32  50  78 108 142 174 230 264 318
#     4  10  20  37  57  83 110 143 181 230 283 333
#     4  10  20  34  49  76 109 143 181 223 272 308
#     4  11  21  33  52  77 109 142 191 224 268 315
#     4  11  19  34  54  77 107 148 181 229 265 320
#
# _framework density 18.094242999999999
#
# number of rings (size 3 to 8) (size 9 to 14) (size 15 to 20)
#    0.000    1.600    2.667    4.400    0.933    0.533 
#    0.000    0.000    0.000    0.000    0.000    0.000 
#    0.000    0.000    0.000    0.000    0.000    0.000 
#
# Total GULP energy -167131.788824 kJ/mol
# GULP energy per Si atom -5571.059627 kJ/mol
# Density = 1.805306 g / cm^3
# Si number density = 18.094243 Si / 1000 Ang^3
#
#
#
# Elastic Constant Matrix: (Units=GPa)
#
#
# Indices 1 2 3 4 5 6 
#
# 1 55.1787 32.0507 19.9812 0.0000 -2.4764 0.0000
# 2 32.0507 82.4187 23.1559 0.0000 -3.1967 0.0000
# 3 19.9812 23.1559 74.3500 0.0000 -1.0668 0.0000
# 4 0.0000 0.0000 0.0000 26.7839 0.0000 -8.3707
# 5 -2.4764 -3.1967 -1.0668 0.0000 22.3592 0.0000
# 6 0.0000 0.0000 0.0000 -8.3707 0.0000 18.3646
#
#
#
# Elastic Compliance Matrix: (Units=1/GPa)
#
#
# Indices 1 2 3 4 5 6 
#
# 1 0.024466 -0.008351 -0.003955 0.000000 0.001327 0.000000
# 2 -0.008351 0.016213 -0.002787 0.000000 0.001260 0.000000
# 3 -0.003955 -0.002787 0.015379 0.000000 -0.000103 0.000000
# 4 0.000000 0.000000 0.000000 0.043538 0.000000 0.019845
# 5 0.001327 0.001260 -0.000103 0.000000 0.045046 0.000000
# 6 0.000000 0.000000 0.000000 0.019845 0.000000 0.063498
#
#
# Mechanical properties :
#
#
# Convention : Reuss Voigt Hill
#
# Bulk Modulus (GPa) = 38.65331 40.25811 39.45571
# Shear Modulus (GPa) = 20.24698 22.61885 21.43291
#
# Velocity S-wave (km/s) = 3.34874 3.53945 3.44541
# Velocity P-wave (km/s) = 6.02998 6.24508 6.13847
#
# Compressibility (1/GPa) = 0.02587101
#
# Stress axis : x y z
#
# Youngs Moduli (GPa) = 40.87366 61.67995 65.02269
#
# Poissons Ratio (x) = 0.51512 0.25716
# Poissons Ratio (y) = 0.34136 0.18121
# Poissons Ratio (z) = 0.16165 0.17189
#
# Static dielectric constant tensor:
#      x y z
#    x 1.624860 0.000000 -0.033060 
#    y 0.000000 1.632690 0.000000 
#    z -0.033060 0.000000 1.645450 
# 
# From -- ./inp_files/30359.got.cif
#   From: 2010.05.17/outbox.cif.g08.bks.cpg/sg13_16_cif.got.tgz:30359.got - 2010.06.03 16:44:36.
