data_PCOD9229602
_publ_section_title
;
Structure prediction by ZEFSAII (Michael W. Deem and Ramdas Pophale) SiO2 
 PCOD9229602
Probable space group: P 2/C
;
_chemical_formula_sum "Si O2"
_cell_formula_units_Z 28
_cell_length_a 28.953163
_cell_length_b 7.777521
_cell_length_c 29.493619
_cell_angle_alpha 90.000000
_cell_angle_beta 170.398748
_cell_angle_gamma 90.000000
_cell_volume 1107.735421
_symmetry_space_group_name_H-M "P 2/C"
_symmetry_group_IT_number 13
_symmetry_cell_setting 'monoclinic'
loop_
_space_group_symop_operation_xyz
x,y,z
-x,y,1/2-z
-x,-y,-z
x,-y,1/2+z
loop_
_atom_site_type_symbol
_atom_site_label
_atom_site_fract_x
_atom_site_fract_y
_atom_site_fract_z
Si Si1 0.487438 0.691035 0.465330
Si Si2 0.729630 0.983649 0.510486
Si Si3 0.978934 0.350881 0.298007
Si Si4 0.483081 0.440323 0.281574
Si Si5 0.125127 0.234277 0.693316
Si Si6 0.039789 0.365889 0.463303
Si Si7 0.413895 0.176842 0.285419
O O1 0.500000 0.500000 0.500000
O O2 0.296759 0.803426 0.313793
O O3 0.805319 0.735382 0.764727
O O4 0.338019 0.677470 0.272128
O O5 0.500000 0.956099 0.250000
O O6 0.568749 0.063338 0.397840
O O7 0.866831 0.814949 0.664740
O O8 0.000000 0.078548 0.750000
O O9 0.992641 0.328272 0.365148
O O10 0.287249 0.399026 0.581677
O O11 0.774400 0.503451 0.084169
O O12 0.500000 0.343841 0.250000
O O13 0.326794 0.336872 0.169401
O O14 0.008569 0.429480 0.575268
O O15 0.862730 0.121423 0.455599
O O16 0.357003 0.230103 0.956524
#
# Coordination Sequence:
#
# PCOD9229602 Si02
#       7
#     4   4   4   4   4   4   4
#     4  10  20  32  59  93 133 163 200 262 329 398
#     4  12  27  47  65  92 129 181 228 267 334 411
#     4  12  24  41  65  90 128 165 217 272 323 394
#     4  12  23  39  62  92 121 161 212 280 334 372
#     4  11  20  37  60  95 129 164 209 264 332 389
#     4  11  19  36  59  94 129 163 209 264 328 390
#     4  12  23  40  64  91 129 165 216 272 322 395
#
# _framework density 25.276796000000001
#
# number of rings (size 3 to 8) (size 9 to 14) (size 15 to 20)
#    0.000    0.571    2.857    9.000    0.000    1.143 
#    0.000    0.000    0.000    5.143    0.000    0.000 
#    0.000    0.000    0.000    0.000    0.000    0.000 
#
# Total GULP energy -156796.679510 kJ/mol
# GULP energy per Si atom -5599.881411 kJ/mol
# Density = 2.521926 g / cm^3
# Si number density = 25.276796 Si / 1000 Ang^3
#
#
#
# Elastic Constant Matrix: (Units=GPa)
#
#
# Indices 1 2 3 4 5 6 
#
# 1 102.2590 7.7553 31.0591 0.0000 -2.9350 0.0000
# 2 7.7553 34.9932 14.9056 0.0000 -1.1947 0.0000
# 3 31.0591 14.9056 159.3224 0.0000 -3.5588 0.0000
# 4 0.0000 0.0000 0.0000 15.8653 0.0000 4.2829
# 5 -2.9350 -1.1947 -3.5588 0.0000 64.0141 0.0000
# 6 0.0000 0.0000 0.0000 4.2829 0.0000 16.1183
#
#
#
# Elastic Compliance Matrix: (Units=1/GPa)
#
#
# Indices 1 2 3 4 5 6 
#
# 1 0.010478 -0.001504 -0.001894 0.000000 0.000347 0.000000
# 2 -0.001504 0.029989 -0.002505 0.000000 0.000351 0.000000
# 3 -0.001894 -0.002505 0.006886 0.000000 0.000249 0.000000
# 4 0.000000 0.000000 0.000000 0.067901 0.000000 -0.018042
# 5 0.000347 0.000351 0.000249 0.000000 0.015658 0.000000
# 6 0.000000 0.000000 0.000000 -0.018042 0.000000 0.066835
#
#
# Mechanical properties :
#
#
# Convention : Reuss Voigt Hill
#
# Bulk Modulus (GPa) = 28.13079 44.89051 36.51065
# Shear Modulus (GPa) = 22.58334 35.38986 28.98660
#
# Velocity S-wave (km/s) = 2.99229 3.74584 3.39007
# Velocity P-wave (km/s) = 4.80538 6.04207 5.45886
#
# Compressibility (1/GPa) = 0.03554823
#
# Stress axis : x y z
#
# Youngs Moduli (GPa) = 95.43409 33.34544 145.22718
#
# Poissons Ratio (x) = 0.05014 0.27510
# Poissons Ratio (y) = 0.14349 0.36375
# Poissons Ratio (z) = 0.18078 0.08352
#
# Static dielectric constant tensor:
#      x y z
#    x 2.035320 0.000000 0.075240 
#    y 0.000000 2.114550 0.000000 
#    z 0.075240 0.000000 1.912830 
# 
# From -- ./inp_files/98104.got.cif
#   From: 2010.05.17/outbox.cif.g08.bks.cpg/sg13_50_cif.got.tgz:98104.got - 2010.06.03 16:44:36.
