data_PCOD9229897
_publ_section_title
;
Structure prediction by ZEFSAII (Michael W. Deem and Ramdas Pophale) SiO2 
 PCOD9229897
Probable space group: P 2/C
;
_chemical_formula_sum "Si O2"
_cell_formula_units_Z 24
_cell_length_a 12.452785
_cell_length_b 15.966311
_cell_length_c 13.329383
_cell_angle_alpha 90.000000
_cell_angle_beta 23.069870
_cell_angle_gamma 90.000000
_cell_volume 1038.495680
_symmetry_space_group_name_H-M "P 2/C"
_symmetry_group_IT_number 13
_symmetry_cell_setting 'monoclinic'
loop_
_space_group_symop_operation_xyz
x,y,z
-x,y,1/2-z
-x,-y,-z
x,-y,1/2+z
loop_
_atom_site_type_symbol
_atom_site_label
_atom_site_fract_x
_atom_site_fract_y
_atom_site_fract_z
Si Si1 0.895027 0.994784 0.933569
Si Si2 0.262644 0.208572 0.751769
Si Si3 0.000000 0.415025 0.250000
Si Si4 0.410824 0.630446 0.558441
Si Si5 0.281062 0.105877 0.248433
Si Si6 0.267101 0.509506 0.837765
Si Si7 0.500000 0.150677 0.750000
O O1 0.000000 0.047092 0.750000
O O2 0.697314 0.049195 0.172244
O O3 0.137325 0.957508 0.793606
O O4 0.743930 0.913714 0.019479
O O5 0.354854 0.299547 0.637235
O O6 0.439373 0.143123 0.533796
O O7 0.400905 0.203494 0.742353
O O8 0.948976 0.178243 0.031788
O O9 0.856415 0.355928 0.286013
O O10 0.814739 0.478147 0.480285
O O11 0.358525 0.600985 0.718459
O O12 0.528534 0.555026 0.390310
O O13 0.000000 0.500000 0.000000
#
# Coordination Sequence:
#
# PCOD9229897 Si02
#       7
#     4   4   2   4   4   4   2
#     4  10  20  38  62  85 119 164 209 251 296 377
#     4  11  24  39  58  96 129 157 200 259 320 358
#     4  10  20  34  64  92 118 154 216 244 302 366
#     4  10  22  37  62  87 132 157 200 256 310 365
#     4  10  24  38  60  88 125 162 203 250 314 364
#     4   9  20  38  58  90 116 169 204 244 298 374
#     4  10  22  34  62  92 126 154 206 252 318 358
#
# _framework density 23.110351999999999
#
# number of rings (size 3 to 8) (size 9 to 14) (size 15 to 20)
#    0.000    2.000    1.667    0.500    9.333    3.333 
#    0.000    0.000    1.833    4.000    0.000    0.000 
#    0.000    0.000    0.000    0.000    0.000    0.000 
#
# Total GULP energy -133734.216634 kJ/mol
# GULP energy per Si atom -5572.259026 kJ/mol
# Density = 2.305775 g / cm^3
# Si number density = 23.110352 Si / 1000 Ang^3
#
#
#
# Elastic Constant Matrix: (Units=GPa)
#
#
# Indices 1 2 3 4 5 6 
#
# 1 31.6620 7.4345 19.2535 0.0000 2.5124 0.0000
# 2 7.4345 53.1507 0.9928 0.0000 7.7975 0.0000
# 3 19.2535 0.9928 86.5127 0.0000 25.0992 0.0000
# 4 0.0000 0.0000 0.0000 45.8380 0.0000 5.5262
# 5 2.5124 7.7975 25.0992 0.0000 36.1619 0.0000
# 6 0.0000 0.0000 0.0000 5.5262 0.0000 20.3129
#
#
#
# Elastic Compliance Matrix: (Units=1/GPa)
#
#
# Indices 1 2 3 4 5 6 
#
# 1 0.038766 -0.006068 -0.010213 0.000000 0.005704 0.000000
# 2 -0.006068 0.020486 0.002848 0.000000 -0.005973 0.000000
# 3 -0.010213 0.002848 0.017244 0.000000 -0.011873 0.000000
# 4 0.000000 0.000000 0.000000 0.022556 0.000000 -0.006136
# 5 0.005704 -0.005973 -0.011873 0.000000 0.036786 0.000000
# 6 0.000000 0.000000 0.000000 -0.006136 0.000000 0.050899
#
#
# Mechanical properties :
#
#
# Convention : Reuss Voigt Hill
#
# Bulk Modulus (GPa) = 20.14879 25.18746 22.66812
# Shear Modulus (GPa) = 21.72532 30.03885 25.88209
#
# Velocity S-wave (km/s) = 3.06938 3.60919 3.35017
# Velocity P-wave (km/s) = 4.61507 5.31890 4.97944
#
# Compressibility (1/GPa) = 0.04963078
#
# Stress axis : x y z
#
# Youngs Moduli (GPa) = 25.79572 48.81318 57.99181
#
# Poissons Ratio (x) = 0.29622 0.59224
# Poissons Ratio (y) = 0.15654 -0.16518
# Poissons Ratio (z) = 0.26344 -0.13903
#
# Static dielectric constant tensor:
#      x y z
#    x 2.084560 0.000000 -0.124090 
#    y 0.000000 1.907710 0.000000 
#    z -0.124090 0.000000 2.072610 
# 
# From -- ./inp_files/34743.got.cif
#   From: 2010.05.17/outbox.cif.g08.bks.cpg/sg13_18_cif.got.tgz:34743.got - 2010.06.03 16:44:36.
