data_PCOD9229501
_publ_section_title
;
Structure prediction by ZEFSAII (Michael W. Deem and Ramdas Pophale) SiO2 
 PCOD9229501
Probable space group: P 2/C
;
_chemical_formula_sum "Si O2"
_cell_formula_units_Z 30
_cell_length_a 10.780162
_cell_length_b 6.485199
_cell_length_c 23.756521
_cell_angle_alpha 90.000000
_cell_angle_beta 110.061842
_cell_angle_gamma 90.000000
_cell_volume 1560.078145
_symmetry_space_group_name_H-M "P 2/C"
_symmetry_group_IT_number 13
_symmetry_cell_setting 'monoclinic'
loop_
_space_group_symop_operation_xyz
x,y,z
-x,y,1/2-z
-x,-y,-z
x,-y,1/2+z
loop_
_atom_site_type_symbol
_atom_site_label
_atom_site_fract_x
_atom_site_fract_y
_atom_site_fract_z
Si Si1 0.821592 0.586327 0.924453
Si Si2 0.375750 0.590715 0.785291
Si Si3 0.000000 0.575188 0.250000
Si Si4 0.107851 0.442138 0.939521
Si Si5 0.012882 0.912206 0.348798
Si Si6 0.279076 0.907872 0.676788
Si Si7 0.805400 0.700260 0.652779
Si Si8 0.647304 0.343910 0.819386
O O1 0.746510 0.774415 0.883074
O O2 0.757841 0.393100 0.882416
O O3 0.976204 0.576600 0.932115
O O4 0.813706 0.577293 0.990089
O O5 0.342218 0.776366 0.737071
O O6 0.336758 0.679030 0.840220
O O7 0.520678 0.486868 0.812161
O O8 0.307560 0.406408 0.737012
O O9 0.008057 0.729551 0.199136
O O10 0.885257 0.418585 0.214565
O O11 0.063174 0.215340 0.911091
O O12 0.182467 0.563759 0.901596
O O13 0.123048 0.080749 0.346981
O O14 0.870444 0.020364 0.331610
O O15 0.372746 0.102106 0.681701
#
# Coordination Sequence:
#
# PCOD9229501 Si02
#       8
#     4   4   2   4   4   4   4   4
#     4  10  21  39  58  85 121 158 206 255 304 367
#     4  10  23  38  59  87 122 160 202 249 304 366
#     4  10  20  30  50  80 122 152 184 244 308 372
#     4  10  22  37  58  89 123 156 202 254 315 366
#     4  11  20  33  57  92 118 157 200 248 318 367
#     4  11  20  36  62  89 117 155 208 252 304 366
#     4  11  21  36  56  86 124 156 195 250 314 370
#     4  10  22  40  60  85 118 167 205 248 301 362
#
# _framework density 19.229804999999999
#
# number of rings (size 3 to 8) (size 9 to 14) (size 15 to 20)
#    0.000    1.600    2.667    2.800    3.733    6.933 
#    0.000    0.667    0.000    1.600    0.000    0.000 
#    0.000    0.000    0.000    0.000    0.000    0.000 
#
# Total GULP energy -167036.332443 kJ/mol
# GULP energy per Si atom -5567.877748 kJ/mol
# Density = 1.918604 g / cm^3
# Si number density = 19.229805 Si / 1000 Ang^3
#
#
#
# Elastic Constant Matrix: (Units=GPa)
#
#
# Indices 1 2 3 4 5 6 
#
# 1 51.1083 12.7168 21.2069 0.0000 -6.7583 0.0000
# 2 12.7168 79.3114 11.2086 0.0000 1.0886 0.0000
# 3 21.2069 11.2086 109.2015 0.0000 -5.9939 0.0000
# 4 0.0000 0.0000 0.0000 5.4884 0.0000 3.3214
# 5 -6.7583 1.0886 -5.9939 0.0000 20.3843 0.0000
# 6 0.0000 0.0000 0.0000 3.3214 0.0000 25.7330
#
#
#
# Elastic Compliance Matrix: (Units=1/GPa)
#
#
# Indices 1 2 3 4 5 6 
#
# 1 0.022792 -0.003218 -0.003732 0.000000 0.006631 0.000000
# 2 -0.003218 0.013272 -0.000848 0.000000 -0.002025 0.000000
# 3 -0.003732 -0.000848 0.010066 0.000000 0.001768 0.000000
# 4 0.000000 0.000000 0.000000 0.197641 0.000000 -0.025510
# 5 0.006631 -0.002025 0.001768 0.000000 0.051884 0.000000
# 6 0.000000 0.000000 0.000000 -0.025510 0.000000 0.042153
#
#
# Mechanical properties :
#
#
# Convention : Reuss Voigt Hill
#
# Bulk Modulus (GPa) = 32.75068 36.65398 34.70233
# Shear Modulus (GPa) = 13.75195 23.28705 18.51950
#
# Velocity S-wave (km/s) = 2.67711 3.48370 3.10669
# Velocity P-wave (km/s) = 5.15985 5.94003 5.56363
#
# Compressibility (1/GPa) = 0.03053372
#
# Stress axis : x y z
#
# Youngs Moduli (GPa) = 43.87411 75.34527 99.34164
#
# Poissons Ratio (x) = 0.24247 0.37074
# Poissons Ratio (y) = 0.14119 0.08429
# Poissons Ratio (z) = 0.16374 0.06393
#
# Static dielectric constant tensor:
#      x y z
#    x 1.880810 0.000000 -0.030810 
#    y 0.000000 1.692430 0.000000 
#    z -0.030810 0.000000 1.665510 
# 
# From -- ./inp_files/85811.got.cif
#   From: 2010.05.17/outbox.cif.g08.bks.cpg/sg13_43_cif.got.tgz:85811.got - 2010.06.03 16:44:36.
