data_PCOD9229413
_publ_section_title
;
Structure prediction by ZEFSAII (Michael W. Deem and Ramdas Pophale) SiO2 
 PCOD9229413
Probable space group: P 2/C
;
_chemical_formula_sum "Si O2"
_cell_formula_units_Z 18
_cell_length_a 6.035090
_cell_length_b 16.892371
_cell_length_c 9.035845
_cell_angle_alpha 90.000000
_cell_angle_beta 126.324159
_cell_angle_gamma 90.000000
_cell_volume 742.172666
_symmetry_space_group_name_H-M "P 2/C"
_symmetry_group_IT_number 13
_symmetry_cell_setting 'monoclinic'
loop_
_space_group_symop_operation_xyz
x,y,z
-x,y,1/2-z
-x,-y,-z
x,-y,1/2+z
loop_
_atom_site_type_symbol
_atom_site_label
_atom_site_fract_x
_atom_site_fract_y
_atom_site_fract_z
Si Si1 0.789736 0.739402 0.940371
Si Si2 0.387537 0.892780 0.473389
Si Si3 0.000000 0.835862 0.750000
Si Si4 0.795605 0.393735 0.881675
Si Si5 0.000000 0.524964 0.750000
Si Si6 0.500000 0.985720 0.250000
O O1 0.500000 0.716758 0.750000
O O2 0.729623 0.806963 0.037035
O O3 0.962030 0.781311 0.878576
O O4 0.954956 0.663946 0.058512
O O5 0.327762 0.929610 0.291102
O O6 0.720063 0.884266 0.617992
O O7 0.323002 0.955935 0.576145
O O8 0.500000 0.353784 0.750000
O O9 0.810698 0.468818 0.777714
O O10 0.838596 0.422460 0.067227
#
# Coordination Sequence:
#
# PCOD9229413 Si02
#       6
#     4   4   2   4   2   2
#     4  10  22  43  68 101 144 191 232 294 362 428
#     4  10  21  41  66  99 132 185 237 298 361 423
#     4  10  19  40  64  91 138 182 236 286 365 420
#     4  11  24  45  77 107 146 187 241 291 356 429
#     4  10  25  46  72 113 144 184 234 298 355 426
#     4  10  20  42  68  96 138 178 246 302 356 418
#
# _framework density 24.253114
#
# number of rings (size 3 to 8) (size 9 to 14) (size 15 to 20)
#    0.000    1.778    3.333    1.333    0.000    9.778 
#    6.000    0.000    0.000    0.000    0.000    0.000 
#    0.000    0.000    0.000    0.000    0.000    0.000 
#
# Total GULP energy -100834.864872 kJ/mol
# GULP energy per Si atom -5601.936937 kJ/mol
# Density = 2.419791 g / cm^3
# Si number density = 24.253114 Si / 1000 Ang^3
#
#
#
# Elastic Constant Matrix: (Units=GPa)
#
#
# Indices 1 2 3 4 5 6 
#
# 1 84.3996 42.9914 64.5757 0.0000 1.8522 0.0000
# 2 42.9914 122.8015 66.1365 0.0000 8.2209 0.0000
# 3 64.5757 66.1365 128.8154 0.0000 -13.3091 0.0000
# 4 0.0000 0.0000 0.0000 12.3264 0.0000 -11.6975
# 5 1.8522 8.2209 -13.3091 0.0000 44.0930 0.0000
# 6 0.0000 0.0000 0.0000 -11.6975 0.0000 0.6667
#
#
#
# Elastic Compliance Matrix: (Units=1/GPa)
#
#
# Indices 1 2 3 4 5 6 
#
# 1 0.020093 -0.001643 -0.009584 0.000000 -0.003430 0.000000
# 2 -0.001643 0.012105 -0.005798 0.000000 -0.003938 0.000000
# 3 -0.009584 -0.005798 0.016203 0.000000 0.006374 0.000000
# 4 0.000000 0.000000 0.000000 -0.005184 0.000000 -0.090950
# 5 -0.003430 -0.003938 0.006374 0.000000 0.025482 0.000000
# 6 0.000000 0.000000 0.000000 -0.090950 0.000000 -0.095840
#
#
# Mechanical properties :
#
#
# Convention : Reuss Voigt Hill
#
# Bulk Modulus (GPa) = 69.68109 75.93598 72.80854
# Shear Modulus (GPa) = 427.65784 22.23808 224.94796
#
# Velocity S-wave (km/s) = 13.29338 3.03135 9.64114
# Velocity P-wave (km/s) = 16.26074 6.60529 12.41051
#
# Compressibility (1/GPa) = 0.01435110
#
# Stress axis : x y z
#
# Youngs Moduli (GPa) = 49.76764 82.61271 61.71853
#
# Poissons Ratio (x) = 0.13577 0.59148
# Poissons Ratio (y) = 0.08179 0.35783
# Poissons Ratio (z) = 0.47695 0.47897
#
# Static dielectric constant tensor:
#      x y z
#    x 1.948120 0.000000 -0.002270 
#    y 0.000000 1.911550 0.000000 
#    z -0.002270 0.000000 1.930520 
# 
# From -- ./inp_files/9665.got.cif
#   From: 2010.05.17/outbox.cif.g08.bks.cpg/sg13_5_cif.got.tgz:9665.got - 2010.06.03 16:44:36.
