data_PCOD9229106
_publ_section_title
;
Structure prediction by ZEFSAII (Michael W. Deem and Ramdas Pophale) SiO2 
 PCOD9229106
Probable space group: P 2/C
;
_chemical_formula_sum "Si O2"
_cell_formula_units_Z 32
_cell_length_a 12.053706
_cell_length_b 11.611545
_cell_length_c 11.747907
_cell_angle_alpha 90.000000
_cell_angle_beta 72.490924
_cell_angle_gamma 90.000000
_cell_volume 1568.082502
_symmetry_space_group_name_H-M "P 2/C"
_symmetry_group_IT_number 13
_symmetry_cell_setting 'monoclinic'
loop_
_space_group_symop_operation_xyz
x,y,z
-x,y,1/2-z
-x,-y,-z
x,-y,1/2+z
loop_
_atom_site_type_symbol
_atom_site_label
_atom_site_fract_x
_atom_site_fract_y
_atom_site_fract_z
Si Si1 0.686267 0.398625 0.884695
Si Si2 0.390202 0.808564 0.699706
Si Si3 0.785003 0.301283 0.078947
Si Si4 0.012602 0.273653 0.875973
Si Si5 0.592691 0.937715 0.322293
Si Si6 0.539462 0.715421 0.047698
Si Si7 0.743811 0.228746 0.661405
Si Si8 0.107117 0.524645 0.779690
O O1 0.547345 0.392169 0.903667
O O2 0.735284 0.313431 0.772199
O O3 0.783112 0.498133 0.838212
O O4 0.699680 0.349319 0.007461
O O5 0.500000 0.803961 0.750000
O O6 0.280703 0.781743 0.813262
O O7 0.408883 0.716766 0.594121
O O8 0.386439 0.934201 0.639865
O O9 0.837379 0.405816 0.134967
O O10 0.893253 0.250438 0.976592
O O11 0.122409 0.227986 0.912933
O O12 0.042344 0.410013 0.849226
O O13 0.000000 0.228684 0.750000
O O14 0.500000 0.949994 0.250000
O O15 0.541850 0.831498 0.412375
O O16 0.706833 0.893096 0.223769
O O17 0.645737 0.729208 0.103147
O O18 0.000000 0.587656 0.750000
#
# Coordination Sequence:
#
# PCOD9229106 Si02
#       8
#     4   4   4   4   4   4   4   4
#     4  10  19  38  61  85 113 150 196 243 285 346
#     4  11  22  36  55  89 125 155 186 241 299 339
#     4  12  22  37  59  88 119 146 199 249 290 344
#     4  10  19  38  63  85 109 154 199 240 287 346
#     4   8  17  34  60  89 113 152 198 233 281 349
#     4  10  19  37  62  86 119 155 194 237 285 355
#     4   9  18  36  63  87 112 149 203 237 285 344
#     4  10  21  37  60  85 111 153 204 237 288 346
#
# _framework density 20.407088999999999
#
# number of rings (size 3 to 8) (size 9 to 14) (size 15 to 20)
#    0.000    2.000    5.000    1.875    0.000    1.000 
#    2.250    3.750    0.000    0.750    0.000    0.000 
#    0.000    0.000    0.000    0.000    0.000    0.000 
#
# Total GULP energy -178166.631507 kJ/mol
# GULP energy per Si atom -5567.707235 kJ/mol
# Density = 2.036064 g / cm^3
# Si number density = 20.407089 Si / 1000 Ang^3
#
#
#
# Elastic Constant Matrix: (Units=GPa)
#
#
# Indices 1 2 3 4 5 6 
#
# 1 123.0145 15.5427 36.5293 0.0000 -10.0486 0.0000
# 2 15.5427 20.9115 15.4105 0.0000 -4.8281 0.0000
# 3 36.5293 15.4105 88.8430 0.0000 -12.5430 0.0000
# 4 0.0000 0.0000 0.0000 8.3351 0.0000 2.1370
# 5 -10.0486 -4.8281 -12.5430 0.0000 38.7530 0.0000
# 6 0.0000 0.0000 0.0000 2.1370 0.0000 6.9708
#
#
#
# Elastic Compliance Matrix: (Units=1/GPa)
#
#
# Indices 1 2 3 4 5 6 
#
# 1 0.009708 -0.004764 -0.003032 0.000000 0.000942 0.000000
# 2 -0.004764 0.057745 -0.007562 0.000000 0.003512 0.000000
# 3 -0.003032 -0.007562 0.014220 0.000000 0.002874 0.000000
# 4 0.000000 0.000000 0.000000 0.130208 0.000000 -0.039916
# 5 0.000942 0.003512 0.002874 0.000000 0.027417 0.000000
# 6 0.000000 0.000000 0.000000 -0.039916 0.000000 0.155693
#
#
# Mechanical properties :
#
#
# Convention : Reuss Voigt Hill
#
# Bulk Modulus (GPa) = 19.62427 40.85934 30.24180
# Shear Modulus (GPa) = 11.29453 21.83088 16.56271
#
# Velocity S-wave (km/s) = 2.35513 3.27428 2.85198
# Velocity P-wave (km/s) = 4.12708 5.86175 5.06917
#
# Compressibility (1/GPa) = 0.05095732
#
# Stress axis : x y z
#
# Youngs Moduli (GPa) = 103.00277 17.31766 70.32305
#
# Poissons Ratio (x) = 0.08249 0.21325
# Poissons Ratio (y) = 0.49067 0.53177
# Poissons Ratio (z) = 0.31235 0.13095
#
# Static dielectric constant tensor:
#      x y z
#    x 1.830280 0.000000 -0.030370 
#    y 0.000000 1.796190 0.000000 
#    z -0.030370 0.000000 1.737030 
# 
# From -- ./inp_files/34150.got.cif
#   From: 2010.05.17/outbox.cif.g08.bks.cpg/sg13_18_cif.got.tgz:34150.got - 2010.06.03 16:44:36.
