data_PCOD9229101
_publ_section_title
;
Structure prediction by ZEFSAII (Michael W. Deem and Ramdas Pophale) SiO2 
 PCOD9229101
Probable space group: P 2/C
;
_chemical_formula_sum "Si O2"
_cell_formula_units_Z 26
_cell_length_a 9.285943
_cell_length_b 17.898851
_cell_length_c 8.524704
_cell_angle_alpha 90.000000
_cell_angle_beta 75.964708
_cell_angle_gamma 90.000000
_cell_volume 1374.572996
_symmetry_space_group_name_H-M "P 2/C"
_symmetry_group_IT_number 13
_symmetry_cell_setting 'monoclinic'
loop_
_space_group_symop_operation_xyz
x,y,z
-x,y,1/2-z
-x,-y,-z
x,-y,1/2+z
loop_
_atom_site_type_symbol
_atom_site_label
_atom_site_fract_x
_atom_site_fract_y
_atom_site_fract_z
Si Si1 0.754195 0.599945 0.392953
Si Si2 0.173703 0.228511 0.710266
Si Si3 0.500000 0.997584 0.750000
Si Si4 0.605031 0.890204 0.474057
Si Si5 0.616116 0.774117 0.074884
Si Si6 0.843700 0.538980 0.709674
Si Si7 0.435937 0.623875 0.592878
O O1 0.787908 0.686997 0.354649
O O2 0.826293 0.569649 0.537163
O O3 0.817810 0.549926 0.234800
O O4 0.575641 0.592019 0.458305
O O5 0.265404 0.169781 0.580546
O O6 0.231621 0.216337 0.872717
O O7 0.000000 0.217096 0.750000
O O8 0.403364 0.052341 0.668063
O O9 0.603990 0.942916 0.623365
O O10 0.450872 0.843238 0.503475
O O11 0.500000 0.763661 0.250000
O O12 0.613402 0.700812 0.971746
O O13 0.707046 0.572494 0.846169
O O14 0.000000 0.557873 0.750000
O O15 0.500000 0.637825 0.750000
#
# Coordination Sequence:
#
# PCOD9229101 Si02
#       7
#     4   4   2   4   4   4   4
#     4  11  23  41  58  83 115 164 205 256 305 354
#     4  11  23  39  63  88 125 162 206 247 306 360
#     4  10  20  36  72  92 126 150 200 246 288 362
#     4  10  20  40  64  98 117 160 199 242 296 360
#     4  10  19  37  62  84 116 152 201 238 293 350
#     4  11  25  38  56  84 120 154 210 256 316 356
#     4  10  22  38  59  85 113 153 202 258 301 354
#
# _framework density 18.914964999999999
#
# number of rings (size 3 to 8) (size 9 to 14) (size 15 to 20)
#    0.000    1.538    5.385    1.385    5.385    0.000 
#    0.000    0.769    0.000    0.000    0.000    0.000 
#    0.000    0.000    0.000    0.000    0.000    0.000 
#
# Total GULP energy -145155.165311 kJ/mol
# GULP energy per Si atom -5582.890974 kJ/mol
# Density = 1.887191 g / cm^3
# Si number density = 18.914965 Si / 1000 Ang^3
#
#
#
# Elastic Constant Matrix: (Units=GPa)
#
#
# Indices 1 2 3 4 5 6 
#
# 1 133.4572 32.3393 12.5199 0.0000 -2.5969 0.0000
# 2 32.3393 134.8316 30.1059 0.0000 -4.1243 0.0000
# 3 12.5199 30.1059 27.1403 0.0000 -4.1082 0.0000
# 4 0.0000 0.0000 0.0000 30.6742 0.0000 1.3798
# 5 -2.5969 -4.1243 -4.1082 0.0000 10.9949 0.0000
# 6 0.0000 0.0000 0.0000 1.3798 0.0000 10.9256
#
#
#
# Elastic Compliance Matrix: (Units=1/GPa)
#
#
# Indices 1 2 3 4 5 6 
#
# 1 0.008047 -0.001466 -0.001994 0.000000 0.000606 0.000000
# 2 -0.001466 0.010127 -0.010637 0.000000 -0.000522 0.000000
# 3 -0.001994 -0.010637 0.051820 0.000000 0.014901 0.000000
# 4 0.000000 0.000000 0.000000 0.032787 0.000000 -0.004141
# 5 0.000606 -0.000522 0.014901 0.000000 0.096466 0.000000
# 6 0.000000 0.000000 0.000000 -0.004141 0.000000 0.092051
#
#
# Mechanical properties :
#
#
# Convention : Reuss Voigt Hill
#
# Bulk Modulus (GPa) = 23.92305 49.48436 36.70371
# Shear Modulus (GPa) = 14.99582 25.21653 20.10618
#
# Velocity S-wave (km/s) = 2.81873 3.65520 3.26387
# Velocity P-wave (km/s) = 4.82377 6.63568 5.80091
#
# Compressibility (1/GPa) = 0.04180068
#
# Stress axis : x y z
#
# Youngs Moduli (GPa) = 124.26660 98.74215 19.29766
#
# Poissons Ratio (x) = 0.14479 0.03848
# Poissons Ratio (y) = 0.18222 0.20526
# Poissons Ratio (z) = 0.24778 1.05027
#
# Static dielectric constant tensor:
#      x y z
#    x 1.676980 0.000000 0.013470 
#    y 0.000000 1.654470 0.000000 
#    z 0.013470 0.000000 1.688690 
# 
# From -- ./inp_files/13079.got.cif
#   From: 2010.05.17/outbox.cif.g08.bks.cpg/sg13_7_cif.got.tgz:13079.got - 2010.06.03 16:44:36.
