data_PCOD9229070
_publ_section_title
;
Structure prediction by ZEFSAII (Michael W. Deem and Ramdas Pophale) SiO2 
 PCOD9229070
Probable space group: P 2/C
;
_chemical_formula_sum "Si O2"
_cell_formula_units_Z 24
_cell_length_a 11.852381
_cell_length_b 7.386471
_cell_length_c 20.471538
_cell_angle_alpha 90.000000
_cell_angle_beta 33.626366
_cell_angle_gamma 90.000000
_cell_volume 992.490241
_symmetry_space_group_name_H-M "P 2/C"
_symmetry_group_IT_number 13
_symmetry_cell_setting 'monoclinic'
loop_
_space_group_symop_operation_xyz
x,y,z
-x,y,1/2-z
-x,-y,-z
x,-y,1/2+z
loop_
_atom_site_type_symbol
_atom_site_label
_atom_site_fract_x
_atom_site_fract_y
_atom_site_fract_z
Si Si1 0.710949 0.677875 0.069833
Si Si2 0.139017 0.052471 0.519970
Si Si3 0.286870 0.639571 0.030475
Si Si4 0.724687 0.339658 0.275362
Si Si5 0.000000 0.389062 0.250000
Si Si6 0.251568 0.709292 0.298575
Si Si7 0.500000 0.189091 0.250000
O O1 0.741810 0.490179 0.019051
O O2 0.482872 0.755285 0.166526
O O3 0.730671 0.639365 0.136351
O O4 0.862432 0.837204 0.978445
O O5 0.207590 0.160948 0.551493
O O6 0.311167 0.097370 0.381226
O O7 0.914290 0.133875 0.618092
O O8 0.528175 0.655334 0.917247
O O9 0.172628 0.526623 0.140115
O O10 0.805128 0.541099 0.219143
O O11 0.628618 0.272009 0.251424
O O12 0.898621 0.270476 0.241256
#
# Coordination Sequence:
#
# PCOD9229070 Si02
#       7
#     4   4   4   4   2   4   2
#     4  10  22  38  60  97 130 158 210 267 315 373
#     4  11  21  39  63  94 127 168 204 259 325 378
#     4  10  23  41  63  90 126 166 217 261 309 373
#     4  10  21  39  64  97 127 165 213 262 313 377
#     4  12  22  40  66  92 124 174 220 252 316 378
#     4  10  19  37  60  91 128 163 200 261 322 374
#     4  10  22  36  64 100 128 160 212 262 314 382
#
# _framework density 24.1816
#
# number of rings (size 3 to 8) (size 9 to 14) (size 15 to 20)
#    0.000    1.667    1.667    5.000    2.333    1.333 
#    3.000    0.833    0.000    6.000    0.000    0.000 
#    0.000    0.000    0.000    0.000    0.000    0.000 
#
# Total GULP energy -133828.311796 kJ/mol
# GULP energy per Si atom -5576.179658 kJ/mol
# Density = 2.412656 g / cm^3
# Si number density = 24.181600 Si / 1000 Ang^3
#
#
#
# Elastic Constant Matrix: (Units=GPa)
#
#
# Indices 1 2 3 4 5 6 
#
# 1 147.6430 13.2516 18.6082 0.0000 -11.1510 0.0000
# 2 13.2516 30.5087 -24.1546 0.0000 4.2867 0.0000
# 3 18.6082 -24.1546 89.0656 0.0000 0.9185 0.0000
# 4 0.0000 0.0000 0.0000 -64.6367 0.0000 -16.3910
# 5 -11.1510 4.2867 0.9185 0.0000 24.0464 0.0000
# 6 0.0000 0.0000 0.0000 -16.3910 0.0000 20.3405
#
#
#
# Elastic Compliance Matrix: (Units=1/GPa)
#
#
# Indices 1 2 3 4 5 6 
#
# 1 0.008311 -0.007353 -0.003785 0.000000 0.005309 0.000000
# 2 -0.007353 0.049791 0.015172 0.000000 -0.012866 0.000000
# 3 -0.003785 0.015172 0.016186 0.000000 -0.005078 0.000000
# 4 0.000000 0.000000 0.000000 -0.012846 0.000000 -0.010352
# 5 0.005309 -0.012866 -0.005078 0.000000 0.046536 0.000000
# 6 0.000000 0.000000 0.000000 -0.010352 0.000000 0.040821
#
#
# Mechanical properties :
#
#
# Convention : Reuss Voigt Hill
#
# Bulk Modulus (GPa) = 12.14233 31.40308 21.77270
# Shear Modulus (GPa) = 29.72947 13.25085 21.49016
#
# Velocity S-wave (km/s) = 3.51012 2.34342 2.98434
# Velocity P-wave (km/s) = 4.63251 4.50962 4.57148
#
# Compressibility (1/GPa) = 0.08235649
#
# Stress axis : x y z
#
# Youngs Moduli (GPa) = 120.32033 20.08376 61.78312
#
# Poissons Ratio (x) = 0.14767 0.23387
# Poissons Ratio (y) = 0.88471 -0.93740
# Poissons Ratio (z) = 0.45545 -0.30472
#
# Static dielectric constant tensor:
#      x y z
#    x 1.992700 0.000000 -0.054830 
#    y 0.000000 1.907760 0.000000 
#    z -0.054830 0.000000 1.981340 
# 
# From -- ./inp_files/77979.got.cif
#   From: 2010.05.17/outbox.cif.g08.bks.cpg/sg13_39_cif.got.tgz:77979.got - 2010.06.03 16:44:36.
