data_PCOD9229522
_publ_section_title
;
Structure prediction by ZEFSAII (Michael W. Deem and Ramdas Pophale) SiO2 
 PCOD9229522
Probable space group: P 2/C
;
_chemical_formula_sum "Si O2"
_cell_formula_units_Z 32
_cell_length_a 12.747922
_cell_length_b 8.020444
_cell_length_c 16.428496
_cell_angle_alpha 90.000000
_cell_angle_beta 96.824439
_cell_angle_gamma 90.000000
_cell_volume 1667.814129
_symmetry_space_group_name_H-M "P 2/C"
_symmetry_group_IT_number 13
_symmetry_cell_setting 'monoclinic'
loop_
_space_group_symop_operation_xyz
x,y,z
-x,y,1/2-z
-x,-y,-z
x,-y,1/2+z
loop_
_atom_site_type_symbol
_atom_site_label
_atom_site_fract_x
_atom_site_fract_y
_atom_site_fract_z
Si Si1 0.736971 0.724536 0.262737
Si Si2 0.731234 0.415092 0.072722
Si Si3 0.748142 0.894299 0.794458
Si Si4 0.617409 0.724767 0.084066
Si Si5 0.385007 0.714436 0.088374
Si Si6 0.124058 0.406831 0.275171
Si Si7 0.566380 0.721359 0.683619
Si Si8 0.613622 0.096810 0.428192
O O1 0.661731 0.751129 0.177859
O O2 0.668918 0.659869 0.333174
O O3 0.821395 0.580181 0.249642
O O4 0.779906 0.911437 0.286961
O O5 0.700153 0.602306 0.046930
O O6 0.843187 0.391813 0.126105
O O7 0.651361 0.380787 0.140789
O O8 0.696986 0.306636 0.993083
O O9 0.827074 0.755001 0.766401
O O10 0.637114 0.861926 0.735727
O O11 0.717768 0.859248 0.885610
O O12 0.500322 0.644302 0.077594
O O13 0.618138 0.884351 0.025348
O O14 0.409286 0.909235 0.099945
O O15 0.000000 0.413255 0.250000
O O16 0.500000 0.635771 0.750000
O O17 0.481854 0.790445 0.612445
#
# Coordination Sequence:
#
# PCOD9229522 Si02
#       8
#     4   4   4   4   4   4   4   4
#     4  10  23  38  58  85 120 151 188 232 281 338
#     4  10  22  34  53  84 109 149 192 235 283 325
#     4   9  20  37  59  84 112 149 189 230 285 333
#     4  11  21  32  53  86 121 158 189 217 265 335
#     4  11  21  34  54  85 123 155 185 220 272 338
#     4  10  23  43  64  82 104 142 195 247 301 335
#     4   9  17  31  51  80 117 154 187 220 265 335
#     4  10  20  31  54  82 119 157 183 219 272 328
#
# _framework density 19.186789999999998
#
# number of rings (size 3 to 8) (size 9 to 14) (size 15 to 20)
#    0.000    2.000    1.250    1.875    5.250    5.500 
#    0.000    0.625    0.000    1.500    0.000    0.000 
#    0.000    0.000    0.000    0.000    0.000    0.000 
#
# Total GULP energy -178415.490305 kJ/mol
# GULP energy per Si atom -5575.484072 kJ/mol
# Density = 1.914312 g / cm^3
# Si number density = 19.186790 Si / 1000 Ang^3
#
#
#
# Elastic Constant Matrix: (Units=GPa)
#
#
# Indices 1 2 3 4 5 6 
#
# 1 104.8139 31.0362 50.6100 0.0000 17.8874 0.0000
# 2 31.0362 64.8325 13.4153 0.0000 -1.7943 0.0000
# 3 50.6100 13.4153 107.8120 0.0000 1.2240 0.0000
# 4 0.0000 0.0000 0.0000 18.8802 0.0000 -2.7034
# 5 17.8874 -1.7943 1.2240 0.0000 19.1942 0.0000
# 6 0.0000 0.0000 0.0000 -2.7034 0.0000 16.8971
#
#
#
# Elastic Compliance Matrix: (Units=1/GPa)
#
#
# Indices 1 2 3 4 5 6 
#
# 1 0.018423 -0.007752 -0.007486 0.000000 -0.017416 0.000000
# 2 -0.007752 0.019144 0.001156 0.000000 0.008941 0.000000
# 3 -0.007486 0.001156 0.012574 0.000000 0.006283 0.000000
# 4 0.000000 0.000000 0.000000 0.054207 0.000000 0.008673
# 5 -0.017416 0.008941 0.006283 0.000000 0.068765 0.000000
# 6 0.000000 0.000000 0.000000 0.008673 0.000000 0.060569
#
#
# Mechanical properties :
#
#
# Convention : Reuss Voigt Hill
#
# Bulk Modulus (GPa) = 45.50453 51.95350 48.72901
# Shear Modulus (GPa) = 18.57534 23.15408 20.86471
#
# Velocity S-wave (km/s) = 3.11486 3.47763 3.30123
# Velocity P-wave (km/s) = 6.05843 6.57737 6.32322
#
# Compressibility (1/GPa) = 0.02197583
#
# Stress axis : x y z
#
# Youngs Moduli (GPa) = 54.27945 52.23601 79.52650
#
# Poissons Ratio (x) = 0.40496 0.59533
# Poissons Ratio (y) = 0.42080 -0.09190
# Poissons Ratio (z) = 0.40634 -0.06036
#
# Static dielectric constant tensor:
#      x y z
#    x 1.671340 0.000000 -0.012510 
#    y 0.000000 1.718350 0.000000 
#    z -0.012510 0.000000 1.702640 
# 
# From -- ./inp_files/50369.got.cif
#   From: 2010.05.17/outbox.cif.g08.bks.cpg/sg13_26_cif.got.tgz:50369.got - 2010.06.03 16:44:36.
