data_PCOD9229780
_publ_section_title
;
Structure prediction by ZEFSAII (Michael W. Deem and Ramdas Pophale) SiO2 
 PCOD9229780
Probable space group: P 2/C
;
_chemical_formula_sum "Si O2"
_cell_formula_units_Z 28
_cell_length_a 12.314442
_cell_length_b 5.044853
_cell_length_c 20.612624
_cell_angle_alpha 90.000000
_cell_angle_beta 92.698754
_cell_angle_gamma 90.000000
_cell_volume 1279.129724
_symmetry_space_group_name_H-M "P 2/C"
_symmetry_group_IT_number 13
_symmetry_cell_setting 'monoclinic'
loop_
_space_group_symop_operation_xyz
x,y,z
-x,y,1/2-z
-x,-y,-z
x,-y,1/2+z
loop_
_atom_site_type_symbol
_atom_site_label
_atom_site_fract_x
_atom_site_fract_y
_atom_site_fract_z
Si Si1 0.112422 0.866680 0.789730
Si Si2 0.353390 0.483814 0.933564
Si Si3 0.191160 0.639858 0.666577
Si Si4 0.880180 0.364377 0.621165
Si Si5 0.322416 0.350508 0.575283
Si Si6 0.102364 0.842917 0.101505
Si Si7 0.513943 0.989351 0.578254
O O1 0.196023 0.764085 0.737507
O O2 0.087115 0.616166 0.834603
O O3 0.000000 0.934319 0.750000
O O4 0.147920 0.117943 0.832485
O O5 0.225037 0.471176 0.918766
O O6 0.426833 0.715317 0.904444
O O7 0.398418 0.214918 0.905870
O O8 0.367571 0.513661 0.011898
O O9 0.131054 0.353637 0.663208
O O10 0.300805 0.561908 0.631521
O O11 0.124600 0.855008 0.621705
O O12 0.980440 0.245265 0.581458
O O13 0.201173 0.237289 0.556913
O O14 0.399878 0.110604 0.599390
O O15 0.500000 0.000000 0.500000
#
# Coordination Sequence:
#
# PCOD9229780 Si02
#       7
#     4   4   4   4   4   4   4
#     4  12  20  38  61  84 122 166 218 252 293 382
#     4  11  24  38  60  93 126 164 195 257 328 377
#     4  10  21  33  58  91 112 156 211 255 303 344
#     4  12  23  38  58  91 132 162 201 256 319 387
#     4   9  22  37  63  88 123 152 218 253 307 373
#     4  10  20  34  55  91 117 159 198 249 319 347
#     4  10  21  39  64  87 116 162 212 255 302 372
#
# _framework density 21.889883000000001
#
# number of rings (size 3 to 8) (size 9 to 14) (size 15 to 20)
#    0.857    0.571    2.857    3.857    6.000    0.571 
#    0.000    0.714    0.000    0.857    0.000    0.000 
#    0.000    0.000    0.000    0.000    0.000    0.000 
#
# Total GULP energy -156015.248868 kJ/mol
# GULP energy per Si atom -5571.973174 kJ/mol
# Density = 2.184006 g / cm^3
# Si number density = 21.889883 Si / 1000 Ang^3
#
#
#
# Elastic Constant Matrix: (Units=GPa)
#
#
# Indices 1 2 3 4 5 6 
#
# 1 131.5661 36.4209 41.0768 0.0000 5.9358 0.0000
# 2 36.4209 110.5290 14.0462 0.0000 -14.9422 0.0000
# 3 41.0768 14.0462 -0.1723 0.0000 -30.7762 0.0000
# 4 0.0000 0.0000 0.0000 10.7100 0.0000 -20.9739
# 5 5.9358 -14.9422 -30.7762 0.0000 5.0270 0.0000
# 6 0.0000 0.0000 0.0000 -20.9739 0.0000 36.4669
#
#
#
# Elastic Compliance Matrix: (Units=1/GPa)
#
#
# Indices 1 2 3 4 5 6 
#
# 1 0.006611 -0.001504 0.003331 0.000000 0.008118 0.000000
# 2 -0.001504 0.010556 -0.004952 0.000000 0.002838 0.000000
# 3 0.003331 -0.004952 -0.001902 0.000000 -0.030296 0.000000
# 4 0.000000 0.000000 0.000000 -0.739040 0.000000 -0.425058
# 5 0.008118 0.002838 -0.030296 0.000000 0.012300 0.000000
# 6 0.000000 0.000000 0.000000 -0.425058 0.000000 -0.217050
#
#
# Mechanical properties :
#
#
# Convention : Reuss Voigt Hill
#
# Bulk Modulus (GPa) = 110.91545 47.22342 79.06943
# Shear Modulus (GPa) = -5.43910 20.46605 7.51348
#
# Velocity S-wave (km/s) = -1.57802 3.06102 1.85468
# Velocity P-wave (km/s) = 6.88909 5.84064 6.38642
#
# Compressibility (1/GPa) = 0.00901588
#
# Stress axis : x y z
#
# Youngs Moduli (GPa) = 151.26796 94.73330 -525.79870
#
# Poissons Ratio (x) = 0.14250 1.75163
# Poissons Ratio (y) = 0.22754 -2.60356
# Poissons Ratio (z) = -0.50393 0.46908
#
# Static dielectric constant tensor:
#      x y z
#    x 1.912010 0.000000 -0.021100 
#    y 0.000000 1.819680 0.000000 
#    z -0.021100 0.000000 1.817140 
# 
# From -- ./inp_files/85602.got.cif
#   From: 2010.05.17/outbox.cif.g08.bks.cpg/sg13_43_cif.got.tgz:85602.got - 2010.06.03 16:44:36.
