data_PCOD9229554
_publ_section_title
;
Structure prediction by ZEFSAII (Michael W. Deem and Ramdas Pophale) SiO2 
 PCOD9229554
Probable space group: P 2/C
;
_chemical_formula_sum "Si O2"
_cell_formula_units_Z 26
_cell_length_a 15.909541
_cell_length_b 4.959965
_cell_length_c 20.858924
_cell_angle_alpha 90.000000
_cell_angle_beta 128.015256
_cell_angle_gamma 90.000000
_cell_volume 1296.790847
_symmetry_space_group_name_H-M "P 2/C"
_symmetry_group_IT_number 13
_symmetry_cell_setting 'monoclinic'
loop_
_space_group_symop_operation_xyz
x,y,z
-x,y,1/2-z
-x,-y,-z
x,-y,1/2+z
loop_
_atom_site_type_symbol
_atom_site_label
_atom_site_fract_x
_atom_site_fract_y
_atom_site_fract_z
Si Si1 0.522249 0.046700 0.934718
Si Si2 0.997129 0.165058 0.064219
Si Si3 0.821981 0.149886 0.253327
Si Si4 0.895754 0.665291 0.075370
Si Si5 0.342962 0.558773 0.503650
Si Si6 0.312556 0.354561 0.837141
Si Si7 0.000000 0.412946 0.250000
O O1 0.417831 0.202969 0.860714
O O2 0.619622 0.253094 0.972085
O O3 0.500000 0.000000 0.000000
O O4 0.562900 0.759193 0.928925
O O5 0.947677 0.462928 0.047077
O O6 0.114077 0.173668 0.150554
O O7 0.925646 0.972886 0.076176
O O8 0.000000 0.000000 0.000000
O O9 0.721794 0.353745 0.204535
O O10 0.904732 0.241887 0.237153
O O11 0.783996 0.848561 0.222303
O O12 0.769735 0.620539 0.017694
O O13 0.948092 0.581615 0.167759
O O14 0.328553 0.610572 0.420775
#
# Coordination Sequence:
#
# PCOD9229554 Si02
#       7
#     4   4   4   4   4   4   2
#     4  10  20  32  50  76 122 156 178 218 276 348
#     4  11  25  42  56  81 114 155 203 238 281 339
#     4  11  22  33  57  80 114 151 186 230 285 334
#     4  11  23  36  61  82 116 153 188 239 292 341
#     4  11  20  33  52  83 116 152 183 222 284 349
#     4  11  20  33  52  83 116 152 184 219 282 347
#     4  10  22  34  52  88 118 142 182 232 288 348
#
# _framework density 20.049496000000001
#
# number of rings (size 3 to 8) (size 9 to 14) (size 15 to 20)
#    0.000    1.231    1.538    7.846    4.308    1.231 
#    0.000    0.000    0.000    0.000    0.000   16.154 
#    0.000    0.000    0.000    0.000    0.000    0.000 
#
# Total GULP energy -145281.990196 kJ/mol
# GULP energy per Si atom -5587.768854 kJ/mol
# Density = 2.000386 g / cm^3
# Si number density = 20.049496 Si / 1000 Ang^3
#
#
#
# Elastic Constant Matrix: (Units=GPa)
#
#
# Indices 1 2 3 4 5 6 
#
# 1 39.3628 -1.7902 22.6453 0.0000 9.4289 0.0000
# 2 -1.7902 89.7309 -2.1896 0.0000 1.3847 0.0000
# 3 22.6453 -2.1896 49.8899 0.0000 3.9724 0.0000
# 4 0.0000 0.0000 0.0000 26.9148 0.0000 18.5629
# 5 9.4289 1.3847 3.9724 0.0000 22.7480 0.0000
# 6 0.0000 0.0000 0.0000 18.5629 0.0000 37.2006
#
#
#
# Elastic Compliance Matrix: (Units=1/GPa)
#
#
# Indices 1 2 3 4 5 6 
#
# 1 0.037776 0.000560 -0.016097 0.000000 -0.012881 0.000000
# 2 0.000560 0.011178 0.000314 0.000000 -0.000967 0.000000
# 3 -0.016097 0.000314 0.027213 0.000000 0.001901 0.000000
# 4 0.000000 0.000000 0.000000 0.056651 0.000000 -0.028268
# 5 -0.012881 -0.000967 0.001901 0.000000 0.049026 0.000000
# 6 0.000000 0.000000 0.000000 -0.028268 0.000000 0.040987
#
#
# Mechanical properties :
#
#
# Convention : Reuss Voigt Hill
#
# Bulk Modulus (GPa) = 21.87209 24.03497 22.95353
# Shear Modulus (GPa) = 18.62077 28.06056 23.34066
#
# Velocity S-wave (km/s) = 3.05083 3.74513 3.41567
# Velocity P-wave (km/s) = 4.83144 5.54213 5.19894
#
# Compressibility (1/GPa) = 0.04572036
#
# Stress axis : x y z
#
# Youngs Moduli (GPa) = 26.47188 89.46002 36.74735
#
# Poissons Ratio (x) = -0.05007 0.59150
# Poissons Ratio (y) = -0.01481 -0.01152
# Poissons Ratio (z) = 0.42611 -0.02805
#
# Static dielectric constant tensor:
#      x y z
#    x 1.717510 0.000000 0.020230 
#    y 0.000000 1.704410 0.000000 
#    z 0.020230 0.000000 1.715720 
# 
# From -- ./inp_files/79265.got.cif
#   From: 2010.05.17/outbox.cif.g08.bks.cpg/sg13_40_cif.got.tgz:79265.got - 2010.06.03 16:44:36.
