data_PCOD9229064
_publ_section_title
;
Structure prediction by ZEFSAII (Michael W. Deem and Ramdas Pophale) SiO2 
 PCOD9229064
Probable space group: P 2/C
;
_chemical_formula_sum "Si O2"
_cell_formula_units_Z 32
_cell_length_a 18.386276
_cell_length_b 10.286418
_cell_length_c 22.505867
_cell_angle_alpha 90.000000
_cell_angle_beta 161.304681
_cell_angle_gamma 90.000000
_cell_volume 1364.363107
_symmetry_space_group_name_H-M "P 2/C"
_symmetry_group_IT_number 13
_symmetry_cell_setting 'monoclinic'
loop_
_space_group_symop_operation_xyz
x,y,z
-x,y,1/2-z
-x,-y,-z
x,-y,1/2+z
loop_
_atom_site_type_symbol
_atom_site_label
_atom_site_fract_x
_atom_site_fract_y
_atom_site_fract_z
Si Si1 0.748197 0.737908 0.027854
Si Si2 0.343043 0.030412 0.755717
Si Si3 0.866804 0.063651 0.528589
Si Si4 0.308909 0.838785 0.050985
Si Si5 0.227299 0.764553 0.249566
Si Si6 0.648589 0.502792 0.674737
Si Si7 0.260852 0.454332 0.474516
Si Si8 0.402113 0.780496 0.869201
O O1 0.718043 0.594115 0.976650
O O2 0.000000 0.748714 0.250000
O O3 0.712010 0.851323 0.952744
O O4 0.583398 0.755273 0.956365
O O5 0.588267 0.088146 0.927028
O O6 0.214348 0.157880 0.678445
O O7 0.235165 0.966155 0.614522
O O8 0.322181 0.924907 0.792106
O O9 0.072729 0.160061 0.676366
O O10 0.900295 0.924893 0.586861
O O11 0.500000 0.853741 0.250000
O O12 0.277809 0.686196 0.017850
O O13 0.175939 0.614267 0.198191
O O14 0.475706 0.776415 0.472300
O O15 0.500000 0.500000 0.500000
O O16 0.466111 0.464968 0.584945
O O17 0.746214 0.649198 0.752782
O O18 0.000000 0.457578 0.250000
#
# Coordination Sequence:
#
# PCOD9229064 Si02
#       8
#     4   4   4   4   4   4   4   4
#     4  10  19  37  60  88 115 149 204 248 294 344
#     4  11  22  39  58  88 122 155 201 242 299 352
#     4  11  23  39  60  87 120 160 197 249 293 356
#     4  10  22  41  57  84 123 159 195 246 300 356
#     4  11  21  39  63  82 120 165 194 241 303 355
#     4   9  20  38  60  87 120 155 193 244 306 349
#     4  10  21  38  63  89 115 152 201 252 290 350
#     4  10  20  36  61  86 114 155 201 245 289 357
#
# _framework density 23.454166000000001
#
# number of rings (size 3 to 8) (size 9 to 14) (size 15 to 20)
#    0.000    1.750    3.750    0.750    1.750    1.500 
#    9.000    0.625    0.000    0.000    0.000    0.000 
#    0.000    0.000    0.000    0.000    0.000    0.000 
#
# Total GULP energy -178472.869099 kJ/mol
# GULP energy per Si atom -5577.277159 kJ/mol
# Density = 2.340078 g / cm^3
# Si number density = 23.454166 Si / 1000 Ang^3
#
#
#
# Elastic Constant Matrix: (Units=GPa)
#
#
# Indices 1 2 3 4 5 6 
#
# 1 58.0420 26.2417 -1.2796 0.0000 -8.9262 0.0000
# 2 26.2417 163.6555 12.4604 0.0000 -12.0888 0.0000
# 3 -1.2796 12.4604 24.9255 0.0000 -3.5199 0.0000
# 4 0.0000 0.0000 0.0000 23.7038 0.0000 -3.8869
# 5 -8.9262 -12.0888 -3.5199 0.0000 24.6757 0.0000
# 6 0.0000 0.0000 0.0000 -3.8869 0.0000 35.9096
#
#
#
# Elastic Compliance Matrix: (Units=1/GPa)
#
#
# Indices 1 2 3 4 5 6 
#
# 1 0.019573 -0.002941 0.003339 0.000000 0.006116 0.000000
# 2 -0.002941 0.006977 -0.003374 0.000000 0.001873 0.000000
# 3 0.003339 -0.003374 0.042777 0.000000 0.005657 0.000000
# 4 0.000000 0.000000 0.000000 0.042950 0.000000 0.004649
# 5 0.006116 0.001873 0.005657 0.000000 0.044462 0.000000
# 6 0.000000 0.000000 0.000000 0.004649 0.000000 0.028351
#
#
# Mechanical properties :
#
#
# Convention : Reuss Voigt Hill
#
# Bulk Modulus (GPa) = 15.77958 35.71868 25.74913
# Shear Modulus (GPa) = 23.56632 30.80452 27.18542
#
# Velocity S-wave (km/s) = 3.17327 3.62801 3.40823
# Velocity P-wave (km/s) = 4.49095 5.72819 5.14688
#
# Compressibility (1/GPa) = 0.06337303
#
# Stress axis : x y z
#
# Youngs Moduli (GPa) = 51.09174 143.32330 23.37727
#
# Poissons Ratio (x) = 0.42149 -0.07805
# Poissons Ratio (y) = 0.15025 0.07888
# Poissons Ratio (z) = -0.17057 0.48363
#
# Static dielectric constant tensor:
#      x y z
#    x 1.899850 0.000000 0.060390 
#    y 0.000000 1.937800 0.000000 
#    z 0.060390 0.000000 1.916160 
# 
# From -- ./inp_files/93595.got.cif
#   From: 2010.05.17/outbox.cif.g08.bks.cpg/sg13_47_cif.got.tgz:93595.got - 2010.06.03 16:44:36.
