data_PCOD9229107
_publ_section_title
;
Structure prediction by ZEFSAII (Michael W. Deem and Ramdas Pophale) SiO2 
 PCOD9229107
Probable space group: P 2/C
;
_chemical_formula_sum "Si O2"
_cell_formula_units_Z 20
_cell_length_a 11.629150
_cell_length_b 8.892713
_cell_length_c 13.732739
_cell_angle_alpha 90.000000
_cell_angle_beta 31.174902
_cell_angle_gamma 90.000000
_cell_volume 735.152673
_symmetry_space_group_name_H-M "P 2/C"
_symmetry_group_IT_number 13
_symmetry_cell_setting 'monoclinic'
loop_
_space_group_symop_operation_xyz
x,y,z
-x,y,1/2-z
-x,-y,-z
x,-y,1/2+z
loop_
_atom_site_type_symbol
_atom_site_label
_atom_site_fract_x
_atom_site_fract_y
_atom_site_fract_z
Si Si1 0.230821 0.458396 0.024901
Si Si2 0.669295 0.305519 0.744349
Si Si3 0.870630 0.047802 0.251501
Si Si4 0.063728 0.249567 0.592231
Si Si5 0.446600 0.047362 0.176944
O O1 0.253608 0.624866 0.960965
O O2 0.000000 0.451511 0.250000
O O3 0.448642 0.402722 0.924609
O O4 0.233798 0.348611 0.930496
O O5 0.611859 0.129575 0.779687
O O6 0.863373 0.328017 0.680078
O O7 0.739220 0.128838 0.257826
O O8 0.000000 0.121408 0.250000
O O9 0.042287 0.927488 0.079479
O O10 0.671180 0.955490 0.449536
O O11 0.000000 0.238516 0.750000
O O12 0.500000 0.094906 0.250000
#
# Coordination Sequence:
#
# PCOD9229107 Si02
#       5
#     4   4   4   4   4
#     4  10  20  34  60  89 117 160 200 248 301 356
#     4  10  20  38  59  92 124 155 203 254 300 365
#     4   9  20  37  61  85 120 161 200 253 306 363
#     4   9  19  36  60  82 124 161 200 246 302 369
#     4  10  19  37  62  86 122 156 203 254 304 363
#
# _framework density 27.205235999999999
#
# number of rings (size 3 to 8) (size 9 to 14) (size 15 to 20)
#    0.000    2.400    2.000    0.600    0.000    4.800 
#    0.000    0.000   61.600    0.000    0.000    0.000 
#    0.000    0.000    0.000    0.000    0.000    0.000 
#
# Total GULP energy -111661.837262 kJ/mol
# GULP energy per Si atom -5583.091863 kJ/mol
# Density = 2.714332 g / cm^3
# Si number density = 27.205236 Si / 1000 Ang^3
#
#
#
# Elastic Constant Matrix: (Units=GPa)
#
#
# Indices 1 2 3 4 5 6 
#
# 1 193.3313 7.2593 39.1584 0.0000 -6.0415 0.0000
# 2 7.2593 126.4536 32.2316 0.0000 -14.7609 0.0000
# 3 39.1584 32.2316 143.5697 0.0000 3.2718 0.0000
# 4 0.0000 0.0000 0.0000 46.0286 0.0000 -6.9254
# 5 -6.0415 -14.7609 3.2718 0.0000 46.6732 0.0000
# 6 0.0000 0.0000 0.0000 -6.9254 0.0000 54.6173
#
#
#
# Elastic Compliance Matrix: (Units=1/GPa)
#
#
# Indices 1 2 3 4 5 6 
#
# 1 0.005510 0.000185 -0.001565 0.000000 0.000882 0.000000
# 2 0.000185 0.008773 -0.002087 0.000000 0.002945 0.000000
# 3 -0.001565 -0.002087 0.007893 0.000000 -0.001416 0.000000
# 4 0.000000 0.000000 0.000000 0.022148 0.000000 0.002808
# 5 0.000882 0.002945 -0.001416 0.000000 0.022570 0.000000
# 6 0.000000 0.000000 0.000000 0.002808 0.000000 0.018665
#
#
# Mechanical properties :
#
#
# Convention : Reuss Voigt Hill
#
# Bulk Modulus (GPa) = 65.60337 68.96147 67.28242
# Shear Modulus (GPa) = 51.24333 55.11082 53.17708
#
# Velocity S-wave (km/s) = 4.34474 4.50571 4.42595
# Velocity P-wave (km/s) = 7.02393 7.24377 7.13469
#
# Compressibility (1/GPa) = 0.01524312
#
# Stress axis : x y z
#
# Youngs Moduli (GPa) = 181.49008 113.98374 126.69705
#
# Poissons Ratio (x) = -0.02113 0.19822
# Poissons Ratio (y) = -0.03364 0.26445
# Poissons Ratio (z) = 0.28395 0.23791
#
# Static dielectric constant tensor:
#      x y z
#    x 2.016180 0.000000 -0.056350 
#    y 0.000000 2.213190 0.000000 
#    z -0.056350 0.000000 2.227360 
# 
# From -- ./inp_files/51077.got.cif
#   From: 2010.05.17/outbox.cif.g08.bks.cpg/sg13_26_cif.got.tgz:51077.got - 2010.06.03 16:44:36.
