data_PCOD9229575
_publ_section_title
;
Structure prediction by ZEFSAII (Michael W. Deem and Ramdas Pophale) SiO2 
 PCOD9229575
Probable space group: P 2/C
;
_chemical_formula_sum "Si O2"
_cell_formula_units_Z 30
_cell_length_a 16.046840
_cell_length_b 8.838997
_cell_length_c 16.151053
_cell_angle_alpha 90.000000
_cell_angle_beta 137.298139
_cell_angle_gamma 90.000000
_cell_volume 1553.604949
_symmetry_space_group_name_H-M "P 2/C"
_symmetry_group_IT_number 13
_symmetry_cell_setting 'monoclinic'
loop_
_space_group_symop_operation_xyz
x,y,z
-x,y,1/2-z
-x,-y,-z
x,-y,1/2+z
loop_
_atom_site_type_symbol
_atom_site_label
_atom_site_fract_x
_atom_site_fract_y
_atom_site_fract_z
Si Si1 0.174082 0.351271 0.318414
Si Si2 0.994223 0.454324 0.591270
Si Si3 0.910934 0.824143 0.408737
Si Si4 0.212648 0.351684 0.940716
Si Si5 0.357134 0.118450 0.139050
Si Si6 0.191545 0.863525 0.676740
Si Si7 0.000000 0.887093 0.250000
Si Si8 0.153289 0.878645 0.953867
O O1 0.047733 0.419857 0.190756
O O2 0.238284 0.503938 0.400914
O O3 0.216270 0.250750 0.270161
O O4 0.160567 0.237888 0.384631
O O5 0.088352 0.314107 0.653389
O O6 0.000000 0.500000 0.500000
O O7 0.863877 0.410827 0.534505
O O8 0.862450 0.804352 0.467381
O O9 0.058508 0.841478 0.533724
O O10 0.829835 0.961515 0.313865
O O11 0.116308 0.226391 0.835037
O O12 0.329226 0.260472 0.058997
O O13 0.500000 0.085791 0.250000
O O14 0.296009 0.150112 0.183978
O O15 0.276522 0.978529 0.046440
O O16 0.040531 0.004485 0.352459
#
# Coordination Sequence:
#
# PCOD9229575 Si02
#       8
#     4   4   4   4   4   4   2   4
#     4  12  23  34  57  92 129 153 198 250 312 370
#     4  12  21  32  51  88 132 160 185 235 314 393
#     4  10  20  34  54  84 128 156 195 241 309 374
#     4  11  22  36  55  92 121 163 197 243 315 366
#     4  10  22  46  66  81 117 170 219 256 294 360
#     4  10  21  35  58  89 118 159 207 250 305 361
#     4  10  20  32  54  82 130 142 200 232 310 374
#     4  10  23  36  62  95 119 164 197 255 311 364
#
# _framework density 19.309929
#
# number of rings (size 3 to 8) (size 9 to 14) (size 15 to 20)
#    0.000    1.333    4.000    1.600    7.467    0.000 
#    0.000    2.000    0.000    0.000    0.000    0.000 
#    0.000    0.000    0.000    0.000    0.000    0.000 
#
# Total GULP energy -167190.209921 kJ/mol
# GULP energy per Si atom -5573.006997 kJ/mol
# Density = 1.926598 g / cm^3
# Si number density = 19.309929 Si / 1000 Ang^3
#
#
#
# Elastic Constant Matrix: (Units=GPa)
#
#
# Indices 1 2 3 4 5 6 
#
# 1 85.1903 36.8289 48.2147 0.0000 -11.2128 0.0000
# 2 36.8289 92.0717 29.3121 0.0000 -10.6723 0.0000
# 3 48.2147 29.3121 79.4225 0.0000 2.5586 0.0000
# 4 0.0000 0.0000 0.0000 28.4209 0.0000 -17.2167
# 5 -11.2128 -10.6723 2.5586 0.0000 29.1974 0.0000
# 6 0.0000 0.0000 0.0000 -17.2167 0.0000 31.9627
#
#
#
# Elastic Compliance Matrix: (Units=1/GPa)
#
#
# Indices 1 2 3 4 5 6 
#
# 1 0.020926 -0.003808 -0.011545 0.000000 0.007656 0.000000
# 2 -0.003808 0.013744 -0.002884 0.000000 0.003814 0.000000
# 3 -0.011545 -0.002884 0.020900 0.000000 -0.007319 0.000000
# 4 0.000000 0.000000 0.000000 0.052227 0.000000 0.028132
# 5 0.007656 0.003814 -0.007319 0.000000 0.039226 0.000000
# 6 0.000000 0.000000 0.000000 0.028132 0.000000 0.046440
#
#
# Mechanical properties :
#
#
# Convention : Reuss Voigt Hill
#
# Bulk Modulus (GPa) = 52.36394 53.93287 53.14840
# Shear Modulus (GPa) = 21.15935 27.40479 24.28207
#
# Velocity S-wave (km/s) = 3.31384 3.77132 3.54996
# Velocity P-wave (km/s) = 6.46673 6.85234 6.66233
#
# Compressibility (1/GPa) = 0.01909711
#
# Stress axis : x y z
#
# Youngs Moduli (GPa) = 47.78668 72.75668 47.84758
#
# Poissons Ratio (x) = 0.27703 0.55240
# Poissons Ratio (y) = 0.18195 0.13799
# Poissons Ratio (z) = 0.55170 0.20983
#
# Static dielectric constant tensor:
#      x y z
#    x 1.703070 0.000000 -0.072920 
#    y 0.000000 1.391650 0.000000 
#    z -0.072920 0.000000 1.677570 
# 
# From -- ./inp_files/68269.got.cif
#   From: 2010.05.17/outbox.cif.g08.bks.cpg/sg13_35_cif.got.tgz:68269.got - 2010.06.03 16:44:36.
