data_PCOD9229485
_publ_section_title
;
Structure prediction by ZEFSAII (Michael W. Deem and Ramdas Pophale) SiO2 
 PCOD9229485
Probable space group: P 2/C
;
_chemical_formula_sum "Si O2"
_cell_formula_units_Z 22
_cell_length_a 10.488730
_cell_length_b 6.349381
_cell_length_c 23.340422
_cell_angle_alpha 90.000000
_cell_angle_beta 37.873262
_cell_angle_gamma 90.000000
_cell_volume 954.272883
_symmetry_space_group_name_H-M "P 2/C"
_symmetry_group_IT_number 13
_symmetry_cell_setting 'monoclinic'
loop_
_space_group_symop_operation_xyz
x,y,z
-x,y,1/2-z
-x,-y,-z
x,-y,1/2+z
loop_
_atom_site_type_symbol
_atom_site_label
_atom_site_fract_x
_atom_site_fract_y
_atom_site_fract_z
Si Si1 0.756879 0.010370 0.636484
Si Si2 0.671324 0.924635 0.394115
Si Si3 0.879201 0.683257 0.510194
Si Si4 0.394282 0.807976 0.206172
Si Si5 0.000000 0.742329 0.750000
Si Si6 0.957299 0.400974 0.861095
O O1 0.689018 0.991741 0.726533
O O2 0.620136 0.197300 0.655204
O O3 0.985836 0.109189 0.555688
O O4 0.732858 0.798518 0.608198
O O5 0.797017 0.114130 0.320471
O O6 0.500000 0.000000 0.500000
O O7 0.575761 0.813398 0.372245
O O8 0.842630 0.780198 0.364837
O O9 0.000000 0.500000 0.500000
O O10 0.829274 0.586617 0.465786
O O11 0.201086 0.651684 0.285601
O O12 0.964004 0.603013 0.818831
#
# Coordination Sequence:
#
# PCOD9229485 Si02
#       6
#     4   4   4   4   2   4
#     4   9  21  39  63  89 127 178 205 272 329 392
#     4  12  25  43  69  98 132 181 223 279 341 410
#     4  10  22  39  63  96 129 165 223 269 326 402
#     4  10  19  43  63  88 134 169 219 265 330 397
#     4  12  24  44  70  94 134 190 218 294 344 390
#     4  11  23  44  65  99 137 171 225 280 334 404
#
# _framework density 23.054203000000001
#
# number of rings (size 3 to 8) (size 9 to 14) (size 15 to 20)
#    0.000    1.455    3.636    1.091    2.545    3.636 
#    6.545    1.818    0.000    0.000    0.000    0.000 
#    0.000    0.000    0.000    0.000    0.000    0.000 
#
# Total GULP energy -122505.537309 kJ/mol
# GULP energy per Si atom -5568.433514 kJ/mol
# Density = 2.300173 g / cm^3
# Si number density = 23.054203 Si / 1000 Ang^3
#
#
#
# Elastic Constant Matrix: (Units=GPa)
#
#
# Indices 1 2 3 4 5 6 
#
# 1 81.5763 15.1945 3.7270 0.0000 27.8924 0.0000
# 2 15.1945 47.7205 10.9778 0.0000 3.4935 0.0000
# 3 3.7270 10.9778 89.3567 0.0000 23.7907 0.0000
# 4 0.0000 0.0000 0.0000 -27.7809 0.0000 -19.5596
# 5 27.8924 3.4935 23.7907 0.0000 53.0862 0.0000
# 6 0.0000 0.0000 0.0000 -19.5596 0.0000 5.5556
#
#
#
# Elastic Compliance Matrix: (Units=1/GPa)
#
#
# Indices 1 2 3 4 5 6 
#
# 1 0.016269 -0.005056 0.002418 0.000000 -0.009299 0.000000
# 2 -0.005056 0.023139 -0.003331 0.000000 0.002627 0.000000
# 3 0.002418 -0.003331 0.013375 0.000000 -0.007046 0.000000
# 4 0.000000 0.000000 0.000000 -0.010347 0.000000 -0.036429
# 5 -0.009299 0.002627 -0.007046 0.000000 0.026708 0.000000
# 6 0.000000 0.000000 0.000000 -0.036429 0.000000 0.051742
#
#
# Mechanical properties :
#
#
# Convention : Reuss Voigt Hill
#
# Bulk Modulus (GPa) = 24.48177 30.93912 27.71044
# Shear Modulus (GPa) = 34.14400 18.75580 26.44990
#
# Velocity S-wave (km/s) = 3.85259 2.85538 3.39084
# Velocity P-wave (km/s) = 5.51654 4.93155 5.23223
#
# Compressibility (1/GPa) = 0.04084672
#
# Stress axis : x y z
#
# Youngs Moduli (GPa) = 61.46568 43.21681 74.76446
#
# Poissons Ratio (x) = 0.21849 -0.18081
# Poissons Ratio (y) = 0.31076 0.24905
# Poissons Ratio (z) = -0.14865 0.14396
#
# Static dielectric constant tensor:
#      x y z
#    x 1.839220 0.000000 -0.054520 
#    y 0.000000 1.930020 0.000000 
#    z -0.054520 0.000000 1.968870 
# 
# From -- ./inp_files/85752.got.cif
#   From: 2010.05.17/outbox.cif.g08.bks.cpg/sg13_43_cif.got.tgz:85752.got - 2010.06.03 16:44:36.
