data_PCOD9229979
_publ_section_title
;
Structure prediction by ZEFSAII (Michael W. Deem and Ramdas Pophale) SiO2 
 PCOD9229979
Probable space group: P 2/C
;
_chemical_formula_sum "Si O2"
_cell_formula_units_Z 30
_cell_length_a 28.540520
_cell_length_b 11.743816
_cell_length_c 8.655055
_cell_angle_alpha 90.000000
_cell_angle_beta 150.050075
_cell_angle_gamma 90.000000
_cell_volume 1448.281128
_symmetry_space_group_name_H-M "P 2/C"
_symmetry_group_IT_number 13
_symmetry_cell_setting 'monoclinic'
loop_
_space_group_symop_operation_xyz
x,y,z
-x,y,1/2-z
-x,-y,-z
x,-y,1/2+z
loop_
_atom_site_type_symbol
_atom_site_label
_atom_site_fract_x
_atom_site_fract_y
_atom_site_fract_z
Si Si1 0.820022 0.204505 0.695944
Si Si2 0.838909 0.753415 0.596971
Si Si3 0.787549 0.059651 0.162414
Si Si4 0.592433 0.423105 0.231515
Si Si5 0.337493 0.802723 0.991542
Si Si6 0.500000 0.762592 0.250000
Si Si7 0.965365 0.130541 0.873515
Si Si8 0.310535 0.383562 0.668015
O O1 0.741987 0.246024 0.352316
O O2 0.918243 0.190486 0.886988
O O3 0.795315 0.072479 0.657078
O O4 0.823176 0.266012 0.869602
O O5 0.782652 0.866940 0.491804
O O6 0.794177 0.655865 0.578327
O O7 0.947549 0.790194 0.924183
O O8 0.704265 0.089921 0.039200
O O9 0.880886 0.109725 0.512393
O O10 0.631988 0.384693 0.508806
O O11 0.669956 0.497560 0.361554
O O12 0.500000 0.500000 0.000000
O O13 0.560392 0.319469 0.033348
O O14 0.428721 0.829351 0.154153
O O15 0.350312 0.708472 0.160442
O O16 0.000000 0.000000 0.000000
#
# Coordination Sequence:
#
# PCOD9229979 Si02
#       8
#     4   4   4   4   4   2   4   4
#     4  11  20  36  55  86 130 174 214 257 298 355
#     4  11  21  31  55  93 129 164 204 257 309 358
#     4  10  20  35  56  85 129 172 215 257 300 347
#     4  12  21  39  69  93 119 149 198 261 329 391
#     4  10  23  37  56  90 126 160 208 267 312 369
#     4  12  22  40  66  94 118 150 208 260 326 388
#     4  11  19  32  57  90 125 172 218 253 295 344
#     4  11  23  40  60  97 125 150 193 262 330 375
#
# _framework density 20.714212
#
# number of rings (size 3 to 8) (size 9 to 14) (size 15 to 20)
#    0.000    1.067    5.333    2.400    0.000    0.000 
#    0.000    0.667    0.000    0.000    0.000   82.133 
#    0.000    0.000    0.000    0.000    0.000    0.000 
#
# Total GULP energy -167527.434199 kJ/mol
# GULP energy per Si atom -5584.247807 kJ/mol
# Density = 2.066707 g / cm^3
# Si number density = 20.714212 Si / 1000 Ang^3
#
#
#
# Elastic Constant Matrix: (Units=GPa)
#
#
# Indices 1 2 3 4 5 6 
#
# 1 179.0386 32.2839 51.2855 0.0000 19.4689 0.0000
# 2 32.2839 29.0571 28.3633 0.0000 10.9139 0.0000
# 3 51.2855 28.3633 76.8537 0.0000 -4.8798 0.0000
# 4 0.0000 0.0000 0.0000 25.0959 0.0000 3.2122
# 5 19.4689 10.9139 -4.8798 0.0000 51.3918 0.0000
# 6 0.0000 0.0000 0.0000 3.2122 0.0000 41.8629
#
#
#
# Elastic Compliance Matrix: (Units=1/GPa)
#
#
# Indices 1 2 3 4 5 6 
#
# 1 0.007642 -0.003815 -0.003847 0.000000 -0.002450 0.000000
# 2 -0.003815 0.066736 -0.023031 0.000000 -0.014914 0.000000
# 3 -0.003847 -0.023031 0.024630 0.000000 0.008687 0.000000
# 4 0.000000 0.000000 0.000000 0.040242 0.000000 -0.003088
# 5 -0.002450 -0.014914 0.008687 0.000000 0.024379 0.000000
# 6 0.000000 0.000000 0.000000 -0.003088 0.000000 0.024124
#
#
# Mechanical properties :
#
#
# Convention : Reuss Voigt Hill
#
# Bulk Modulus (GPa) = 26.57961 56.53496 41.55728
# Shear Modulus (GPa) = 19.10736 35.20457 27.15596
#
# Velocity S-wave (km/s) = 3.04044 4.12702 3.62468
# Velocity P-wave (km/s) = 5.01848 7.07543 6.13380
#
# Compressibility (1/GPa) = 0.03762283
#
# Stress axis : x y z
#
# Youngs Moduli (GPa) = 130.86109 14.98440 40.60074
#
# Poissons Ratio (x) = 0.05716 0.15619
# Poissons Ratio (y) = 0.49921 0.93506
# Poissons Ratio (z) = 0.50343 0.34510
#
# Static dielectric constant tensor:
#      x y z
#    x 1.803540 0.000000 -0.001220 
#    y 0.000000 1.729590 0.000000 
#    z -0.001220 0.000000 1.789330 
# 
# From -- ./inp_files/24942.got.cif
#   From: 2010.05.17/outbox.cif.g08.bks.cpg/sg13_13_cif.got.tgz:24942.got - 2010.06.03 16:44:36.
