data_PCOD9229684
_publ_section_title
;
Structure prediction by ZEFSAII (Michael W. Deem and Ramdas Pophale) SiO2 
 PCOD9229684
Probable space group: P 2/C
;
_chemical_formula_sum "Si O2"
_cell_formula_units_Z 28
_cell_length_a 21.429522
_cell_length_b 11.583976
_cell_length_c 27.572008
_cell_angle_alpha 90.000000
_cell_angle_beta 11.251924
_cell_angle_gamma 90.000000
_cell_volume 1335.511294
_symmetry_space_group_name_H-M "P 2/C"
_symmetry_group_IT_number 13
_symmetry_cell_setting 'monoclinic'
loop_
_space_group_symop_operation_xyz
x,y,z
-x,y,1/2-z
-x,-y,-z
x,-y,1/2+z
loop_
_atom_site_type_symbol
_atom_site_label
_atom_site_fract_x
_atom_site_fract_y
_atom_site_fract_z
Si Si1 0.810544 0.111803 0.585086
Si Si2 0.347863 0.869073 0.758507
Si Si3 0.630535 0.503537 0.513409
Si Si4 0.628975 0.126761 0.414476
Si Si5 0.250501 0.264824 0.624987
Si Si6 0.364746 0.753958 0.488568
Si Si7 0.485431 0.339932 0.314982
O O1 0.070232 0.116905 0.430604
O O2 0.012545 0.130765 0.382015
O O3 0.634288 0.988157 0.725433
O O4 0.564345 0.208903 0.789285
O O5 0.634299 0.822001 0.505747
O O6 0.289358 0.765979 0.841174
O O7 0.606513 0.607236 0.493406
O O8 0.537829 0.375259 0.569571
O O9 0.453383 0.556319 0.694893
O O10 0.000000 0.499585 0.250000
O O11 0.399976 0.213524 0.559528
O O12 0.606920 0.157825 0.487930
O O13 0.500000 0.000000 0.500000
O O14 0.872361 0.284734 0.910301
O O15 0.000000 0.752614 0.750000
O O16 0.500000 0.383882 0.250000
#
# Coordination Sequence:
#
# PCOD9229684 Si02
#       7
#     4   4   4   4   4   4   4
#     4  10  22  39  60  90 125 163 204 250 300 377
#     4   9  18  37  58  83 127 158 191 254 308 350
#     4   8  18  41  59  83 124 161 202 251 311 362
#     4  11  24  41  66  92 123 164 205 254 309 366
#     4   9  19  37  61  88 120 158 202 256 310 362
#     4  11  24  43  64  86 126 169 199 252 313 363
#     4  10  20  33  61  94 117 157 210 260 305 369
#
# _framework density 20.965754
#
# number of rings (size 3 to 8) (size 9 to 14) (size 15 to 20)
#    0.000    2.286    0.000    3.857    4.000    3.429 
#    7.714    7.143    0.000    0.000    0.000    0.000 
#    0.000    0.000    0.000    0.000    0.000    0.000 
#
# Total GULP energy -156105.006039 kJ/mol
# GULP energy per Si atom -5575.178787 kJ/mol
# Density = 2.091804 g / cm^3
# Si number density = 20.965754 Si / 1000 Ang^3
#
#
#
# Elastic Constant Matrix: (Units=GPa)
#
#
# Indices 1 2 3 4 5 6 
#
# 1 55.7204 22.1823 -1.1621 0.0000 9.9604 0.0000
# 2 22.1823 124.7893 20.2850 0.0000 6.4170 0.0000
# 3 -1.1621 20.2850 77.4866 0.0000 17.9622 0.0000
# 4 0.0000 0.0000 0.0000 -965.9546 0.0000 -495.6696
# 5 9.9604 6.4170 17.9622 0.0000 16.5584 0.0000
# 6 0.0000 0.0000 0.0000 -495.6696 0.0000 -222.0466
#
#
#
# Elastic Compliance Matrix: (Units=1/GPa)
#
#
# Indices 1 2 3 4 5 6 
#
# 1 0.022969 -0.004059 0.005672 0.000000 -0.018396 0.000000
# 2 -0.004059 0.009104 -0.002929 0.000000 0.002091 0.000000
# 3 0.005672 -0.002929 0.019084 0.000000 -0.022979 0.000000
# 4 0.000000 0.000000 0.000000 0.007117 0.000000 -0.015886
# 5 -0.018396 0.002091 -0.022979 0.000000 0.095575 0.000000
# 6 0.000000 0.000000 0.000000 -0.015886 0.000000 0.030959
#
#
# Mechanical properties :
#
#
# Convention : Reuss Voigt Hill
#
# Bulk Modulus (GPa) = 20.60811 37.84519 29.22665
# Shear Modulus (GPa) = 24.55624 -219.84250 -97.64313
#
# Velocity S-wave (km/s) = 3.42607 -10.25112 -6.83182
# Velocity P-wave (km/s) = 5.04989 11.04644 6.94703
#
# Compressibility (1/GPa) = 0.04852460
#
# Stress axis : x y z
#
# Youngs Moduli (GPa) = 43.53623 109.84679 52.40024
#
# Poissons Ratio (x) = 0.44586 -0.29719
# Poissons Ratio (y) = 0.17671 0.15346
# Poissons Ratio (z) = -0.24692 0.32171
#
# Static dielectric constant tensor:
#      x y z
#    x 1.759380 0.000000 0.023080 
#    y 0.000000 1.764290 0.000000 
#    z 0.023080 0.000000 1.822210 
# 
# From -- ./inp_files/97715.got.cif
#   From: 2010.05.17/outbox.cif.g08.bks.cpg/sg13_49_cif.got.tgz:97715.got - 2010.06.03 16:44:36.
