data_PCOD9229767
_publ_section_title
;
Structure prediction by ZEFSAII (Michael W. Deem and Ramdas Pophale) SiO2 
 PCOD9229767
Probable space group: P 2/C
;
_chemical_formula_sum "Si O2"
_cell_formula_units_Z 28
_cell_length_a 6.859346
_cell_length_b 9.184760
_cell_length_c 29.490486
_cell_angle_alpha 90.000000
_cell_angle_beta 132.380120
_cell_angle_gamma 90.000000
_cell_volume 1372.442749
_symmetry_space_group_name_H-M "P 2/C"
_symmetry_group_IT_number 13
_symmetry_cell_setting 'monoclinic'
loop_
_space_group_symop_operation_xyz
x,y,z
-x,y,1/2-z
-x,-y,-z
x,-y,1/2+z
loop_
_atom_site_type_symbol
_atom_site_label
_atom_site_fract_x
_atom_site_fract_y
_atom_site_fract_z
Si Si1 0.096096 0.467265 0.861940
Si Si2 0.074135 0.256438 0.107174
Si Si3 0.000000 0.126162 0.250000
Si Si4 0.500000 0.523728 0.250000
Si Si5 0.211798 0.996461 0.192931
Si Si6 0.745700 0.827508 0.075594
Si Si7 0.589820 0.375564 0.166716
Si Si8 0.767084 0.029953 0.998123
O O1 0.247048 0.342589 0.913342
O O2 0.261674 0.511988 0.843097
O O3 0.059748 0.614865 0.885248
O O4 0.795099 0.411604 0.804485
O O5 0.220964 0.146881 0.165419
O O6 0.292566 0.327155 0.108169
O O7 0.871033 0.156654 0.048086
O O8 0.082128 0.031443 0.220481
O O9 0.231662 0.232809 0.302558
O O10 0.557093 0.435487 0.212679
O O11 0.500000 0.939445 0.250000
O O12 0.023980 0.891244 0.135607
O O13 0.714145 0.885034 0.019329
O O14 0.507175 0.909192 0.064454
O O15 0.000000 0.000000 0.000000
#
# Coordination Sequence:
#
# PCOD9229767 Si02
#       8
#     4   4   2   2   4   4   4   4
#     4  11  22  39  61  92 134 161 203 258 321 379
#     4  10  22  38  65  93 119 163 212 258 315 372
#     4  12  18  32  58  88 126 162 204 240 296 380
#     4  10  20  34  54  92 128 168 192 242 306 372
#     4  11  22  37  60  94 126 162 210 253 304 376
#     4  10  26  44  62  93 125 166 211 264 320 370
#     4  11  19  34  60  91 124 164 202 251 304 368
#     4  10  24  47  69  85 121 167 219 270 312 368
#
# _framework density 20.401579000000002
#
# number of rings (size 3 to 8) (size 9 to 14) (size 15 to 20)
#    0.000    1.429    4.286    0.857    4.000    4.000 
#    2.571    1.429    0.000    0.000    0.000    0.000 
#    0.000    0.000    0.000    0.000    0.000    0.000 
#
# Total GULP energy -156228.763267 kJ/mol
# GULP energy per Si atom -5579.598688 kJ/mol
# Density = 2.035514 g / cm^3
# Si number density = 20.401579 Si / 1000 Ang^3
#
#
#
# Elastic Constant Matrix: (Units=GPa)
#
#
# Indices 1 2 3 4 5 6 
#
# 1 135.8632 25.5007 18.3014 0.0000 3.8331 0.0000
# 2 25.5007 65.4253 22.5973 0.0000 -4.4170 0.0000
# 3 18.3014 22.5973 54.9141 0.0000 14.4733 0.0000
# 4 0.0000 0.0000 0.0000 15.2931 0.0000 21.6028
# 5 3.8331 -4.4170 14.4733 0.0000 24.2469 0.0000
# 6 0.0000 0.0000 0.0000 21.6028 0.0000 3.0736
#
#
#
# Elastic Compliance Matrix: (Units=1/GPa)
#
#
# Indices 1 2 3 4 5 6 
#
# 1 0.008083 -0.002776 -0.001283 0.000000 -0.001017 0.000000
# 2 -0.002776 0.020615 -0.010281 0.000000 0.010331 0.000000
# 3 -0.001283 -0.010281 0.027660 0.000000 -0.018181 0.000000
# 4 0.000000 0.000000 0.000000 -0.007324 0.000000 0.051475
# 5 -0.001017 0.010331 -0.018181 0.000000 0.054138 0.000000
# 6 0.000000 0.000000 0.000000 0.051475 0.000000 -0.036440
#
#
# Mechanical properties :
#
#
# Convention : Reuss Voigt Hill
#
# Bulk Modulus (GPa) = 36.12978 43.22240 39.67609
# Shear Modulus (GPa) = 47.78382 21.17626 34.48004
#
# Velocity S-wave (km/s) = 4.84484 3.22525 4.11550
# Velocity P-wave (km/s) = 7.00317 5.92465 6.48636
#
# Compressibility (1/GPa) = 0.02767800
#
# Stress axis : x y z
#
# Youngs Moduli (GPa) = 123.71730 48.50858 36.15284
#
# Poissons Ratio (x) = 0.13465 0.04640
# Poissons Ratio (y) = 0.34343 0.37168
# Poissons Ratio (z) = 0.15878 0.49871
#
# Static dielectric constant tensor:
#      x y z
#    x 1.741600 0.000000 0.031870 
#    y 0.000000 1.718180 0.000000 
#    z 0.031870 0.000000 1.716580 
# 
# From -- ./inp_files/95138.got.cif
#   From: 2010.05.17/outbox.cif.g08.bks.cpg/sg13_48_cif.got.tgz:95138.got - 2010.06.03 16:44:36.
