data_PCOD9229991
_publ_section_title
;
Structure prediction by ZEFSAII (Michael W. Deem and Ramdas Pophale) SiO2 
 PCOD9229991
Probable space group: P 2/C
;
_chemical_formula_sum "Si O2"
_cell_formula_units_Z 28
_cell_length_a 15.007094
_cell_length_b 7.079040
_cell_length_c 14.088430
_cell_angle_alpha 90.000000
_cell_angle_beta 65.250772
_cell_angle_gamma 90.000000
_cell_volume 1359.222603
_symmetry_space_group_name_H-M "P 2/C"
_symmetry_group_IT_number 13
_symmetry_cell_setting 'monoclinic'
loop_
_space_group_symop_operation_xyz
x,y,z
-x,y,1/2-z
-x,-y,-z
x,-y,1/2+z
loop_
_atom_site_type_symbol
_atom_site_label
_atom_site_fract_x
_atom_site_fract_y
_atom_site_fract_z
Si Si1 0.205400 0.562065 0.326375
Si Si2 0.554826 0.273885 0.556034
Si Si3 0.735449 0.882166 0.084792
Si Si4 0.887046 0.820922 0.560445
Si Si5 0.422179 0.014400 0.704747
Si Si6 0.583480 0.420378 0.334665
Si Si7 0.953313 0.839882 0.166472
O O1 0.209653 0.686553 0.420866
O O2 0.158227 0.361798 0.371001
O O3 0.316185 0.519476 0.242303
O O4 0.136920 0.691215 0.289696
O O5 0.648898 0.158807 0.550222
O O6 0.584900 0.374158 0.445886
O O7 0.510980 0.445862 0.638663
O O8 0.462390 0.127593 0.595901
O O9 0.807596 0.055245 0.036303
O O10 0.682964 0.927544 0.209241
O O11 0.970117 0.765561 0.447502
O O12 0.921411 0.963424 0.629365
O O13 0.500000 0.076621 0.750000
O O14 0.425472 0.789758 0.701407
O O15 0.000000 0.864600 0.250000
#
# Coordination Sequence:
#
# PCOD9229991 Si02
#       7
#     4   4   4   4   4   4   4
#     4  11  22  38  64  89 121 158 206 258 309 379
#     4  10  23  37  54  87 130 161 205 253 289 354
#     4  10  21  38  59  88 119 161 207 249 295 367
#     4  10  22  43  66  92 122 163 207 256 325 384
#     4  10  20  35  57  80 117 168 203 240 291 351
#     4  11  22  36  57  88 122 165 205 248 301 353
#     4  10  24  44  66  93 123 155 203 271 326 383
#
# _framework density 20.600010999999999
#
# number of rings (size 3 to 8) (size 9 to 14) (size 15 to 20)
#    0.000    1.714    2.857    0.857    2.000    2.857 
#    0.000    1.429    0.000    0.000    0.000    0.000 
#    0.000    0.000    0.000    0.000    0.000    0.000 
#
# Total GULP energy -156052.684170 kJ/mol
# GULP energy per Si atom -5573.310149 kJ/mol
# Density = 2.055312 g / cm^3
# Si number density = 20.600011 Si / 1000 Ang^3
#
#
#
# Elastic Constant Matrix: (Units=GPa)
#
#
# Indices 1 2 3 4 5 6 
#
# 1 60.7303 4.7769 1.0544 0.0000 1.6853 0.0000
# 2 4.7769 90.9513 6.3842 0.0000 -0.6918 0.0000
# 3 1.0544 6.3842 44.1101 0.0000 2.3811 0.0000
# 4 0.0000 0.0000 0.0000 29.8808 0.0000 -17.4237
# 5 1.6853 -0.6918 2.3811 0.0000 23.4196 0.0000
# 6 0.0000 0.0000 0.0000 -17.4237 0.0000 35.1037
#
#
#
# Elastic Compliance Matrix: (Units=1/GPa)
#
#
# Indices 1 2 3 4 5 6 
#
# 1 0.016571 -0.000865 -0.000206 0.000000 -0.001197 0.000000
# 2 -0.000865 0.011159 -0.001624 0.000000 0.000557 0.000000
# 3 -0.000206 -0.001624 0.023039 0.000000 -0.002376 0.000000
# 4 0.000000 0.000000 0.000000 0.047097 0.000000 0.023377
# 5 -0.001197 0.000557 -0.002376 0.000000 0.043043 0.000000
# 6 0.000000 0.000000 0.000000 0.023377 0.000000 0.040090
#
#
# Mechanical properties :
#
#
# Convention : Reuss Voigt Hill
#
# Bulk Modulus (GPa) = 22.03753 24.46918 23.25335
# Shear Modulus (GPa) = 24.81186 29.91923 27.36555
#
# Velocity S-wave (km/s) = 3.47430 3.81516 3.64871
# Velocity P-wave (km/s) = 5.17835 5.59565 5.39104
#
# Compressibility (1/GPa) = 0.04537714
#
# Stress axis : x y z
#
# Youngs Moduli (GPa) = 60.34610 89.61710 43.40499
#
# Poissons Ratio (x) = 0.07752 0.00896
# Poissons Ratio (y) = 0.05220 0.07051
# Poissons Ratio (z) = 0.01245 0.14557
#
# Static dielectric constant tensor:
#      x y z
#    x 1.779890 0.000000 0.003330 
#    y 0.000000 1.752350 0.000000 
#    z 0.003330 0.000000 1.786810 
# 
# From -- ./inp_files/54581.got.cif
#   From: 2010.05.17/outbox.cif.g08.bks.cpg/sg13_28_cif.got.tgz:54581.got - 2010.06.03 16:44:36.
