data_PCOD9229443
_publ_section_title
;
Structure prediction by ZEFSAII (Michael W. Deem and Ramdas Pophale) SiO2 
 PCOD9229443
Probable space group: P 2/C
;
_chemical_formula_sum "Si O2"
_cell_formula_units_Z 32
_cell_length_a 8.807677
_cell_length_b 14.030362
_cell_length_c 24.159063
_cell_angle_alpha 90.000000
_cell_angle_beta 149.151178
_cell_angle_gamma 90.000000
_cell_volume 1530.864842
_symmetry_space_group_name_H-M "P 2/C"
_symmetry_group_IT_number 13
_symmetry_cell_setting 'monoclinic'
loop_
_space_group_symop_operation_xyz
x,y,z
-x,y,1/2-z
-x,-y,-z
x,-y,1/2+z
loop_
_atom_site_type_symbol
_atom_site_label
_atom_site_fract_x
_atom_site_fract_y
_atom_site_fract_z
Si Si1 0.969506 0.866882 0.333301
Si Si2 0.139889 0.077132 0.003203
Si Si3 0.329811 0.625301 0.830737
Si Si4 0.299564 0.291327 0.523944
Si Si5 0.767116 0.408053 0.725170
Si Si6 0.660987 0.245340 0.353557
Si Si7 0.548250 0.914265 0.102720
Si Si8 0.272243 0.338963 0.940093
O O1 0.941374 0.899695 0.387577
O O2 0.222822 0.917295 0.376036
O O3 0.093139 0.759346 0.375332
O O4 0.692239 0.884665 0.206788
O O5 0.233062 0.168381 0.067903
O O6 0.416177 0.018726 0.065869
O O7 0.000000 0.000000 0.000000
O O8 0.345379 0.512916 0.823548
O O9 0.420143 0.686069 0.806057
O O10 0.000000 0.645743 0.750000
O O11 0.567203 0.651996 0.951771
O O12 0.497647 0.333456 0.636815
O O13 0.337561 0.177202 0.526537
O O14 0.461732 0.341356 0.522185
O O15 0.953577 0.303719 0.426634
O O16 0.000000 0.376486 0.750000
O O17 0.001129 0.413129 0.848629
O O18 0.500000 0.199477 0.250000
#
# Coordination Sequence:
#
# PCOD9229443 Si02
#       8
#     4   4   4   4   4   4   4   4
#     4  10  21  41  67  96 124 165 219 270 316 382
#     4  12  25  41  61  93 129 171 215 269 323 387
#     4  11  24  43  64  94 128 171 216 265 320 391
#     4  10  20  40  65  94 128 168 206 272 323 378
#     4   9  20  38  70  99 124 160 217 266 324 377
#     4  12  27  44  59  89 137 175 210 260 333 394
#     4  10  21  39  67  94 127 161 214 272 323 376
#     4  10  19  40  70  96 125 165 221 268 317 384
#
# _framework density 20.903217000000001
#
# number of rings (size 3 to 8) (size 9 to 14) (size 15 to 20)
#    0.000    1.500    3.750    1.125    1.750    6.000 
#    2.250    1.875    0.000    0.000    0.000    0.000 
#    0.000    0.000    0.000    0.000    0.000    0.000 
#
# Total GULP energy -178438.682231 kJ/mol
# GULP energy per Si atom -5576.208820 kJ/mol
# Density = 2.085564 g / cm^3
# Si number density = 20.903217 Si / 1000 Ang^3
#
#
#
# Elastic Constant Matrix: (Units=GPa)
#
#
# Indices 1 2 3 4 5 6 
#
# 1 56.0711 17.5030 9.2185 0.0000 -11.2801 0.0000
# 2 17.5030 47.2027 1.5040 0.0000 2.4154 0.0000
# 3 9.2185 1.5040 68.0900 0.0000 -21.4941 0.0000
# 4 0.0000 0.0000 0.0000 23.6179 0.0000 1.3478
# 5 -11.2801 2.4154 -21.4941 0.0000 37.5640 0.0000
# 6 0.0000 0.0000 0.0000 1.3478 0.0000 21.3449
#
#
#
# Elastic Compliance Matrix: (Units=1/GPa)
#
#
# Indices 1 2 3 4 5 6 
#
# 1 0.021943 -0.008462 -0.000649 0.000000 0.006762 0.000000
# 2 -0.008462 0.024586 -0.000853 0.000000 -0.004610 0.000000
# 3 -0.000649 -0.000853 0.018000 0.000000 0.010160 0.000000
# 4 0.000000 0.000000 0.000000 0.042494 0.000000 -0.002683
# 5 0.006762 -0.004610 0.010160 0.000000 0.034761 0.000000
# 6 0.000000 0.000000 0.000000 -0.002683 0.000000 0.047019
#
#
# Mechanical properties :
#
#
# Convention : Reuss Voigt Hill
#
# Bulk Modulus (GPa) = 22.42077 25.31276 23.86676
# Shear Modulus (GPa) = 22.36151 26.04792 24.20472
#
# Velocity S-wave (km/s) = 3.27427 3.53387 3.40655
# Velocity P-wave (km/s) = 5.00437 5.36533 5.18799
#
# Compressibility (1/GPa) = 0.04460150
#
# Stress axis : x y z
#
# Youngs Moduli (GPa) = 45.57266 40.67363 55.55472
#
# Poissons Ratio (x) = 0.34417 0.03608
# Poissons Ratio (y) = 0.38563 0.04737
# Poissons Ratio (z) = 0.02959 0.03468
#
# Static dielectric constant tensor:
#      x y z
#    x 1.821430 0.000000 0.010400 
#    y 0.000000 1.781340 0.000000 
#    z 0.010400 0.000000 1.820250 
# 
# From -- ./inp_files/85356.got.cif
#   From: 2010.05.17/outbox.cif.g08.bks.cpg/sg13_43_cif.got.tgz:85356.got - 2010.06.03 16:44:36.
