data_PCOD9229507
_publ_section_title
;
Structure prediction by ZEFSAII (Michael W. Deem and Ramdas Pophale) SiO2 
 PCOD9229507
Probable space group: P 2/C
;
_chemical_formula_sum "Si O2"
_cell_formula_units_Z 30
_cell_length_a 25.582679
_cell_length_b 12.529164
_cell_length_c 28.153383
_cell_angle_alpha 90.000000
_cell_angle_beta 10.362111
_cell_angle_gamma 90.000000
_cell_volume 1623.133556
_symmetry_space_group_name_H-M "P 2/C"
_symmetry_group_IT_number 13
_symmetry_cell_setting 'monoclinic'
loop_
_space_group_symop_operation_xyz
x,y,z
-x,y,1/2-z
-x,-y,-z
x,-y,1/2+z
loop_
_atom_site_type_symbol
_atom_site_label
_atom_site_fract_x
_atom_site_fract_y
_atom_site_fract_z
Si Si1 0.312620 0.986573 0.119312
Si Si2 0.874406 0.391806 0.526580
Si Si3 0.500000 0.191775 0.750000
Si Si4 0.094564 0.336853 0.432142
Si Si5 0.864051 0.092144 0.087880
Si Si6 0.316205 0.561820 0.124420
Si Si7 0.268301 0.352500 0.037220
Si Si8 0.964430 0.191645 0.175015
O O1 0.239882 0.102433 0.163801
O O2 0.024218 0.925515 0.394548
O O3 0.500000 0.000000 0.000000
O O4 0.519322 0.926728 0.897473
O O5 0.939263 0.391088 0.524943
O O6 0.102469 0.469272 0.295823
O O7 0.923159 0.269959 0.466695
O O8 0.545364 0.419632 0.806701
O O9 0.626636 0.270248 0.597073
O O10 0.768467 0.135563 0.535781
O O11 0.082284 0.209133 0.439046
O O12 0.909261 0.364684 0.644622
O O13 0.431788 0.377349 0.130238
O O14 0.000000 0.000000 0.000000
O O15 0.500000 0.500000 0.000000
O O16 0.177188 0.274811 0.161669
O O17 0.000000 0.409492 0.250000
#
# Coordination Sequence:
#
# PCOD9229507 Si02
#       8
#     4   4   2   4   4   4   4   4
#     4  10  21  32  49  78 110 142 187 219 264 333
#     4  10  20  30  53  75 107 149 181 216 274 328
#     4   8  18  36  46  78 106 144 176 226 280 342
#     4  11  22  36  52  73 116 150 184 227 260 320
#     4  10  21  34  49  73 105 144 189 221 265 314
#     4  10  22  35  50  78 107 147 190 212 256 328
#     4   9  19  32  51  76 110 143 181 225 281 339
#     4  10  20  31  55  76 115 145 179 227 278 330
#
# _framework density 18.482766000000002
#
# number of rings (size 3 to 8) (size 9 to 14) (size 15 to 20)
#    0.000    2.133    0.000    4.000   13.067    0.000 
#    0.000    0.000    0.000    0.000    0.000    0.000 
#    8.000    0.000    0.000    0.000    0.000    0.000 
#
# Total GULP energy -167036.971308 kJ/mol
# GULP energy per Si atom -5567.899044 kJ/mol
# Density = 1.844070 g / cm^3
# Si number density = 18.482766 Si / 1000 Ang^3
#
#
#
# Elastic Constant Matrix: (Units=GPa)
#
#
# Indices 1 2 3 4 5 6 
#
# 1 56.2969 16.9671 37.9177 0.0000 -4.9399 0.0000
# 2 16.9671 83.0546 36.7046 0.0000 -8.7324 0.0000
# 3 37.9177 36.7046 142.1697 0.0000 2.3235 0.0000
# 4 0.0000 0.0000 0.0000 28.7525 0.0000 -1.9121
# 5 -4.9399 -8.7324 2.3235 0.0000 39.7107 0.0000
# 6 0.0000 0.0000 0.0000 -1.9121 0.0000 11.4859
#
#
#
# Elastic Compliance Matrix: (Units=1/GPa)
#
#
# Indices 1 2 3 4 5 6 
#
# 1 0.022261 -0.001831 -0.005508 0.000000 0.002689 0.000000
# 2 -0.001831 0.014159 -0.003218 0.000000 0.003074 0.000000
# 3 -0.005508 -0.003218 0.009365 0.000000 -0.001941 0.000000
# 4 0.000000 0.000000 0.000000 0.035169 0.000000 0.005855
# 5 0.002689 0.003074 -0.001941 0.000000 0.026306 0.000000
# 6 0.000000 0.000000 0.000000 0.005855 0.000000 0.088038
#
#
# Mechanical properties :
#
#
# Convention : Reuss Voigt Hill
#
# Bulk Modulus (GPa) = 40.53121 51.63334 46.08228
# Shear Modulus (GPa) = 22.25828 28.65196 25.45512
#
# Velocity S-wave (km/s) = 3.47403 3.94153 3.71514
# Velocity P-wave (km/s) = 6.16998 6.97931 6.58709
#
# Compressibility (1/GPa) = 0.02467234
#
# Stress axis : x y z
#
# Youngs Moduli (GPa) = 44.92219 70.62431 106.77585
#
# Poissons Ratio (x) = 0.12928 0.58817
# Poissons Ratio (y) = 0.08223 0.34357
# Poissons Ratio (z) = 0.24745 0.22724
#
# Static dielectric constant tensor:
#      x y z
#    x 1.682980 0.000000 0.025920 
#    y 0.000000 1.649310 0.000000 
#    z 0.025920 0.000000 1.776500 
# 
# From -- ./inp_files/83715.got.cif
#   From: 2010.05.17/outbox.cif.g08.bks.cpg/sg13_42_cif.got.tgz:83715.got - 2010.06.03 16:44:36.
