data_PCOD9229665
_publ_section_title
;
Structure prediction by ZEFSAII (Michael W. Deem and Ramdas Pophale) SiO2 
 PCOD9229665
Probable space group: P 2/C
;
_chemical_formula_sum "Si O2"
_cell_formula_units_Z 30
_cell_length_a 19.615785
_cell_length_b 11.480557
_cell_length_c 10.623831
_cell_angle_alpha 90.000000
_cell_angle_beta 146.198870
_cell_angle_gamma 90.000000
_cell_volume 1330.969909
_symmetry_space_group_name_H-M "P 2/C"
_symmetry_group_IT_number 13
_symmetry_cell_setting 'monoclinic'
loop_
_space_group_symop_operation_xyz
x,y,z
-x,y,1/2-z
-x,-y,-z
x,-y,1/2+z
loop_
_atom_site_type_symbol
_atom_site_label
_atom_site_fract_x
_atom_site_fract_y
_atom_site_fract_z
Si Si1 0.770979 0.568381 0.449102
Si Si2 0.241740 0.195420 0.999029
Si Si3 0.411630 0.613489 0.714349
Si Si4 0.844723 0.567961 0.830023
Si Si5 0.000000 0.733200 0.250000
Si Si6 0.410698 0.764818 0.349040
Si Si7 0.639998 0.253488 0.048855
Si Si8 0.378059 0.966544 0.142208
O O1 0.653988 0.481107 0.295574
O O2 0.863112 0.547112 0.709203
O O3 0.829093 0.535975 0.404674
O O4 0.716675 0.697682 0.356316
O O5 0.100571 0.198540 0.822065
O O6 0.295098 0.304280 0.999942
O O7 0.307597 0.217551 0.233652
O O8 0.290122 0.075442 0.017924
O O9 0.500000 0.551317 0.750000
O O10 0.511935 0.707214 0.920433
O O11 0.712809 0.632716 0.621642
O O12 0.931814 0.655422 0.039855
O O13 0.497481 0.730564 0.364250
O O14 0.401772 0.903910 0.314988
O O15 0.674030 0.142689 0.016086
O O16 0.500000 0.998290 0.250000
#
# Coordination Sequence:
#
# PCOD9229665 Si02
#       8
#     4   4   4   4   2   4   4   4
#     4  12  22  37  63  96 134 168 215 257 324 403
#     4  10  21  40  60  85 118 169 223 261 322 380
#     4  11  22  33  56  97 134 162 200 261 322 393
#     4  11  23  40  64  91 127 173 220 270 319 382
#     4  10  22  48  64  82 124 176 226 280 330 370
#     4  10  20  33  56  89 133 170 190 244 322 402
#     4   9  19  37  55  88 129 164 198 248 324 396
#     4  10  20  34  62  92 126 165 201 260 319 399
#
# _framework density 22.539953000000001
#
# number of rings (size 3 to 8) (size 9 to 14) (size 15 to 20)
#    0.000    1.600    5.333    1.600    1.867    6.400 
#    0.000    2.667    0.000    0.800    0.000    0.000 
#    0.000    0.000    0.000    0.000    0.000    0.000 
#
# Total GULP energy -167232.511395 kJ/mol
# GULP energy per Si atom -5574.417046 kJ/mol
# Density = 2.248865 g / cm^3
# Si number density = 22.539953 Si / 1000 Ang^3
#
#
#
# Elastic Constant Matrix: (Units=GPa)
#
#
# Indices 1 2 3 4 5 6 
#
# 1 85.6122 36.3736 31.0717 0.0000 8.4291 0.0000
# 2 36.3736 94.8083 22.9232 0.0000 19.4713 0.0000
# 3 31.0717 22.9232 58.1616 0.0000 -0.9151 0.0000
# 4 0.0000 0.0000 0.0000 18.0301 0.0000 3.6703
# 5 8.4291 19.4713 -0.9151 0.0000 42.6497 0.0000
# 6 0.0000 0.0000 0.0000 3.6703 0.0000 43.2904
#
#
#
# Elastic Compliance Matrix: (Units=1/GPa)
#
#
# Indices 1 2 3 4 5 6 
#
# 1 0.016147 -0.004214 -0.006987 0.000000 -0.001417 0.000000
# 2 -0.004214 0.014163 -0.003421 0.000000 -0.005707 0.000000
# 3 -0.006987 -0.003421 0.022328 0.000000 0.003422 0.000000
# 4 0.000000 0.000000 0.000000 0.056437 0.000000 -0.004785
# 5 -0.001417 -0.005707 0.003422 0.000000 0.026406 0.000000
# 6 0.000000 0.000000 0.000000 -0.004785 0.000000 0.023505
#
#
# Mechanical properties :
#
#
# Convention : Reuss Voigt Hill
#
# Bulk Modulus (GPa) = 42.74614 46.59103 44.66858
# Shear Modulus (GPa) = 25.50648 30.67494 28.09071
#
# Velocity S-wave (km/s) = 3.36759 3.69306 3.53407
# Velocity P-wave (km/s) = 5.84181 6.23700 6.04264
#
# Compressibility (1/GPa) = 0.02339393
#
# Stress axis : x y z
#
# Youngs Moduli (GPa) = 61.93288 70.60406 44.78615
#
# Poissons Ratio (x) = 0.29754 0.31293
# Poissons Ratio (y) = 0.26100 0.15320
# Poissons Ratio (z) = 0.43274 0.24151
#
# Static dielectric constant tensor:
#      x y z
#    x 1.983430 0.000000 -0.086130 
#    y 0.000000 1.838130 0.000000 
#    z -0.086130 0.000000 2.010310 
# 
# From -- ./inp_files/40919.got.cif
#   From: 2010.05.17/outbox.cif.g08.bks.cpg/sg13_21_cif.got.tgz:40919.got - 2010.06.03 16:44:36.
