data_PCOD9229914
_publ_section_title
;
Structure prediction by ZEFSAII (Michael W. Deem and Ramdas Pophale) SiO2 
 PCOD9229914
Probable space group: P 2/C
;
_chemical_formula_sum "Si O2"
_cell_formula_units_Z 32
_cell_length_a 11.283891
_cell_length_b 17.871546
_cell_length_c 23.589922
_cell_angle_alpha 90.000000
_cell_angle_beta 23.556836
_cell_angle_gamma 90.000000
_cell_volume 1901.238694
_symmetry_space_group_name_H-M "P 2/C"
_symmetry_group_IT_number 13
_symmetry_cell_setting 'monoclinic'
loop_
_space_group_symop_operation_xyz
x,y,z
-x,y,1/2-z
-x,-y,-z
x,-y,1/2+z
loop_
_atom_site_type_symbol
_atom_site_label
_atom_site_fract_x
_atom_site_fract_y
_atom_site_fract_z
Si Si1 0.208702 0.943520 0.572732
Si Si2 0.424626 0.916151 0.608213
Si Si3 0.159400 0.578345 0.418855
Si Si4 0.983376 0.619501 0.375375
Si Si5 0.760095 0.773110 0.432870
Si Si6 0.661505 0.347696 0.545497
Si Si7 0.804113 0.468991 0.391343
Si Si8 0.572928 0.197544 0.884829
O O1 0.305275 0.932042 0.596425
O O2 0.409116 0.881287 0.454313
O O3 0.855704 0.930836 0.728293
O O4 0.309903 0.023752 0.504840
O O5 0.550728 0.832063 0.556917
O O6 0.500000 0.565308 0.250000
O O7 0.172949 0.625942 0.470442
O O8 0.000000 0.500000 0.500000
O O9 0.000709 0.618386 0.435679
O O10 0.771820 0.686336 0.446425
O O11 0.910727 0.537065 0.384529
O O12 0.312381 0.634558 0.207232
O O13 0.653117 0.779952 0.414623
O O14 0.103360 0.800558 0.286279
O O15 0.771735 0.395677 0.443923
O O16 0.653182 0.259644 0.538978
O O17 0.500000 0.500000 0.500000
O O18 0.000000 0.455772 0.250000
#
# Coordination Sequence:
#
# PCOD9229914 Si02
#       8
#     4   4   4   4   4   4   4   4
#     4   9  16  27  43  67  99 130 162 192 234 291
#     4   9  16  27  43  68  98 131 163 192 233 293
#     4  10  20  36  55  71  92 129 174 217 253 297
#     4  10  20  35  53  71  98 131 172 210 253 302
#     4   9  17  29  47  67  95 130 163 198 246 297
#     4  10  20  36  51  72  98 131 171 212 253 299
#     4  12  22  33  50  73 100 133 165 205 255 310
#     4   9  17  30  46  67  97 130 160 201 248 295
#
# _framework density 16.831132
#
# number of rings (size 3 to 8) (size 9 to 14) (size 15 to 20)
#    0.000    2.250    2.500    1.500    1.750    3.000 
#    6.750    0.000    0.000    0.000    0.000    0.875 
#    0.000    0.000    0.000    0.000    0.000    0.000 
#
# Total GULP energy -178261.474119 kJ/mol
# GULP energy per Si atom -5570.671066 kJ/mol
# Density = 1.679282 g / cm^3
# Si number density = 16.831132 Si / 1000 Ang^3
#
#
#
# Elastic Constant Matrix: (Units=GPa)
#
#
# Indices 1 2 3 4 5 6 
#
# 1 50.1416 7.6804 15.3496 0.0000 5.9112 0.0000
# 2 7.6804 60.2105 14.9977 0.0000 -0.4242 0.0000
# 3 15.3496 14.9977 63.6269 0.0000 7.4473 0.0000
# 4 0.0000 0.0000 0.0000 26.3376 0.0000 -6.4506
# 5 5.9112 -0.4242 7.4473 0.0000 12.6790 0.0000
# 6 0.0000 0.0000 0.0000 -6.4506 0.0000 8.3795
#
#
#
# Elastic Compliance Matrix: (Units=1/GPa)
#
#
# Indices 1 2 3 4 5 6 
#
# 1 0.022426 -0.001922 -0.004001 0.000000 -0.008170 0.000000
# 2 -0.001922 0.017935 -0.004230 0.000000 0.003981 0.000000
# 3 -0.004001 -0.004230 0.018767 0.000000 -0.009300 0.000000
# 4 0.000000 0.000000 0.000000 0.046790 0.000000 0.036019
# 5 -0.008170 0.003981 -0.009300 0.000000 0.088275 0.000000
# 6 0.000000 0.000000 0.000000 0.036019 0.000000 0.147067
#
#
# Mechanical properties :
#
#
# Convention : Reuss Voigt Hill
#
# Bulk Modulus (GPa) = 25.75759 27.78160 26.76960
# Shear Modulus (GPa) = 13.35088 18.54262 15.94675
#
# Velocity S-wave (km/s) = 2.81948 3.32277 3.08142
# Velocity P-wave (km/s) = 5.09275 5.59133 5.34785
#
# Compressibility (1/GPa) = 0.03882350
#
# Stress axis : x y z
#
# Youngs Moduli (GPa) = 44.59162 55.75631 53.28392
#
# Poissons Ratio (x) = 0.10714 0.21318
# Poissons Ratio (y) = 0.08569 0.22539
# Poissons Ratio (z) = 0.17841 0.23584
#
# Static dielectric constant tensor:
#      x y z
#    x 1.562120 0.000000 -0.006250 
#    y 0.000000 1.462410 0.000000 
#    z -0.006250 0.000000 1.579070 
# 
# From -- ./inp_files/86667.got.cif
#   From: 2010.05.17/outbox.cif.g08.bks.cpg/sg13_44_cif.got.tgz:86667.got - 2010.06.03 16:44:36.
