data_PCOD9229657
_publ_section_title
;
Structure prediction by ZEFSAII (Michael W. Deem and Ramdas Pophale) SiO2 
 PCOD9229657
Probable space group: P 2/C
;
_chemical_formula_sum "Si O2"
_cell_formula_units_Z 28
_cell_length_a 22.696184
_cell_length_b 5.266794
_cell_length_c 22.535878
_cell_angle_alpha 90.000000
_cell_angle_beta 31.363657
_cell_angle_gamma 90.000000
_cell_volume 1402.063837
_symmetry_space_group_name_H-M "P 2/C"
_symmetry_group_IT_number 13
_symmetry_cell_setting 'monoclinic'
loop_
_space_group_symop_operation_xyz
x,y,z
-x,y,1/2-z
-x,-y,-z
x,-y,1/2+z
loop_
_atom_site_type_symbol
_atom_site_label
_atom_site_fract_x
_atom_site_fract_y
_atom_site_fract_z
Si Si1 0.257012 0.865764 0.010677
Si Si2 0.941646 0.823717 0.402984
Si Si3 0.209076 0.321631 0.259244
Si Si4 0.633534 0.630955 0.140730
Si Si5 0.796842 0.199419 0.809710
Si Si6 0.765382 0.522803 0.639922
Si Si7 0.964206 0.204169 0.481985
O O1 0.324613 0.619037 0.930081
O O2 0.305887 0.119211 0.937801
O O3 0.128312 0.837257 0.097222
O O4 0.259416 0.869621 0.079335
O O5 0.859980 0.667563 0.518349
O O6 0.071026 0.737011 0.288888
O O7 0.952831 0.095146 0.425379
O O8 0.251165 0.550744 0.181521
O O9 0.267662 0.319175 0.273531
O O10 0.074665 0.380144 0.386554
O O11 0.211125 0.049548 0.225125
O O12 0.500000 0.661929 0.250000
O O13 0.671209 0.577441 0.176264
O O14 0.838471 0.293275 0.603680
O O15 0.000000 0.000000 0.500000
#
# Coordination Sequence:
#
# PCOD9229657 Si02
#       7
#     4   4   4   4   4   4   4
#     4  11  23  42  62  86 123 156 201 252 300 365
#     4  10  20  33  55  88 123 166 197 234 293 356
#     4  11  22  33  56  88 130 164 195 232 291 368
#     4  11  25  44  69  88 109 152 212 271 311 336
#     4  11  23  36  56  88 130 169 192 221 298 384
#     4  11  20  36  58  89 124 155 205 257 295 338
#     4  11  18  31  52  86 127 161 185 239 292 355
#
# _framework density 19.970559999999999
#
# number of rings (size 3 to 8) (size 9 to 14) (size 15 to 20)
#    0.000    1.143    4.286    3.857    0.000    0.000 
#    0.000    2.857    0.000    5.143    0.000    0.000 
#    0.000    0.000    0.000    0.000    0.000    0.000 
#
# Total GULP energy -156221.192965 kJ/mol
# GULP energy per Si atom -5579.328320 kJ/mol
# Density = 1.992511 g / cm^3
# Si number density = 19.970560 Si / 1000 Ang^3
#
#
#
# Elastic Constant Matrix: (Units=GPa)
#
#
# Indices 1 2 3 4 5 6 
#
# 1 121.8603 50.2775 47.1974 0.0000 20.1262 0.0000
# 2 50.2775 98.3291 29.9632 0.0000 9.2238 0.0000
# 3 47.1974 29.9632 42.5707 0.0000 13.5222 0.0000
# 4 0.0000 0.0000 0.0000 17.0508 0.0000 5.6822
# 5 20.1262 9.2238 13.5222 0.0000 34.8342 0.0000
# 6 0.0000 0.0000 0.0000 5.6822 0.0000 24.2593
#
#
#
# Elastic Compliance Matrix: (Units=1/GPa)
#
#
# Indices 1 2 3 4 5 6 
#
# 1 0.015413 -0.003414 -0.013852 0.000000 -0.002624 0.000000
# 2 -0.003414 0.013703 -0.006084 0.000000 0.000706 0.000000
# 3 -0.013852 -0.006084 0.045713 0.000000 -0.008131 0.000000
# 4 0.000000 0.000000 0.000000 0.063614 0.000000 -0.014900
# 5 -0.002624 0.000706 -0.008131 0.000000 0.033193 0.000000
# 6 0.000000 0.000000 0.000000 -0.014900 0.000000 0.044711
#
#
# Mechanical properties :
#
#
# Convention : Reuss Voigt Hill
#
# Bulk Modulus (GPa) = 35.55038 57.51517 46.53277
# Shear Modulus (GPa) = 18.35383 24.25034 21.30208
#
# Velocity S-wave (km/s) = 3.03486 3.48847 3.26954
# Velocity P-wave (km/s) = 5.48822 6.71479 6.13225
#
# Compressibility (1/GPa) = 0.02812910
#
# Stress axis : x y z
#
# Youngs Moduli (GPa) = 64.88107 72.97511 21.87585
#
# Poissons Ratio (x) = 0.24912 0.30302
# Poissons Ratio (y) = 0.22149 0.13310
# Poissons Ratio (z) = 0.89871 0.44401
#
# Static dielectric constant tensor:
#      x y z
#    x 1.723100 0.000000 0.035260 
#    y 0.000000 1.803160 0.000000 
#    z 0.035260 0.000000 1.723460 
# 
# From -- ./inp_files/81920.got.cif
#   From: 2010.05.17/outbox.cif.g08.bks.cpg/sg13_41_cif.got.tgz:81920.got - 2010.06.03 16:44:36.
