data_PCOD9229340
_publ_section_title
;
Structure prediction by ZEFSAII (Michael W. Deem and Ramdas Pophale) SiO2 
 PCOD9229340
Probable space group: P 2/C
;
_chemical_formula_sum "Si O2"
_cell_formula_units_Z 28
_cell_length_a 7.283066
_cell_length_b 17.279169
_cell_length_c 11.428156
_cell_angle_alpha 90.000000
_cell_angle_beta 58.565634
_cell_angle_gamma 90.000000
_cell_volume 1227.110068
_symmetry_space_group_name_H-M "P 2/C"
_symmetry_group_IT_number 13
_symmetry_cell_setting 'monoclinic'
loop_
_space_group_symop_operation_xyz
x,y,z
-x,y,1/2-z
-x,-y,-z
x,-y,1/2+z
loop_
_atom_site_type_symbol
_atom_site_label
_atom_site_fract_x
_atom_site_fract_y
_atom_site_fract_z
Si Si1 0.631833 0.497127 0.331222
Si Si2 0.414409 0.232095 0.026579
Si Si3 0.060311 0.923380 0.910176
Si Si4 0.953020 0.761408 0.034437
Si Si5 0.738794 0.332485 0.226031
Si Si6 0.368478 0.069780 0.102245
Si Si7 0.308845 0.332910 0.713578
O O1 0.500000 0.496268 0.250000
O O2 0.500000 0.500000 0.500000
O O3 0.760522 0.416631 0.277821
O O4 0.755728 0.578498 0.285094
O O5 0.270859 0.224053 0.959370
O O6 0.260644 0.266493 0.176265
O O7 0.496550 0.149438 0.040670
O O8 0.590940 0.295756 0.936334
O O9 0.277898 0.937717 0.763887
O O10 0.068519 0.844251 0.982620
O O11 0.854399 0.916503 0.893373
O O12 0.000000 0.000000 0.000000
O O13 0.086603 0.693899 0.925563
O O14 0.873889 0.724532 0.180626
O O15 0.500000 0.328888 0.250000
O O16 0.500000 0.000000 0.000000
O O17 0.500000 0.336497 0.750000
#
# Coordination Sequence:
#
# PCOD9229340 Si02
#       7
#     4   4   4   4   4   4   4
#     4  10  20  37  61  91 128 164 207 262 317 374
#     4  10  19  39  63  84 113 157 201 248 290 369
#     4  10  22  39  58  85 120 148 193 255 294 355
#     4  10  21  39  62  88 112 157 208 247 294 370
#     4  11  22  36  60  86 123 158 198 249 313 359
#     4  10  22  38  59  87 115 153 199 240 303 365
#     4   9  19  35  62  87 113 153 206 248 299 353
#
# _framework density 22.81784
#
# number of rings (size 3 to 8) (size 9 to 14) (size 15 to 20)
#    0.000    2.000    2.857    0.429    2.000    2.286 
#    0.000    0.714    0.000    0.000    0.000    0.000 
#    0.000    0.000    0.000    0.000    0.000    0.000 
#
# Total GULP energy -156216.332473 kJ/mol
# GULP energy per Si atom -5579.154731 kJ/mol
# Density = 2.276591 g / cm^3
# Si number density = 22.817840 Si / 1000 Ang^3
#
#
#
# Elastic Constant Matrix: (Units=GPa)
#
#
# Indices 1 2 3 4 5 6 
#
# 1 72.0811 18.3900 19.0106 0.0000 -0.6406 0.0000
# 2 18.3900 195.3864 44.7539 0.0000 -10.3245 0.0000
# 3 19.0106 44.7539 95.5020 0.0000 -1.4268 0.0000
# 4 0.0000 0.0000 0.0000 22.9601 0.0000 -0.9262
# 5 -0.6406 -10.3245 -1.4268 0.0000 24.6089 0.0000
# 6 0.0000 0.0000 0.0000 -0.9262 0.0000 1.7628
#
#
#
# Elastic Compliance Matrix: (Units=1/GPa)
#
#
# Indices 1 2 3 4 5 6 
#
# 1 0.014754 -0.000808 -0.002560 0.000000 -0.000103 0.000000
# 2 -0.000808 0.005905 -0.002572 0.000000 0.002307 0.000000
# 3 -0.002560 -0.002572 0.012179 0.000000 -0.000440 0.000000
# 4 0.000000 0.000000 0.000000 0.044497 0.000000 0.023378
# 5 -0.000103 0.002307 -0.000440 0.000000 0.041576 0.000000
# 6 0.000000 0.000000 0.000000 0.023378 0.000000 0.579560
#
#
# Mechanical properties :
#
#
# Convention : Reuss Voigt Hill
#
# Bulk Modulus (GPa) = 47.71269 58.58649 53.14959
# Shear Modulus (GPa) = 6.97024 28.58736 17.77880
#
# Velocity S-wave (km/s) = 1.74968 3.54340 2.79438
# Velocity P-wave (km/s) = 5.00375 6.51709 5.80990
#
# Compressibility (1/GPa) = 0.02095879
#
# Stress axis : x y z
#
# Youngs Moduli (GPa) = 67.78027 169.34426 82.10679
#
# Poissons Ratio (x) = 0.13678 0.21018
# Poissons Ratio (y) = 0.05475 0.21118
# Poissons Ratio (z) = 0.17351 0.43555
#
# Static dielectric constant tensor:
#      x y z
#    x 1.981880 0.000000 0.073980 
#    y 0.000000 2.498530 0.000000 
#    z 0.073980 0.000000 1.852110 
# 
# From -- ./inp_files/30281.got.cif
#   From: 2010.05.17/outbox.cif.g08.bks.cpg/sg13_16_cif.got.tgz:30281.got - 2010.06.03 16:44:36.
