data_PCOD9229319
_publ_section_title
;
Structure prediction by ZEFSAII (Michael W. Deem and Ramdas Pophale) SiO2 
 PCOD9229319
Probable space group: P 2/C
;
_chemical_formula_sum "Si O2"
_cell_formula_units_Z 28
_cell_length_a 6.183112
_cell_length_b 13.983858
_cell_length_c 19.627227
_cell_angle_alpha 90.000000
_cell_angle_beta 55.481913
_cell_angle_gamma 90.000000
_cell_volume 1398.274775
_symmetry_space_group_name_H-M "P 2/C"
_symmetry_group_IT_number 13
_symmetry_cell_setting 'monoclinic'
loop_
_space_group_symop_operation_xyz
x,y,z
-x,y,1/2-z
-x,-y,-z
x,-y,1/2+z
loop_
_atom_site_type_symbol
_atom_site_label
_atom_site_fract_x
_atom_site_fract_y
_atom_site_fract_z
Si Si1 0.022427 0.460871 0.165028
Si Si2 0.989274 0.228618 0.974396
Si Si3 0.573523 0.703990 0.889354
Si Si4 0.000000 0.793279 0.250000
Si Si5 0.788441 0.125572 0.435823
Si Si6 0.500000 0.343181 0.250000
Si Si7 0.780771 0.083511 0.902044
Si Si8 0.784511 0.349986 0.673995
O O1 0.762001 0.404191 0.188651
O O2 0.995115 0.564031 0.135543
O O3 0.000000 0.478857 0.250000
O O4 0.273303 0.391551 0.113674
O O5 0.941060 0.143489 0.929519
O O6 0.206912 0.296854 0.900617
O O7 0.720212 0.288223 0.029372
O O8 0.044411 0.179489 0.036642
O O9 0.725455 0.795847 0.890530
O O10 0.563765 0.709128 0.809194
O O11 0.809494 0.863573 0.325196
O O12 0.867740 0.725819 0.217150
O O13 0.520078 0.095408 0.521927
O O14 0.879683 0.025515 0.387374
O O15 0.500000 0.386141 0.750000
#
# Coordination Sequence:
#
# PCOD9229319 Si02
#       8
#     4   4   4   2   4   2   4   4
#     4  10  20  37  60  83 115 157 196 246 300 360
#     4  10  21  37  59  90 122 157 197 250 295 358
#     4  10  22  38  59  87 117 158 199 244 302 359
#     4  10  20  38  54  90 114 146 202 252 288 350
#     4  10  19  39  59  84 119 162 194 240 302 353
#     4  10  20  40  60  82 118 152 200 244 296 354
#     4   9  20  36  61  82 121 156 197 245 297 348
#     4  11  21  36  63  87 116 158 199 247 303 355
#
# _framework density 20.024675999999999
#
# number of rings (size 3 to 8) (size 9 to 14) (size 15 to 20)
#    0.000    2.000    1.429    2.143    0.000    0.571 
#    6.429    2.857    0.000    0.000    0.000    0.000 
#    0.000    0.000    0.000    0.000    0.000    0.000 
#
# Total GULP energy -156129.459565 kJ/mol
# GULP energy per Si atom -5576.052127 kJ/mol
# Density = 1.997910 g / cm^3
# Si number density = 20.024676 Si / 1000 Ang^3
#
#
#
# Elastic Constant Matrix: (Units=GPa)
#
#
# Indices 1 2 3 4 5 6 
#
# 1 71.1030 39.7063 15.7961 0.0000 3.6595 0.0000
# 2 39.7063 125.1033 57.3988 0.0000 -6.7623 0.0000
# 3 15.7961 57.3988 47.9886 0.0000 14.0892 0.0000
# 4 0.0000 0.0000 0.0000 30.4825 0.0000 -1.5127
# 5 3.6595 -6.7623 14.0892 0.0000 9.2760 0.0000
# 6 0.0000 0.0000 0.0000 -1.5127 0.0000 64.1488
#
#
#
# Elastic Compliance Matrix: (Units=1/GPa)
#
#
# Indices 1 2 3 4 5 6 
#
# 1 0.014118 0.004426 -0.016700 0.000000 0.023023 0.000000
# 2 0.004426 -0.017824 0.043660 0.000000 -0.081055 0.000000
# 3 -0.016700 0.043660 -0.067077 0.000000 0.140300 0.000000
# 4 0.000000 0.000000 0.000000 0.032844 0.000000 0.000775
# 5 0.023023 -0.081055 0.140300 0.000000 -0.173467 0.000000
# 6 0.000000 0.000000 0.000000 0.000775 0.000000 0.015607
#
#
# Mechanical properties :
#
#
# Convention : Reuss Voigt Hill
#
# Bulk Modulus (GPa) = -124.80108 52.22192 -36.28958
# Shear Modulus (GPa) = -19.13932 29.53437 5.19752
#
# Velocity S-wave (km/s) = -3.09493 3.84461 1.61282
# Velocity P-wave (km/s) = 8.67355 6.77078 3.83321
#
# Compressibility (1/GPa) = -0.00801275
#
# Stress axis : x y z
#
# Youngs Moduli (GPa) = 70.83330 -56.10287 -14.90814
#
# Poissons Ratio (x) = 0.24831 -0.24897
# Poissons Ratio (y) = -0.31351 0.65089
# Poissons Ratio (z) = 1.18294 2.44946
#
# Static dielectric constant tensor:
#      x y z
#    x 1.723030 0.000000 -0.016100 
#    y 0.000000 1.718910 0.000000 
#    z -0.016100 0.000000 1.715330 
# 
# From -- ./inp_files/61535.got.cif
#   From: 2010.05.17/outbox.cif.g08.bks.cpg/sg13_31_cif.got.tgz:61535.got - 2010.06.03 16:44:36.
