data_PCOD9229199
_publ_section_title
;
Structure prediction by ZEFSAII (Michael W. Deem and Ramdas Pophale) SiO2 
 PCOD9229199
Probable space group: P 2/C
;
_chemical_formula_sum "Si O2"
_cell_formula_units_Z 28
_cell_length_a 14.426849
_cell_length_b 8.709590
_cell_length_c 19.227576
_cell_angle_alpha 90.000000
_cell_angle_beta 143.272708
_cell_angle_gamma 90.000000
_cell_volume 1444.774264
_symmetry_space_group_name_H-M "P 2/C"
_symmetry_group_IT_number 13
_symmetry_cell_setting 'monoclinic'
loop_
_space_group_symop_operation_xyz
x,y,z
-x,y,1/2-z
-x,-y,-z
x,-y,1/2+z
loop_
_atom_site_type_symbol
_atom_site_label
_atom_site_fract_x
_atom_site_fract_y
_atom_site_fract_z
Si Si1 0.500000 0.452857 0.250000
Si Si2 0.991817 0.273669 0.879345
Si Si3 0.359431 0.753768 0.118391
Si Si4 0.239657 0.251970 0.152274
Si Si5 0.918373 0.624830 0.804273
Si Si6 0.832096 0.922004 0.389341
Si Si7 0.794145 0.779548 0.605876
Si Si8 0.000000 0.062547 0.750000
O O1 0.382556 0.570762 0.140812
O O2 0.395515 0.349294 0.236934
O O3 0.952159 0.445422 0.832560
O O4 0.850664 0.196360 0.837622
O O5 0.019277 0.166567 0.829421
O O6 0.137483 0.272232 0.020254
O O7 0.500000 0.816228 0.250000
O O8 0.214835 0.826728 0.071407
O O9 0.351036 0.792242 0.032537
O O10 0.137077 0.311601 0.154975
O O11 0.273230 0.071735 0.183701
O O12 0.787954 0.669235 0.668663
O O13 0.070826 0.705906 0.862761
O O14 0.000000 0.000000 0.500000
O O15 0.854882 0.945376 0.666813
#
# Coordination Sequence:
#
# PCOD9229199 Si02
#       8
#     2   4   4   4   4   4   4   2
#     4  10  24  36  58  84 128 170 204 232 302 372
#     4  11  20  34  60  90 121 148 204 260 306 349
#     4  10  22  39  62  87 124 160 202 240 310 364
#     4  11  21  37  57  88 121 159 205 244 301 368
#     4  10  20  33  62  88 119 153 204 258 309 344
#     4  10  20  36  63  90 114 154 204 258 299 345
#     4  10  19  38  59  89 122 155 201 258 310 361
#     4  10  20  34  58  94 120 154 194 260 314 348
#
# _framework density 19.380192000000001
#
# number of rings (size 3 to 8) (size 9 to 14) (size 15 to 20)
#    0.429    1.429    0.000    8.143    1.000    0.000 
#    0.000    0.714    3.143    1.714    0.000    0.000 
#    0.000    0.000    0.000    0.000    0.000    0.000 
#
# Total GULP energy -156033.650286 kJ/mol
# GULP energy per Si atom -5572.630367 kJ/mol
# Density = 1.933608 g / cm^3
# Si number density = 19.380192 Si / 1000 Ang^3
#
#
#
# Elastic Constant Matrix: (Units=GPa)
#
#
# Indices 1 2 3 4 5 6 
#
# 1 63.5162 52.5039 23.7174 0.0000 -15.9998 0.0000
# 2 52.5039 134.6910 29.9324 0.0000 -10.0644 0.0000
# 3 23.7174 29.9324 91.6383 0.0000 -24.8151 0.0000
# 4 0.0000 0.0000 0.0000 13.6433 0.0000 -12.4101
# 5 -15.9998 -10.0644 -24.8151 0.0000 28.4982 0.0000
# 6 0.0000 0.0000 0.0000 -12.4101 0.0000 22.8859
#
#
#
# Elastic Compliance Matrix: (Units=1/GPa)
#
#
# Indices 1 2 3 4 5 6 
#
# 1 0.026512 -0.009330 -0.000884 0.000000 0.010820 0.000000
# 2 -0.009330 0.011300 -0.002112 0.000000 -0.003086 0.000000
# 3 -0.000884 -0.002112 0.015042 0.000000 0.011855 0.000000
# 4 0.000000 0.000000 0.000000 0.144639 0.000000 0.078432
# 5 0.010820 -0.003086 0.011855 0.000000 0.050397 0.000000
# 6 0.000000 0.000000 0.000000 0.078432 0.000000 0.086226
#
#
# Mechanical properties :
#
#
# Convention : Reuss Voigt Hill
#
# Bulk Modulus (GPa) = 35.45958 55.79476 45.62717
# Shear Modulus (GPa) = 13.58078 25.25159 19.41618
#
# Velocity S-wave (km/s) = 2.65005 3.61357 3.16865
# Velocity P-wave (km/s) = 5.26310 6.80166 6.08123
#
# Compressibility (1/GPa) = 0.02820112
#
# Stress axis : x y z
#
# Youngs Moduli (GPa) = 37.71918 88.49648 66.48244
#
# Poissons Ratio (x) = 0.82563 0.05880
# Poissons Ratio (y) = 0.35190 0.14042
# Poissons Ratio (z) = 0.03336 0.18691
#
# Static dielectric constant tensor:
#      x y z
#    x 1.685780 0.000000 0.032870 
#    y 0.000000 1.691370 0.000000 
#    z 0.032870 0.000000 1.784890 
# 
# From -- ./inp_files/68270.got.cif
#   From: 2010.05.17/outbox.cif.g08.bks.cpg/sg13_35_cif.got.tgz:68270.got - 2010.06.03 16:44:36.
