data_PCOD9229408
_publ_section_title
;
Structure prediction by ZEFSAII (Michael W. Deem and Ramdas Pophale) SiO2 
 PCOD9229408
Probable space group: P 2/C
;
_chemical_formula_sum "Si O2"
_cell_formula_units_Z 24
_cell_length_a 7.567984
_cell_length_b 14.584230
_cell_length_c 15.664973
_cell_angle_alpha 90.000000
_cell_angle_beta 145.163471
_cell_angle_gamma 90.000000
_cell_volume 987.665019
_symmetry_space_group_name_H-M "P 2/C"
_symmetry_group_IT_number 13
_symmetry_cell_setting 'monoclinic'
loop_
_space_group_symop_operation_xyz
x,y,z
-x,y,1/2-z
-x,-y,-z
x,-y,1/2+z
loop_
_atom_site_type_symbol
_atom_site_label
_atom_site_fract_x
_atom_site_fract_y
_atom_site_fract_z
Si Si1 0.963375 0.920253 0.131085
Si Si2 0.593427 0.596067 0.417329
Si Si3 0.185804 0.699420 0.671187
Si Si4 0.938302 0.723091 0.327884
Si Si5 0.473881 0.602615 0.572409
Si Si6 0.257347 0.898424 0.777374
O O1 0.000000 0.921718 0.250000
O O2 0.127982 0.825891 0.168087
O O3 0.602817 0.914406 0.955578
O O4 0.141763 0.013268 0.177606
O O5 0.298894 0.640325 0.254750
O O6 0.502460 0.594829 0.481954
O O7 0.648910 0.488146 0.428581
O O8 0.866159 0.666819 0.505045
O O9 0.500000 0.671788 0.750000
O O10 0.204456 0.632785 0.760439
O O11 0.218961 0.805777 0.707766
O O12 0.000000 0.730360 0.250000
O O13 0.253096 0.690138 0.494555
O O14 0.000000 0.886905 0.750000
#
# Coordination Sequence:
#
# PCOD9229408 Si02
#       6
#     4   4   4   4   4   4
#     4  10  20  34  62  96 117 145 198 263 317 357
#     4  10  21  36  67  91 117 155 200 257 303 352
#     4  12  26  40  57  87 129 170 202 237 298 369
#     4   9  18  32  58  91 119 140 190 257 308 360
#     4  10  19  40  63  93 117 151 204 255 306 347
#     4  11  22  38  65  90 118 154 203 260 309 360
#
# _framework density 24.299734999999998
#
# number of rings (size 3 to 8) (size 9 to 14) (size 15 to 20)
#    0.000    1.667    1.667    4.500    7.000    3.333 
#    0.000    1.667    0.000    0.000    0.000    0.000 
#    0.000    0.000    0.000    0.000    0.000    0.000 
#
# Total GULP energy -133891.980160 kJ/mol
# GULP energy per Si atom -5578.832507 kJ/mol
# Density = 2.424443 g / cm^3
# Si number density = 24.299735 Si / 1000 Ang^3
#
#
#
# Elastic Constant Matrix: (Units=GPa)
#
#
# Indices 1 2 3 4 5 6 
#
# 1 51.7311 14.8490 3.3583 0.0000 6.8478 0.0000
# 2 14.8490 200.5265 28.9647 0.0000 8.9928 0.0000
# 3 3.3583 28.9647 111.9922 0.0000 1.1569 0.0000
# 4 0.0000 0.0000 0.0000 54.2251 0.0000 -2.6294
# 5 6.8478 8.9928 1.1569 0.0000 23.2328 0.0000
# 6 0.0000 0.0000 0.0000 -2.6294 0.0000 18.8412
#
#
#
# Elastic Compliance Matrix: (Units=1/GPa)
#
#
# Indices 1 2 3 4 5 6 
#
# 1 0.020432 -0.001231 -0.000237 0.000000 -0.005534 0.000000
# 2 -0.001231 0.005343 -0.001328 0.000000 -0.001639 0.000000
# 3 -0.000237 -0.001328 0.009279 0.000000 0.000122 0.000000
# 4 0.000000 0.000000 0.000000 0.018567 0.000000 0.002591
# 5 -0.005534 -0.001639 0.000122 0.000000 0.045302 0.000000
# 6 0.000000 0.000000 0.000000 0.002591 0.000000 0.053437
#
#
# Mechanical properties :
#
#
# Convention : Reuss Voigt Hill
#
# Bulk Modulus (GPa) = 33.94208 50.95488 42.44848
# Shear Modulus (GPa) = 29.80221 40.39833 35.10027
#
# Velocity S-wave (km/s) = 3.50586 4.08180 3.80474
# Velocity P-wave (km/s) = 5.51239 6.57492 6.06696
#
# Compressibility (1/GPa) = 0.02946196
#
# Stress axis : x y z
#
# Youngs Moduli (GPa) = 48.94306 187.14833 107.77550
#
# Poissons Ratio (x) = 0.23029 0.02557
# Poissons Ratio (y) = 0.06023 0.14314
# Poissons Ratio (z) = 0.01161 0.24856
#
# Static dielectric constant tensor:
#      x y z
#    x 2.342890 0.000000 -0.519630 
#    y 0.000000 1.915720 0.000000 
#    z -0.519630 0.000000 2.514650 
# 
# From -- ./inp_files/64705.got.cif
#   From: 2010.05.17/outbox.cif.g08.bks.cpg/sg13_33_cif.got.tgz:64705.got - 2010.06.03 16:44:36.
