data_PCOD9229916
_publ_section_title
;
Structure prediction by ZEFSAII (Michael W. Deem and Ramdas Pophale) SiO2 
 PCOD9229916
Probable space group: P 2/C
;
_chemical_formula_sum "Si O2"
_cell_formula_units_Z 30
_cell_length_a 12.035562
_cell_length_b 13.909605
_cell_length_c 18.328007
_cell_angle_alpha 90.000000
_cell_angle_beta 151.946033
_cell_angle_gamma 90.000000
_cell_volume 1443.026035
_symmetry_space_group_name_H-M "P 2/C"
_symmetry_group_IT_number 13
_symmetry_cell_setting 'monoclinic'
loop_
_space_group_symop_operation_xyz
x,y,z
-x,y,1/2-z
-x,-y,-z
x,-y,1/2+z
loop_
_atom_site_type_symbol
_atom_site_label
_atom_site_fract_x
_atom_site_fract_y
_atom_site_fract_z
Si Si1 0.324802 0.924582 0.490351
Si Si2 0.547930 0.135778 0.966480
Si Si3 0.305037 0.575968 0.080272
Si Si4 0.203826 0.323931 0.213126
Si Si5 0.191114 0.884068 0.667867
Si Si6 0.500000 0.610950 0.750000
Si Si7 0.277594 0.346201 0.412930
Si Si8 0.059372 0.901754 0.127082
O O1 0.428937 0.880861 0.476742
O O2 0.529934 0.905598 0.668681
O O3 0.087085 0.881305 0.384766
O O4 0.307201 0.039069 0.466441
O O5 0.323116 0.138379 0.782315
O O6 0.683900 0.234914 0.044340
O O7 0.500000 0.618002 0.250000
O O8 0.315090 0.462983 0.104978
O O9 0.381680 0.594447 0.040905
O O10 0.043861 0.619728 0.939128
O O11 0.145020 0.211090 0.187991
O O12 0.364844 0.332657 0.234737
O O13 0.344883 0.358814 0.367063
O O14 0.081900 0.868018 0.525272
O O15 0.079349 0.982190 0.633878
O O16 0.000000 0.368061 0.250000
#
# Coordination Sequence:
#
# PCOD9229916 Si02
#       8
#     4   4   4   4   4   2   4   4
#     4  10  20  35  53  77 124 162 201 248 298 350
#     4  10  21  34  54  85 113 160 207 246 300 343
#     4   9  23  43  65  95 119 156 202 260 324 383
#     4  11  22  41  68  93 125 161 210 253 317 391
#     4  10  22  37  53  90 115 164 210 240 297 357
#     4  10  24  42  70  92 126 158 198 264 334 388
#     4  10  22  39  64  93 123 158 209 260 307 381
#     4  10  22  35  53  79 127 165 201 253 286 350
#
# _framework density 20.789645
#
# number of rings (size 3 to 8) (size 9 to 14) (size 15 to 20)
#    0.400    1.600    1.333    1.200    7.467    0.533 
#    0.000    0.000    0.000    0.000    0.000    0.000 
#    0.000    0.000    0.000    0.000    0.000    0.000 
#
# Total GULP energy -167323.220057 kJ/mol
# GULP energy per Si atom -5577.440669 kJ/mol
# Density = 2.074233 g / cm^3
# Si number density = 20.789645 Si / 1000 Ang^3
#
#
#
# Elastic Constant Matrix: (Units=GPa)
#
#
# Indices 1 2 3 4 5 6 
#
# 1 90.5102 0.1085 27.3220 0.0000 -19.7060 0.0000
# 2 0.1085 38.7290 5.0089 0.0000 -10.8550 0.0000
# 3 27.3220 5.0089 84.3344 0.0000 -30.9310 0.0000
# 4 0.0000 0.0000 0.0000 19.7925 0.0000 -2.4326
# 5 -19.7060 -10.8550 -30.9310 0.0000 32.5998 0.0000
# 6 0.0000 0.0000 0.0000 -2.4326 0.0000 4.2376
#
#
#
# Elastic Compliance Matrix: (Units=1/GPa)
#
#
# Indices 1 2 3 4 5 6 
#
# 1 0.013101 0.002129 -0.001850 0.000000 0.006873 0.000000
# 2 0.002129 0.029243 0.002480 0.000000 0.013377 0.000000
# 3 -0.001850 0.002480 0.018715 0.000000 0.017464 0.000000
# 4 0.000000 0.000000 0.000000 0.054359 0.000000 0.031205
# 5 0.006873 0.013377 0.017464 0.000000 0.055854 0.000000
# 6 0.000000 0.000000 0.000000 0.031205 0.000000 0.253893
#
#
# Mechanical properties :
#
#
# Convention : Reuss Voigt Hill
#
# Bulk Modulus (GPa) = 15.02052 30.93916 22.97984
# Shear Modulus (GPa) = 11.31632 23.40161 17.35896
#
# Velocity S-wave (km/s) = 2.33561 3.35869 2.89274
# Velocity P-wave (km/s) = 3.80974 5.47315 4.71537
#
# Compressibility (1/GPa) = 0.06657557
#
# Stress axis : x y z
#
# Youngs Moduli (GPa) = 76.33171 34.19614 53.43321
#
# Poissons Ratio (x) = -0.07280 0.09885
# Poissons Ratio (y) = -0.16250 -0.13250
# Poissons Ratio (z) = 0.14122 -0.08479
#
# Static dielectric constant tensor:
#      x y z
#    x 1.772890 0.000000 -0.029740 
#    y 0.000000 1.720730 0.000000 
#    z -0.029740 0.000000 1.782830 
# 
# From -- ./inp_files/66865.got.cif
#   From: 2010.05.17/outbox.cif.g08.bks.cpg/sg13_34_cif.got.tgz:66865.got - 2010.06.03 16:44:36.
