data_PCOD9229608
_publ_section_title
;
Structure prediction by ZEFSAII (Michael W. Deem and Ramdas Pophale) SiO2 
 PCOD9229608
Probable space group: P 2/C
;
_chemical_formula_sum "Si O2"
_cell_formula_units_Z 32
_cell_length_a 8.013994
_cell_length_b 13.213316
_cell_length_c 22.252924
_cell_angle_alpha 90.000000
_cell_angle_beta 128.851747
_cell_angle_gamma 90.000000
_cell_volume 1835.093069
_symmetry_space_group_name_H-M "P 2/C"
_symmetry_group_IT_number 13
_symmetry_cell_setting 'monoclinic'
loop_
_space_group_symop_operation_xyz
x,y,z
-x,y,1/2-z
-x,-y,-z
x,-y,1/2+z
loop_
_atom_site_type_symbol
_atom_site_label
_atom_site_fract_x
_atom_site_fract_y
_atom_site_fract_z
Si Si1 0.237936 0.756608 0.461361
Si Si2 0.544808 0.844711 0.635967
Si Si3 0.003302 0.379791 0.003353
Si Si4 0.343466 0.048548 0.584408
Si Si5 0.306223 0.290565 0.174980
Si Si6 0.377882 0.744530 0.031507
Si Si7 0.070959 0.825811 0.854270
Si Si8 0.029639 0.033308 0.906997
O O1 0.391538 0.802608 0.548172
O O2 0.086378 0.676994 0.461719
O O3 0.399411 0.711159 0.448401
O O4 0.114292 0.855606 0.408307
O O5 0.433564 0.798982 0.669333
O O6 0.784176 0.814788 0.671935
O O7 0.527014 0.965554 0.632150
O O8 0.169127 0.347901 0.093648
O O9 0.000000 0.500000 0.000000
O O10 0.769708 0.336943 0.968522
O O11 0.417374 0.160008 0.583854
O O12 0.195063 0.046632 0.609605
O O13 0.192685 0.008934 0.495381
O O14 0.500000 0.351159 0.250000
O O15 0.137765 0.242024 0.182931
O O16 0.227026 0.788214 0.943907
O O17 0.020828 0.943929 0.856250
#
# Coordination Sequence:
#
# PCOD9229608 Si02
#       8
#     4   4   4   4   4   4   4   4
#     4   9  16  26  42  65  92 119 148 185 231 277
#     4   9  16  26  42  65  93 122 147 175 215 269
#     4  10  20  33  47  65  89 119 157 208 257 287
#     4   9  13  21  39  64  94 123 145 169 206 258
#     4  10  20  33  47  65  91 121 154 188 231 291
#     4   9  16  26  42  65  92 119 148 185 231 277
#     4   9  16  26  42  65  93 122 147 175 215 269
#     4   9  13  21  39  64  94 123 145 169 206 258
#
# _framework density 17.437806999999999
#
# number of rings (size 3 to 8) (size 9 to 14) (size 15 to 20)
#    0.000    2.750    2.500    0.750    0.000    4.000 
#    0.000    0.000    0.000    0.000    0.000    3.500 
#    0.000    2.000    0.000    0.000    0.000    0.000 
#
# Total GULP energy -178197.032922 kJ/mol
# GULP energy per Si atom -5568.657279 kJ/mol
# Density = 1.739812 g / cm^3
# Si number density = 17.437807 Si / 1000 Ang^3
#
#
#
# Elastic Constant Matrix: (Units=GPa)
#
#
# Indices 1 2 3 4 5 6 
#
# 1 148.7494 55.7084 10.3359 0.0000 -0.0783 0.0000
# 2 55.7084 107.6373 6.8482 0.0000 -1.8855 0.0000
# 3 10.3359 6.8482 18.4718 0.0000 2.6003 0.0000
# 4 0.0000 0.0000 0.0000 2.1294 0.0000 2.0384
# 5 -0.0783 -1.8855 2.6003 0.0000 18.4026 0.0000
# 6 0.0000 0.0000 0.0000 2.0384 0.0000 11.9272
#
#
#
# Elastic Compliance Matrix: (Units=1/GPa)
#
#
# Indices 1 2 3 4 5 6 
#
# 1 0.008521 -0.004204 -0.003218 0.000000 0.000060 0.000000
# 2 -0.004204 0.011630 -0.002168 0.000000 0.001480 0.000000
# 3 -0.003218 -0.002168 0.057926 0.000000 -0.008421 0.000000
# 4 0.000000 0.000000 0.000000 0.561461 0.000000 -0.095955
# 5 0.000060 0.001480 -0.008421 0.000000 0.055682 0.000000
# 6 0.000000 0.000000 0.000000 -0.095955 0.000000 0.100241
#
#
# Mechanical properties :
#
#
# Convention : Reuss Voigt Hill
#
# Bulk Modulus (GPa) = 16.97847 46.73815 31.85831
# Shear Modulus (GPa) = 5.99324 19.95624 12.97474
#
# Velocity S-wave (km/s) = 1.85591 3.38660 2.73070
# Velocity P-wave (km/s) = 3.78817 6.49254 5.31523
#
# Compressibility (1/GPa) = 0.05889811
#
# Stress axis : x y z
#
# Youngs Moduli (GPa) = 117.35884 85.98267 17.26339
#
# Poissons Ratio (x) = 0.36149 0.05555
# Poissons Ratio (y) = 0.49341 0.03742
# Poissons Ratio (z) = 0.37762 0.18638
#
# Static dielectric constant tensor:
#      x y z
#    x 1.623890 0.000000 -0.004300 
#    y 0.000000 1.559990 0.000000 
#    z -0.004300 0.000000 1.649140 
# 
# From -- ./inp_files/85135.got.cif
#   From: 2010.05.17/outbox.cif.g08.bks.cpg/sg13_43_cif.got.tgz:85135.got - 2010.06.03 16:44:36.
