data_PCOD9229180
_publ_section_title
;
Structure prediction by ZEFSAII (Michael W. Deem and Ramdas Pophale) SiO2 
 PCOD9229180
Probable space group: P 2/C
;
_chemical_formula_sum "Si O2"
_cell_formula_units_Z 28
_cell_length_a 14.162076
_cell_length_b 8.144771
_cell_length_c 21.352870
_cell_angle_alpha 90.000000
_cell_angle_beta 30.335085
_cell_angle_gamma 90.000000
_cell_volume 1243.946739
_symmetry_space_group_name_H-M "P 2/C"
_symmetry_group_IT_number 13
_symmetry_cell_setting 'monoclinic'
loop_
_space_group_symop_operation_xyz
x,y,z
-x,y,1/2-z
-x,-y,-z
x,-y,1/2+z
loop_
_atom_site_type_symbol
_atom_site_label
_atom_site_fract_x
_atom_site_fract_y
_atom_site_fract_z
Si Si1 0.899191 0.010605 0.625031
Si Si2 0.809064 0.290017 0.899756
Si Si3 0.633570 0.357488 0.470629
Si Si4 0.658907 0.733120 0.709473
Si Si5 0.689506 0.455882 0.305944
Si Si6 0.856230 0.936619 0.889777
Si Si7 0.017159 0.643733 0.069362
O O1 0.727580 0.888808 0.711054
O O2 0.029119 0.958418 0.610312
O O3 0.870644 0.205823 0.646734
O O4 0.000000 0.000000 0.500000
O O5 0.709959 0.458202 0.937986
O O6 0.000000 0.287134 0.750000
O O7 0.856321 0.310554 0.944853
O O8 0.738926 0.101584 0.938592
O O9 0.678103 0.332453 0.371434
O O10 0.415078 0.380616 0.609972
O O11 0.727808 0.223605 0.460317
O O12 0.500000 0.773726 0.750000
O O13 0.586516 0.607425 0.802970
O O14 0.839058 0.650523 0.570978
O O15 0.898400 0.489682 0.162030
O O16 0.000000 0.915072 0.750000
#
# Coordination Sequence:
#
# PCOD9229180 Si02
#       7
#     4   4   4   4   4   4   4
#     4   9  21  42  66  95 130 170 223 270 340 398
#     4  10  19  37  67  92 131 167 216 269 327 389
#     4  11  23  41  64 100 137 171 226 269 331 394
#     4  11  23  43  65  94 128 169 224 273 331 399
#     4  11  24  42  60  97 134 173 218 275 330 394
#     4  10  21  38  69 100 128 177 225 269 337 399
#     4  10  21  42  65  92 129 172 214 269 332 392
#
# _framework density 22.509
#
# number of rings (size 3 to 8) (size 9 to 14) (size 15 to 20)
#    0.000    1.714    1.429    2.571    2.000    0.000 
#   15.429    1.429    0.000    0.000    0.000    0.000 
#    0.000    0.000    0.000    0.000    0.000    0.000 
#
# Total GULP energy -155990.674609 kJ/mol
# GULP energy per Si atom -5571.095522 kJ/mol
# Density = 2.245777 g / cm^3
# Si number density = 22.509000 Si / 1000 Ang^3
#
#
#
# Elastic Constant Matrix: (Units=GPa)
#
#
# Indices 1 2 3 4 5 6 
#
# 1 91.8699 28.9325 33.6532 0.0000 27.6574 0.0000
# 2 28.9325 65.8788 26.8682 0.0000 0.7024 0.0000
# 3 33.6532 26.8682 95.6717 0.0000 19.0038 0.0000
# 4 0.0000 0.0000 0.0000 14.2575 0.0000 7.1509
# 5 27.6574 0.7024 19.0038 0.0000 37.2338 0.0000
# 6 0.0000 0.0000 0.0000 7.1509 0.0000 29.1472
#
#
#
# Elastic Compliance Matrix: (Units=1/GPa)
#
#
# Indices 1 2 3 4 5 6 
#
# 1 0.017182 -0.006667 -0.001849 0.000000 -0.011694 0.000000
# 2 -0.006667 0.019921 -0.004627 0.000000 0.006939 0.000000
# 3 -0.001849 -0.004627 0.013479 0.000000 -0.005419 0.000000
# 4 0.000000 0.000000 0.000000 0.079980 0.000000 -0.019622
# 5 -0.011694 0.006939 -0.005419 0.000000 0.038178 0.000000
# 6 0.000000 0.000000 0.000000 -0.019622 0.000000 0.039123
#
#
# Mechanical properties :
#
#
# Convention : Reuss Voigt Hill
#
# Bulk Modulus (GPa) = 41.16142 48.03646 44.59894
# Shear Modulus (GPa) = 20.63997 27.05881 23.84939
#
# Velocity S-wave (km/s) = 3.03143 3.47094 3.25860
# Velocity P-wave (km/s) = 5.52984 6.11969 5.83222
#
# Compressibility (1/GPa) = 0.02429460
#
# Stress axis : x y z
#
# Youngs Moduli (GPa) = 58.19933 50.19865 74.19135
#
# Poissons Ratio (x) = 0.33469 0.13716
# Poissons Ratio (y) = 0.38804 0.34332
# Poissons Ratio (z) = 0.10760 0.23229
#
# Static dielectric constant tensor:
#      x y z
#    x 1.876710 0.000000 0.020180 
#    y 0.000000 1.946750 0.000000 
#    z 0.020180 0.000000 2.097300 
# 
# From -- ./inp_files/79949.got.cif
#   From: 2010.05.17/outbox.cif.g08.bks.cpg/sg13_40_cif.got.tgz:79949.got - 2010.06.03 16:44:36.
