data_PCOD9229219
_publ_section_title
;
Structure prediction by ZEFSAII (Michael W. Deem and Ramdas Pophale) SiO2 
 PCOD9229219
Probable space group: P 2/C
;
_chemical_formula_sum "Si O2"
_cell_formula_units_Z 32
_cell_length_a 28.079155
_cell_length_b 5.781656
_cell_length_c 17.832876
_cell_angle_alpha 90.000000
_cell_angle_beta 28.196660
_cell_angle_gamma 90.000000
_cell_volume 1367.914407
_symmetry_space_group_name_H-M "P 2/C"
_symmetry_group_IT_number 13
_symmetry_cell_setting 'monoclinic'
loop_
_space_group_symop_operation_xyz
x,y,z
-x,y,1/2-z
-x,-y,-z
x,-y,1/2+z
loop_
_atom_site_type_symbol
_atom_site_label
_atom_site_fract_x
_atom_site_fract_y
_atom_site_fract_z
Si Si1 0.639143 0.645619 0.302256
Si Si2 0.621096 0.834469 0.858649
Si Si3 0.843107 0.309395 0.437206
Si Si4 0.915775 0.939230 0.557541
Si Si5 0.136315 0.188974 0.519318
Si Si6 0.788944 0.648279 0.848306
Si Si7 0.251007 0.269593 0.698126
Si Si8 0.402855 0.116933 0.935688
O O1 0.588824 0.395004 0.357787
O O2 0.724496 0.679483 0.121624
O O3 0.695028 0.611645 0.305972
O O4 0.592967 0.902945 0.373523
O O5 0.745228 0.828777 0.674342
O O6 0.583319 0.799391 0.997216
O O7 0.877912 0.561820 0.420451
O O8 0.848990 0.306381 0.339685
O O9 0.879820 0.057120 0.415561
O O10 0.937637 0.812631 0.449930
O O11 0.837250 0.786055 0.712722
O O12 0.849156 0.159926 0.627193
O O13 0.000000 0.000000 0.500000
O O14 0.792291 0.389412 0.815527
O O15 0.671645 0.717687 0.008151
O O16 0.337647 0.109584 0.543657
O O17 0.500000 0.078241 0.750000
#
# Coordination Sequence:
#
# PCOD9229219 Si02
#       8
#     4   4   4   4   4   4   4   4
#     4   9  15  32  56  79 106 159 203 235 299 372
#     4   9  15  31  55  80 104 155 206 238 286 375
#     4  10  21  34  66  88 126 167 209 257 326 391
#     4  11  23  40  68  93 122 164 227 269 311 389
#     4  10  19  40  62  89 119 178 209 250 327 390
#     4  11  22  39  62  96 126 163 213 275 325 380
#     4  10  19  38  61  86 118 167 213 262 311 387
#     4  10  20  34  58  92 126 160 211 274 327 373
#
# _framework density 23.393277999999999
#
# number of rings (size 3 to 8) (size 9 to 14) (size 15 to 20)
#    0.000    2.000    6.250    0.750    3.500    1.000 
#    0.000    0.625    0.000    9.750    0.000    0.000 
#    0.000    0.000    0.000    0.000    0.000    0.000 
#
# Total GULP energy -178214.949143 kJ/mol
# GULP energy per Si atom -5569.217161 kJ/mol
# Density = 2.334003 g / cm^3
# Si number density = 23.393278 Si / 1000 Ang^3
#
#
#
# Elastic Constant Matrix: (Units=GPa)
#
#
# Indices 1 2 3 4 5 6 
#
# 1 76.3896 32.4012 -4.0024 0.0000 19.6414 0.0000
# 2 32.4012 133.5616 8.1552 0.0000 -0.5331 0.0000
# 3 -4.0024 8.1552 48.0068 0.0000 0.3684 0.0000
# 4 0.0000 0.0000 0.0000 -7.5268 0.0000 10.5393
# 5 19.6414 -0.5331 0.3684 0.0000 31.7293 0.0000
# 6 0.0000 0.0000 0.0000 10.5393 0.0000 32.7935
#
#
#
# Elastic Compliance Matrix: (Units=1/GPa)
#
#
# Indices 1 2 3 4 5 6 
#
# 1 0.018053 -0.004569 0.002368 0.000000 -0.011280 0.000000
# 2 -0.004569 0.008723 -0.001886 0.000000 0.002997 0.000000
# 3 0.002368 -0.001886 0.021362 0.000000 -0.001746 0.000000
# 4 0.000000 0.000000 0.000000 -0.091626 0.000000 0.029447
# 5 -0.011280 0.002997 -0.001746 0.000000 0.038570 0.000000
# 6 0.000000 0.000000 0.000000 0.029447 0.000000 0.021030
#
#
# Mechanical properties :
#
#
# Convention : Reuss Voigt Hill
#
# Bulk Modulus (GPa) = 25.02289 36.78509 30.90399
# Shear Modulus (GPa) = 132.95552 26.15948 79.55750
#
# Velocity S-wave (km/s) = 7.54707 3.34765 5.83802
# Velocity P-wave (km/s) = 9.30936 5.54086 7.66046
#
# Compressibility (1/GPa) = 0.03996342
#
# Stress axis : x y z
#
# Youngs Moduli (GPa) = 55.39188 114.64283 46.81308
#
# Poissons Ratio (x) = 0.52383 -0.11085
# Poissons Ratio (y) = 0.25310 0.08828
# Poissons Ratio (z) = -0.13116 0.21618
#
# Static dielectric constant tensor:
#      x y z
#    x 1.890060 0.000000 -0.053330 
#    y 0.000000 2.265630 0.000000 
#    z -0.053330 0.000000 1.956820 
# 
# From -- ./inp_files/72205.got.cif
#   From: 2010.05.17/outbox.cif.g08.bks.cpg/sg13_37_cif.got.tgz:72205.got - 2010.06.03 16:44:36.
