data_PCOD9229398
_publ_section_title
;
Structure prediction by ZEFSAII (Michael W. Deem and Ramdas Pophale) SiO2 
 PCOD9229398
Probable space group: P 2/C
;
_chemical_formula_sum "Si O2"
_cell_formula_units_Z 26
_cell_length_a 7.992536
_cell_length_b 32.317260
_cell_length_c 5.395475
_cell_angle_alpha 90.000000
_cell_angle_beta 59.215443
_cell_angle_gamma 90.000000
_cell_volume 1197.268245
_symmetry_space_group_name_H-M "P 2/C"
_symmetry_group_IT_number 13
_symmetry_cell_setting 'monoclinic'
loop_
_space_group_symop_operation_xyz
x,y,z
-x,y,1/2-z
-x,-y,-z
x,-y,1/2+z
loop_
_atom_site_type_symbol
_atom_site_label
_atom_site_fract_x
_atom_site_fract_y
_atom_site_fract_z
Si Si1 0.872230 0.303630 0.097477
Si Si2 0.716560 0.866147 0.861069
Si Si3 0.730190 0.899172 0.353898
Si Si4 0.386943 0.774681 0.584309
Si Si5 0.725643 0.482511 0.108310
Si Si6 0.870397 0.605579 0.598054
Si Si7 0.000000 0.973304 0.250000
O O1 0.739275 0.263722 0.227512
O O2 0.771892 0.349008 0.170376
O O3 0.000000 0.304088 0.250000
O O4 0.000000 0.300176 0.750000
O O5 0.802184 0.870828 0.524145
O O6 0.710237 0.817671 0.927748
O O7 0.809136 0.889485 0.021926
O O8 0.499802 0.887339 0.998705
O O9 0.807698 0.944042 0.376302
O O10 0.500000 0.787446 0.750000
O O11 0.500000 0.760695 0.250000
O O12 0.500000 0.494750 0.250000
O O13 0.809876 0.509759 0.269873
O O14 0.739149 0.434984 0.180711
O O15 0.000000 0.602560 0.750000
O O16 0.000000 0.604753 0.250000
O O17 0.000000 0.000000 0.500000
#
# Coordination Sequence:
#
# PCOD9229398 Si02
#       7
#     4   4   4   4   4   4   2
#     4  10  23  42  58  87 131 165 204 253 315 377
#     4  10  19  40  61  89 118 158 199 249 295 359
#     4  10  20  40  64  85 125 156 195 246 298 351
#     4  12  21  39  65  94 126 157 211 260 301 368
#     4  10  21  36  55  84 117 146 195 260 312 365
#     4  10  21  38  59  80 115 162 201 247 302 375
#     4  12  26  44  62  94 130 160 204 254 300 362
#
# _framework density 21.716100000000001
#
# number of rings (size 3 to 8) (size 9 to 14) (size 15 to 20)
#    0.000    1.538    3.077    2.769    0.000    2.462 
#    4.154   11.538    0.000    0.000    0.000    0.000 
#    0.000    0.000    0.000    0.000    0.000    0.000 
#
# Total GULP energy -144948.791630 kJ/mol
# GULP energy per Si atom -5574.953524 kJ/mol
# Density = 2.166667 g / cm^3
# Si number density = 21.716100 Si / 1000 Ang^3
#
#
#
# Elastic Constant Matrix: (Units=GPa)
#
#
# Indices 1 2 3 4 5 6 
#
# 1 79.5626 32.0876 41.5425 0.0000 28.4123 0.0000
# 2 32.0876 153.7441 29.5650 0.0000 8.9241 0.0000
# 3 41.5425 29.5650 145.8886 0.0000 40.6810 0.0000
# 4 0.0000 0.0000 0.0000 44.1477 0.0000 5.4092
# 5 28.4123 8.9241 40.6810 0.0000 42.3415 0.0000
# 6 0.0000 0.0000 0.0000 5.4092 0.0000 27.7690
#
#
#
# Elastic Compliance Matrix: (Units=1/GPa)
#
#
# Indices 1 2 3 4 5 6 
#
# 1 0.018207 -0.002871 -0.001864 0.000000 -0.009822 0.000000
# 2 -0.002871 0.007222 -0.001036 0.000000 0.001400 0.000000
# 3 -0.001864 -0.001036 0.009815 0.000000 -0.007961 0.000000
# 4 0.000000 0.000000 0.000000 0.023205 0.000000 -0.004520
# 5 -0.009822 0.001400 -0.007961 0.000000 0.037562 0.000000
# 6 0.000000 0.000000 0.000000 -0.004520 0.000000 0.036892
#
#
# Mechanical properties :
#
#
# Convention : Reuss Voigt Hill
#
# Bulk Modulus (GPa) = 42.19289 65.06506 53.62897
# Shear Modulus (GPa) = 32.81982 41.25165 37.03573
#
# Velocity S-wave (km/s) = 3.89178 4.36315 4.13419
# Velocity P-wave (km/s) = 6.29810 7.44376 6.89477
#
# Compressibility (1/GPa) = 0.02370068
#
# Stress axis : x y z
#
# Youngs Moduli (GPa) = 54.92281 138.47317 101.88149
#
# Poissons Ratio (x) = 0.39762 0.18991
# Poissons Ratio (y) = 0.15771 0.10558
# Poissons Ratio (z) = 0.10238 0.14351
#
# Static dielectric constant tensor:
#      x y z
#    x 1.974050 0.000000 -0.079460 
#    y 0.000000 1.794520 0.000000 
#    z -0.079460 0.000000 1.777470 
# 
# From -- ./inp_files/2614.got.cif
#   From: 2010.05.17/outbox.cif.g08.bks.cpg/sg13_2_cif.got.tgz:2614.got - 2010.06.03 16:44:36.
