data_PCOD9229080
_publ_section_title
;
Structure prediction by ZEFSAII (Michael W. Deem and Ramdas Pophale) SiO2 
 PCOD9229080
Probable space group: P 2/C
;
_chemical_formula_sum "Si O2"
_cell_formula_units_Z 28
_cell_length_a 22.665855
_cell_length_b 11.130949
_cell_length_c 16.516159
_cell_angle_alpha 90.000000
_cell_angle_beta 20.743816
_cell_angle_gamma 90.000000
_cell_volume 1475.875690
_symmetry_space_group_name_H-M "P 2/C"
_symmetry_group_IT_number 13
_symmetry_cell_setting 'monoclinic'
loop_
_space_group_symop_operation_xyz
x,y,z
-x,y,1/2-z
-x,-y,-z
x,-y,1/2+z
loop_
_atom_site_type_symbol
_atom_site_label
_atom_site_fract_x
_atom_site_fract_y
_atom_site_fract_z
Si Si1 0.373448 0.475615 0.982347
Si Si2 0.491405 0.083572 0.859331
Si Si3 0.846531 0.978233 0.886278
Si Si4 0.166142 0.071652 0.764973
Si Si5 0.397894 0.327656 0.707035
Si Si6 0.806266 0.670371 0.188425
Si Si7 0.152748 0.299289 0.164635
O O1 0.500000 0.521380 0.750000
O O2 0.485723 0.435599 0.913953
O O3 0.239868 0.570780 0.185831
O O4 0.284221 0.358040 0.058315
O O5 0.500000 0.103047 0.750000
O O6 0.665335 0.019943 0.659877
O O7 0.504222 0.208063 0.890386
O O8 0.328140 0.005151 0.083093
O O9 0.859767 0.845967 0.825969
O O10 0.000000 0.989510 0.750000
O O11 0.839324 0.076287 0.825303
O O12 0.172756 0.201200 0.796166
O O13 0.000000 0.000000 0.000000
O O14 0.341263 0.323812 0.687926
O O15 0.230660 0.332331 0.977510
O O16 0.976172 0.649919 0.919993
#
# Coordination Sequence:
#
# PCOD9229080 Si02
#       7
#     4   4   4   4   4   4   4
#     4  10  22  39  59  81 117 155 194 240 297 359
#     4   9  19  36  59  82 113 153 195 243 297 342
#     4  10  19  38  63  85 110 152 202 247 291 345
#     4  11  23  36  54  86 126 153 190 242 296 356
#     4  10  20  37  62  87 111 146 202 253 287 344
#     4  12  23  36  58  88 121 154 190 240 303 357
#     4  10  19  37  61  86 111 146 197 253 292 339
#
# _framework density 18.971788
#
# number of rings (size 3 to 8) (size 9 to 14) (size 15 to 20)
#    0.000    1.714    1.429    6.000    0.000    2.286 
#    0.000    0.000    0.000    4.286    0.000    0.000 
#    0.000    0.000    0.000    0.000    0.000    0.000 
#
# Total GULP energy -156151.350056 kJ/mol
# GULP energy per Si atom -5576.833931 kJ/mol
# Density = 1.892861 g / cm^3
# Si number density = 18.971788 Si / 1000 Ang^3
#
#
#
# Elastic Constant Matrix: (Units=GPa)
#
#
# Indices 1 2 3 4 5 6 
#
# 1 95.4727 41.6036 27.6925 0.0000 -18.6951 0.0000
# 2 41.6036 66.1245 37.4407 0.0000 1.5230 0.0000
# 3 27.6925 37.4407 103.3294 0.0000 -21.2796 0.0000
# 4 0.0000 0.0000 0.0000 21.8428 0.0000 -0.1013
# 5 -18.6951 1.5230 -21.2796 0.0000 22.0790 0.0000
# 6 0.0000 0.0000 0.0000 -0.1013 0.0000 13.3676
#
#
#
# Elastic Compliance Matrix: (Units=1/GPa)
#
#
# Indices 1 2 3 4 5 6 
#
# 1 0.020960 -0.016837 0.005461 0.000000 0.024173 0.000000
# 2 -0.016837 0.034471 -0.014228 0.000000 -0.030347 0.000000
# 3 0.005461 -0.014228 0.018120 0.000000 0.023070 0.000000
# 4 0.000000 0.000000 0.000000 0.045783 0.000000 0.000347
# 5 0.024173 -0.030347 0.023070 0.000000 0.090088 0.000000
# 6 0.000000 0.000000 0.000000 0.000347 0.000000 0.074810
#
#
# Mechanical properties :
#
#
# Convention : Reuss Voigt Hill
#
# Bulk Modulus (GPa) = 44.75082 53.15560 48.95321
# Shear Modulus (GPa) = 14.58201 22.00387 18.29294
#
# Velocity S-wave (km/s) = 2.77540 3.40931 3.10855
# Velocity P-wave (km/s) = 5.82321 6.60128 6.22441
#
# Compressibility (1/GPa) = 0.02234596
#
# Stress axis : x y z
#
# Youngs Moduli (GPa) = 47.70903 29.00984 55.18628
#
# Poissons Ratio (x) = 0.48843 -0.30140
# Poissons Ratio (y) = 0.80327 0.78517
# Poissons Ratio (z) = -0.26056 0.41274
#
# Static dielectric constant tensor:
#      x y z
#    x 1.672690 0.000000 0.002940 
#    y 0.000000 1.646810 0.000000 
#    z 0.002940 0.000000 1.705280 
# 
# From -- ./inp_files/71393.got.cif
#   From: 2010.05.17/outbox.cif.g08.bks.cpg/sg13_36_cif.got.tgz:71393.got - 2010.06.03 16:44:36.
