data_PCOD9229089
_publ_section_title
;
Structure prediction by ZEFSAII (Michael W. Deem and Ramdas Pophale) SiO2 
 PCOD9229089
Probable space group: P 2/C
;
_chemical_formula_sum "Si O2"
_cell_formula_units_Z 16
_cell_length_a 12.079770
_cell_length_b 8.621061
_cell_length_c 8.541428
_cell_angle_alpha 90.000000
_cell_angle_beta 68.670678
_cell_angle_gamma 90.000000
_cell_volume 828.581351
_symmetry_space_group_name_H-M "P 2/C"
_symmetry_group_IT_number 13
_symmetry_cell_setting 'monoclinic'
loop_
_space_group_symop_operation_xyz
x,y,z
-x,y,1/2-z
-x,-y,-z
x,-y,1/2+z
loop_
_atom_site_type_symbol
_atom_site_label
_atom_site_fract_x
_atom_site_fract_y
_atom_site_fract_z
Si Si1 0.342228 0.196955 0.403078
Si Si2 0.139868 0.889250 0.199876
Si Si3 0.727703 0.133467 0.555805
Si Si4 0.447019 0.329628 0.042982
O O1 0.210201 0.216561 0.538241
O O2 0.376107 0.306088 0.242509
O O3 0.436855 0.222652 0.492827
O O4 0.349270 0.016589 0.352053
O O5 0.182267 0.837362 0.348982
O O6 0.000000 0.889643 0.250000
O O7 0.195685 0.059070 0.127668
O O8 0.641355 0.269667 0.545523
O O9 0.500000 0.500000 0.000000
#
# Coordination Sequence:
#
# PCOD9229089 Si02
#       4
#     4   4   4   4
#     4   9  21  38  56  88 124 155 215 248 311 378
#     4  10  20  35  64  92 123 158 217 261 298 358
#     4  10  19  37  61  90 123 158 207 260 309 366
#     4  11  22  38  60  90 128 166 200 259 324 380
#
# _framework density 19.310115
#
# number of rings (size 3 to 8) (size 9 to 14) (size 15 to 20)
#    1.500    0.500    2.500    1.500    0.000    5.000 
#    0.000    0.000    0.000    7.500    0.000    0.000 
#    0.000    0.000    0.000    0.000    0.000    0.000 
#
# Total GULP energy -89078.483123 kJ/mol
# GULP energy per Si atom -5567.405195 kJ/mol
# Density = 1.926616 g / cm^3
# Si number density = 19.310115 Si / 1000 Ang^3
#
#
#
# Elastic Constant Matrix: (Units=GPa)
#
#
# Indices 1 2 3 4 5 6 
#
# 1 156.6370 84.2518 55.9271 0.0000 -0.8716 0.0000
# 2 84.2518 68.5167 47.5040 0.0000 14.6370 0.0000
# 3 55.9271 47.5040 77.6001 0.0000 4.7907 0.0000
# 4 0.0000 0.0000 0.0000 17.2465 0.0000 -0.0212
# 5 -0.8716 14.6370 4.7907 0.0000 39.0668 0.0000
# 6 0.0000 0.0000 0.0000 -0.0212 0.0000 -4.8087
#
#
#
# Elastic Compliance Matrix: (Units=1/GPa)
#
#
# Indices 1 2 3 4 5 6 
#
# 1 0.023536 -0.033642 0.002843 0.000000 0.012781 0.000000
# 2 -0.033642 0.075942 -0.020595 0.000000 -0.026678 0.000000
# 3 0.002843 -0.020595 0.023140 0.000000 0.004942 0.000000
# 4 0.000000 0.000000 0.000000 0.057982 0.000000 -0.000256
# 5 0.012781 -0.026678 0.004942 0.000000 0.035272 0.000000
# 6 0.000000 0.000000 0.000000 -0.000256 0.000000 -0.207956
#
#
# Mechanical properties :
#
#
# Convention : Reuss Voigt Hill
#
# Bulk Modulus (GPa) = 50.43290 75.34662 62.88976
# Shear Modulus (GPa) = 42.62076 17.97231 30.29654
#
# Velocity S-wave (km/s) = 4.70315 3.05408 3.96529
# Velocity P-wave (km/s) = 7.46103 7.17917 7.32145
#
# Compressibility (1/GPa) = 0.01982833
#
# Stress axis : x y z
#
# Youngs Moduli (GPa) = 42.48879 13.16800 43.21487
#
# Poissons Ratio (x) = 0.44300 -0.12287
# Poissons Ratio (y) = 1.42942 0.89003
# Poissons Ratio (z) = -0.12080 0.27120
#
# Static dielectric constant tensor:
#      x y z
#    x 1.664000 0.000000 0.009180 
#    y 0.000000 1.691300 0.000000 
#    z 0.009180 0.000000 1.770770 
# 
# From -- ./inp_files/14359.got.cif
#   From: 2010.05.17/outbox.cif.g08.bks.cpg/sg13_8_cif.got.tgz:14359.got - 2010.06.03 16:44:36.
