data_PCOD9229596
_publ_section_title
;
Structure prediction by ZEFSAII (Michael W. Deem and Ramdas Pophale) SiO2 
 PCOD9229596
Probable space group: P 2/C
;
_chemical_formula_sum "Si O2"
_cell_formula_units_Z 20
_cell_length_a 26.420268
_cell_length_b 8.839501
_cell_length_c 8.983499
_cell_angle_alpha 90.000000
_cell_angle_beta 151.211176
_cell_angle_gamma 90.000000
_cell_volume 1010.372227
_symmetry_space_group_name_H-M "P 2/C"
_symmetry_group_IT_number 13
_symmetry_cell_setting 'monoclinic'
loop_
_space_group_symop_operation_xyz
x,y,z
-x,y,1/2-z
-x,-y,-z
x,-y,1/2+z
loop_
_atom_site_type_symbol
_atom_site_label
_atom_site_fract_x
_atom_site_fract_y
_atom_site_fract_z
Si Si1 0.831528 0.714923 0.983429
Si Si2 0.000000 0.908128 0.250000
Si Si3 0.922399 0.411492 0.186503
Si Si4 0.822801 0.153225 0.782910
Si Si5 0.648271 0.087531 0.881810
Si Si6 0.500000 0.031247 0.250000
O O1 0.736902 0.794275 0.654015
O O2 0.940248 0.799099 0.212992
O O3 0.836205 0.541473 0.947041
O O4 0.816583 0.741755 0.120785
O O5 0.092186 0.022313 0.538153
O O6 0.000000 0.390379 0.250000
O O7 0.000000 0.500000 0.500000
O O8 0.863598 0.249139 0.031676
O O9 0.713036 0.069441 0.528095
O O10 0.583347 0.121193 0.565451
O O11 0.566641 0.067320 0.805510
#
# Coordination Sequence:
#
# PCOD9229596 Si02
#       6
#     4   2   4   4   4   2
#     4  11  21  36  56  91 120 165 198 241 294 354
#     4  10  20  32  58  84 128 152 202 240 286 358
#     4  12  23  37  56  82 130 176 196 230 281 353
#     4  11  21  38  56  91 123 159 201 243 295 350
#     4  10  22  38  69  90 117 152 197 263 307 358
#     4  10  20  42  64  96 112 144 202 262 326 352
#
# _framework density 19.794685000000001
#
# number of rings (size 3 to 8) (size 9 to 14) (size 15 to 20)
#    0.000    1.200    6.000    0.600    0.000    3.200 
#    0.000    0.000    0.000    7.200    0.000    0.000 
#    0.000    0.000    0.000    0.000    0.000    0.000 
#
# Total GULP energy -111456.944628 kJ/mol
# GULP energy per Si atom -5572.847231 kJ/mol
# Density = 1.974963 g / cm^3
# Si number density = 19.794685 Si / 1000 Ang^3
#
#
#
# Elastic Constant Matrix: (Units=GPa)
#
#
# Indices 1 2 3 4 5 6 
#
# 1 57.1438 13.3350 24.8104 0.0000 13.5831 0.0000
# 2 13.3350 79.0550 30.4797 0.0000 4.7494 0.0000
# 3 24.8104 30.4797 133.9417 0.0000 -8.7178 0.0000
# 4 0.0000 0.0000 0.0000 19.7904 0.0000 -0.3169
# 5 13.5831 4.7494 -8.7178 0.0000 29.9075 0.0000
# 6 0.0000 0.0000 0.0000 -0.3169 0.0000 14.4180
#
#
#
# Elastic Compliance Matrix: (Units=1/GPa)
#
#
# Indices 1 2 3 4 5 6 
#
# 1 0.022510 -0.001340 -0.004603 0.000000 -0.011352 0.000000
# 2 -0.001340 0.014249 -0.003162 0.000000 -0.002576 0.000000
# 3 -0.004603 -0.003162 0.009385 0.000000 0.005329 0.000000
# 4 0.000000 0.000000 0.000000 0.050547 0.000000 0.001111
# 5 -0.011352 -0.002576 0.005329 0.000000 0.040555 0.000000
# 6 0.000000 0.000000 0.000000 0.001111 0.000000 0.069382
#
#
# Mechanical properties :
#
#
# Convention : Reuss Voigt Hill
#
# Bulk Modulus (GPa) = 35.80014 45.26567 40.53290
# Shear Modulus (GPa) = 21.35387 26.25756 23.80571
#
# Velocity S-wave (km/s) = 3.28802 3.64606 3.47166
# Velocity P-wave (km/s) = 5.70437 6.37513 6.04905
#
# Compressibility (1/GPa) = 0.02793285
#
# Stress axis : x y z
#
# Youngs Moduli (GPa) = 44.42565 70.17876 106.55295
#
# Poissons Ratio (x) = 0.09404 0.49051
# Poissons Ratio (y) = 0.05953 0.33692
# Poissons Ratio (z) = 0.20451 0.22191
#
# Static dielectric constant tensor:
#      x y z
#    x 1.700690 0.000000 -0.057510 
#    y 0.000000 1.744710 0.000000 
#    z -0.057510 0.000000 1.774720 
# 
# From -- ./inp_files/14862.got.cif
#   From: 2010.05.17/outbox.cif.g08.bks.cpg/sg13_8_cif.got.tgz:14862.got - 2010.06.03 16:44:36.
