data_PCOD9229174
_publ_section_title
;
Structure prediction by ZEFSAII (Michael W. Deem and Ramdas Pophale) SiO2 
 PCOD9229174
Probable space group: P 2/C
;
_chemical_formula_sum "Si O2"
_cell_formula_units_Z 26
_cell_length_a 7.676556
_cell_length_b 15.450274
_cell_length_c 12.123691
_cell_angle_alpha 90.000000
_cell_angle_beta 60.949080
_cell_angle_gamma 90.000000
_cell_volume 1257.021068
_symmetry_space_group_name_H-M "P 2/C"
_symmetry_group_IT_number 13
_symmetry_cell_setting 'monoclinic'
loop_
_space_group_symop_operation_xyz
x,y,z
-x,y,1/2-z
-x,-y,-z
x,-y,1/2+z
loop_
_atom_site_type_symbol
_atom_site_label
_atom_site_fract_x
_atom_site_fract_y
_atom_site_fract_z
Si Si1 0.500000 0.444110 0.250000
Si Si2 0.395769 0.348478 0.489332
Si Si3 0.947751 0.083158 0.885858
Si Si4 0.020498 0.722916 0.419552
Si Si5 0.656858 0.976435 0.108084
Si Si6 0.408752 0.782955 0.402629
Si Si7 0.197195 0.441325 0.742605
O O1 0.524296 0.387104 0.351684
O O2 0.692866 0.506426 0.195379
O O3 0.484564 0.270576 0.534470
O O4 0.344979 0.420998 0.596380
O O5 0.190515 0.321042 0.491531
O O6 0.000000 0.048139 0.750000
O O7 0.959835 0.186779 0.881887
O O8 0.137905 0.053757 0.897918
O O9 0.740203 0.047064 0.997251
O O10 0.180490 0.749717 0.462967
O O11 0.130186 0.652388 0.309478
O O12 0.500000 0.006147 0.250000
O O13 0.576629 0.886058 0.082804
O O14 0.500000 0.769664 0.250000
O O15 0.000000 0.483041 0.750000
#
# Coordination Sequence:
#
# PCOD9229174 Si02
#       7
#     2   4   4   4   4   4   4
#     4  12  26  40  58  94 132 158 208 266 326 396
#     4  11  23  40  60  92 122 160 211 256 320 379
#     4  10  20  37  60  90 129 163 216 268 313 386
#     4  10  21  38  66  90 115 162 217 263 306 379
#     4   9  21  37  57  96 125 166 216 263 325 378
#     4  10  19  37  66  89 121 163 220 262 302 382
#     4  10  21  38  63  87 115 162 210 264 316 369
#
# _framework density 20.683821999999999
#
# number of rings (size 3 to 8) (size 9 to 14) (size 15 to 20)
#    0.000    1.846    1.538    2.769    4.308    4.308 
#    1.385    3.077    0.000    0.000    0.000    0.000 
#    0.000    0.000    0.000    0.000    0.000    0.000 
#
# Total GULP energy -144969.569044 kJ/mol
# GULP energy per Si atom -5575.752656 kJ/mol
# Density = 2.063674 g / cm^3
# Si number density = 20.683822 Si / 1000 Ang^3
#
#
#
# Elastic Constant Matrix: (Units=GPa)
#
#
# Indices 1 2 3 4 5 6 
#
# 1 95.1043 41.1035 17.2346 0.0000 3.3685 0.0000
# 2 41.1035 79.9027 56.7931 0.0000 -3.3554 0.0000
# 3 17.2346 56.7931 90.3648 0.0000 -7.5269 0.0000
# 4 0.0000 0.0000 0.0000 8.0326 0.0000 -17.5845
# 5 3.3685 -3.3554 -7.5269 0.0000 24.7779 0.0000
# 6 0.0000 0.0000 0.0000 -17.5845 0.0000 16.8023
#
#
#
# Elastic Compliance Matrix: (Units=1/GPa)
#
#
# Indices 1 2 3 4 5 6 
#
# 1 0.014190 -0.009646 0.003167 0.000000 -0.002273 0.000000
# 2 -0.009646 0.029217 -0.016502 0.000000 0.000255 0.000000
# 3 0.003167 -0.016502 0.021146 0.000000 0.003759 0.000000
# 4 0.000000 0.000000 0.000000 -0.096427 0.000000 -0.100916
# 5 -0.002273 0.000255 0.003759 0.000000 0.041844 0.000000
# 6 0.000000 0.000000 0.000000 -0.100916 0.000000 -0.046098
#
#
# Mechanical properties :
#
#
# Convention : Reuss Voigt Hill
#
# Bulk Modulus (GPa) = 53.78701 55.07049 54.42875
# Shear Modulus (GPa) = 311.87915 19.93858 165.90887
#
# Velocity S-wave (km/s) = 12.29274 3.10815 8.96583
# Velocity P-wave (km/s) = 15.08452 6.28996 11.55652
#
# Compressibility (1/GPa) = 0.01859185
#
# Stress axis : x y z
#
# Youngs Moduli (GPa) = 70.47005 34.22661 47.28938
#
# Poissons Ratio (x) = 0.33015 -0.14975
# Poissons Ratio (y) = 0.67976 0.78035
# Poissons Ratio (z) = -0.22315 0.56479
#
# Static dielectric constant tensor:
#      x y z
#    x 1.800220 0.000000 -0.007310 
#    y 0.000000 1.760610 0.000000 
#    z -0.007310 0.000000 1.762440 
# 
# From -- ./inp_files/30001.got.cif
#   From: 2010.05.17/outbox.cif.g08.bks.cpg/sg13_16_cif.got.tgz:30001.got - 2010.06.03 16:44:36.
