data_PCOD9229099
_publ_section_title
;
Structure prediction by ZEFSAII (Michael W. Deem and Ramdas Pophale) SiO2 
 PCOD9229099
Probable space group: P 2/C
;
_chemical_formula_sum "Si O2"
_cell_formula_units_Z 20
_cell_length_a 29.968477
_cell_length_b 5.220468
_cell_length_c 13.271681
_cell_angle_alpha 90.000000
_cell_angle_beta 27.251966
_cell_angle_gamma 90.000000
_cell_volume 950.768710
_symmetry_space_group_name_H-M "P 2/C"
_symmetry_group_IT_number 13
_symmetry_cell_setting 'monoclinic'
loop_
_space_group_symop_operation_xyz
x,y,z
-x,y,1/2-z
-x,-y,-z
x,-y,1/2+z
loop_
_atom_site_type_symbol
_atom_site_label
_atom_site_fract_x
_atom_site_fract_y
_atom_site_fract_z
Si Si1 0.424162 0.020277 0.062413
Si Si2 0.790037 0.554035 0.251867
Si Si3 0.774530 0.745897 0.503836
Si Si4 0.627134 0.485125 0.939138
Si Si5 0.885424 0.945010 0.464293
O O1 0.315792 0.056890 0.327374
O O2 0.435652 0.271523 0.969635
O O3 0.423374 0.772623 0.993881
O O4 0.500000 0.000000 0.000000
O O5 0.804287 0.626919 0.339136
O O6 0.675462 0.522416 0.452109
O O7 0.843771 0.292153 0.113640
O O8 0.832031 0.796366 0.106010
O O9 0.723404 0.529932 0.675998
O O10 0.856887 0.876072 0.406615
O O11 0.000000 0.970025 0.250000
#
# Coordination Sequence:
#
# PCOD9229099 Si02
#       5
#     4   4   4   4   4
#     4  10  19  37  62  82 118 153 191 248 297 345
#     4  11  21  39  63  83 120 161 198 244 305 362
#     4   9  23  36  64  83 121 158 199 241 305 354
#     4   9  19  37  56  83 117 150 192 241 295 348
#     4  11  24  40  59  90 122 155 204 257 297 356
#
# _framework density 21.035609000000001
#
# number of rings (size 3 to 8) (size 9 to 14) (size 15 to 20)
#    1.200    0.800    2.000    1.200    2.800    1.600 
#    0.000    1.000    0.000    0.000    0.000    0.000 
#    0.000    0.000    0.000    0.000    0.000    0.000 
#
# Total GULP energy -111585.626659 kJ/mol
# GULP energy per Si atom -5579.281333 kJ/mol
# Density = 2.098773 g / cm^3
# Si number density = 21.035609 Si / 1000 Ang^3
#
#
#
# Elastic Constant Matrix: (Units=GPa)
#
#
# Indices 1 2 3 4 5 6 
#
# 1 142.3060 19.3790 48.7808 0.0000 -25.5859 0.0000
# 2 19.3790 140.9533 21.8982 0.0000 -11.1981 0.0000
# 3 48.7808 21.8982 43.3669 0.0000 -15.2472 0.0000
# 4 0.0000 0.0000 0.0000 27.2071 0.0000 6.2072
# 5 -25.5859 -11.1981 -15.2472 0.0000 33.8736 0.0000
# 6 0.0000 0.0000 0.0000 6.2072 0.0000 28.6611
#
#
#
# Elastic Compliance Matrix: (Units=1/GPa)
#
#
# Indices 1 2 3 4 5 6 
#
# 1 0.011816 0.000574 -0.012327 0.000000 0.003566 0.000000
# 2 0.000574 0.007752 -0.004166 0.000000 0.001121 0.000000
# 3 -0.012327 -0.004166 0.041901 0.000000 0.008173 0.000000
# 4 0.000000 0.000000 0.000000 0.038666 0.000000 -0.008374
# 5 0.003566 0.001121 0.008173 0.000000 0.036264 0.000000
# 6 0.000000 0.000000 0.000000 -0.008374 0.000000 0.036704
#
#
# Mechanical properties :
#
#
# Convention : Reuss Voigt Hill
#
# Bulk Modulus (GPa) = 33.74733 56.30469 45.02601
# Shear Modulus (GPa) = 23.27563 33.71959 28.49761
#
# Velocity S-wave (km/s) = 3.33000 4.00806 3.68466
# Velocity P-wave (km/s) = 5.55545 6.94578 6.28915
#
# Compressibility (1/GPa) = 0.02963198
#
# Stress axis : x y z
#
# Youngs Moduli (GPa) = 84.63450 129.00090 23.86553
#
# Poissons Ratio (x) = -0.07403 0.29418
# Poissons Ratio (y) = -0.04857 0.09942
# Poissons Ratio (z) = 1.04326 0.53738
#
# Static dielectric constant tensor:
#      x y z
#    x 1.754180 0.000000 0.004250 
#    y 0.000000 1.739900 0.000000 
#    z 0.004250 0.000000 1.792270 
# 
# From -- ./inp_files/35413.got.cif
#   From: 2010.05.17/outbox.cif.g08.bks.cpg/sg13_18_cif.got.tgz:35413.got - 2010.06.03 16:44:36.
