data_PCOD9229308
_publ_section_title
;
Structure prediction by ZEFSAII (Michael W. Deem and Ramdas Pophale) SiO2 
 PCOD9229308
Probable space group: P 2/C
;
_chemical_formula_sum "Si O2"
_cell_formula_units_Z 24
_cell_length_a 13.839871
_cell_length_b 9.397369
_cell_length_c 13.893164
_cell_angle_alpha 90.000000
_cell_angle_beta 137.363071
_cell_angle_gamma 90.000000
_cell_volume 1223.919323
_symmetry_space_group_name_H-M "P 2/C"
_symmetry_group_IT_number 13
_symmetry_cell_setting 'monoclinic'
loop_
_space_group_symop_operation_xyz
x,y,z
-x,y,1/2-z
-x,-y,-z
x,-y,1/2+z
loop_
_atom_site_type_symbol
_atom_site_label
_atom_site_fract_x
_atom_site_fract_y
_atom_site_fract_z
Si Si1 0.204923 0.508812 0.064249
Si Si2 0.337684 0.942984 0.871021
Si Si3 0.878771 0.437544 0.794714
Si Si4 0.833306 0.286992 0.141411
Si Si5 0.838952 0.839121 0.150368
Si Si6 0.340217 0.793851 0.666487
O O1 0.199676 0.587831 0.162643
O O2 0.311961 0.376356 0.147876
O O3 0.217169 0.624242 0.988917
O O4 0.048536 0.435779 0.936751
O O5 0.279719 0.830769 0.908514
O O6 0.316763 0.868207 0.752251
O O7 0.235210 0.075610 0.818040
O O8 0.500000 0.000000 0.000000
O O9 0.843248 0.594992 0.732546
O O10 0.839407 0.324833 0.684689
O O11 0.000000 0.238151 0.250000
O O12 0.000000 0.884504 0.250000
O O13 0.757634 0.854779 0.990415
O O14 0.500000 0.820156 0.750000
#
# Coordination Sequence:
#
# PCOD9229308 Si02
#       6
#     4   4   4   4   4   4
#     4  10  20  39  69 102 135 169 224 285 347 400
#     4  12  27  45  63  96 147 187 222 279 344 418
#     4  10  19  38  70 102 131 168 225 291 335 394
#     4  10  20  39  70 102 133 174 228 285 334 400
#     4  12  24  44  71 100 133 178 233 286 340 415
#     4  12  24  45  68  94 138 186 221 279 357 402
#
# _framework density 19.609135999999999
#
# number of rings (size 3 to 8) (size 9 to 14) (size 15 to 20)
#    0.000    1.000    6.667    1.000    0.000    2.000 
#    3.000    2.500    0.000    0.000    0.000    0.000 
#    0.000    0.000    0.000    0.000    0.000    0.000 
#
# Total GULP energy -133972.695898 kJ/mol
# GULP energy per Si atom -5582.195662 kJ/mol
# Density = 1.956451 g / cm^3
# Si number density = 19.609136 Si / 1000 Ang^3
#
#
#
# Elastic Constant Matrix: (Units=GPa)
#
#
# Indices 1 2 3 4 5 6 
#
# 1 135.8735 46.4222 62.0614 0.0000 -3.2770 0.0000
# 2 46.4222 82.2278 30.2020 0.0000 7.2766 0.0000
# 3 62.0614 30.2020 109.8536 0.0000 -3.8282 0.0000
# 4 0.0000 0.0000 0.0000 -43.9814 0.0000 -41.3416
# 5 -3.2770 7.2766 -3.8282 0.0000 41.2457 0.0000
# 6 0.0000 0.0000 0.0000 -41.3416 0.0000 5.9868
#
#
#
# Elastic Compliance Matrix: (Units=1/GPa)
#
#
# Indices 1 2 3 4 5 6 
#
# 1 0.011278 -0.004619 -0.005058 0.000000 0.001241 0.000000
# 2 -0.004619 0.015735 -0.001832 0.000000 -0.003313 0.000000
# 3 -0.005058 -0.001832 0.012502 0.000000 0.001082 0.000000
# 4 0.000000 0.000000 0.000000 -0.003035 0.000000 -0.020960
# 5 0.001241 -0.003313 0.001082 0.000000 0.025028 0.000000
# 6 0.000000 0.000000 0.000000 -0.020960 0.000000 0.022298
#
#
# Mechanical properties :
#
#
# Convention : Reuss Voigt Hill
#
# Bulk Modulus (GPa) = 60.61881 67.25844 63.93863
# Shear Modulus (GPa) = 44.51368 13.26818 28.89093
#
# Velocity S-wave (km/s) = 4.76967 2.60404 3.84258
# Velocity P-wave (km/s) = 7.83031 6.58903 7.23633
#
# Compressibility (1/GPa) = 0.01649653
#
# Stress axis : x y z
#
# Youngs Moduli (GPa) = 88.66490 63.55191 79.98633
#
# Poissons Ratio (x) = 0.29356 0.40461
# Poissons Ratio (y) = 0.40956 0.14653
# Poissons Ratio (z) = 0.44851 0.11642
#
# Static dielectric constant tensor:
#      x y z
#    x 1.705090 0.000000 -0.069790 
#    y 0.000000 1.709690 0.000000 
#    z -0.069790 0.000000 2.090150 
# 
# From -- ./inp_files/53191.got.cif
#   From: 2010.05.17/outbox.cif.g08.bks.cpg/sg13_27_cif.got.tgz:53191.got - 2010.06.03 16:44:36.
