data_PCOD9229149
_publ_section_title
;
Structure prediction by ZEFSAII (Michael W. Deem and Ramdas Pophale) SiO2 
 PCOD9229149
Probable space group: P 2/C
;
_chemical_formula_sum "Si O2"
_cell_formula_units_Z 24
_cell_length_a 7.961431
_cell_length_b 12.176612
_cell_length_c 11.230735
_cell_angle_alpha 90.000000
_cell_angle_beta 94.028700
_cell_angle_gamma 90.000000
_cell_volume 1086.053716
_symmetry_space_group_name_H-M "P 2/C"
_symmetry_group_IT_number 13
_symmetry_cell_setting 'monoclinic'
loop_
_space_group_symop_operation_xyz
x,y,z
-x,y,1/2-z
-x,-y,-z
x,-y,1/2+z
loop_
_atom_site_type_symbol
_atom_site_label
_atom_site_fract_x
_atom_site_fract_y
_atom_site_fract_z
Si Si1 0.836107 0.439842 0.326187
Si Si2 0.252097 0.677130 0.199609
Si Si3 0.708605 0.094953 0.427320
Si Si4 0.645213 0.151097 0.966856
Si Si5 0.199927 0.777967 0.786982
Si Si6 0.892616 0.709437 0.058224
O O1 0.728416 0.549564 0.333376
O O2 0.742581 0.341783 0.253081
O O3 0.886536 0.383773 0.454670
O O4 0.000000 0.466356 0.250000
O O5 0.371012 0.764766 0.142389
O O6 0.237080 0.685697 0.340905
O O7 0.071574 0.708262 0.131657
O O8 0.533978 0.125269 0.482362
O O9 0.711671 0.131546 0.290274
O O10 0.845662 0.173560 0.497541
O O11 0.728808 0.964832 0.436197
O O12 0.757946 0.204911 0.075199
O O13 0.000000 0.782881 0.750000
#
# Coordination Sequence:
#
# PCOD9229149 Si02
#       6
#     4   4   4   4   4   4
#     4  10  19  37  64  92 127 163 202 258 314 367
#     4  11  22  35  64  97 122 165 206 263 306 365
#     4  10  24  44  61  89 126 170 207 260 311 383
#     4  11  24  41  66  87 127 170 209 252 324 373
#     4  10  22  40  67  94 119 160 211 264 309 370
#     4  10  22  38  61  96 128 158 215 258 306 363
#
# _framework density 22.098357
#
# number of rings (size 3 to 8) (size 9 to 14) (size 15 to 20)
#    0.000    1.667    1.667    4.000    4.667    3.333 
#    0.000    3.333    7.333    0.000    0.000    0.000 
#    0.000    0.000    0.000    0.000    0.000    0.000 
#
# Total GULP energy -134150.200829 kJ/mol
# GULP energy per Si atom -5589.591701 kJ/mol
# Density = 2.204806 g / cm^3
# Si number density = 22.098357 Si / 1000 Ang^3
#
#
#
# Elastic Constant Matrix: (Units=GPa)
#
#
# Indices 1 2 3 4 5 6 
#
# 1 43.3954 27.9283 19.5923 0.0000 -0.2334 0.0000
# 2 27.9283 134.3693 64.1607 0.0000 -4.8045 0.0000
# 3 19.5923 64.1607 153.2408 0.0000 -16.1446 0.0000
# 4 0.0000 0.0000 0.0000 25.7116 0.0000 -15.4231
# 5 -0.2334 -4.8045 -16.1446 0.0000 31.0853 0.0000
# 6 0.0000 0.0000 0.0000 -15.4231 0.0000 18.1750
#
#
#
# Elastic Compliance Matrix: (Units=1/GPa)
#
#
# Indices 1 2 3 4 5 6 
#
# 1 0.026884 -0.004908 -0.001524 0.000000 -0.001348 0.000000
# 2 -0.004908 0.010209 -0.003686 0.000000 -0.000373 0.000000
# 3 -0.001524 -0.003686 0.008678 0.000000 0.003926 0.000000
# 4 0.000000 0.000000 0.000000 0.079215 0.000000 0.067221
# 5 -0.001348 -0.000373 0.003926 0.000000 0.034141 0.000000
# 6 0.000000 0.000000 0.000000 0.067221 0.000000 0.112064
#
#
# Mechanical properties :
#
#
# Convention : Reuss Voigt Hill
#
# Bulk Modulus (GPa) = 39.16495 61.59645 50.38070
# Shear Modulus (GPa) = 16.67009 29.61600 23.14304
#
# Velocity S-wave (km/s) = 2.74954 3.66483 3.23967
# Velocity P-wave (km/s) = 5.27650 6.77069 6.06975
#
# Compressibility (1/GPa) = 0.02553304
#
# Stress axis : x y z
#
# Youngs Moduli (GPa) = 37.19742 97.95128 115.23965
#
# Poissons Ratio (x) = 0.48075 0.17565
# Poissons Ratio (y) = 0.18257 0.42481
# Poissons Ratio (z) = 0.05670 0.36108
#
# Static dielectric constant tensor:
#      x y z
#    x 1.870560 0.000000 -0.031200 
#    y 0.000000 1.804560 0.000000 
#    z -0.031200 0.000000 1.799390 
# 
# From -- ./inp_files/29475.got.cif
#   From: 2010.05.17/outbox.cif.g08.bks.cpg/sg13_15_cif.got.tgz:29475.got - 2010.06.03 16:44:36.
