data_PCOD9229078
_publ_section_title
;
Structure prediction by ZEFSAII (Michael W. Deem and Ramdas Pophale) SiO2 
 PCOD9229078
Probable space group: P 2/C
;
_chemical_formula_sum "Si O2"
_cell_formula_units_Z 20
_cell_length_a 29.615527
_cell_length_b 5.219885
_cell_length_c 13.305444
_cell_angle_alpha 90.000000
_cell_angle_beta 27.195286
_cell_angle_gamma 90.000000
_cell_volume 940.046833
_symmetry_space_group_name_H-M "P 2/C"
_symmetry_group_IT_number 13
_symmetry_cell_setting 'monoclinic'
loop_
_space_group_symop_operation_xyz
x,y,z
-x,y,1/2-z
-x,-y,-z
x,-y,1/2+z
loop_
_atom_site_type_symbol
_atom_site_label
_atom_site_fract_x
_atom_site_fract_y
_atom_site_fract_z
Si Si1 0.886986 0.566061 0.243827
Si Si2 0.790297 0.933009 0.840691
Si Si3 0.222163 0.753706 0.856465
Si Si4 0.423764 0.517909 0.491567
Si Si5 0.627040 0.989196 0.303074
O O1 0.823154 0.323024 0.334586
O O2 0.862979 0.628735 0.407642
O O3 0.851778 0.817539 0.252326
O O4 0.000000 0.500000 0.000000
O O5 0.806142 0.870393 0.693061
O O6 0.674969 0.981082 0.098009
O O7 0.313303 0.555007 0.664387
O O8 0.274549 0.967029 0.822866
O O9 0.435374 0.762186 0.542283
O O10 0.424530 0.263050 0.555357
O O11 0.500000 0.516897 0.250000
#
# Coordination Sequence:
#
# PCOD9229078 Si02
#       5
#     4   4   4   4   4
#     4  11  24  42  62  92 125 154 204 258 305 365
#     4  11  21  40  66  86 121 167 199 249 311 364
#     4   9  23  38  64  87 125 161 204 247 308 361
#     4  10  19  37  61  85 125 163 200 254 304 352
#     4   9  19  37  56  85 122 155 204 248 299 351
#
# _framework density 21.275535999999999
#
# number of rings (size 3 to 8) (size 9 to 14) (size 15 to 20)
#    1.200    0.800    2.000    1.200    2.800    0.800 
#    0.000    4.000    0.000    0.000    0.000    0.000 
#    0.000    0.000    0.000    0.000    0.000    0.000 
#
# Total GULP energy -111599.013727 kJ/mol
# GULP energy per Si atom -5579.950686 kJ/mol
# Density = 2.122711 g / cm^3
# Si number density = 21.275536 Si / 1000 Ang^3
#
#
#
# Elastic Constant Matrix: (Units=GPa)
#
#
# Indices 1 2 3 4 5 6 
#
# 1 48.7925 27.4437 55.1467 0.0000 17.4803 0.0000
# 2 27.4437 157.1612 56.6627 0.0000 8.0441 0.0000
# 3 55.1467 56.6627 207.5268 0.0000 18.0331 0.0000
# 4 0.0000 0.0000 0.0000 347.9135 0.0000 -501.7649
# 5 17.4803 8.0441 18.0331 0.0000 19.2670 0.0000
# 6 0.0000 0.0000 0.0000 -501.7649 0.0000 838.2619
#
#
#
# Elastic Compliance Matrix: (Units=1/GPa)
#
#
# Indices 1 2 3 4 5 6 
#
# 1 0.041131 -0.002958 -0.007605 0.000000 -0.028964 0.000000
# 2 -0.002958 0.007298 -0.001279 0.000000 0.000834 0.000000
# 3 -0.007605 -0.001279 0.007122 0.000000 0.000768 0.000000
# 4 0.000000 0.000000 0.000000 0.021022 0.000000 0.012584
# 5 -0.028964 0.000834 0.000768 0.000000 0.077113 0.000000
# 6 0.000000 0.000000 0.000000 0.012584 0.000000 0.008725
#
#
# Mechanical properties :
#
#
# Convention : Reuss Voigt Hill
#
# Bulk Modulus (GPa) = 31.38104 76.88741 54.13423
# Shear Modulus (GPa) = 25.41702 259.37031 142.39366
#
# Velocity S-wave (km/s) = 3.46013 11.05327 8.18985
# Velocity P-wave (km/s) = 5.54484 14.11088 10.72059
#
# Compressibility (1/GPa) = 0.03186637
#
# Stress axis : x y z
#
# Youngs Moduli (GPa) = 24.31253 137.02637 140.40690
#
# Poissons Ratio (x) = 0.40530 1.06786
# Poissons Ratio (y) = 0.07191 0.17959
# Poissons Ratio (z) = 0.18491 0.17526
#
# Static dielectric constant tensor:
#      x y z
#    x 1.796070 0.000000 -0.019760 
#    y 0.000000 1.759120 0.000000 
#    z -0.019760 0.000000 1.779520 
# 
# From -- ./inp_files/42512.got.cif
#   From: 2010.05.17/outbox.cif.g08.bks.cpg/sg13_22_cif.got.tgz:42512.got - 2010.06.03 16:44:36.
