data_PCOD9229092
_publ_section_title
;
Structure prediction by ZEFSAII (Michael W. Deem and Ramdas Pophale) SiO2 
 PCOD9229092
Probable space group: P 2/C
;
_chemical_formula_sum "Si O2"
_cell_formula_units_Z 22
_cell_length_a 9.156410
_cell_length_b 9.532092
_cell_length_c 16.677203
_cell_angle_alpha 90.000000
_cell_angle_beta 41.533225
_cell_angle_gamma 90.000000
_cell_volume 965.129814
_symmetry_space_group_name_H-M "P 2/C"
_symmetry_group_IT_number 13
_symmetry_cell_setting 'monoclinic'
loop_
_space_group_symop_operation_xyz
x,y,z
-x,y,1/2-z
-x,-y,-z
x,-y,1/2+z
loop_
_atom_site_type_symbol
_atom_site_label
_atom_site_fract_x
_atom_site_fract_y
_atom_site_fract_z
Si Si1 0.500000 0.993103 0.750000
Si Si2 0.748502 0.832385 0.386107
Si Si3 0.151984 0.344871 0.518819
Si Si4 0.828864 0.774407 0.657083
Si Si5 0.697736 0.110158 0.516919
Si Si6 0.731551 0.467395 0.669153
O O1 0.652302 0.895465 0.745764
O O2 0.662691 0.076726 0.625165
O O3 0.718422 0.700191 0.457865
O O4 0.538959 0.830603 0.413812
O O5 0.000000 0.830856 0.250000
O O6 0.732986 0.971180 0.448393
O O7 0.165359 0.231177 0.442637
O O8 0.204738 0.487494 0.448701
O O9 0.897880 0.366222 0.643704
O O10 0.731935 0.618601 0.714198
O O11 0.075119 0.801583 0.586310
O O12 0.500000 0.400383 0.750000
#
# Coordination Sequence:
#
# PCOD9229092 Si02
#       6
#     2   4   4   4   4   4
#     4  12  20  36  68  90 124 158 216 252 290 376
#     4  11  24  41  54  87 134 163 188 253 316 364
#     4   9  20  37  60  85 116 152 203 247 297 360
#     4  10  19  37  61  92 113 156 206 254 292 359
#     4  11  24  36  61  91 122 164 204 247 306 369
#     4   9  18  37  65  88 112 150 209 257 298 343
#
# _framework density 22.794861000000001
#
# number of rings (size 3 to 8) (size 9 to 14) (size 15 to 20)
#    1.091    0.727    2.727    1.636    2.545    1.455 
#    0.000    0.909    0.000    0.000    0.000    0.000 
#    0.000    0.000    0.000    0.000    0.000    0.000 
#
# Total GULP energy -122572.670132 kJ/mol
# GULP energy per Si atom -5571.485006 kJ/mol
# Density = 2.274298 g / cm^3
# Si number density = 22.794861 Si / 1000 Ang^3
#
#
#
# Elastic Constant Matrix: (Units=GPa)
#
#
# Indices 1 2 3 4 5 6 
#
# 1 67.0736 11.8422 19.2966 0.0000 -17.7090 0.0000
# 2 11.8422 30.0251 3.3686 0.0000 -0.5979 0.0000
# 3 19.2966 3.3686 54.1738 0.0000 -18.9349 0.0000
# 4 0.0000 0.0000 0.0000 23.9827 0.0000 -10.2422
# 5 -17.7090 -0.5979 -18.9349 0.0000 33.4378 0.0000
# 6 0.0000 0.0000 0.0000 -10.2422 0.0000 24.7805
#
#
#
# Elastic Compliance Matrix: (Units=1/GPa)
#
#
# Indices 1 2 3 4 5 6 
#
# 1 0.019325 -0.007054 -0.003630 0.000000 0.008053 0.000000
# 2 -0.007054 0.036129 -0.001015 0.000000 -0.003665 0.000000
# 3 -0.003630 -0.001015 0.023859 0.000000 0.011570 0.000000
# 4 0.000000 0.000000 0.000000 0.050634 0.000000 0.020928
# 5 0.008053 -0.003665 0.011570 0.000000 0.040657 0.000000
# 6 0.000000 0.000000 0.000000 0.020928 0.000000 0.049004
#
#
# Mechanical properties :
#
#
# Convention : Reuss Voigt Hill
#
# Bulk Modulus (GPa) = 17.88443 24.47634 21.18039
# Shear Modulus (GPa) = 19.10982 24.22453 21.66718
#
# Velocity S-wave (km/s) = 2.89855 3.26347 3.08641
# Velocity P-wave (km/s) = 4.36635 4.99613 4.69182
#
# Compressibility (1/GPa) = 0.05591455
#
# Stress axis : x y z
#
# Youngs Moduli (GPa) = 51.74643 27.67885 41.91245
#
# Poissons Ratio (x) = 0.19526 0.15215
# Poissons Ratio (y) = 0.36504 0.04253
# Poissons Ratio (z) = 0.18785 0.02808
#
# Static dielectric constant tensor:
#      x y z
#    x 1.847960 0.000000 -0.036450 
#    y 0.000000 1.910450 0.000000 
#    z -0.036450 0.000000 1.991040 
# 
# From -- ./inp_files/64184.got.cif
#   From: 2010.05.17/outbox.cif.g08.bks.cpg/sg13_33_cif.got.tgz:64184.got - 2010.06.03 16:44:36.
