data_PCOD9229081
_publ_section_title
;
Structure prediction by ZEFSAII (Michael W. Deem and Ramdas Pophale) SiO2 
 PCOD9229081
Probable space group: P 2/C
;
_chemical_formula_sum "Si O2"
_cell_formula_units_Z 26
_cell_length_a 12.849525
_cell_length_b 6.317939
_cell_length_c 20.387749
_cell_angle_alpha 90.000000
_cell_angle_beta 42.683308
_cell_angle_gamma 90.000000
_cell_volume 1122.087145
_symmetry_space_group_name_H-M "P 2/C"
_symmetry_group_IT_number 13
_symmetry_cell_setting 'monoclinic'
loop_
_space_group_symop_operation_xyz
x,y,z
-x,y,1/2-z
-x,-y,-z
x,-y,1/2+z
loop_
_atom_site_type_symbol
_atom_site_label
_atom_site_fract_x
_atom_site_fract_y
_atom_site_fract_z
Si Si1 0.500000 0.905361 0.750000
Si Si2 0.666844 0.497883 0.644016
Si Si3 0.893609 0.423011 0.650826
Si Si4 0.157662 0.836311 0.077748
Si Si5 0.086912 0.189855 0.269284
Si Si6 0.585535 0.842846 0.087305
Si Si7 0.294124 0.178210 0.649006
O O1 0.643432 0.749027 0.666932
O O2 0.515785 0.045084 0.807977
O O3 0.500000 0.431166 0.750000
O O4 0.807695 0.414185 0.621545
O O5 0.659263 0.376838 0.578480
O O6 0.063591 0.322988 0.575002
O O7 0.897443 0.661039 0.675978
O O8 0.788369 0.303145 0.753552
O O9 0.232823 0.736369 0.108059
O O10 0.027477 0.997725 0.162788
O O11 0.285108 0.986224 0.987906
O O12 0.000000 0.309118 0.250000
O O13 0.242573 0.069229 0.177252
O O14 0.474055 0.804047 0.078084
#
# Coordination Sequence:
#
# PCOD9229081 Si02
#       7
#     2   4   4   4   4   4   4
#     4  10  20  38  60  84 104 154 200 228 280 328
#     4  10  22  38  59  85 101 148 200 233 267 333
#     4  11  19  39  61  81 114 150 190 231 275 336
#     4  10  24  35  57  91 118 146 181 232 293 335
#     4   9  19  36  58  85 115 148 185 227 280 338
#     4  12  21  40  59  84 119 146 187 240 280 328
#     4  10  19  37  61  86 113 152 190 223 277 342
#
# _framework density 23.171105000000001
#
# number of rings (size 3 to 8) (size 9 to 14) (size 15 to 20)
#    0.462    1.231    2.308    3.692    0.000    3.077 
#    0.000    1.538    0.000    8.308    0.000    0.000 
#    0.000    0.000    0.000    0.000    0.000    0.000 
#
# Total GULP energy -145073.895562 kJ/mol
# GULP energy per Si atom -5579.765214 kJ/mol
# Density = 2.311837 g / cm^3
# Si number density = 23.171105 Si / 1000 Ang^3
#
#
#
# Elastic Constant Matrix: (Units=GPa)
#
#
# Indices 1 2 3 4 5 6 
#
# 1 168.7111 31.0020 18.7265 0.0000 -29.6406 0.0000
# 2 31.0020 44.8787 2.6668 0.0000 -4.1633 0.0000
# 3 18.7265 2.6668 46.1100 0.0000 -9.5375 0.0000
# 4 0.0000 0.0000 0.0000 16.4137 0.0000 3.0994
# 5 -29.6406 -4.1633 -9.5375 0.0000 22.3802 0.0000
# 6 0.0000 0.0000 0.0000 3.0994 0.0000 27.1291
#
#
#
# Elastic Compliance Matrix: (Units=1/GPa)
#
#
# Indices 1 2 3 4 5 6 
#
# 1 0.008773 -0.005046 -0.001165 0.000000 0.010184 0.000000
# 2 -0.005046 0.025586 0.000188 0.000000 -0.001844 0.000000
# 3 -0.001165 0.000188 0.023949 0.000000 0.008698 0.000000
# 4 0.000000 0.000000 0.000000 0.062268 0.000000 -0.007114
# 5 0.010184 -0.001844 0.008698 0.000000 0.061534 0.000000
# 6 0.000000 0.000000 0.000000 -0.007114 0.000000 0.037674
#
#
# Mechanical properties :
#
#
# Convention : Reuss Voigt Hill
#
# Bulk Modulus (GPa) = 21.61581 40.49895 31.05738
# Shear Modulus (GPa) = 20.22247 27.00491 23.61369
#
# Velocity S-wave (km/s) = 2.95743 3.41758 3.19580
# Velocity P-wave (km/s) = 4.58376 5.75233 5.20097
#
# Compressibility (1/GPa) = 0.04626243
#
# Stress axis : x y z
#
# Youngs Moduli (GPa) = 113.98447 39.08366 41.75616
#
# Poissons Ratio (x) = 0.19723 0.04863
# Poissons Ratio (y) = 0.57522 -0.00787
# Poissons Ratio (z) = 0.13275 -0.00736
#
# Static dielectric constant tensor:
#      x y z
#    x 1.879490 0.000000 0.014850 
#    y 0.000000 1.874330 0.000000 
#    z 0.014850 0.000000 1.914260 
# 
# From -- ./inp_files/93143.got.cif
#   From: 2010.05.17/outbox.cif.g08.bks.cpg/sg13_47_cif.got.tgz:93143.got - 2010.06.03 16:44:36.
