data_PCOD9229963
_publ_section_title
;
Structure prediction by ZEFSAII (Michael W. Deem and Ramdas Pophale) SiO2 
 PCOD9229963
Probable space group: P 2/C
;
_chemical_formula_sum "Si O2"
_cell_formula_units_Z 28
_cell_length_a 9.610227
_cell_length_b 27.307082
_cell_length_c 5.398214
_cell_angle_alpha 90.000000
_cell_angle_beta 60.557186
_cell_angle_gamma 90.000000
_cell_volume 1233.675015
_symmetry_space_group_name_H-M "P 2/C"
_symmetry_group_IT_number 13
_symmetry_cell_setting 'monoclinic'
loop_
_space_group_symop_operation_xyz
x,y,z
-x,y,1/2-z
-x,-y,-z
x,-y,1/2+z
loop_
_atom_site_type_symbol
_atom_site_label
_atom_site_fract_x
_atom_site_fract_y
_atom_site_fract_z
Si Si1 0.058040 0.679389 0.453234
Si Si2 0.558563 0.556482 0.945858
Si Si3 0.804720 0.972754 0.909534
Si Si4 0.195965 0.194415 0.587173
Si Si5 0.806343 0.860519 0.913122
Si Si6 0.603765 0.709409 0.414455
Si Si7 0.925501 0.569956 0.568928
O O1 0.248329 0.672731 0.279754
O O2 0.000000 0.702628 0.250000
O O3 0.960774 0.628256 0.543050
O O4 0.000000 0.707339 0.750000
O O5 0.500000 0.581839 0.750000
O O6 0.744362 0.557112 0.752999
O O7 0.500000 0.579934 0.250000
O O8 0.500000 0.500000 0.000000
O O9 0.754643 0.916453 0.919772
O O10 0.000000 0.973148 0.750000
O O11 0.753379 0.004378 0.716714
O O12 0.244032 0.174267 0.272746
O O13 0.294525 0.242814 0.583744
O O14 0.000000 0.197303 0.750000
O O15 0.239708 0.157745 0.773474
O O16 0.000000 0.860077 0.750000
O O17 0.500000 0.715711 0.250000
O O18 0.500000 0.696070 0.750000
O O19 0.000000 0.549476 0.750000
O O20 0.000000 0.552959 0.250000
#
# Coordination Sequence:
#
# PCOD9229963 Si02
#       7
#     4   4   4   4   4   4   4
#     4  10  22  43  66  91 122 163 207 247 302 376
#     4  10  21  40  63  95 132 168 211 265 317 361
#     4   9  15  23  38  64 104 146 182 231 295 355
#     4  10  20  35  56  78 111 152 192 238 295 370
#     4   9  17  29  47  75 107 149 196 237 292 363
#     4  12  25  41  62  91 122 153 197 256 314 367
#     4  10  21  41  65  92 125 169 214 255 304 372
#
# _framework density 22.696413
#
# number of rings (size 3 to 8) (size 9 to 14) (size 15 to 20)
#    0.000    2.000    0.000    3.857    0.000    5.143 
#    0.000   25.714    0.000    0.000    0.000    0.000 
#    0.000   40.000    0.000    0.000    0.000    0.000 
#
# Total GULP energy -156296.818738 kJ/mol
# GULP energy per Si atom -5582.029241 kJ/mol
# Density = 2.264476 g / cm^3
# Si number density = 22.696413 Si / 1000 Ang^3
#
#
#
# Elastic Constant Matrix: (Units=GPa)
#
#
# Indices 1 2 3 4 5 6 
#
# 1 158.0933 26.4135 92.1904 0.0000 17.8948 0.0000
# 2 26.4135 92.5644 10.1959 0.0000 3.9929 0.0000
# 3 92.1904 10.1959 194.4002 0.0000 31.1423 0.0000
# 4 0.0000 0.0000 0.0000 -10.3683 0.0000 -12.0904
# 5 17.8948 3.9929 31.1423 0.0000 57.9090 0.0000
# 6 0.0000 0.0000 0.0000 -12.0904 0.0000 3.9916
#
#
#
# Elastic Compliance Matrix: (Units=1/GPa)
#
#
# Indices 1 2 3 4 5 6 
#
# 1 0.009158 -0.002136 -0.004160 0.000000 -0.000446 0.000000
# 2 -0.002136 0.011377 0.000477 0.000000 -0.000381 0.000000
# 3 -0.004160 0.000477 0.007541 0.000000 -0.002803 0.000000
# 4 0.000000 0.000000 0.000000 -0.021281 0.000000 -0.064460
# 5 -0.000446 -0.000381 -0.002803 0.000000 0.018940 0.000000
# 6 0.000000 0.000000 0.000000 -0.064460 0.000000 0.055279
#
#
# Mechanical properties :
#
#
# Convention : Reuss Voigt Hill
#
# Bulk Modulus (GPa) = 60.83130 78.07307 69.45218
# Shear Modulus (GPa) = 50.95315 31.39033 41.17174
#
# Velocity S-wave (km/s) = 4.74327 3.72298 4.26375
# Velocity P-wave (km/s) = 7.54046 7.27697 7.40988
#
# Compressibility (1/GPa) = 0.01643891
#
# Stress axis : x y z
#
# Youngs Moduli (GPa) = 109.18908 87.89924 132.61438
#
# Poissons Ratio (x) = 0.18775 0.55164
# Poissons Ratio (y) = 0.23322 -0.06330
# Poissons Ratio (z) = 0.45420 -0.04195
#
# Static dielectric constant tensor:
#      x y z
#    x 1.826450 0.000000 0.033220 
#    y 0.000000 1.951190 0.000000 
#    z 0.033220 0.000000 1.860030 
# 
# From -- ./inp_files/2669.got.cif
#   From: 2010.05.17/outbox.cif.g08.bks.cpg/sg13_2_cif.got.tgz:2669.got - 2010.06.03 16:44:36.
