data_PCOD9229714
_publ_section_title
;
Structure prediction by ZEFSAII (Michael W. Deem and Ramdas Pophale) SiO2 
 PCOD9229714
Probable space group: P 2/C
;
_chemical_formula_sum "Si O2"
_cell_formula_units_Z 30
_cell_length_a 13.634245
_cell_length_b 6.278771
_cell_length_c 18.265078
_cell_angle_alpha 90.000000
_cell_angle_beta 101.127376
_cell_angle_gamma 90.000000
_cell_volume 1534.210880
_symmetry_space_group_name_H-M "P 2/C"
_symmetry_group_IT_number 13
_symmetry_cell_setting 'monoclinic'
loop_
_space_group_symop_operation_xyz
x,y,z
-x,y,1/2-z
-x,-y,-z
x,-y,1/2+z
loop_
_atom_site_type_symbol
_atom_site_label
_atom_site_fract_x
_atom_site_fract_y
_atom_site_fract_z
Si Si1 0.043052 0.181053 0.059258
Si Si2 0.854216 0.443542 0.011854
Si Si3 0.191755 0.133435 0.631517
Si Si4 0.663930 0.489283 0.088001
Si Si5 0.469732 0.761875 0.505319
Si Si6 0.317547 0.431484 0.743893
Si Si7 0.372645 0.809578 0.640429
Si Si8 0.500000 0.891960 0.250000
O O1 0.951162 0.337860 0.065580
O O2 0.102241 0.039267 0.127519
O O3 0.116041 0.333782 0.022482
O O4 0.000000 0.000000 0.000000
O O5 0.763280 0.470679 0.054408
O O6 0.827882 0.284246 0.941317
O O7 0.222769 0.292017 0.701933
O O8 0.285103 0.982434 0.626071
O O9 0.575570 0.351645 0.037047
O O10 0.688598 0.462968 0.176887
O O11 0.603446 0.710206 0.072591
O O12 0.401135 0.719070 0.566135
O O13 0.500000 0.000000 0.500000
O O14 0.342830 0.618132 0.689869
O O15 0.408442 0.262780 0.755306
O O16 0.467387 0.945470 0.681796
#
# Coordination Sequence:
#
# PCOD9229714 Si02
#       8
#     4   4   4   4   4   4   4   2
#     4   9  19  37  64  88 105 138 186 238 291 344
#     4  10  20  38  63  86 112 141 190 245 289 343
#     4  10  20  36  60  86 109 146 190 234 287 342
#     4  11  23  36  54  86 118 153 188 235 293 339
#     4  11  22  36  55  82 120 154 196 243 281 330
#     4  11  22  35  54  81 120 155 191 231 280 350
#     4  11  21  36  58  81 113 157 194 228 274 338
#     4  10  20  34  52  78 112 158 198 222 264 330
#
# _framework density 19.554026
#
# number of rings (size 3 to 8) (size 9 to 14) (size 15 to 20)
#    0.000    1.600    0.000    6.000    0.000    6.400 
#    0.000    0.000    0.000   19.200    0.000    0.000 
#    0.000    0.000    0.000    0.000    0.000    0.000 
#
# Total GULP energy -167192.327511 kJ/mol
# GULP energy per Si atom -5573.077584 kJ/mol
# Density = 1.950952 g / cm^3
# Si number density = 19.554026 Si / 1000 Ang^3
#
#
#
# Elastic Constant Matrix: (Units=GPa)
#
#
# Indices 1 2 3 4 5 6 
#
# 1 88.1270 31.5393 41.7053 0.0000 2.3321 0.0000
# 2 31.5393 91.9030 31.7599 0.0000 -1.4308 0.0000
# 3 41.7053 31.7599 87.9377 0.0000 -0.8118 0.0000
# 4 0.0000 0.0000 0.0000 23.7032 0.0000 10.3354
# 5 2.3321 -1.4308 -0.8118 0.0000 24.7685 0.0000
# 6 0.0000 0.0000 0.0000 10.3354 0.0000 30.6790
#
#
#
# Elastic Compliance Matrix: (Units=1/GPa)
#
#
# Indices 1 2 3 4 5 6 
#
# 1 0.015475 -0.003196 -0.006202 0.000000 -0.001845 0.000000
# 2 -0.003196 0.013101 -0.003207 0.000000 0.000953 0.000000
# 3 -0.006202 -0.003207 0.015480 0.000000 0.000906 0.000000
# 4 0.000000 0.000000 0.000000 0.049453 0.000000 -0.016660
# 5 -0.001845 0.000953 0.000906 0.000000 0.040632 0.000000
# 6 0.000000 0.000000 0.000000 -0.016660 0.000000 0.038208
#
#
# Mechanical properties :
#
#
# Convention : Reuss Voigt Hill
#
# Bulk Modulus (GPa) = 53.06303 53.10852 53.08577
# Shear Modulus (GPa) = 24.52898 26.69435 25.61166
#
# Velocity S-wave (km/s) = 3.54562 3.69881 3.62303
# Velocity P-wave (km/s) = 6.63004 6.74244 6.68648
#
# Compressibility (1/GPa) = 0.01884551
#
# Stress axis : x y z
#
# Youngs Moduli (GPa) = 64.62085 76.33002 64.60128
#
# Poissons Ratio (x) = 0.24396 0.40064
# Poissons Ratio (y) = 0.20654 0.20718
# Poissons Ratio (z) = 0.40077 0.24479
#
# Static dielectric constant tensor:
#      x y z
#    x 1.686750 0.000000 0.084820 
#    y 0.000000 1.829770 0.000000 
#    z 0.084820 0.000000 1.649080 
# 
# From -- ./inp_files/67359.got.cif
#   From: 2010.05.17/outbox.cif.g08.bks.cpg/sg13_34_cif.got.tgz:67359.got - 2010.06.03 16:44:36.
