data_PCOD9229271
_publ_section_title
;
Structure prediction by ZEFSAII (Michael W. Deem and Ramdas Pophale) SiO2 
 PCOD9229271
Probable space group: P 2/C
;
_chemical_formula_sum "Si O2"
_cell_formula_units_Z 28
_cell_length_a 14.174524
_cell_length_b 9.445684
_cell_length_c 13.977626
_cell_angle_alpha 90.000000
_cell_angle_beta 129.169404
_cell_angle_gamma 90.000000
_cell_volume 1450.891535
_symmetry_space_group_name_H-M "P 2/C"
_symmetry_group_IT_number 13
_symmetry_cell_setting 'monoclinic'
loop_
_space_group_symop_operation_xyz
x,y,z
-x,y,1/2-z
-x,-y,-z
x,-y,1/2+z
loop_
_atom_site_type_symbol
_atom_site_label
_atom_site_fract_x
_atom_site_fract_y
_atom_site_fract_z
Si Si1 0.670180 0.597222 0.136781
Si Si2 0.299932 0.246560 0.208289
Si Si3 0.401759 0.641498 0.040032
Si Si4 0.634957 0.934482 0.566094
Si Si5 0.500000 0.444554 0.250000
Si Si6 0.764273 0.187838 0.547957
Si Si7 0.886256 0.488368 0.357276
Si Si8 0.000000 0.634385 0.250000
O O1 0.542085 0.628247 0.100238
O O2 0.684761 0.700028 0.056720
O O3 0.776004 0.603580 0.283517
O O4 0.671844 0.442512 0.088722
O O5 0.323998 0.133680 0.306843
O O6 0.420385 0.344820 0.269013
O O7 0.184305 0.344023 0.162372
O O8 0.274135 0.180485 0.087106
O O9 0.402157 0.547377 0.135576
O O10 0.371395 0.805403 0.014297
O O11 0.500000 0.000000 0.500000
O O12 0.731492 0.045317 0.584391
O O13 0.897381 0.259846 0.641891
O O14 0.942525 0.528223 0.290549
O O15 0.000000 0.500000 0.500000
#
# Coordination Sequence:
#
# PCOD9229271 Si02
#       8
#     4   4   4   4   2   4   4   2
#     4  10  19  38  64  94 133 168 228 287 328 388
#     4  12  23  42  69 100 135 186 226 284 347 410
#     4  11  20  36  60  99 129 173 221 285 337 394
#     4  12  25  42  63  96 144 179 221 278 351 421
#     4  12  22  36  68 102 138 168 234 284 346 398
#     4  11  23  43  68  93 135 182 223 273 347 411
#     4  11  21  40  70 107 128 174 234 287 333 395
#     4  10  24  42  74  98 134 176 230 288 338 394
#
# _framework density 19.298479
#
# number of rings (size 3 to 8) (size 9 to 14) (size 15 to 20)
#    0.000    0.857    7.143    1.714    0.000    1.143 
#    0.000    1.429    0.000    0.000    0.000    0.000 
#    0.000    0.000    0.000    0.000    0.000    0.000 
#
# Total GULP energy -156002.660995 kJ/mol
# GULP energy per Si atom -5571.523607 kJ/mol
# Density = 1.925455 g / cm^3
# Si number density = 19.298479 Si / 1000 Ang^3
#
#
#
# Elastic Constant Matrix: (Units=GPa)
#
#
# Indices 1 2 3 4 5 6 
#
# 1 98.2070 53.3300 44.9612 0.0000 -1.9787 0.0000
# 2 53.3300 109.8482 41.1233 0.0000 -10.4826 0.0000
# 3 44.9612 41.1233 136.4582 0.0000 -7.3428 0.0000
# 4 0.0000 0.0000 0.0000 29.5008 0.0000 -8.0322
# 5 -1.9787 -10.4826 -7.3428 0.0000 27.3364 0.0000
# 6 0.0000 0.0000 0.0000 -8.0322 0.0000 37.6587
#
#
#
# Elastic Compliance Matrix: (Units=1/GPa)
#
#
# Indices 1 2 3 4 5 6 
#
# 1 0.015015 -0.006314 -0.003162 0.000000 -0.002184 0.000000
# 2 -0.006314 0.013191 -0.001671 0.000000 0.004152 0.000000
# 3 -0.003162 -0.001671 0.008956 0.000000 0.001536 0.000000
# 4 0.000000 0.000000 0.000000 0.035987 0.000000 0.007676
# 5 -0.002184 0.004152 0.001536 0.000000 0.038428 0.000000
# 6 0.000000 0.000000 0.000000 0.007676 0.000000 0.028191
#
#
# Mechanical properties :
#
#
# Convention : Reuss Voigt Hill
#
# Bulk Modulus (GPa) = 67.26169 69.26028 68.26099
# Shear Modulus (GPa) = 29.93655 32.57244 31.25450
#
# Velocity S-wave (km/s) = 3.94285 4.11277 4.02871
# Velocity P-wave (km/s) = 7.46037 7.64984 7.55570
#
# Compressibility (1/GPa) = 0.01486730
#
# Stress axis : x y z
#
# Youngs Moduli (GPa) = 66.59980 75.80966 111.65234
#
# Poissons Ratio (x) = 0.47869 0.35303
# Poissons Ratio (y) = 0.42053 0.18661
# Poissons Ratio (z) = 0.21058 0.12670
#
# Static dielectric constant tensor:
#      x y z
#    x 1.701860 0.000000 -0.016860 
#    y 0.000000 1.702620 0.000000 
#    z -0.016860 0.000000 1.762170 
# 
# From -- ./inp_files/53138.got.cif
#   From: 2010.05.17/outbox.cif.g08.bks.cpg/sg13_27_cif.got.tgz:53138.got - 2010.06.03 16:44:36.
