data_PCOD9229884
_publ_section_title
;
Structure prediction by ZEFSAII (Michael W. Deem and Ramdas Pophale) SiO2 
 PCOD9229884
Probable space group: P 2/C
;
_chemical_formula_sum "Si O2"
_cell_formula_units_Z 20
_cell_length_a 11.764187
_cell_length_b 9.173120
_cell_length_c 9.040333
_cell_angle_alpha 90.000000
_cell_angle_beta 106.734800
_cell_angle_gamma 90.000000
_cell_volume 934.263172
_symmetry_space_group_name_H-M "P 2/C"
_symmetry_group_IT_number 13
_symmetry_cell_setting 'monoclinic'
loop_
_space_group_symop_operation_xyz
x,y,z
-x,y,1/2-z
-x,-y,-z
x,-y,1/2+z
loop_
_atom_site_type_symbol
_atom_site_label
_atom_site_fract_x
_atom_site_fract_y
_atom_site_fract_z
Si Si1 0.063391 0.696204 0.619769
Si Si2 0.260749 0.691893 0.503948
Si Si3 0.615890 0.620890 0.399121
Si Si4 0.138529 0.645595 0.164144
Si Si5 0.508717 0.157799 0.431890
O O1 0.192341 0.755398 0.621325
O O2 0.099997 0.524002 0.633346
O O3 0.000000 0.730310 0.750000
O O4 0.963242 0.729963 0.460661
O O5 0.337825 0.542685 0.547588
O O6 0.159449 0.665932 0.344761
O O7 0.356690 0.801082 0.481183
O O8 0.500000 0.613465 0.250000
O O9 0.734332 0.678748 0.363093
O O10 0.577359 0.722167 0.522685
O O11 0.500000 0.160648 0.250000
O O12 0.500000 0.000000 0.500000
#
# Coordination Sequence:
#
# PCOD9229884 Si02
#       5
#     4   4   4   4   4
#     4  10  20  35  57  99 133 171 208 264 320 385
#     4  11  23  38  67  99 131 174 209 271 324 388
#     4  11  22  40  65  99 133 164 212 270 328 395
#     4  10  20  34  61  90 142 165 205 254 332 378
#     4  12  28  45  65  93 130 174 220 268 329 391
#
# _framework density 21.407245
#
# number of rings (size 3 to 8) (size 9 to 14) (size 15 to 20)
#    0.000    1.200    2.000    6.000    8.400    0.000 
#    0.000    0.000    0.000    1.200    0.000    0.000 
#    0.000    0.000    0.000    0.000    0.000    0.000 
#
# Total GULP energy -111511.180898 kJ/mol
# GULP energy per Si atom -5575.559045 kJ/mol
# Density = 2.135852 g / cm^3
# Si number density = 21.407245 Si / 1000 Ang^3
#
#
#
# Elastic Constant Matrix: (Units=GPa)
#
#
# Indices 1 2 3 4 5 6 
#
# 1 192.1918 53.2845 61.9918 0.0000 -21.2130 0.0000
# 2 53.2845 56.1992 33.3851 0.0000 -9.8350 0.0000
# 3 61.9918 33.3851 130.8247 0.0000 2.9966 0.0000
# 4 0.0000 0.0000 0.0000 13.3951 0.0000 -7.5217
# 5 -21.2130 -9.8350 2.9966 0.0000 45.2312 0.0000
# 6 0.0000 0.0000 0.0000 -7.5217 0.0000 17.7193
#
#
#
# Elastic Compliance Matrix: (Units=1/GPa)
#
#
# Indices 1 2 3 4 5 6 
#
# 1 0.007776 -0.005533 -0.002332 0.000000 0.002598 0.000000
# 2 -0.005533 0.026064 -0.004106 0.000000 0.003345 0.000000
# 3 -0.002332 -0.004106 0.009857 0.000000 -0.002640 0.000000
# 4 0.000000 0.000000 0.000000 0.098018 0.000000 0.041607
# 5 0.002598 0.003345 -0.002640 0.000000 0.024229 0.000000
# 6 0.000000 0.000000 0.000000 0.041607 0.000000 0.074097
#
#
# Mechanical properties :
#
#
# Convention : Reuss Voigt Hill
#
# Bulk Modulus (GPa) = 50.61968 75.17093 62.89531
# Shear Modulus (GPa) = 18.47951 30.63941 24.55946
#
# Velocity S-wave (km/s) = 2.94128 3.78731 3.39078
# Velocity P-wave (km/s) = 5.93567 7.36993 6.69134
#
# Compressibility (1/GPa) = 0.01975516
#
# Stress axis : x y z
#
# Youngs Moduli (GPa) = 128.59850 38.36692 101.44662
#
# Poissons Ratio (x) = 0.21227 0.23662
# Poissons Ratio (y) = 0.71147 0.41657
# Poissons Ratio (z) = 0.29995 0.15755
#
# Static dielectric constant tensor:
#      x y z
#    x 1.819870 0.000000 -0.080970 
#    y 0.000000 1.754410 0.000000 
#    z -0.080970 0.000000 1.973440 
# 
# From -- ./inp_files/15594.got.cif
#   From: 2010.05.17/outbox.cif.g08.bks.cpg/sg13_8_cif.got.tgz:15594.got - 2010.06.03 16:44:36.
