data_PCOD9229854
_publ_section_title
;
Structure prediction by ZEFSAII (Michael W. Deem and Ramdas Pophale) SiO2 
 PCOD9229854
Probable space group: P 2/C
;
_chemical_formula_sum "Si O2"
_cell_formula_units_Z 28
_cell_length_a 9.730168
_cell_length_b 8.870805
_cell_length_c 29.246480
_cell_angle_alpha 90.000000
_cell_angle_beta 33.330966
_cell_angle_gamma 90.000000
_cell_volume 1387.089498
_symmetry_space_group_name_H-M "P 2/C"
_symmetry_group_IT_number 13
_symmetry_cell_setting 'monoclinic'
loop_
_space_group_symop_operation_xyz
x,y,z
-x,y,1/2-z
-x,-y,-z
x,-y,1/2+z
loop_
_atom_site_type_symbol
_atom_site_label
_atom_site_fract_x
_atom_site_fract_y
_atom_site_fract_z
Si Si1 0.914303 0.243141 0.037549
Si Si2 0.278434 0.883294 0.571572
Si Si3 0.602763 0.312562 0.036696
Si Si4 0.048567 0.162844 0.854044
Si Si5 0.298351 0.955881 0.370653
Si Si6 0.642718 0.348478 0.533060
Si Si7 0.248763 0.177438 0.707456
O O1 0.709801 0.297469 0.058187
O O2 0.785461 0.128816 0.108815
O O3 0.106423 0.136566 0.956181
O O4 0.097614 0.361589 0.010537
O O5 0.360936 0.789856 0.593275
O O6 0.289452 0.765435 0.526729
O O7 0.500000 0.000000 0.500000
O O8 0.046469 0.997384 0.636464
O O9 0.560501 0.487966 0.039346
O O10 0.821232 0.248555 0.942477
O O11 0.254727 0.126537 0.834867
O O12 0.146452 0.252778 0.782791
O O13 0.560669 0.943711 0.323817
O O14 0.422714 0.276650 0.625503
O O15 0.000000 0.127239 0.750000
#
# Coordination Sequence:
#
# PCOD9229854 Si02
#       7
#     4   4   4   4   4   4   4
#     4   9  18  33  60  89 111 147 203 247 283 343
#     4  10  20  34  59  86 116 151 200 244 285 345
#     4  10  21  34  63  87 120 157 201 242 294 356
#     4  10  20  38  58  88 116 155 201 245 299 349
#     4   9  18  34  58  84 116 148 193 252 290 339
#     4  11  21  39  59  88 121 159 199 245 298 357
#     4  11  23  34  59  85 119 151 198 245 306 350
#
# _framework density 20.186152
#
# number of rings (size 3 to 8) (size 9 to 14) (size 15 to 20)
#    0.000    2.000    1.429    3.000    8.000    0.000 
#    0.000    0.000    6.286    0.000    0.000    0.000 
#    0.000    0.000    0.000    0.000    0.000    0.000 
#
# Total GULP energy -155982.963643 kJ/mol
# GULP energy per Si atom -5570.820130 kJ/mol
# Density = 2.014021 g / cm^3
# Si number density = 20.186152 Si / 1000 Ang^3
#
#
#
# Elastic Constant Matrix: (Units=GPa)
#
#
# Indices 1 2 3 4 5 6 
#
# 1 128.8237 24.4173 24.2838 0.0000 -14.3072 0.0000
# 2 24.4173 81.9834 7.5640 0.0000 -12.6541 0.0000
# 3 24.2838 7.5640 54.0177 0.0000 -10.6786 0.0000
# 4 0.0000 0.0000 0.0000 5.8533 0.0000 -0.7247
# 5 -14.3072 -12.6541 -10.6786 0.0000 25.9670 0.0000
# 6 0.0000 0.0000 0.0000 -0.7247 0.0000 25.7905
#
#
#
# Elastic Compliance Matrix: (Units=1/GPa)
#
#
# Indices 1 2 3 4 5 6 
#
# 1 0.009050 -0.001981 -0.003261 0.000000 0.002680 0.000000
# 2 -0.001981 0.013643 0.000086 0.000000 0.005592 0.000000
# 3 -0.003261 0.000086 0.021356 0.000000 0.007027 0.000000
# 4 0.000000 0.000000 0.000000 0.171440 0.000000 0.004817
# 5 0.002680 0.005592 0.007027 0.000000 0.045602 0.000000
# 6 0.000000 0.000000 0.000000 0.004817 0.000000 0.038909
#
#
# Mechanical properties :
#
#
# Convention : Reuss Voigt Hill
#
# Bulk Modulus (GPa) = 29.64227 41.92832 35.78530
# Shear Modulus (GPa) = 15.54922 25.42614 20.48768
#
# Velocity S-wave (km/s) = 2.77842 3.55291 3.18926
# Velocity P-wave (km/s) = 5.00092 6.13570 5.59714
#
# Compressibility (1/GPa) = 0.03373560
#
# Stress axis : x y z
#
# Youngs Moduli (GPa) = 110.49163 73.29862 46.82559
#
# Poissons Ratio (x) = 0.14520 0.15272
# Poissons Ratio (y) = 0.21888 -0.00401
# Poissons Ratio (z) = 0.36037 -0.00628
#
# Static dielectric constant tensor:
#      x y z
#    x 1.787680 0.000000 0.003440 
#    y 0.000000 1.695490 0.000000 
#    z 0.003440 0.000000 1.777270 
# 
# From -- ./inp_files/95913.got.cif
#   From: 2010.05.17/outbox.cif.g08.bks.cpg/sg13_48_cif.got.tgz:95913.got - 2010.06.03 16:44:36.
