data_PCOD9229861
_publ_section_title
;
Structure prediction by ZEFSAII (Michael W. Deem and Ramdas Pophale) SiO2 
 PCOD9229861
Probable space group: P 2/C
;
_chemical_formula_sum "Si O2"
_cell_formula_units_Z 18
_cell_length_a 7.709583
_cell_length_b 21.288882
_cell_length_c 5.516132
_cell_angle_alpha 90.000000
_cell_angle_beta 117.735826
_cell_angle_gamma 90.000000
_cell_volume 801.331298
_symmetry_space_group_name_H-M "P 2/C"
_symmetry_group_IT_number 13
_symmetry_cell_setting 'monoclinic'
loop_
_space_group_symop_operation_xyz
x,y,z
-x,y,1/2-z
-x,-y,-z
x,-y,1/2+z
loop_
_atom_site_type_symbol
_atom_site_label
_atom_site_fract_x
_atom_site_fract_y
_atom_site_fract_z
Si Si1 0.762858 0.032037 0.569846
Si Si2 0.000000 0.539464 0.750000
Si Si3 0.000000 0.753430 0.750000
Si Si4 0.712701 0.652831 0.511257
Si Si5 0.784741 0.824092 0.999222
Si Si6 0.500000 0.272450 0.250000
O O1 0.718484 0.104879 0.490905
O O2 0.000000 0.027968 0.750000
O O3 0.698032 0.993694 0.289188
O O4 0.000000 0.500000 0.500000
O O5 0.813961 0.586019 0.606866
O O6 0.161301 0.799623 0.735724
O O7 0.872074 0.702740 0.510096
O O8 0.500000 0.649879 0.250000
O O9 0.659872 0.682907 0.735605
O O10 0.000000 0.818161 0.250000
O O11 0.621597 0.776645 0.993004
#
# Coordination Sequence:
#
# PCOD9229861 Si02
#       6
#     4   2   2   4   4   2
#     4   9  19  33  54  82 115 162 211 261 321 384
#     4  11  28  48  72 104 136 175 216 250 304 375
#     4   9  20  36  56  94 118 165 212 264 330 373
#     4  10  22  42  68  94 134 168 211 265 313 370
#     4  10  20  34  60  82 122 159 213 270 323 385
#     4  10  22  40  62 100 120 166 218 260 324 376
#
# _framework density 22.462617999999999
#
# number of rings (size 3 to 8) (size 9 to 14) (size 15 to 20)
#    0.000    2.222    0.000    1.333   10.889    0.889 
#    4.000    1.111    0.000    0.000    0.000    0.000 
#    0.000    0.000    0.000    0.000    0.000    0.000 
#
# Total GULP energy -100290.200083 kJ/mol
# GULP energy per Si atom -5571.677782 kJ/mol
# Density = 2.241149 g / cm^3
# Si number density = 22.462618 Si / 1000 Ang^3
#
#
#
# Elastic Constant Matrix: (Units=GPa)
#
#
# Indices 1 2 3 4 5 6 
#
# 1 112.7056 69.1434 37.5012 0.0000 14.9930 0.0000
# 2 69.1434 198.8113 84.0766 0.0000 -7.2796 0.0000
# 3 37.5012 84.0766 119.3095 0.0000 13.8011 0.0000
# 4 0.0000 0.0000 0.0000 32.0433 0.0000 -3.0318
# 5 14.9930 -7.2796 13.8011 0.0000 41.1196 0.0000
# 6 0.0000 0.0000 0.0000 -3.0318 0.0000 -42.4539
#
#
#
# Elastic Compliance Matrix: (Units=1/GPa)
#
#
# Indices 1 2 3 4 5 6 
#
# 1 0.012326 -0.004409 -0.000164 0.000000 -0.005220 0.000000
# 2 -0.004409 0.009139 -0.005646 0.000000 0.005120 0.000000
# 3 -0.000164 -0.005646 0.013026 0.000000 -0.005312 0.000000
# 4 0.000000 0.000000 0.000000 0.030998 0.000000 -0.002214
# 5 -0.005220 0.005120 -0.005312 0.000000 0.028912 0.000000
# 6 0.000000 0.000000 0.000000 -0.002214 0.000000 -0.023397
#
#
# Mechanical properties :
#
#
# Convention : Reuss Voigt Hill
#
# Bulk Modulus (GPa) = 71.15685 90.25208 80.70447
# Shear Modulus (GPa) = 52.01447 22.14881 37.08164
#
# Velocity S-wave (km/s) = 4.81729 3.14352 4.06743
# Velocity P-wave (km/s) = 7.91760 7.31038 7.62004
#
# Compressibility (1/GPa) = 0.01405346
#
# Stress axis : x y z
#
# Youngs Moduli (GPa) = 81.12750 109.42672 76.76669
#
# Poissons Ratio (x) = 0.48244 0.01257
# Poissons Ratio (y) = 0.35767 0.43346
# Poissons Ratio (z) = 0.01328 0.61787
#
# Static dielectric constant tensor:
#      x y z
#    x 2.004350 0.000000 -0.042910 
#    y 0.000000 1.777330 0.000000 
#    z -0.042910 0.000000 1.958230 
# 
# From -- ./inp_files/1503.got.cif
#   From: 2010.05.17/outbox.cif.g08.bks.cpg/sg13_1_cif.got.tgz:1503.got - 2010.06.03 16:44:36.
