data_PCOD9229982
_publ_section_title
;
Structure prediction by ZEFSAII (Michael W. Deem and Ramdas Pophale) SiO2 
 PCOD9229982
Probable space group: P 2/C
;
_chemical_formula_sum "Si O2"
_cell_formula_units_Z 24
_cell_length_a 10.196472
_cell_length_b 23.639877
_cell_length_c 5.112332
_cell_angle_alpha 90.000000
_cell_angle_beta 97.989301
_cell_angle_gamma 90.000000
_cell_volume 1220.333008
_symmetry_space_group_name_H-M "P 2/C"
_symmetry_group_IT_number 13
_symmetry_cell_setting 'monoclinic'
loop_
_space_group_symop_operation_xyz
x,y,z
-x,y,1/2-z
-x,-y,-z
x,-y,1/2+z
loop_
_atom_site_type_symbol
_atom_site_label
_atom_site_fract_x
_atom_site_fract_y
_atom_site_fract_z
Si Si1 0.351259 0.462632 0.239645
Si Si2 0.500000 0.960044 0.250000
Si Si3 0.652722 0.202385 0.337166
Si Si4 0.884075 0.272671 0.420491
Si Si5 0.000000 0.834453 0.250000
Si Si6 0.276117 0.133333 0.640005
Si Si7 0.912369 0.396749 0.490274
O O1 0.500000 0.437842 0.250000
O O2 0.342861 0.484547 0.534848
O O3 0.227656 0.424528 0.120679
O O4 0.630810 0.920518 0.285813
O O5 0.500000 0.000000 0.500000
O O6 0.500000 0.212256 0.250000
O O7 0.737807 0.257543 0.288084
O O8 0.672793 0.180781 0.639639
O O9 0.700103 0.153964 0.148431
O O10 0.880369 0.331743 0.571064
O O11 0.000000 0.282907 0.250000
O O12 0.927477 0.211771 0.547393
O O13 0.881865 0.870102 0.348534
O O14 0.000000 0.399250 0.250000
O O15 0.000000 0.422917 0.750000
#
# Coordination Sequence:
#
# PCOD9229982 Si02
#       7
#     4   2   4   4   2   4   4
#     4  10  22  41  62  84 115 162 213 259 309 364
#     4  12  24  42  62  88 122 156 196 252 302 338
#     4  11  20  35  58  87 118 149 200 241 281 363
#     4  10  20  35  56  86 123 155 191 236 309 351
#     4  10  20  38  62  84 120 158 194 238 284 370
#     4  11  22  38  61  88 114 155 197 237 289 351
#     4  11  23  37  59  88 126 157 201 255 310 372
#
# _framework density 19.666763
#
# number of rings (size 3 to 8) (size 9 to 14) (size 15 to 20)
#    0.000    1.333    4.167    2.000    0.000    2.667 
#    0.000    0.833    0.000    4.000    0.000    0.000 
#    0.000    0.000    0.000    0.000    0.000    0.000 
#
# Total GULP energy -133681.917474 kJ/mol
# GULP energy per Si atom -5570.079895 kJ/mol
# Density = 1.962200 g / cm^3
# Si number density = 19.666763 Si / 1000 Ang^3
#
#
#
# Elastic Constant Matrix: (Units=GPa)
#
#
# Indices 1 2 3 4 5 6 
#
# 1 180.1251 52.2861 8.4881 0.0000 4.8780 0.0000
# 2 52.2861 50.1075 1.0393 0.0000 3.1580 0.0000
# 3 8.4881 1.0393 66.5058 0.0000 4.4099 0.0000
# 4 0.0000 0.0000 0.0000 28.4380 0.0000 -0.4785
# 5 4.8780 3.1580 4.4099 0.0000 26.7554 0.0000
# 6 0.0000 0.0000 0.0000 -0.4785 0.0000 63.3556
#
#
#
# Elastic Compliance Matrix: (Units=1/GPa)
#
#
# Indices 1 2 3 4 5 6 
#
# 1 0.008020 -0.008329 -0.000871 0.000000 -0.000335 0.000000
# 2 -0.008329 0.028759 0.000746 0.000000 -0.001999 0.000000
# 3 -0.000871 0.000746 0.015298 0.000000 -0.002451 0.000000
# 4 0.000000 0.000000 0.000000 0.035169 0.000000 0.000266
# 5 -0.000335 -0.001999 -0.002451 0.000000 0.038077 0.000000
# 6 0.000000 0.000000 0.000000 0.000266 0.000000 0.015786
#
#
# Mechanical properties :
#
#
# Convention : Reuss Voigt Hill
#
# Bulk Modulus (GPa) = 28.43447 46.70726 37.57086
# Shear Modulus (GPa) = 29.45706 39.37148 34.41427
#
# Velocity S-wave (km/s) = 3.87435 4.47915 4.18768
# Velocity P-wave (km/s) = 5.87398 7.10994 6.52131
#
# Compressibility (1/GPa) = 0.03516858
#
# Stress axis : x y z
#
# Youngs Moduli (GPa) = 124.69537 34.77210 65.36674
#
# Poissons Ratio (x) = 0.28962 0.05694
# Poissons Ratio (y) = 1.03859 -0.04877
# Poissons Ratio (z) = 0.10863 -0.02595
#
# Static dielectric constant tensor:
#      x y z
#    x 1.950980 0.000000 0.186120 
#    y 0.000000 1.718220 0.000000 
#    z 0.186120 0.000000 1.844160 
# 
# From -- ./inp_files/2430.got.cif
#   From: 2010.05.17/outbox.cif.g08.bks.cpg/sg13_2_cif.got.tgz:2430.got - 2010.06.03 16:44:36.
