data_PCOD9229142
_publ_section_title
;
Structure prediction by ZEFSAII (Michael W. Deem and Ramdas Pophale) SiO2 
 PCOD9229142
Probable space group: P 2/C
;
_chemical_formula_sum "Si O2"
_cell_formula_units_Z 26
_cell_length_a 12.170160
_cell_length_b 10.819432
_cell_length_c 9.736726
_cell_angle_alpha 90.000000
_cell_angle_beta 92.625951
_cell_angle_gamma 90.000000
_cell_volume 1280.729506
_symmetry_space_group_name_H-M "P 2/C"
_symmetry_group_IT_number 13
_symmetry_cell_setting 'monoclinic'
loop_
_space_group_symop_operation_xyz
x,y,z
-x,y,1/2-z
-x,-y,-z
x,-y,1/2+z
loop_
_atom_site_type_symbol
_atom_site_label
_atom_site_fract_x
_atom_site_fract_y
_atom_site_fract_z
Si Si1 0.500000 0.750855 0.750000
Si Si2 0.226304 0.425591 0.356176
Si Si3 0.675786 0.392602 0.426582
Si Si4 0.709792 0.141373 0.117245
Si Si5 0.118582 0.236578 0.018054
Si Si6 0.181788 0.015413 0.629965
Si Si7 0.000000 0.611518 0.750000
Si Si8 0.000000 0.805847 0.250000
O O1 0.437454 0.665246 0.634034
O O2 0.412105 0.830948 0.831032
O O3 0.271301 0.448452 0.207279
O O4 0.305314 0.502830 0.459765
O O5 0.236477 0.278664 0.385624
O O6 0.096864 0.456511 0.339922
O O7 0.755152 0.280436 0.477543
O O8 0.765148 0.056805 0.238083
O O9 0.731874 0.078007 0.971085
O O10 0.117839 0.090152 0.041228
O O11 0.061767 0.303503 0.142476
O O12 0.056699 0.267793 0.875410
O O13 0.095503 0.112659 0.685068
#
# Coordination Sequence:
#
# PCOD9229142 Si02
#       8
#     2   4   4   4   4   4   2   2
#     4  10  22  48  70  92 122 178 210 298 330 372
#     4  10  22  40  62  97 127 172 213 271 312 410
#     4  10  23  41  66  88 130 161 223 267 335 375
#     4  11  24  41  68  93 133 167 231 265 329 376
#     4  11  22  39  58  96 128 173 214 263 315 405
#     4  12  22  41  61  99 131 176 211 267 309 407
#     4  10  19  37  64  84 142 173 205 254 338 370
#     4  12  25  33  68  94 138 175 215 252 330 388
#
# _framework density 20.300932
#
# number of rings (size 3 to 8) (size 9 to 14) (size 15 to 20)
#    0.000    1.231    6.154    1.846    0.000    8.615 
#    0.000    0.000    0.000    8.308    0.000    0.000 
#    0.000    0.000    0.000    0.000    0.000    0.000 
#
# Total GULP energy -145080.798702 kJ/mol
# GULP energy per Si atom -5580.030719 kJ/mol
# Density = 2.025473 g / cm^3
# Si number density = 20.300932 Si / 1000 Ang^3
#
#
#
# Elastic Constant Matrix: (Units=GPa)
#
#
# Indices 1 2 3 4 5 6 
#
# 1 115.1895 42.1366 38.5152 0.0000 13.1988 0.0000
# 2 42.1366 75.2698 50.2774 0.0000 -5.3007 0.0000
# 3 38.5152 50.2774 116.2904 0.0000 13.4807 0.0000
# 4 0.0000 0.0000 0.0000 28.3723 0.0000 17.9484
# 5 13.1988 -5.3007 13.4807 0.0000 35.7903 0.0000
# 6 0.0000 0.0000 0.0000 17.9484 0.0000 -15.7595
#
#
#
# Elastic Compliance Matrix: (Units=1/GPa)
#
#
# Indices 1 2 3 4 5 6 
#
# 1 0.011886 -0.006745 -0.000415 0.000000 -0.005226 0.000000
# 2 -0.006745 0.023862 -0.009182 0.000000 0.009480 0.000000
# 3 -0.000415 -0.009182 0.013433 0.000000 -0.006266 0.000000
# 4 0.000000 0.000000 0.000000 0.020486 0.000000 0.023331
# 5 -0.005226 0.009480 -0.006266 0.000000 0.033632 0.000000
# 6 0.000000 0.000000 0.000000 0.023331 0.000000 -0.036882
#
#
# Mechanical properties :
#
#
# Convention : Reuss Voigt Hill
#
# Bulk Modulus (GPa) = 60.61290 63.17868 61.89579
# Shear Modulus (GPa) = 47.80157 21.40199 34.60178
#
# Velocity S-wave (km/s) = 4.85774 3.25042 4.13297
# Velocity P-wave (km/s) = 7.83489 6.72872 7.30278
#
# Compressibility (1/GPa) = 0.01649814
#
# Stress axis : x y z
#
# Youngs Moduli (GPa) = 84.13133 41.90766 74.44630
#
# Poissons Ratio (x) = 0.28267 0.03087
# Poissons Ratio (y) = 0.56747 0.68353
# Poissons Ratio (z) = 0.03489 0.38478
#
# Static dielectric constant tensor:
#      x y z
#    x 1.757170 0.000000 0.034240 
#    y 0.000000 1.744580 0.000000 
#    z 0.034240 0.000000 1.749500 
# 
# From -- ./inp_files/15947.got.cif
#   From: 2010.05.17/outbox.cif.g08.bks.cpg/sg13_8_cif.got.tgz:15947.got - 2010.06.03 16:44:36.
