data_PCOD9229936
_publ_section_title
;
Structure prediction by ZEFSAII (Michael W. Deem and Ramdas Pophale) SiO2 
 PCOD9229936
Probable space group: P 2/C
;
_chemical_formula_sum "Si O2"
_cell_formula_units_Z 24
_cell_length_a 8.089048
_cell_length_b 13.048795
_cell_length_c 13.826646
_cell_angle_alpha 90.000000
_cell_angle_beta 135.057665
_cell_angle_gamma 90.000000
_cell_volume 1030.937016
_symmetry_space_group_name_H-M "P 2/C"
_symmetry_group_IT_number 13
_symmetry_cell_setting 'monoclinic'
loop_
_space_group_symop_operation_xyz
x,y,z
-x,y,1/2-z
-x,-y,-z
x,-y,1/2+z
loop_
_atom_site_type_symbol
_atom_site_label
_atom_site_fract_x
_atom_site_fract_y
_atom_site_fract_z
Si Si1 0.671562 0.444206 0.902888
Si Si2 0.726895 0.967457 0.882930
Si Si3 0.350710 0.258581 0.474827
Si Si4 0.886994 0.649132 0.022160
Si Si5 0.189862 0.766035 0.696448
Si Si6 0.218879 0.149061 0.899424
O O1 0.500000 0.483691 0.750000
O O2 0.776051 0.540442 0.004059
O O3 0.579056 0.361300 0.940327
O O4 0.860664 0.383361 0.915064
O O5 0.500000 0.031428 0.750000
O O6 0.729892 0.876483 0.805022
O O7 0.699391 0.923201 0.979702
O O8 0.000000 0.000000 0.000000
O O9 0.315977 0.271809 0.345240
O O10 0.555989 0.176472 0.571602
O O11 0.090860 0.228259 0.402167
O O12 0.767516 0.692604 0.875944
O O13 0.871737 0.742133 0.091452
O O14 0.000000 0.104834 0.750000
#
# Coordination Sequence:
#
# PCOD9229936 Si02
#       6
#     4   4   4   4   4   4
#     4  10  20  35  54  87 127 171 218 265 309 365
#     4  11  24  46  72  99 130 168 212 266 339 409
#     4  10  20  37  63  91 124 169 218 262 315 379
#     4   9  21  37  55  85 127 171 216 261 317 378
#     4   9  20  41  64  87 124 173 211 256 329 390
#     4  11  23  41  64  95 128 169 213 267 328 386
#
# _framework density 23.279793000000002
#
# number of rings (size 3 to 8) (size 9 to 14) (size 15 to 20)
#    0.000    2.000    1.667    1.000    2.333    2.000 
#   12.000    3.333    0.000    0.000    0.000    0.000 
#    0.000    0.000    0.000    0.000    0.000    0.000 
#
# Total GULP energy -133963.561971 kJ/mol
# GULP energy per Si atom -5581.815082 kJ/mol
# Density = 2.322681 g / cm^3
# Si number density = 23.279793 Si / 1000 Ang^3
#
#
#
# Elastic Constant Matrix: (Units=GPa)
#
#
# Indices 1 2 3 4 5 6 
#
# 1 67.7735 17.4994 29.1193 0.0000 3.1750 0.0000
# 2 17.4994 25.2438 13.5532 0.0000 -2.2445 0.0000
# 3 29.1193 13.5532 144.3063 0.0000 6.9838 0.0000
# 4 0.0000 0.0000 0.0000 0.8605 0.0000 16.5533
# 5 3.1750 -2.2445 6.9838 0.0000 36.0746 0.0000
# 6 0.0000 0.0000 0.0000 16.5533 0.0000 14.8657
#
#
#
# Elastic Compliance Matrix: (Units=1/GPa)
#
#
# Indices 1 2 3 4 5 6 
#
# 1 0.019067 -0.011976 -0.002630 0.000000 -0.001914 0.000000
# 2 -0.011976 0.049653 -0.002470 0.000000 0.004622 0.000000
# 3 -0.002630 -0.002470 0.007761 0.000000 -0.001425 0.000000
# 4 0.000000 0.000000 0.000000 -0.056909 0.000000 0.063369
# 5 -0.001914 0.004622 -0.001425 0.000000 0.028452 0.000000
# 6 0.000000 0.000000 0.000000 0.063369 0.000000 -0.003294
#
#
# Mechanical properties :
#
#
# Convention : Reuss Voigt Hill
#
# Bulk Modulus (GPa) = 23.62466 39.74082 31.68274
# Shear Modulus (GPa) = 53.76802 22.17026 37.96914
#
# Velocity S-wave (km/s) = 4.81109 3.08935 4.04293
# Velocity P-wave (km/s) = 6.40564 5.46200 5.95255
#
# Compressibility (1/GPa) = 0.04232865
#
# Stress axis : x y z
#
# Youngs Moduli (GPa) = 52.44690 20.13988 128.84255
#
# Poissons Ratio (x) = 0.24119 0.33887
# Poissons Ratio (y) = 0.62808 0.31830
# Poissons Ratio (z) = 0.13794 0.04976
#
# Static dielectric constant tensor:
#      x y z
#    x 1.946060 0.000000 0.101340 
#    y 0.000000 1.880530 0.000000 
#    z 0.101340 0.000000 1.931490 
# 
# From -- ./inp_files/40966.got.cif
#   From: 2010.05.17/outbox.cif.g08.bks.cpg/sg13_21_cif.got.tgz:40966.got - 2010.06.03 16:44:36.
