data_PCOD9229264
_publ_section_title
;
Structure prediction by ZEFSAII (Michael W. Deem and Ramdas Pophale) SiO2 
 PCOD9229264
Probable space group: P 2/C
;
_chemical_formula_sum "Si O2"
_cell_formula_units_Z 18
_cell_length_a 6.950123
_cell_length_b 12.056991
_cell_length_c 9.298916
_cell_angle_alpha 90.000000
_cell_angle_beta 76.794007
_cell_angle_gamma 90.000000
_cell_volume 758.619932
_symmetry_space_group_name_H-M "P 2/C"
_symmetry_group_IT_number 13
_symmetry_cell_setting 'monoclinic'
loop_
_space_group_symop_operation_xyz
x,y,z
-x,y,1/2-z
-x,-y,-z
x,-y,1/2+z
loop_
_atom_site_type_symbol
_atom_site_label
_atom_site_fract_x
_atom_site_fract_y
_atom_site_fract_z
Si Si1 0.720636 0.396107 0.148418
Si Si2 0.210972 0.952908 0.517277
Si Si3 0.000000 0.777945 0.750000
Si Si4 0.303475 0.393152 0.685901
Si Si5 0.767508 0.135171 0.784774
O O1 0.500000 0.371016 0.250000
O O2 0.873898 0.298107 0.161102
O O3 0.803002 0.506756 0.212497
O O4 0.689661 0.419117 0.984815
O O5 0.155497 0.856415 0.639822
O O6 0.306311 0.900347 0.359450
O O7 0.314266 0.057997 0.574049
O O8 0.000000 0.000000 0.500000
O O9 0.500000 0.390418 0.750000
O O10 0.239179 0.266166 0.698286
O O11 0.000000 0.108515 0.750000
#
# Coordination Sequence:
#
# PCOD9229264 Si02
#       5
#     4   4   2   4   4
#     4  11  26  45  67  98 138 174 222 277 329 393
#     4  10  19  38  63  96 130 171 218 276 320 395
#     4  12  24  40  74  98 132 180 226 262 342 394
#     4  11  25  45  65  96 134 177 219 277 334 390
#     4  10  21  38  66  91 131 168 223 268 328 390
#
# _framework density 23.727295000000002
#
# number of rings (size 3 to 8) (size 9 to 14) (size 15 to 20)
#    0.000    1.333    3.333    5.333    7.778    0.889 
#    0.000    2.222    0.000    0.000    0.000    0.000 
#    0.000    0.000    0.000    0.000    0.000    0.000 
#
# Total GULP energy -100516.240323 kJ/mol
# GULP energy per Si atom -5584.235574 kJ/mol
# Density = 2.367329 g / cm^3
# Si number density = 23.727295 Si / 1000 Ang^3
#
#
#
# Elastic Constant Matrix: (Units=GPa)
#
#
# Indices 1 2 3 4 5 6 
#
# 1 63.6186 12.5334 23.7093 0.0000 29.3232 0.0000
# 2 12.5334 132.2960 43.5723 0.0000 16.3702 0.0000
# 3 23.7093 43.5723 177.5920 0.0000 29.7463 0.0000
# 4 0.0000 0.0000 0.0000 106.2441 0.0000 57.2857
# 5 29.3232 16.3702 29.7463 0.0000 33.1600 0.0000
# 6 0.0000 0.0000 0.0000 57.2857 0.0000 70.4313
#
#
#
# Elastic Compliance Matrix: (Units=1/GPa)
#
#
# Indices 1 2 3 4 5 6 
#
# 1 0.026577 0.000324 0.000395 0.000000 -0.024016 0.000000
# 2 0.000324 0.008430 -0.001608 0.000000 -0.003005 0.000000
# 3 0.000395 -0.001608 0.006941 0.000000 -0.005782 0.000000
# 4 0.000000 0.000000 0.000000 0.016764 0.000000 -0.013635
# 5 -0.024016 -0.003005 -0.005782 0.000000 0.058065 0.000000
# 6 0.000000 0.000000 0.000000 -0.013635 0.000000 0.025289
#
#
# Mechanical properties :
#
#
# Convention : Reuss Voigt Hill
#
# Bulk Modulus (GPa) = 24.89433 59.23741 42.06587
# Shear Modulus (GPa) = 31.79965 61.54654 46.67310
#
# Velocity S-wave (km/s) = 3.66486 5.09857 4.43997
# Velocity P-wave (km/s) = 5.33132 7.72533 6.63716
#
# Compressibility (1/GPa) = 0.04016978
#
# Stress axis : x y z
#
# Youngs Moduli (GPa) = 37.62599 118.62926 144.06782
#
# Poissons Ratio (x) = -0.03841 -0.05692
# Poissons Ratio (y) = -0.01218 0.23167
# Poissons Ratio (z) = -0.01487 0.19076
#
# Static dielectric constant tensor:
#      x y z
#    x 1.835940 0.000000 0.003000 
#    y 0.000000 1.927460 0.000000 
#    z 0.003000 0.000000 1.907290 
# 
# From -- ./inp_files/11367.got.cif
#   From: 2010.05.17/outbox.cif.g08.bks.cpg/sg13_6_cif.got.tgz:11367.got - 2010.06.03 16:44:36.
