data_PCOD9229212
_publ_section_title
;
Structure prediction by ZEFSAII (Michael W. Deem and Ramdas Pophale) SiO2 
 PCOD9229212
Probable space group: P 2/C
;
_chemical_formula_sum "Si O2"
_cell_formula_units_Z 24
_cell_length_a 15.777107
_cell_length_b 8.491075
_cell_length_c 9.895258
_cell_angle_alpha 90.000000
_cell_angle_beta 74.776875
_cell_angle_gamma 90.000000
_cell_volume 1279.099251
_symmetry_space_group_name_H-M "P 2/C"
_symmetry_group_IT_number 13
_symmetry_cell_setting 'monoclinic'
loop_
_space_group_symop_operation_xyz
x,y,z
-x,y,1/2-z
-x,-y,-z
x,-y,1/2+z
loop_
_atom_site_type_symbol
_atom_site_label
_atom_site_fract_x
_atom_site_fract_y
_atom_site_fract_z
Si Si1 0.803303 0.376358 0.880408
Si Si2 0.641909 0.405362 0.542403
Si Si3 0.413137 0.660318 0.721852
Si Si4 0.900055 0.688279 0.829135
Si Si5 0.783744 0.192259 0.611132
Si Si6 0.226319 0.176834 0.349442
O O1 0.716521 0.479466 0.948781
O O2 0.881799 0.502099 0.856687
O O3 0.796284 0.300447 0.736941
O O4 0.805543 0.242748 0.992982
O O5 0.600696 0.499613 0.685315
O O6 0.579599 0.367081 0.441944
O O7 0.695821 0.254486 0.572813
O O8 0.500000 0.735739 0.750000
O O9 0.324970 0.761093 0.781902
O O10 0.836558 0.746544 0.735947
O O11 0.000000 0.719439 0.750000
O O12 0.864930 0.775853 0.976921
O O13 0.776925 0.010706 0.652243
#
# Coordination Sequence:
#
# PCOD9229212 Si02
#       6
#     4   4   4   4   4   4
#     4  10  20  37  63  86 116 158 205 237 295 354
#     4  10  19  38  60  89 118 159 203 247 289 349
#     4  11  21  38  63  91 122 159 206 246 291 354
#     4  11  23  41  64  88 116 156 203 247 294 360
#     4  11  21  39  63  87 125 159 191 248 308 353
#     4  11  23  39  61  89 125 158 194 247 305 356
#
# _framework density 18.763203000000001
#
# number of rings (size 3 to 8) (size 9 to 14) (size 15 to 20)
#    0.000    1.333    5.000    3.500    0.000    3.333 
#    0.000    3.333    0.000    0.000    0.000    0.000 
#    0.000    0.000    0.000    0.000    0.000    0.000 
#
# Total GULP energy -134050.041451 kJ/mol
# GULP energy per Si atom -5585.418394 kJ/mol
# Density = 1.872050 g / cm^3
# Si number density = 18.763203 Si / 1000 Ang^3
#
#
#
# Elastic Constant Matrix: (Units=GPa)
#
#
# Indices 1 2 3 4 5 6 
#
# 1 89.3002 13.4189 9.9091 0.0000 -17.4198 0.0000
# 2 13.4189 66.5232 -6.4693 0.0000 -7.2804 0.0000
# 3 9.9091 -6.4693 65.1069 0.0000 3.9316 0.0000
# 4 0.0000 0.0000 0.0000 19.3591 0.0000 -0.3144
# 5 -17.4198 -7.2804 3.9316 0.0000 13.0676 0.0000
# 6 0.0000 0.0000 0.0000 -0.3144 0.0000 2.3487
#
#
#
# Elastic Compliance Matrix: (Units=1/GPa)
#
#
# Indices 1 2 3 4 5 6 
#
# 1 0.016096 -0.001224 -0.003897 0.000000 0.021947 0.000000
# 2 -0.001224 0.016175 0.001373 0.000000 0.006967 0.000000
# 3 -0.003897 0.001373 0.016659 0.000000 -0.009442 0.000000
# 4 0.000000 0.000000 0.000000 0.051768 0.000000 0.006931
# 5 0.021947 0.006967 -0.009442 0.000000 0.112505 0.000000
# 6 0.000000 0.000000 0.000000 0.006931 0.000000 0.426693
#
#
# Mechanical properties :
#
#
# Convention : Reuss Voigt Hill
#
# Bulk Modulus (GPa) = 24.13448 28.29420 26.21434
# Shear Modulus (GPa) = 7.56198 20.55985 14.06091
#
# Velocity S-wave (km/s) = 2.00972 3.31381 2.74046
# Velocity P-wave (km/s) = 4.27503 5.45473 4.90051
#
# Compressibility (1/GPa) = 0.04143450
#
# Stress axis : x y z
#
# Youngs Moduli (GPa) = 62.12848 61.82289 60.02764
#
# Poissons Ratio (x) = 0.07566 0.23391
# Poissons Ratio (y) = 0.07603 -0.08240
# Poissons Ratio (z) = 0.24209 -0.08487
#
# Static dielectric constant tensor:
#      x y z
#    x 1.654870 0.000000 0.003450 
#    y 0.000000 1.620380 0.000000 
#    z 0.003450 0.000000 1.659740 
# 
# From -- ./inp_files/18021.got.cif
#   From: 2010.05.17/outbox.cif.g08.bks.cpg/sg13_10_cif.got.tgz:18021.got - 2010.06.03 16:44:36.
