data_PCOD9229079
_publ_section_title
;
Structure prediction by ZEFSAII (Michael W. Deem and Ramdas Pophale) SiO2 
 PCOD9229079
Probable space group: P 2/C
;
_chemical_formula_sum "Si O2"
_cell_formula_units_Z 24
_cell_length_a 28.998210
_cell_length_b 5.387956
_cell_length_c 15.821483
_cell_angle_alpha 90.000000
_cell_angle_beta 158.010029
_cell_angle_gamma 90.000000
_cell_volume 925.613409
_symmetry_space_group_name_H-M "P 2/C"
_symmetry_group_IT_number 13
_symmetry_cell_setting 'monoclinic'
loop_
_space_group_symop_operation_xyz
x,y,z
-x,y,1/2-z
-x,-y,-z
x,-y,1/2+z
loop_
_atom_site_type_symbol
_atom_site_label
_atom_site_fract_x
_atom_site_fract_y
_atom_site_fract_z
Si Si1 0.273873 0.517732 0.286556
Si Si2 0.947621 0.394993 0.496545
Si Si3 0.271000 0.981866 0.693433
Si Si4 0.042110 0.106504 0.227836
Si Si5 0.542681 0.502957 0.670774
Si Si6 0.458560 0.997938 0.278404
O O1 0.236500 0.300847 0.156588
O O2 0.421295 0.509871 0.526377
O O3 0.239668 0.801149 0.208209
O O4 0.198397 0.431396 0.238897
O O5 0.000000 0.500000 0.500000
O O6 0.983156 0.108559 0.570099
O O7 0.006198 0.605466 0.657902
O O8 0.189981 0.069943 0.477610
O O9 0.419058 0.991897 0.952395
O O10 0.000000 0.026813 0.250000
O O11 0.500000 0.500000 0.500000
O O12 0.607643 0.252386 0.807904
O O13 0.610382 0.754193 0.811258
O O14 0.500000 0.997733 0.250000
#
# Coordination Sequence:
#
# PCOD9229079 Si02
#       6
#     4   4   4   4   4   4
#     4  10  19  37  61  85 127 156 202 250 309 354
#     4  12  24  38  62  93 130 165 207 255 306 366
#     4  10  20  35  65  88 118 162 214 239 310 369
#     4  12  21  38  67  88 124 174 207 249 308 366
#     4  10  21  38  68  89 122 158 208 259 310 369
#     4  10  21  39  67  90 127 161 202 260 324 363
#
# _framework density 25.928753
#
# number of rings (size 3 to 8) (size 9 to 14) (size 15 to 20)
#    0.000    1.333    3.333    3.000    0.000    0.000 
#    0.000    0.000   88.000    0.000    0.000    0.000 
#    0.000    0.000    0.000    0.000    0.000    0.000 
#
# Total GULP energy -133933.553593 kJ/mol
# GULP energy per Si atom -5580.564733 kJ/mol
# Density = 2.586974 g / cm^3
# Si number density = 25.928753 Si / 1000 Ang^3
#
#
#
# Elastic Constant Matrix: (Units=GPa)
#
#
# Indices 1 2 3 4 5 6 
#
# 1 115.2328 14.1404 15.2100 0.0000 -1.3701 0.0000
# 2 14.1404 202.2838 18.0376 0.0000 -25.0445 0.0000
# 3 15.2100 18.0376 86.5711 0.0000 9.9155 0.0000
# 4 0.0000 0.0000 0.0000 33.9231 0.0000 -6.2462
# 5 -1.3701 -25.0445 9.9155 0.0000 26.7016 0.0000
# 6 0.0000 0.0000 0.0000 -6.2462 0.0000 32.7779
#
#
#
# Elastic Compliance Matrix: (Units=1/GPa)
#
#
# Indices 1 2 3 4 5 6 
#
# 1 0.008942 -0.000404 -0.001562 0.000000 0.000660 0.000000
# 2 -0.000404 0.005908 -0.001872 0.000000 0.006216 0.000000
# 3 -0.001562 -0.001872 0.012978 0.000000 -0.006655 0.000000
# 4 0.000000 0.000000 0.000000 0.030550 0.000000 0.005822
# 5 0.000660 0.006216 -0.006655 0.000000 0.045787 0.000000
# 6 0.000000 0.000000 0.000000 0.005822 0.000000 0.031618
#
#
# Mechanical properties :
#
#
# Convention : Reuss Voigt Hill
#
# Bulk Modulus (GPa) = 49.62490 55.42929 52.52710
# Shear Modulus (GPa) = 33.29407 42.46049 37.87728
#
# Velocity S-wave (km/s) = 3.58727 4.05110 3.82622
# Velocity P-wave (km/s) = 6.02814 6.58071 6.31048
#
# Compressibility (1/GPa) = 0.02015117
#
# Stress axis : x y z
#
# Youngs Moduli (GPa) = 111.83501 169.25264 77.05321
#
# Poissons Ratio (x) = 0.06838 0.12039
# Poissons Ratio (y) = 0.04518 0.14425
# Poissons Ratio (z) = 0.17473 0.31684
#
# Static dielectric constant tensor:
#      x y z
#    x 2.095310 0.000000 0.028290 
#    y 0.000000 2.251650 0.000000 
#    z 0.028290 0.000000 2.130360 
# 
# From -- ./inp_files/59232.got.cif
#   From: 2010.05.17/outbox.cif.g08.bks.cpg/sg13_30_cif.got.tgz:59232.got - 2010.06.03 16:44:36.
