data_PCOD9229441
_publ_section_title
;
Structure prediction by ZEFSAII (Michael W. Deem and Ramdas Pophale) SiO2 
 PCOD9229441
Probable space group: P 2/C
;
_chemical_formula_sum "Si O2"
_cell_formula_units_Z 24
_cell_length_a 27.706808
_cell_length_b 4.801219
_cell_length_c 13.403384
_cell_angle_alpha 90.000000
_cell_angle_beta 32.800841
_cell_angle_gamma 90.000000
_cell_volume 965.890247
_symmetry_space_group_name_H-M "P 2/C"
_symmetry_group_IT_number 13
_symmetry_cell_setting 'monoclinic'
loop_
_space_group_symop_operation_xyz
x,y,z
-x,y,1/2-z
-x,-y,-z
x,-y,1/2+z
loop_
_atom_site_type_symbol
_atom_site_label
_atom_site_fract_x
_atom_site_fract_y
_atom_site_fract_z
Si Si1 0.031413 0.627845 0.549208
Si Si2 0.290327 0.397450 0.002893
Si Si3 0.329188 0.596073 0.662223
Si Si4 0.406745 0.870027 0.131299
Si Si5 0.169656 0.905368 0.180071
Si Si6 0.131649 0.527754 0.060385
O O1 0.098025 0.862468 0.392774
O O2 0.087785 0.433836 0.527213
O O3 0.000000 0.500000 0.500000
O O4 0.939969 0.685675 0.767178
O O5 0.319438 0.332321 0.063962
O O6 0.256241 0.713907 0.055907
O O7 0.203998 0.217471 0.122503
O O8 0.365134 0.298461 0.796358
O O9 0.405443 0.367376 0.548630
O O10 0.347789 0.873073 0.693384
O O11 0.234796 0.460286 0.860423
O O12 0.500000 0.000000 0.000000
O O13 0.136025 0.777579 0.133391
#
# Coordination Sequence:
#
# PCOD9229441 Si02
#       6
#     4   4   4   4   4   4
#     4   9  20  38  67 101 148 189 248 299 351 425
#     4  12  24  44  74 106 142 187 247 300 362 445
#     4  12  25  45  79 105 146 196 243 298 375 444
#     4  12  27  50  75 111 146 187 238 314 377 448
#     4  11  22  41  68 102 142 191 241 299 356 423
#     4  10  19  40  69 101 146 194 247 293 366 424
#
# _framework density 24.847542000000001
#
# number of rings (size 3 to 8) (size 9 to 14) (size 15 to 20)
#    0.000    1.000    5.000    1.500    0.000    0.667 
#    0.000   10.833    0.000    0.000    0.000    0.000 
#    0.000    0.000    0.000    0.000    0.000    0.000 
#
# Total GULP energy -134262.165322 kJ/mol
# GULP energy per Si atom -5594.256888 kJ/mol
# Density = 2.479099 g / cm^3
# Si number density = 24.847542 Si / 1000 Ang^3
#
#
#
# Elastic Constant Matrix: (Units=GPa)
#
#
# Indices 1 2 3 4 5 6 
#
# 1 174.6991 32.4766 59.0516 0.0000 9.3032 0.0000
# 2 32.4766 79.8239 11.8579 0.0000 -5.9782 0.0000
# 3 59.0516 11.8579 70.9204 0.0000 -0.7784 0.0000
# 4 0.0000 0.0000 0.0000 17.6622 0.0000 -4.1736
# 5 9.3032 -5.9782 -0.7784 0.0000 35.6961 0.0000
# 6 0.0000 0.0000 0.0000 -4.1736 0.0000 27.0222
#
#
#
# Elastic Compliance Matrix: (Units=1/GPa)
#
#
# Indices 1 2 3 4 5 6 
#
# 1 0.008687 -0.002738 -0.006807 0.000000 -0.002871 0.000000
# 2 -0.002738 0.013870 -0.000006 0.000000 0.003036 0.000000
# 3 -0.006807 -0.000006 0.019793 0.000000 0.002205 0.000000
# 4 0.000000 0.000000 0.000000 0.058763 0.000000 0.009076
# 5 -0.002871 0.003036 0.002205 0.000000 0.029319 0.000000
# 6 0.000000 0.000000 0.000000 0.009076 0.000000 0.038408
#
#
# Mechanical properties :
#
#
# Convention : Reuss Voigt Hill
#
# Bulk Modulus (GPa) = 43.01378 59.13506 51.07442
# Shear Modulus (GPa) = 25.55051 30.87994 28.21522
#
# Velocity S-wave (km/s) = 3.21018 3.52913 3.37342
# Velocity P-wave (km/s) = 5.57575 6.36059 5.98106
#
# Compressibility (1/GPa) = 0.02324837
#
# Stress axis : x y z
#
# Youngs Moduli (GPa) = 115.11665 72.09885 50.52266
#
# Poissons Ratio (x) = 0.19742 0.34390
# Poissons Ratio (y) = 0.31520 0.00029
# Poissons Ratio (z) = 0.78357 0.00042
#
# Static dielectric constant tensor:
#      x y z
#    x 1.970100 0.000000 0.003360 
#    y 0.000000 1.948520 0.000000 
#    z 0.003360 0.000000 2.004800 
# 
# From -- ./inp_files/59728.got.cif
#   From: 2010.05.17/outbox.cif.g08.bks.cpg/sg13_30_cif.got.tgz:59728.got - 2010.06.03 16:44:36.
