data_PCOD9229423
_publ_section_title
;
Structure prediction by ZEFSAII (Michael W. Deem and Ramdas Pophale) SiO2 
 PCOD9229423
Probable space group: P 2/C
;
_chemical_formula_sum "Si O2"
_cell_formula_units_Z 26
_cell_length_a 9.157037
_cell_length_b 9.484638
_cell_length_c 19.766147
_cell_angle_alpha 90.000000
_cell_angle_beta 131.991592
_cell_angle_gamma 90.000000
_cell_volume 1275.935096
_symmetry_space_group_name_H-M "P 2/C"
_symmetry_group_IT_number 13
_symmetry_cell_setting 'monoclinic'
loop_
_space_group_symop_operation_xyz
x,y,z
-x,y,1/2-z
-x,-y,-z
x,-y,1/2+z
loop_
_atom_site_type_symbol
_atom_site_label
_atom_site_fract_x
_atom_site_fract_y
_atom_site_fract_z
Si Si1 0.500000 0.314484 0.750000
Si Si2 0.455362 0.415579 0.145817
Si Si3 0.939993 0.948465 0.653478
Si Si4 0.901872 0.745513 0.909352
Si Si5 0.836646 0.490482 0.562113
Si Si6 0.940957 0.785966 0.391807
Si Si7 0.225775 0.693740 0.843381
O O1 0.498960 0.429094 0.811049
O O2 0.298412 0.222808 0.684649
O O3 0.310781 0.325641 0.148612
O O4 0.640039 0.325322 0.179638
O O5 0.329233 0.436727 0.039038
O O6 0.756477 0.839818 0.608684
O O7 0.000000 0.976789 0.750000
O O8 0.077217 0.857623 0.644455
O O9 0.947102 0.096815 0.617781
O O10 0.047270 0.617421 0.937213
O O11 0.979812 0.800936 0.006387
O O12 0.749555 0.557153 0.602464
O O13 0.989604 0.364074 0.616423
O O14 0.000000 0.691521 0.750000
#
# Coordination Sequence:
#
# PCOD9229423 Si02
#       7
#     2   4   4   4   4   4   4
#     4  12  22  34  64 104 124 148 210 280 316 362
#     4  11  21  36  66  98 119 158 216 261 316 378
#     4  10  24  42  60  86 128 171 208 257 314 374
#     4  10  20  43  68  90 124 169 216 256 310 385
#     4  10  19  40  65  94 125 161 202 263 320 378
#     4  11  21  40  64  94 127 165 206 263 324 375
#     4  10  22  39  59  89 126 167 206 256 312 376
#
# _framework density 20.377213000000001
#
# number of rings (size 3 to 8) (size 9 to 14) (size 15 to 20)
#    0.000    1.538    3.077    2.769    4.308    1.846 
#    5.538    3.077    0.000    0.000    0.000    0.000 
#    0.000    0.000    0.000    0.000    0.000    0.000 
#
# Total GULP energy -144899.462733 kJ/mol
# GULP energy per Si atom -5573.056259 kJ/mol
# Density = 2.033083 g / cm^3
# Si number density = 20.377213 Si / 1000 Ang^3
#
#
#
# Elastic Constant Matrix: (Units=GPa)
#
#
# Indices 1 2 3 4 5 6 
#
# 1 106.9056 11.2317 28.8885 0.0000 -12.4191 0.0000
# 2 11.2317 64.1355 14.5345 0.0000 -22.3519 0.0000
# 3 28.8885 14.5345 65.1238 0.0000 -3.1597 0.0000
# 4 0.0000 0.0000 0.0000 22.1703 0.0000 -16.3277
# 5 -12.4191 -22.3519 -3.1597 0.0000 38.4601 0.0000
# 6 0.0000 0.0000 0.0000 -16.3277 0.0000 18.9841
#
#
#
# Elastic Compliance Matrix: (Units=1/GPa)
#
#
# Indices 1 2 3 4 5 6 
#
# 1 0.011004 0.000326 -0.004791 0.000000 0.003349 0.000000
# 2 0.000326 0.020561 -0.004165 0.000000 0.011712 0.000000
# 3 -0.004791 -0.004165 0.018291 0.000000 -0.002465 0.000000
# 4 0.000000 0.000000 0.000000 0.123043 0.000000 0.105826
# 5 0.003349 0.011712 -0.002465 0.000000 0.033687 0.000000
# 6 0.000000 0.000000 0.000000 0.105826 0.000000 0.143694
#
#
# Mechanical properties :
#
#
# Convention : Reuss Voigt Hill
#
# Bulk Modulus (GPa) = 30.68053 38.38606 34.53330
# Shear Modulus (GPa) = 13.21338 28.02359 20.61848
#
# Velocity S-wave (km/s) = 2.54921 3.71245 3.18439
# Velocity P-wave (km/s) = 4.87377 6.10369 5.52307
#
# Compressibility (1/GPa) = 0.03259396
#
# Stress axis : x y z
#
# Youngs Moduli (GPa) = 90.87942 48.63656 54.67237
#
# Poissons Ratio (x) = -0.01585 0.26196
# Poissons Ratio (y) = -0.02962 0.22772
# Poissons Ratio (z) = 0.43544 0.20258
#
# Static dielectric constant tensor:
#      x y z
#    x 1.745370 0.000000 -0.012530 
#    y 0.000000 1.755620 0.000000 
#    z -0.012530 0.000000 1.768950 
# 
# From -- ./inp_files/69713.got.cif
#   From: 2010.05.17/outbox.cif.g08.bks.cpg/sg13_35_cif.got.tgz:69713.got - 2010.06.03 16:44:36.
