data_PCOD9229154
_publ_section_title
;
Structure prediction by ZEFSAII (Michael W. Deem and Ramdas Pophale) SiO2 
 PCOD9229154
Probable space group: P 2/C
;
_chemical_formula_sum "Si O2"
_cell_formula_units_Z 22
_cell_length_a 12.785822
_cell_length_b 5.807360
_cell_length_c 14.423970
_cell_angle_alpha 90.000000
_cell_angle_beta 84.752043
_cell_angle_gamma 90.000000
_cell_volume 1066.517306
_symmetry_space_group_name_H-M "P 2/C"
_symmetry_group_IT_number 13
_symmetry_cell_setting 'monoclinic'
loop_
_space_group_symop_operation_xyz
x,y,z
-x,y,1/2-z
-x,-y,-z
x,-y,1/2+z
loop_
_atom_site_type_symbol
_atom_site_label
_atom_site_fract_x
_atom_site_fract_y
_atom_site_fract_z
Si Si1 0.682744 0.018094 0.316323
Si Si2 0.331951 0.392366 0.334750
Si Si3 0.252007 0.079860 0.491518
Si Si4 0.029564 0.748735 0.044887
Si Si5 0.500000 0.716324 0.250000
Si Si6 0.835298 0.767107 0.168181
O O1 0.700818 0.044413 0.423306
O O2 0.582378 0.861024 0.302941
O O3 0.784963 0.898341 0.259710
O O4 0.660979 0.245215 0.259425
O O5 0.330879 0.236699 0.425981
O O6 0.427062 0.568593 0.323880
O O7 0.220354 0.520923 0.335376
O O8 0.155117 0.235133 0.536627
O O9 0.207777 0.904203 0.418503
O O10 0.959845 0.752413 0.144003
O O11 0.000000 0.500000 0.000000
O O12 0.000000 0.000000 0.000000
#
# Coordination Sequence:
#
# PCOD9229154 Si02
#       6
#     4   4   4   4   2   4
#     4  10  22  39  60  89 120 160 214 261 316 382
#     4  10  20  40  61  84 124 158 201 268 316 376
#     4  10  21  37  64  91 121 163 212 250 316 384
#     4  10  19  37  64  94 131 169 205 252 314 374
#     4  10  22  40  60  84 120 160 200 268 334 370
#     4   9  20  37  60  89 126 165 198 254 314 371
#
# _framework density 20.627889
#
# number of rings (size 3 to 8) (size 9 to 14) (size 15 to 20)
#    0.000    2.182    1.818    0.545    0.000    4.364 
#    0.000   12.727    0.000    0.000    0.000    0.000 
#    0.000    0.000    0.000    0.000    0.000    0.000 
#
# Total GULP energy -122625.065952 kJ/mol
# GULP energy per Si atom -5573.866634 kJ/mol
# Density = 2.058094 g / cm^3
# Si number density = 20.627889 Si / 1000 Ang^3
#
#
#
# Elastic Constant Matrix: (Units=GPa)
#
#
# Indices 1 2 3 4 5 6 
#
# 1 60.1118 14.3057 14.6120 0.0000 -11.9327 0.0000
# 2 14.3057 77.5734 18.8004 0.0000 -3.3927 0.0000
# 3 14.6120 18.8004 102.3948 0.0000 5.9010 0.0000
# 4 0.0000 0.0000 0.0000 -5.4157 0.0000 -6.3656
# 5 -11.9327 -3.3927 5.9010 0.0000 8.5075 0.0000
# 6 0.0000 0.0000 0.0000 -6.3656 0.0000 17.1050
#
#
#
# Elastic Compliance Matrix: (Units=1/GPa)
#
#
# Indices 1 2 3 4 5 6 
#
# 1 0.026492 -0.001708 -0.005801 0.000000 0.040501 0.000000
# 2 -0.001708 0.014063 -0.002629 0.000000 0.005035 0.000000
# 3 -0.005801 -0.002629 0.012089 0.000000 -0.017570 0.000000
# 4 0.000000 0.000000 0.000000 -0.128458 0.000000 -0.047805
# 5 0.040501 0.005035 -0.017570 0.000000 0.188546 0.000000
# 6 0.000000 0.000000 0.000000 -0.047805 0.000000 0.040672
#
#
# Mechanical properties :
#
#
# Convention : Reuss Voigt Hill
#
# Bulk Modulus (GPa) = 30.89377 37.27957 34.08667
# Shear Modulus (GPa) = 27.10479 16.86348 21.98414
#
# Velocity S-wave (km/s) = 3.62883 2.86231 3.26812
# Velocity P-wave (km/s) = 5.70676 5.38845 5.54989
#
# Compressibility (1/GPa) = 0.03236898
#
# Stress axis : x y z
#
# Youngs Moduli (GPa) = 37.74711 71.10697 82.71925
#
# Poissons Ratio (x) = 0.12148 0.47984
# Poissons Ratio (y) = 0.06449 0.21743
# Poissons Ratio (z) = 0.21897 0.18691
#
# Static dielectric constant tensor:
#      x y z
#    x 1.876010 0.000000 -0.070700 
#    y 0.000000 1.783150 0.000000 
#    z -0.070700 0.000000 1.726510 
# 
# From -- ./inp_files/35436.got.cif
#   From: 2010.05.17/outbox.cif.g08.bks.cpg/sg13_18_cif.got.tgz:35436.got - 2010.06.03 16:44:36.
