data_PCOD9229906
_publ_section_title
;
Structure prediction by ZEFSAII (Michael W. Deem and Ramdas Pophale) SiO2 
 PCOD9229906
Probable space group: P 2/C
;
_chemical_formula_sum "Si O2"
_cell_formula_units_Z 24
_cell_length_a 8.429435
_cell_length_b 13.622938
_cell_length_c 9.561352
_cell_angle_alpha 90.000000
_cell_angle_beta 103.867177
_cell_angle_gamma 90.000000
_cell_volume 1065.963788
_symmetry_space_group_name_H-M "P 2/C"
_symmetry_group_IT_number 13
_symmetry_cell_setting 'monoclinic'
loop_
_space_group_symop_operation_xyz
x,y,z
-x,y,1/2-z
-x,-y,-z
x,-y,1/2+z
loop_
_atom_site_type_symbol
_atom_site_label
_atom_site_fract_x
_atom_site_fract_y
_atom_site_fract_z
Si Si1 0.036696 0.903676 0.095571
Si Si2 0.814772 0.717214 0.961474
Si Si3 0.703460 0.172231 0.038637
Si Si4 0.716550 0.442080 0.663222
Si Si5 0.500000 0.812790 0.750000
Si Si6 0.335332 0.605232 0.046436
Si Si7 0.000000 0.270216 0.250000
O O1 0.000000 0.922213 0.250000
O O2 0.914046 0.814138 0.030262
O O3 0.222644 0.879022 0.083971
O O4 0.000000 0.000000 0.000000
O O5 0.643517 0.747210 0.851150
O O6 0.927944 0.671955 0.864687
O O7 0.790262 0.642420 0.081473
O O8 0.576818 0.132086 0.129425
O O9 0.861530 0.197305 0.164601
O O10 0.648523 0.279555 0.976280
O O11 0.742529 0.548467 0.600826
O O12 0.760321 0.423147 0.832827
O O13 0.520496 0.429619 0.609211
#
# Coordination Sequence:
#
# PCOD9229906 Si02
#       7
#     4   4   4   4   2   4   2
#     4  11  26  45  71  91 125 170 213 255 320 392
#     4  10  20  40  64  92 128 165 204 258 315 373
#     4  10  20  40  64  92 128 165 204 258 315 373
#     4  10  21  34  58  91 125 162 206 253 310 364
#     4  10  20  34  74  98 124 160 216 264 324 358
#     4  10  21  34  58  91 125 162 206 253 310 364
#     4   8  20  32  62  84 118 154 206 236 310 372
#
# _framework density 22.514834
#
# number of rings (size 3 to 8) (size 9 to 14) (size 15 to 20)
#    0.000    2.000    1.667    1.000   11.667    0.000 
#    0.000    4.167    3.667    0.000    0.000    0.000 
#    0.000    0.000    0.000    0.000    0.000    0.000 
#
# Total GULP energy -133860.994898 kJ/mol
# GULP energy per Si atom -5577.541454 kJ/mol
# Density = 2.246359 g / cm^3
# Si number density = 22.514834 Si / 1000 Ang^3
#
#
#
# Elastic Constant Matrix: (Units=GPa)
#
#
# Indices 1 2 3 4 5 6 
#
# 1 84.2876 11.6724 46.9743 0.0000 -38.8075 0.0000
# 2 11.6724 76.9089 47.5221 0.0000 -25.2042 0.0000
# 3 46.9743 47.5221 164.4696 0.0000 -58.6972 0.0000
# 4 0.0000 0.0000 0.0000 31.0104 0.0000 5.4312
# 5 -38.8075 -25.2042 -58.6972 0.0000 56.4302 0.0000
# 6 0.0000 0.0000 0.0000 5.4312 0.0000 31.7480
#
#
#
# Elastic Compliance Matrix: (Units=1/GPa)
#
#
# Indices 1 2 3 4 5 6 
#
# 1 0.017739 0.002033 -0.001552 0.000000 0.011493 0.000000
# 2 0.002033 0.016556 -0.003541 0.000000 0.005110 0.000000
# 3 -0.001552 -0.003541 0.010499 0.000000 0.008271 0.000000
# 4 0.000000 0.000000 0.000000 0.033243 0.000000 -0.005687
# 5 0.011493 0.005110 0.008271 0.000000 0.036511 0.000000
# 6 0.000000 0.000000 0.000000 -0.005687 0.000000 0.032471
#
#
# Mechanical properties :
#
#
# Convention : Reuss Voigt Hill
#
# Bulk Modulus (GPa) = 25.85702 59.77820 42.81761
# Shear Modulus (GPa) = 30.11504 38.47087 34.29296
#
# Velocity S-wave (km/s) = 3.66124 4.13811 3.90696
# Velocity P-wave (km/s) = 5.42054 7.03137 6.27784
#
# Compressibility (1/GPa) = 0.03867422
#
# Stress axis : x y z
#
# Youngs Moduli (GPa) = 56.37234 60.39986 95.25157
#
# Poissons Ratio (x) = -0.12281 0.14787
# Poissons Ratio (y) = -0.11462 0.33727
# Poissons Ratio (z) = 0.08751 0.21387
#
# Static dielectric constant tensor:
#      x y z
#    x 1.903690 0.000000 -0.047450 
#    y 0.000000 1.803210 0.000000 
#    z -0.047450 0.000000 1.872700 
# 
# From -- ./inp_files/12517.got.cif
#   From: 2010.05.17/outbox.cif.g08.bks.cpg/sg13_7_cif.got.tgz:12517.got - 2010.06.03 16:44:36.
