data_PCOD9229259
_publ_section_title
;
Structure prediction by ZEFSAII (Michael W. Deem and Ramdas Pophale) SiO2 
 PCOD9229259
Probable space group: P 2/C
;
_chemical_formula_sum "Si O2"
_cell_formula_units_Z 28
_cell_length_a 9.247216
_cell_length_b 8.931830
_cell_length_c 28.841974
_cell_angle_alpha 90.000000
_cell_angle_beta 141.911672
_cell_angle_gamma 90.000000
_cell_volume 1469.514888
_symmetry_space_group_name_H-M "P 2/C"
_symmetry_group_IT_number 13
_symmetry_cell_setting 'monoclinic'
loop_
_space_group_symop_operation_xyz
x,y,z
-x,y,1/2-z
-x,-y,-z
x,-y,1/2+z
loop_
_atom_site_type_symbol
_atom_site_label
_atom_site_fract_x
_atom_site_fract_y
_atom_site_fract_z
Si Si1 0.325292 0.383944 0.599021
Si Si2 0.971724 0.818579 0.951488
Si Si3 0.354272 0.046834 0.055293
Si Si4 0.584233 0.379956 0.456001
Si Si5 0.247375 0.569895 0.669070
Si Si6 0.255522 0.196371 0.835420
Si Si7 0.835970 0.449485 0.614634
O O1 0.332612 0.532389 0.568747
O O2 0.280315 0.438378 0.639399
O O3 0.570928 0.297947 0.652757
O O4 0.121434 0.276990 0.527249
O O5 0.761431 0.905857 0.924319
O O6 0.884590 0.705784 0.890154
O O7 0.159761 0.941434 0.982140
O O8 0.390576 0.203913 0.039983
O O9 0.592273 0.952506 0.118399
O O10 0.732976 0.439911 0.536796
O O11 0.317345 0.427976 0.397287
O O12 0.500000 0.620800 0.750000
O O13 0.099387 0.503469 0.674318
O O14 0.211401 0.295122 0.870513
O O15 0.000000 0.168667 0.750000
#
# Coordination Sequence:
#
# PCOD9229259 Si02
#       7
#     4   4   4   4   4   4   4
#     4  10  19  38  69  82 113 158 207 244 286 350
#     4  10  20  38  61  90 113 156 207 239 281 360
#     4  10  21  37  62  84 116 159 201 234 288 357
#     4  10  19  38  63  90 109 150 204 249 288 336
#     4  12  22  36  60  95 120 147 193 261 302 340
#     4  10  22  41  56  86 123 161 190 236 302 366
#     4  10  22  37  61  90 116 144 202 253 290 341
#
# _framework density 19.053906999999999
#
# number of rings (size 3 to 8) (size 9 to 14) (size 15 to 20)
#    0.000    1.714    2.857    2.143    2.000    0.571 
#    2.571    0.714    0.000    6.000    0.000    0.000 
#    0.000    0.000    0.000    0.000    0.000    0.000 
#
# Total GULP energy -156318.595606 kJ/mol
# GULP energy per Si atom -5582.806986 kJ/mol
# Density = 1.901054 g / cm^3
# Si number density = 19.053907 Si / 1000 Ang^3
#
#
#
# Elastic Constant Matrix: (Units=GPa)
#
#
# Indices 1 2 3 4 5 6 
#
# 1 83.7898 27.7179 24.9624 0.0000 24.3672 0.0000
# 2 27.7179 113.6116 26.5296 0.0000 18.3682 0.0000
# 3 24.9624 26.5296 63.5358 0.0000 26.4159 0.0000
# 4 0.0000 0.0000 0.0000 0.0224 0.0000 1.7974
# 5 24.3672 18.3682 26.4159 0.0000 28.3250 0.0000
# 6 0.0000 0.0000 0.0000 1.7974 0.0000 28.2806
#
#
#
# Elastic Compliance Matrix: (Units=1/GPa)
#
#
# Indices 1 2 3 4 5 6 
#
# 1 0.016287 -0.001863 -0.000487 0.000000 -0.012349 0.000000
# 2 -0.001863 0.010271 -0.002374 0.000000 -0.002843 0.000000
# 3 -0.000487 -0.002374 0.026308 0.000000 -0.022577 0.000000
# 4 0.000000 0.000000 0.000000-10.883705 0.000000 0.691736
# 5 -0.012349 -0.002843 -0.022577 0.000000 0.068827 0.000000
# 6 0.000000 0.000000 0.000000 0.691736 0.000000 -0.008605
#
#
# Mechanical properties :
#
#
# Convention : Reuss Voigt Hill
#
# Bulk Modulus (GPa) = 23.03226 46.59521 34.81374
# Shear Modulus (GPa) = -0.46526 23.44075 11.48774
#
# Velocity S-wave (km/s) = -0.49468 3.51127 2.45808
# Velocity P-wave (km/s) = 3.43335 6.39892 5.13489
#
# Compressibility (1/GPa) = 0.04341735
#
# Stress axis : x y z
#
# Youngs Moduli (GPa) = 61.39728 97.36508 38.01066
#
# Poissons Ratio (x) = 0.18143 0.01850
# Poissons Ratio (y) = 0.11441 0.09026
# Poissons Ratio (z) = 0.02988 0.23119
#
# Static dielectric constant tensor:
#      x y z
#    x 1.699470 0.000000 0.026960 
#    y 0.000000 1.648260 0.000000 
#    z 0.026960 0.000000 1.652380 
# 
# From -- ./inp_files/91400.got.cif
#   From: 2010.05.17/outbox.cif.g08.bks.cpg/sg13_46_cif.got.tgz:91400.got - 2010.06.03 16:44:36.
