data_PCOD9229623
_publ_section_title
;
Structure prediction by ZEFSAII (Michael W. Deem and Ramdas Pophale) SiO2 
 PCOD9229623
Probable space group: P 2/C
;
_chemical_formula_sum "Si O2"
_cell_formula_units_Z 24
_cell_length_a 24.653793
_cell_length_b 9.033852
_cell_length_c 18.803459
_cell_angle_alpha 90.000000
_cell_angle_beta 19.245352
_cell_angle_gamma 90.000000
_cell_volume 1380.384864
_symmetry_space_group_name_H-M "P 2/C"
_symmetry_group_IT_number 13
_symmetry_cell_setting 'monoclinic'
loop_
_space_group_symop_operation_xyz
x,y,z
-x,y,1/2-z
-x,-y,-z
x,-y,1/2+z
loop_
_atom_site_type_symbol
_atom_site_label
_atom_site_fract_x
_atom_site_fract_y
_atom_site_fract_z
Si Si1 0.822381 0.420370 0.009833
Si Si2 0.019035 0.928260 0.399656
Si Si3 0.822381 0.920370 0.509833
Si Si4 0.318448 0.425170 0.944912
Si Si5 0.019035 0.428260 0.899656
Si Si6 0.318448 0.925170 0.444912
O O1 0.765274 0.250000 0.080453
O O2 0.000000 0.422512 0.750000
O O3 0.867959 0.467504 0.033324
O O4 0.704773 0.519737 0.107359
O O5 0.025011 0.750000 0.395893
O O6 0.867959 0.967503 0.533325
O O7 0.000000 0.000000 0.500000
O O8 0.184307 0.988891 0.158134
O O9 0.000000 0.922512 0.250000
O O10 0.704773 0.019737 0.607359
O O11 0.500000 0.453475 0.750000
O O12 0.285263 0.250000 0.989834
O O13 0.184307 0.511109 0.158134
O O14 0.000000 0.500000 0.000000
O O15 0.500000 0.953475 0.250000
#
# Coordination Sequence:
#
# PCOD9229623 Si02
#       6
#     4   4   4   4   4   4
#     4   8  16  31  50  72  97 128 166 204 243 292
#     4  10  20  34  53  76 101 130 166 206 248 295
#     4   8  16  31  50  72  97 128 166 204 243 292
#     4  10  20  33  51  76 103 131 166 205 244 292
#     4  10  20  34  53  76 101 130 166 206 248 295
#     4  10  20  33  51  76 103 131 166 205 244 292
#
# _framework density 17.386455000000002
#
# number of rings (size 3 to 8) (size 9 to 14) (size 15 to 20)
#    0.000    2.667    0.000    4.000    0.000   10.000 
#    0.000    1.667    0.000    0.000    0.000    0.000 
#    0.000    0.000    0.000    0.000    0.000    0.000 
#
# Total GULP energy -133759.533616 kJ/mol
# GULP energy per Si atom -5573.313901 kJ/mol
# Density = 1.734688 g / cm^3
# Si number density = 17.386455 Si / 1000 Ang^3
#
#
#
# Elastic Constant Matrix: (Units=GPa)
#
#
# Indices 1 2 3 4 5 6 
#
# 1 197.5802 85.9638 52.6463 0.0000 -2.9125 0.0000
# 2 85.9638 81.8763 40.0058 0.0000 -14.9026 0.0000
# 3 52.6463 40.0058 35.2418 0.0000 -7.2463 0.0000
# 4 0.0000 0.0000 0.0000 22.0105 0.0000 -1.9725
# 5 -2.9125 -14.9026 -7.2463 0.0000 26.5044 0.0000
# 6 0.0000 0.0000 0.0000 -1.9725 0.0000 35.0364
#
#
#
# Elastic Compliance Matrix: (Units=1/GPa)
#
#
# Indices 1 2 3 4 5 6 
#
# 1 0.010716 -0.008749 -0.007254 0.000000 -0.005725 0.000000
# 2 -0.008749 0.035977 -0.025228 0.000000 0.012370 0.000000
# 3 -0.007254 -0.025228 0.068628 0.000000 0.003781 0.000000
# 4 0.000000 0.000000 0.000000 0.045663 0.000000 0.002571
# 5 -0.005725 0.012370 0.003781 0.000000 0.045090 0.000000
# 6 0.000000 0.000000 0.000000 0.002571 0.000000 0.028686
#
#
# Mechanical properties :
#
#
# Convention : Reuss Voigt Hill
#
# Bulk Modulus (GPa) = 30.43243 74.65890 52.54567
# Shear Modulus (GPa) = 15.23575 25.78242 20.50909
#
# Velocity S-wave (km/s) = 2.96345 3.85503 3.43826
# Velocity P-wave (km/s) = 5.40841 7.92774 6.78601
#
# Compressibility (1/GPa) = 0.03285968
#
# Stress axis : x y z
#
# Youngs Moduli (GPa) = 93.31707 27.79545 14.57129
#
# Poissons Ratio (x) = 0.24317 0.10570
# Poissons Ratio (y) = 0.81639 0.36760
# Poissons Ratio (z) = 0.67695 0.70122
#
# Static dielectric constant tensor:
#      x y z
#    x 1.626670 0.000000 0.003460 
#    y 0.000000 1.578380 0.000000 
#    z 0.003460 0.000000 1.563160 
# 
# From -- ./inp_files/69431.got.cif
#   From: 2010.05.17/outbox.cif.g08.bks.cpg/sg13_35_cif.got.tgz:69431.got - 2010.06.03 16:44:36.
