data_PCOD9229734
_publ_section_title
;
Structure prediction by ZEFSAII (Michael W. Deem and Ramdas Pophale) SiO2 
 PCOD9229734
Probable space group: P 2/C
;
_chemical_formula_sum "Si O2"
_cell_formula_units_Z 16
_cell_length_a 12.004223
_cell_length_b 12.180791
_cell_length_c 5.580412
_cell_angle_alpha 90.000000
_cell_angle_beta 127.638091
_cell_angle_gamma 90.000000
_cell_volume 646.155861
_symmetry_space_group_name_H-M "P 2/C"
_symmetry_group_IT_number 13
_symmetry_cell_setting 'monoclinic'
loop_
_space_group_symop_operation_xyz
x,y,z
-x,y,1/2-z
-x,-y,-z
x,-y,1/2+z
loop_
_atom_site_type_symbol
_atom_site_label
_atom_site_fract_x
_atom_site_fract_y
_atom_site_fract_z
Si Si1 0.658528 0.454908 0.687172
Si Si2 0.000000 0.567712 0.250000
Si Si3 0.000000 0.887764 0.750000
Si Si4 0.201563 0.743183 0.350023
Si Si5 0.717654 0.030374 0.427141
O O1 0.500000 0.500000 0.500000
O O2 0.714598 0.519276 0.525648
O O3 0.689308 0.327382 0.667075
O O4 0.128156 0.653118 0.415184
O O5 0.000000 0.500000 0.500000
O O6 0.919214 0.806189 0.461423
O O7 0.870444 0.967074 0.662918
O O8 0.267765 0.840003 0.590439
O O9 0.651051 0.981220 0.101792
#
# Coordination Sequence:
#
# PCOD9229734 Si02
#       5
#     4   2   2   4   4
#     4  10  23  43  63  86 115 158 217 260 293 351
#     4  12  24  34  48  80 120 154 194 236 288 362
#     4  10  20  36  56  90 126 158 196 238 300 380
#     4  11  21  37  60  86 125 168 194 248 311 357
#     4  10  20  34  53  83 121 156 194 233 288 369
#
# _framework density 24.761828000000001
#
# number of rings (size 3 to 8) (size 9 to 14) (size 15 to 20)
#    0.000    1.500    0.000    7.500    0.000    8.000 
#    0.000    0.000    0.000    0.000    0.000   84.000 
#    0.000    0.000    0.000    0.000    0.000    0.000 
#
# Total GULP energy -89234.559590 kJ/mol
# GULP energy per Si atom -5577.159974 kJ/mol
# Density = 2.470547 g / cm^3
# Si number density = 24.761828 Si / 1000 Ang^3
#
#
#
# Elastic Constant Matrix: (Units=GPa)
#
#
# Indices 1 2 3 4 5 6 
#
# 1 104.0583 65.4120 42.3238 0.0000 -14.1442 0.0000
# 2 65.4120 194.3022 42.3925 0.0000 -21.3711 0.0000
# 3 42.3238 42.3925 115.4042 0.0000 -31.7004 0.0000
# 4 0.0000 0.0000 0.0000 34.7711 0.0000 -18.5330
# 5 -14.1442 -21.3711 -31.7004 0.0000 51.7448 0.0000
# 6 0.0000 0.0000 0.0000 -18.5330 0.0000 45.8338
#
#
#
# Elastic Compliance Matrix: (Units=1/GPa)
#
#
# Indices 1 2 3 4 5 6 
#
# 1 0.013401 -0.003742 -0.003557 0.000000 -0.000062 0.000000
# 2 -0.003742 0.006710 -0.000736 0.000000 0.001297 0.000000
# 3 -0.003557 -0.000736 0.011890 0.000000 0.006008 0.000000
# 4 0.000000 0.000000 0.000000 0.036661 0.000000 0.014824
# 5 -0.000062 0.001297 0.006008 0.000000 0.023525 0.000000
# 6 0.000000 0.000000 0.000000 0.014824 0.000000 0.027812
#
#
# Mechanical properties :
#
#
# Convention : Reuss Voigt Hill
#
# Bulk Modulus (GPa) = 62.77134 79.33569 71.05351
# Shear Modulus (GPa) = 35.36599 44.04571 39.70585
#
# Velocity S-wave (km/s) = 3.78331 4.22213 4.00873
# Velocity P-wave (km/s) = 6.67006 7.47513 7.08404
#
# Compressibility (1/GPa) = 0.01593084
#
# Stress axis : x y z
#
# Youngs Moduli (GPa) = 74.62331 149.03879 84.10146
#
# Poissons Ratio (x) = 0.55771 0.29914
# Poissons Ratio (y) = 0.27925 0.06189
# Poissons Ratio (z) = 0.26543 0.10969
#
# Static dielectric constant tensor:
#      x y z
#    x 2.104070 0.000000 -0.029490 
#    y 0.000000 1.916410 0.000000 
#    z -0.029490 0.000000 2.415610 
# 
# From -- ./inp_files/2995.got.cif
#   From: 2010.05.17/outbox.cif.g08.bks.cpg/sg13_2_cif.got.tgz:2995.got - 2010.06.03 16:44:36.
