data_PCOD9229102
_publ_section_title
;
Structure prediction by ZEFSAII (Michael W. Deem and Ramdas Pophale) SiO2 
 PCOD9229102
Probable space group: P 2/C
;
_chemical_formula_sum "Si O2"
_cell_formula_units_Z 30
_cell_length_a 5.173421
_cell_length_b 14.088753
_cell_length_c 20.161893
_cell_angle_alpha 90.000000
_cell_angle_beta 88.749045
_cell_angle_gamma 90.000000
_cell_volume 1469.190670
_symmetry_space_group_name_H-M "P 2/C"
_symmetry_group_IT_number 13
_symmetry_cell_setting 'monoclinic'
loop_
_space_group_symop_operation_xyz
x,y,z
-x,y,1/2-z
-x,-y,-z
x,-y,1/2+z
loop_
_atom_site_type_symbol
_atom_site_label
_atom_site_fract_x
_atom_site_fract_y
_atom_site_fract_z
Si Si1 0.554298 0.655219 0.100068
Si Si2 0.500000 0.042368 0.250000
Si Si3 0.745106 0.743710 0.291222
Si Si4 0.949595 0.399088 0.968101
Si Si5 0.798545 0.063382 0.853991
Si Si6 0.024340 0.198975 0.460186
Si Si7 0.532064 0.140078 0.534894
Si Si8 0.096960 0.115816 0.326323
O O1 0.398313 0.659390 0.169298
O O2 0.348745 0.608201 0.051486
O O3 0.839389 0.613231 0.092154
O O4 0.574497 0.765789 0.079341
O O5 0.300421 0.973138 0.216548
O O6 0.399918 0.107038 0.310165
O O7 0.500000 0.782593 0.250000
O O8 0.855357 0.825961 0.340499
O O9 0.000000 0.715078 0.250000
O O10 0.004843 0.307335 0.014472
O O11 0.000000 0.500000 0.000000
O O12 0.585799 0.062932 0.913613
O O13 0.021592 0.985753 0.860749
O O14 0.301107 0.162616 0.485010
O O15 0.014370 0.191126 0.380945
O O16 0.802464 0.133401 0.495041
O O17 0.000000 0.129605 0.250000
#
# Coordination Sequence:
#
# PCOD9229102 Si02
#       8
#     4   2   4   4   4   4   4   4
#     4   9  19  34  53  85 114 136 176 224 271 332
#     4  10  20  36  50  74 104 152 202 232 254 314
#     4  11  20  32  53  79 112 157 185 216 268 328
#     4  10  19  37  62  85 106 137 178 232 291 348
#     4  10  21  34  52  78 111 150 199 231 266 320
#     4  10  22  39  56  84 110 142 183 232 295 340
#     4   9  21  35  56  80 115 141 178 233 280 327
#     4  10  23  37  54  75 108 151 195 237 271 324
#
# _framework density 20.419404
#
# number of rings (size 3 to 8) (size 9 to 14) (size 15 to 20)
#    0.000    2.133    0.667    2.400    5.600    3.200 
#    0.000    0.000    0.000    2.400    0.000    0.000 
#    0.000    0.000    0.000    0.000    0.000    0.000 
#
# Total GULP energy -167018.235429 kJ/mol
# GULP energy per Si atom -5567.274514 kJ/mol
# Density = 2.037293 g / cm^3
# Si number density = 20.419404 Si / 1000 Ang^3
#
#
#
# Elastic Constant Matrix: (Units=GPa)
#
#
# Indices 1 2 3 4 5 6 
#
# 1 76.8291 4.2434 13.7431 0.0000 -15.1748 0.0000
# 2 4.2434 41.1676 14.5681 0.0000 1.6928 0.0000
# 3 13.7431 14.5681 82.2728 0.0000 -13.9448 0.0000
# 4 0.0000 0.0000 0.0000 12.9531 0.0000 0.7219
# 5 -15.1748 1.6928 -13.9448 0.0000 29.3126 0.0000
# 6 0.0000 0.0000 0.0000 0.7219 0.0000 8.2579
#
#
#
# Elastic Compliance Matrix: (Units=1/GPa)
#
#
# Indices 1 2 3 4 5 6 
#
# 1 0.014699 -0.001470 -0.000969 0.000000 0.007233 0.000000
# 2 -0.001470 0.026501 -0.005259 0.000000 -0.004793 0.000000
# 3 -0.000969 -0.005259 0.014373 0.000000 0.006640 0.000000
# 4 0.000000 0.000000 0.000000 0.077580 0.000000 -0.006782
# 5 0.007233 -0.004793 0.006640 0.000000 0.041295 0.000000
# 6 0.000000 0.000000 0.000000 -0.006782 0.000000 0.121689
#
#
# Mechanical properties :
#
#
# Convention : Reuss Voigt Hill
#
# Bulk Modulus (GPa) = 24.89006 29.48653 27.18830
# Shear Modulus (GPa) = 15.38816 21.28573 18.33695
#
# Velocity S-wave (km/s) = 2.74816 3.23217 2.99994
# Velocity P-wave (km/s) = 4.72078 5.32926 5.03422
#
# Compressibility (1/GPa) = 0.04017668
#
# Stress axis : x y z
#
# Youngs Moduli (GPa) = 68.03134 37.73492 69.57368
#
# Poissons Ratio (x) = 0.05545 0.06743
# Poissons Ratio (y) = 0.09998 0.36592
# Poissons Ratio (z) = 0.06593 0.19846
#
# Static dielectric constant tensor:
#      x y z
#    x 1.865490 0.000000 -0.004240 
#    y 0.000000 1.710040 0.000000 
#    z -0.004240 0.000000 1.833310 
# 
# From -- ./inp_files/61575.got.cif
#   From: 2010.05.17/outbox.cif.g08.bks.cpg/sg13_31_cif.got.tgz:61575.got - 2010.06.03 16:44:36.
