data_PCOD9229153
_publ_section_title
;
Structure prediction by ZEFSAII (Michael W. Deem and Ramdas Pophale) SiO2 
 PCOD9229153
Probable space group: P 2/C
;
_chemical_formula_sum "Si O2"
_cell_formula_units_Z 32
_cell_length_a 11.812827
_cell_length_b 13.500252
_cell_length_c 17.923984
_cell_angle_alpha 90.000000
_cell_angle_beta 149.167485
_cell_angle_gamma 90.000000
_cell_volume 1465.040931
_symmetry_space_group_name_H-M "P 2/C"
_symmetry_group_IT_number 13
_symmetry_cell_setting 'monoclinic'
loop_
_space_group_symop_operation_xyz
x,y,z
-x,y,1/2-z
-x,-y,-z
x,-y,1/2+z
loop_
_atom_site_type_symbol
_atom_site_label
_atom_site_fract_x
_atom_site_fract_y
_atom_site_fract_z
Si Si1 0.442456 0.849095 0.430796
Si Si2 0.835477 0.568915 0.359251
Si Si3 0.244565 0.223782 0.599577
Si Si4 0.223987 0.020554 0.925002
Si Si5 0.992988 0.864115 0.080706
Si Si6 0.894039 0.322044 0.610551
Si Si7 0.216809 0.697892 0.920935
Si Si8 0.573507 0.491660 0.456090
O O1 0.359807 0.888228 0.464178
O O2 0.226525 0.854078 0.256939
O O3 0.565462 0.744299 0.495319
O O4 0.619776 0.927384 0.499332
O O5 0.773147 0.670106 0.367494
O O6 0.619062 0.509981 0.212333
O O7 0.000000 0.500000 0.500000
O O8 0.943456 0.605179 0.342851
O O9 0.500000 0.189938 0.750000
O O10 0.068850 0.150731 0.539200
O O11 0.191834 0.245912 0.484672
O O12 0.000000 0.008377 0.750000
O O13 0.142882 0.044373 0.962651
O O14 0.860915 0.769005 0.036242
O O15 0.679462 0.385566 0.504126
O O16 0.000000 0.291661 0.750000
O O17 0.000000 0.713144 0.750000
O O18 0.255695 0.582191 0.958082
O O19 0.500000 0.500000 0.500000
#
# Coordination Sequence:
#
# PCOD9229153 Si02
#       8
#     4   4   4   4   4   4   4   4
#     4  10  19  37  64  94 129 169 208 266 320 389
#     4  11  24  39  60  85 123 170 214 267 316 369
#     4  11  21  42  64  86 124 172 218 255 326 395
#     4   9  19  35  62  98 130 162 215 263 326 385
#     4  10  21  38  65  92 124 171 215 264 320 390
#     4  11  21  37  58  88 122 164 215 259 308 378
#     4  12  25  40  64  94 127 167 217 271 319 382
#     4  12  25  38  60  92 126 165 217 267 312 378
#
# _framework density 21.842392
#
# number of rings (size 3 to 8) (size 9 to 14) (size 15 to 20)
#    0.000    1.250    3.750    3.375    3.500    0.000 
#    0.000    0.625    0.000    0.750    0.000    0.000 
#    0.000    0.000    0.000    0.000    0.000    0.000 
#
# Total GULP energy -178952.451306 kJ/mol
# GULP energy per Si atom -5592.264103 kJ/mol
# Density = 2.179268 g / cm^3
# Si number density = 21.842392 Si / 1000 Ang^3
#
#
#
# Elastic Constant Matrix: (Units=GPa)
#
#
# Indices 1 2 3 4 5 6 
#
# 1 135.3021 35.0456 29.3953 0.0000 -1.3341 0.0000
# 2 35.0456 57.5260 6.6963 0.0000 10.6198 0.0000
# 3 29.3953 6.6963 84.3243 0.0000 -4.2974 0.0000
# 4 0.0000 0.0000 0.0000 24.6774 0.0000 12.6845
# 5 -1.3341 10.6198 -4.2974 0.0000 31.5772 0.0000
# 6 0.0000 0.0000 0.0000 12.6845 0.0000 45.3091
#
#
#
# Elastic Compliance Matrix: (Units=1/GPa)
#
#
# Indices 1 2 3 4 5 6 
#
# 1 0.009524 -0.005850 -0.002754 0.000000 0.001995 0.000000
# 2 -0.005850 0.022403 -0.000137 0.000000 -0.007800 0.000000
# 3 -0.002754 -0.000137 0.012916 0.000000 0.001688 0.000000
# 4 0.000000 0.000000 0.000000 0.047334 0.000000 -0.013252
# 5 0.001995 -0.007800 0.001688 0.000000 0.034606 0.000000
# 6 0.000000 0.000000 0.000000 -0.013252 0.000000 0.025780
#
#
# Mechanical properties :
#
#
# Convention : Reuss Voigt Hill
#
# Bulk Modulus (GPa) = 36.54836 46.60301 41.57568
# Shear Modulus (GPa) = 27.90704 34.04709 30.97707
#
# Velocity S-wave (km/s) = 3.57831 3.95240 3.77000
# Velocity P-wave (km/s) = 5.81734 6.49700 6.16654
#
# Compressibility (1/GPa) = 0.02736101
#
# Stress axis : x y z
#
# Youngs Moduli (GPa) = 104.99719 44.63634 77.42410
#
# Poissons Ratio (x) = 0.26112 0.21321
# Poissons Ratio (y) = 0.61422 0.01063
# Poissons Ratio (z) = 0.28915 0.00613
#
# Static dielectric constant tensor:
#      x y z
#    x 1.848410 0.000000 0.054040 
#    y 0.000000 1.830850 0.000000 
#    z 0.054040 0.000000 1.860550 
# 
# From -- ./inp_files/66960.got.cif
#   From: 2010.05.17/outbox.cif.g08.bks.cpg/sg13_34_cif.got.tgz:66960.got - 2010.06.03 16:44:36.
