data_PCOD9229380
_publ_section_title
;
Structure prediction by ZEFSAII (Michael W. Deem and Ramdas Pophale) SiO2 
 PCOD9229380
Probable space group: P 2/C
;
_chemical_formula_sum "Si O2"
_cell_formula_units_Z 26
_cell_length_a 11.476860
_cell_length_b 8.790027
_cell_length_c 16.765482
_cell_angle_alpha 90.000000
_cell_angle_beta 125.319809
_cell_angle_gamma 90.000000
_cell_volume 1380.023135
_symmetry_space_group_name_H-M "P 2/C"
_symmetry_group_IT_number 13
_symmetry_cell_setting 'monoclinic'
loop_
_space_group_symop_operation_xyz
x,y,z
-x,y,1/2-z
-x,-y,-z
x,-y,1/2+z
loop_
_atom_site_type_symbol
_atom_site_label
_atom_site_fract_x
_atom_site_fract_y
_atom_site_fract_z
Si Si1 0.914911 0.108471 0.634167
Si Si2 0.654009 0.002405 0.137033
Si Si3 0.886501 0.159093 0.331801
Si Si4 0.000000 0.399941 0.250000
Si Si5 0.725417 0.507569 0.047574
Si Si6 0.497149 0.252900 0.522854
Si Si7 0.102165 0.360819 0.009531
O O1 0.933395 0.248442 0.580027
O O2 0.000000 0.141092 0.750000
O O3 0.760098 0.055295 0.607014
O O4 0.984566 0.961313 0.619968
O O5 0.750752 0.065879 0.246037
O O6 0.558515 0.854937 0.116310
O O7 0.552904 0.136990 0.065890
O O8 0.923110 0.289726 0.282488
O O9 0.870562 0.245202 0.408107
O O10 0.873335 0.489514 0.155138
O O11 0.620931 0.630989 0.045617
O O12 0.760389 0.555521 0.971667
O O13 0.642225 0.349556 0.013265
O O14 0.000000 0.500000 0.000000
#
# Coordination Sequence:
#
# PCOD9229380 Si02
#       7
#     4   4   4   2   4   4   4
#     4  10  21  40  66  95 121 167 221 263 314 389
#     4  10  19  39  68  88 118 166 228 260 306 384
#     4  11  21  39  63  94 126 166 217 271 320 371
#     4  12  20  38  68  94 126 174 216 262 320 386
#     4  11  23  39  64  98 130 166 214 264 325 391
#     4  10  21  39  68  92 121 169 221 263 309 389
#     4  12  25  37  59  99 140 164 200 278 337 377
#
# _framework density 18.840263
#
# number of rings (size 3 to 8) (size 9 to 14) (size 15 to 20)
#    0.000    1.231    6.923    0.462    1.077    0.000 
#    0.000    0.769    0.000    1.846    0.000    0.000 
#    0.000    0.000    0.000    0.000    0.000    0.000 
#
# Total GULP energy -144879.385302 kJ/mol
# GULP energy per Si atom -5572.284050 kJ/mol
# Density = 1.879738 g / cm^3
# Si number density = 18.840263 Si / 1000 Ang^3
#
#
#
# Elastic Constant Matrix: (Units=GPa)
#
#
# Indices 1 2 3 4 5 6 
#
# 1 56.3200 44.1724 54.4163 0.0000 3.5600 0.0000
# 2 44.1724 130.1908 61.6815 0.0000 -1.1412 0.0000
# 3 54.4163 61.6815 88.3932 0.0000 -2.4175 0.0000
# 4 0.0000 0.0000 0.0000 4.3497 0.0000 -25.9221
# 5 3.5600 -1.1412 -2.4175 0.0000 36.2882 0.0000
# 6 0.0000 0.0000 0.0000 -25.9221 0.0000 21.3194
#
#
#
# Elastic Compliance Matrix: (Units=1/GPa)
#
#
# Indices 1 2 3 4 5 6 
#
# 1 0.046112 -0.003241 -0.026300 0.000000 -0.006378 0.000000
# 2 -0.003241 0.011703 -0.006164 0.000000 0.000275 0.000000
# 3 -0.026300 -0.006164 0.031929 0.000000 0.004513 0.000000
# 4 0.000000 0.000000 0.000000 -0.036807 0.000000 -0.044753
# 5 -0.006378 0.000275 0.004513 0.000000 0.028492 0.000000
# 6 0.000000 0.000000 0.000000 -0.044753 0.000000 -0.007510
#
#
# Mechanical properties :
#
#
# Convention : Reuss Voigt Hill
#
# Bulk Modulus (GPa) = 54.54413 66.16051 60.35232
# Shear Modulus (GPa) = 33.01612 20.03370 26.52491
#
# Velocity S-wave (km/s) = 4.19074 3.26444 3.75625
# Velocity P-wave (km/s) = 7.24086 7.02862 7.13553
#
# Compressibility (1/GPa) = 0.01833378
#
# Stress axis : x y z
#
# Youngs Moduli (GPa) = 21.68646 85.44490 31.31971
#
# Poissons Ratio (x) = 0.27690 0.82371
# Poissons Ratio (y) = 0.07028 0.19306
# Poissons Ratio (z) = 0.57036 0.52670
#
# Static dielectric constant tensor:
#      x y z
#    x 1.686490 0.000000 0.019530 
#    y 0.000000 1.700880 0.000000 
#    z 0.019530 0.000000 1.668420 
# 
# From -- ./inp_files/50164.got.cif
#   From: 2010.05.17/outbox.cif.g08.bks.cpg/sg13_26_cif.got.tgz:50164.got - 2010.06.03 16:44:36.
