data_PCOD9229663
_publ_section_title
;
Structure prediction by ZEFSAII (Michael W. Deem and Ramdas Pophale) SiO2 
 PCOD9229663
Probable space group: P 2/C
;
_chemical_formula_sum "Si O2"
_cell_formula_units_Z 30
_cell_length_a 14.230211
_cell_length_b 20.678663
_cell_length_c 13.952931
_cell_angle_alpha 90.000000
_cell_angle_beta 159.380089
_cell_angle_gamma 90.000000
_cell_volume 1445.931771
_symmetry_space_group_name_H-M "P 2/C"
_symmetry_group_IT_number 13
_symmetry_cell_setting 'monoclinic'
loop_
_space_group_symop_operation_xyz
x,y,z
-x,y,1/2-z
-x,-y,-z
x,-y,1/2+z
loop_
_atom_site_type_symbol
_atom_site_label
_atom_site_fract_x
_atom_site_fract_y
_atom_site_fract_z
Si Si1 0.349574 0.391663 0.201494
Si Si2 0.797972 0.647164 0.277960
Si Si3 0.629593 0.104121 0.255035
Si Si4 0.583739 0.033580 0.937020
Si Si5 0.269519 0.519997 0.204960
Si Si6 0.049964 0.088489 0.503908
Si Si7 0.743100 0.792451 0.200025
Si Si8 0.000000 0.823005 0.250000
O O1 0.500000 0.366873 0.250000
O O2 0.572161 0.378480 0.492147
O O3 0.297572 0.469241 0.144779
O O4 0.078446 0.360748 0.987115
O O5 0.767658 0.597385 0.338583
O O6 0.722046 0.721404 0.222457
O O7 0.879338 0.072775 0.435831
O O8 0.765649 0.133928 0.479756
O O9 0.426622 0.044328 0.071322
O O10 0.504708 0.162823 0.072803
O O11 0.500000 0.053543 0.750000
O O12 0.340958 0.057908 0.771529
O O13 0.857891 0.065153 0.234884
O O14 0.500000 0.500000 0.500000
O O15 0.000000 0.500000 0.000000
O O16 0.105562 0.164069 0.576818
O O17 0.896302 0.784976 0.243821
#
# Coordination Sequence:
#
# PCOD9229663 Si02
#       8
#     4   4   4   4   4   4   4   2
#     4  10  20  33  56  88 119 151 197 249 288 339
#     4  10  22  35  57  83 120 164 194 235 291 367
#     4  11  24  42  61  89 126 162 202 253 314 376
#     4  12  25  41  67  91 113 153 209 267 321 358
#     4   8  16  34  52  78 112 149 191 233 279 327
#     4  11  25  42  62  90 121 158 204 257 310 376
#     4  11  24  39  58  86 129 167 203 242 307 376
#     4  10  24  36  56  86 126 164 198 246 304 378
#
# _framework density 20.747868
#
# number of rings (size 3 to 8) (size 9 to 14) (size 15 to 20)
#    0.000    1.600    1.333    2.800   11.200    0.000 
#    0.000    0.000    0.000    0.800    0.000    0.000 
#    0.000    0.000    0.000    0.000    0.000    0.000 
#
# Total GULP energy -167065.323460 kJ/mol
# GULP energy per Si atom -5568.844115 kJ/mol
# Density = 2.070064 g / cm^3
# Si number density = 20.747868 Si / 1000 Ang^3
#
#
#
# Elastic Constant Matrix: (Units=GPa)
#
#
# Indices 1 2 3 4 5 6 
#
# 1 14.9272 21.1147 12.1523 0.0000 3.2872 0.0000
# 2 21.1147 186.7592 40.3852 0.0000 -15.3612 0.0000
# 3 12.1523 40.3852 140.7386 0.0000 2.3900 0.0000
# 4 0.0000 0.0000 0.0000 20.9105 0.0000 -3.1339
# 5 3.2872 -15.3612 2.3900 0.0000 36.1189 0.0000
# 6 0.0000 0.0000 0.0000 -3.1339 0.0000 16.0774
#
#
#
# Elastic Compliance Matrix: (Units=1/GPa)
#
#
# Indices 1 2 3 4 5 6 
#
# 1 0.087207 -0.009860 -0.004500 0.000000 -0.011832 0.000000
# 2 -0.009860 0.007066 -0.001244 0.000000 0.003985 0.000000
# 3 -0.004500 -0.001244 0.007862 0.000000 -0.000640 0.000000
# 4 0.000000 0.000000 0.000000 0.049262 0.000000 0.009603
# 5 -0.011832 0.003985 -0.000640 0.000000 0.030500 0.000000
# 6 0.000000 0.000000 0.000000 0.009603 0.000000 0.064071
#
#
# Mechanical properties :
#
#
# Convention : Reuss Voigt Hill
#
# Bulk Modulus (GPa) = 14.09878 54.41437 34.25657
# Shear Modulus (GPa) = 16.62134 32.53954 24.58044
#
# Velocity S-wave (km/s) = 2.83346 3.96451 3.44571
# Velocity P-wave (km/s) = 4.18506 6.87313 5.69011
#
# Compressibility (1/GPa) = 0.07092815
#
# Stress axis : x y z
#
# Youngs Moduli (GPa) = 11.46690 141.52383 127.19849
#
# Poissons Ratio (x) = 1.39538 0.57238
# Poissons Ratio (y) = 0.11306 0.15822
# Poissons Ratio (z) = 0.05160 0.17604
#
# Static dielectric constant tensor:
#      x y z
#    x 1.802920 0.000000 0.012840 
#    y 0.000000 1.821510 0.000000 
#    z 0.012840 0.000000 1.766770 
# 
# From -- ./inp_files/53964.got.cif
#   From: 2010.05.17/outbox.cif.g08.bks.cpg/sg13_27_cif.got.tgz:53964.got - 2010.06.03 16:44:36.
