data_PCOD9229606
_publ_section_title
;
Structure prediction by ZEFSAII (Michael W. Deem and Ramdas Pophale) SiO2 
 PCOD9229606
Probable space group: P 2/C
;
_chemical_formula_sum "Si O2"
_cell_formula_units_Z 26
_cell_length_a 10.536299
_cell_length_b 7.826607
_cell_length_c 15.843681
_cell_angle_alpha 90.000000
_cell_angle_beta 60.663516
_cell_angle_gamma 90.000000
_cell_volume 1138.972878
_symmetry_space_group_name_H-M "P 2/C"
_symmetry_group_IT_number 13
_symmetry_cell_setting 'monoclinic'
loop_
_space_group_symop_operation_xyz
x,y,z
-x,y,1/2-z
-x,-y,-z
x,-y,1/2+z
loop_
_atom_site_type_symbol
_atom_site_label
_atom_site_fract_x
_atom_site_fract_y
_atom_site_fract_z
Si Si1 0.313565 0.790935 0.675278
Si Si2 0.681890 0.843871 0.117931
Si Si3 0.720033 0.743246 0.630187
Si Si4 0.586638 0.663127 0.501731
Si Si5 0.000000 0.184740 0.250000
Si Si6 0.971810 0.849460 0.943291
Si Si7 0.343234 0.813168 0.188136
O O1 0.350067 0.709854 0.755004
O O2 0.450202 0.785097 0.569046
O O3 0.155722 0.717878 0.700835
O O4 0.291613 0.992385 0.695480
O O5 0.519051 0.805082 0.141598
O O6 0.711173 0.762413 0.200873
O O7 0.689073 0.052679 0.123421
O O8 0.809246 0.787502 0.013927
O O9 0.668453 0.646084 0.564060
O O10 0.893462 0.722870 0.586316
O O11 0.500000 0.500000 0.500000
O O12 0.685716 0.721836 0.391227
O O13 0.012060 0.086876 0.157684
O O14 0.000000 0.000000 0.000000
#
# Coordination Sequence:
#
# PCOD9229606 Si02
#       7
#     4   4   4   4   2   4   4
#     4  10  20  38  63  85 116 156 206 263 309 370
#     4   9  17  35  57  87 118 143 195 257 309 348
#     4   9  19  36  57  84 118 154 191 251 315 362
#     4  12  24  37  57  87 122 164 208 247 309 383
#     4  10  20  32  62  90 112 158 206 250 326 376
#     4   9  18  31  52  90 123 148 191 251 313 361
#     4  10  20  34  59  87 113 154 202 253 307 354
#
# _framework density 22.827587000000001
#
# number of rings (size 3 to 8) (size 9 to 14) (size 15 to 20)
#    0.000    2.154    1.538    2.769    4.308    0.000 
#    5.538    0.000    3.385    2.769    0.000    0.000 
#    0.000    0.000    0.000    0.000    0.000    0.000 
#
# Total GULP energy -144928.974101 kJ/mol
# GULP energy per Si atom -5574.191312 kJ/mol
# Density = 2.277563 g / cm^3
# Si number density = 22.827587 Si / 1000 Ang^3
#
#
#
# Elastic Constant Matrix: (Units=GPa)
#
#
# Indices 1 2 3 4 5 6 
#
# 1 84.4595 -1.3411 32.8276 0.0000 13.7407 0.0000
# 2 -1.3411 17.2758 14.3897 0.0000 15.7605 0.0000
# 3 32.8276 14.3897 175.5735 0.0000 21.7670 0.0000
# 4 0.0000 0.0000 0.0000 0.7627 0.0000 4.8935
# 5 13.7407 15.7605 21.7670 0.0000 49.3432 0.0000
# 6 0.0000 0.0000 0.0000 4.8935 0.0000 13.5142
#
#
#
# Elastic Compliance Matrix: (Units=1/GPa)
#
#
# Indices 1 2 3 4 5 6 
#
# 1 0.013834 0.008050 -0.002592 0.000000 -0.005280 0.000000
# 2 0.008050 0.088657 -0.005271 0.000000 -0.028234 0.000000
# 3 -0.002592 -0.005271 0.006679 0.000000 -0.000541 0.000000
# 4 0.000000 0.000000 0.000000 -0.990771 0.000000 0.358761
# 5 -0.005280 -0.028234 -0.000541 0.000000 0.030993 0.000000
# 6 0.000000 0.000000 0.000000 0.358761 0.000000 -0.055912
#
#
# Mechanical properties :
#
#
# Convention : Reuss Voigt Hill
#
# Bulk Modulus (GPa) = 9.12867 41.00680 25.06774
# Shear Modulus (GPa) = -5.74462 28.15287 11.20412
#
# Velocity S-wave (km/s) = -1.58808 3.51562 2.21784
# Velocity P-wave (km/s) = 0.80311 5.87215 4.19089
#
# Compressibility (1/GPa) = 0.10954495
#
# Stress axis : x y z
#
# Youngs Moduli (GPa) = 72.28449 11.27941 149.71631
#
# Poissons Ratio (x) = -0.09080 0.38803
# Poissons Ratio (y) = -0.58188 0.78914
# Poissons Ratio (z) = 0.18734 0.05945
#
# Static dielectric constant tensor:
#      x y z
#    x 1.924300 0.000000 0.003870 
#    y 0.000000 1.909070 0.000000 
#    z 0.003870 0.000000 1.882440 
# 
# From -- ./inp_files/49901.got.cif
#   From: 2010.05.17/outbox.cif.g08.bks.cpg/sg13_25_cif.got.tgz:49901.got - 2010.06.03 16:44:36.
