data_PCOD9229759
_publ_section_title
;
Structure prediction by ZEFSAII (Michael W. Deem and Ramdas Pophale) SiO2 
 PCOD9229759
Probable space group: P 2/C
;
_chemical_formula_sum "Si O2"
_cell_formula_units_Z 20
_cell_length_a 8.627842
_cell_length_b 12.293492
_cell_length_c 8.756352
_cell_angle_alpha 90.000000
_cell_angle_beta 96.371331
_cell_angle_gamma 90.000000
_cell_volume 923.017533
_symmetry_space_group_name_H-M "P 2/C"
_symmetry_group_IT_number 13
_symmetry_cell_setting 'monoclinic'
loop_
_space_group_symop_operation_xyz
x,y,z
-x,y,1/2-z
-x,-y,-z
x,-y,1/2+z
loop_
_atom_site_type_symbol
_atom_site_label
_atom_site_fract_x
_atom_site_fract_y
_atom_site_fract_z
Si Si1 0.853896 0.324975 0.157478
Si Si2 0.551730 0.613518 0.432097
Si Si3 0.634872 0.223909 0.385849
Si Si4 0.877444 0.908440 0.542425
Si Si5 0.321849 0.997929 0.695722
O O1 0.751565 0.293743 0.295500
O O2 0.925842 0.213201 0.093196
O O3 0.000000 0.389094 0.250000
O O4 0.730019 0.368738 0.016810
O O5 0.500000 0.608196 0.250000
O O6 0.500000 0.500000 0.500000
O O7 0.445105 0.709188 0.490885
O O8 0.500000 0.197712 0.250000
O O9 0.690034 0.102289 0.428623
O O10 0.781832 0.952523 0.677639
O O11 0.757674 0.899200 0.389531
O O12 0.000000 0.000000 0.500000
O O13 0.500000 0.022583 0.750000
#
# Coordination Sequence:
#
# PCOD9229759 Si02
#       5
#     4   4   4   4   4
#     4  10  21  40  63  90 127 169 209 256 315 376
#     4  11  23  43  69  95 122 160 208 266 325 382
#     4   8  17  36  59  85 123 167 211 260 314 370
#     4  11  21  35  57  87 128 172 210 260 322 375
#     4  10  20  34  54  83 122 170 219 262 307 373
#
# _framework density 21.668061999999999
#
# number of rings (size 3 to 8) (size 9 to 14) (size 15 to 20)
#    0.000    2.000    0.000    6.600    0.000    2.400 
#    0.000    7.000    0.000    0.000    0.000    0.000 
#    0.000    0.000    0.000    0.000    0.000    0.000 
#
# Total GULP energy -111402.866703 kJ/mol
# GULP energy per Si atom -5570.143335 kJ/mol
# Density = 2.161874 g / cm^3
# Si number density = 21.668062 Si / 1000 Ang^3
#
#
#
# Elastic Constant Matrix: (Units=GPa)
#
#
# Indices 1 2 3 4 5 6 
#
# 1 125.2853 32.1470 46.9902 0.0000 29.9396 0.0000
# 2 32.1470 57.2182 37.1410 0.0000 7.3839 0.0000
# 3 46.9902 37.1410 117.0004 0.0000 24.3280 0.0000
# 4 0.0000 0.0000 0.0000 28.3267 0.0000 -1.7080
# 5 29.9396 7.3839 24.3280 0.0000 39.6279 0.0000
# 6 0.0000 0.0000 0.0000 -1.7080 0.0000 28.5152
#
#
#
# Elastic Compliance Matrix: (Units=1/GPa)
#
#
# Indices 1 2 3 4 5 6 
#
# 1 0.011369 -0.004362 -0.001793 0.000000 -0.006676 0.000000
# 2 -0.004362 0.023688 -0.006345 0.000000 0.002777 0.000000
# 3 -0.001793 -0.006345 0.012328 0.000000 -0.005031 0.000000
# 4 0.000000 0.000000 0.000000 0.035430 0.000000 0.002122
# 5 -0.006676 0.002777 -0.005031 0.000000 0.032849 0.000000
# 6 0.000000 0.000000 0.000000 0.002122 0.000000 0.035196
#
#
# Mechanical properties :
#
#
# Convention : Reuss Voigt Hill
#
# Bulk Modulus (GPa) = 44.67544 59.11782 51.89663
# Shear Modulus (GPa) = 27.27439 31.50901 29.39170
#
# Velocity S-wave (km/s) = 3.55172 3.81749 3.68700
# Velocity P-wave (km/s) = 6.12229 6.83912 6.49061
#
# Compressibility (1/GPa) = 0.02238366
#
# Stress axis : x y z
#
# Youngs Moduli (GPa) = 87.95924 42.21555 81.11939
#
# Poissons Ratio (x) = 0.18414 0.14547
# Poissons Ratio (y) = 0.38367 0.51472
# Poissons Ratio (z) = 0.15774 0.26787
#
# Static dielectric constant tensor:
#      x y z
#    x 1.941640 0.000000 0.047680 
#    y 0.000000 1.829810 0.000000 
#    z 0.047680 0.000000 1.817110 
# 
# From -- ./inp_files/11766.got.cif
#   From: 2010.05.17/outbox.cif.g08.bks.cpg/sg13_6_cif.got.tgz:11766.got - 2010.06.03 16:44:36.
