data_PCOD9229088
_publ_section_title
;
Structure prediction by ZEFSAII (Michael W. Deem and Ramdas Pophale) SiO2 
 PCOD9229088
Probable space group: P 2/C
;
_chemical_formula_sum "Si O2"
_cell_formula_units_Z 24
_cell_length_a 23.024168
_cell_length_b 8.254518
_cell_length_c 5.487482
_cell_angle_alpha 90.000000
_cell_angle_beta 101.322458
_cell_angle_gamma 90.000000
_cell_volume 1022.617226
_symmetry_space_group_name_H-M "P 2/C"
_symmetry_group_IT_number 13
_symmetry_cell_setting 'monoclinic'
loop_
_space_group_symop_operation_xyz
x,y,z
-x,y,1/2-z
-x,-y,-z
x,-y,1/2+z
loop_
_atom_site_type_symbol
_atom_site_label
_atom_site_fract_x
_atom_site_fract_y
_atom_site_fract_z
Si Si1 0.933202 0.933696 0.949699
Si Si2 0.433581 0.546864 0.232970
Si Si3 0.884064 0.602292 0.926920
Si Si4 0.578875 0.084021 0.677850
Si Si5 0.717082 0.847079 0.255725
Si Si6 0.238888 0.793554 0.708300
O O1 0.934141 0.740412 0.960949
O O2 0.904686 0.995029 0.673243
O O3 0.000000 0.000000 0.000000
O O4 0.500000 0.476301 0.250000
O O5 0.404382 0.461714 0.442293
O O6 0.439773 0.731385 0.316302
O O7 0.886471 0.495727 0.682665
O O8 0.824214 0.709875 0.870923
O O9 0.560234 0.006701 0.407891
O O10 0.650592 0.089419 0.731785
O O11 0.724620 0.755408 0.007046
O O12 0.757973 0.009061 0.278679
O O13 0.734130 0.745885 0.508119
#
# Coordination Sequence:
#
# PCOD9229088 Si02
#       6
#     4   4   4   4   4   4
#     4  10  23  45  70  99 124 170 223 250 308 395
#     4  10  23  43  62  87 127 170 207 256 332 401
#     4  12  26  43  65 103 137 164 208 274 322 362
#     4  12  21  38  65  95 126 157 220 272 316 363
#     4  10  19  37  61  90 116 167 210 257 293 374
#     4  10  20  36  61  86 126 167 202 245 315 365
#
# _framework density 23.469194000000002
#
# number of rings (size 3 to 8) (size 9 to 14) (size 15 to 20)
#    0.000    1.333    3.333    3.000    4.667    0.667 
#    0.000   15.000    0.000    0.000    0.000    0.000 
#    0.000    0.000    0.000    0.000    0.000    0.000 
#
# Total GULP energy -134105.572589 kJ/mol
# GULP energy per Si atom -5587.732191 kJ/mol
# Density = 2.341578 g / cm^3
# Si number density = 23.469194 Si / 1000 Ang^3
#
#
#
# Elastic Constant Matrix: (Units=GPa)
#
#
# Indices 1 2 3 4 5 6 
#
# 1 67.1089 35.1203 40.4243 0.0000 -2.9342 0.0000
# 2 35.1203 110.4645 43.2851 0.0000 -11.4241 0.0000
# 3 40.4243 43.2851 196.6272 0.0000 -54.6618 0.0000
# 4 0.0000 0.0000 0.0000 42.2662 0.0000 -8.7073
# 5 -2.9342 -11.4241 -54.6618 0.0000 29.6101 0.0000
# 6 0.0000 0.0000 0.0000 -8.7073 0.0000 22.2137
#
#
#
# Elastic Compliance Matrix: (Units=1/GPa)
#
#
# Indices 1 2 3 4 5 6 
#
# 1 0.021105 -0.005411 -0.006464 0.000000 -0.011929 0.000000
# 2 -0.005411 0.011297 -0.000641 0.000000 0.002640 0.000000
# 3 -0.006464 -0.000641 0.012960 0.000000 0.023037 0.000000
# 4 0.000000 0.000000 0.000000 0.025738 0.000000 0.010089
# 5 -0.011929 0.002640 0.023037 0.000000 0.076136 0.000000
# 6 0.000000 0.000000 0.000000 0.010089 0.000000 0.048972
#
#
# Mechanical properties :
#
#
# Convention : Reuss Voigt Hill
#
# Bulk Modulus (GPa) = 49.18642 67.98443 58.58542
# Shear Modulus (GPa) = 21.92826 35.84272 28.88549
#
# Velocity S-wave (km/s) = 3.06002 3.91221 3.51206
# Velocity P-wave (km/s) = 5.78691 7.03119 6.43917
#
# Compressibility (1/GPa) = 0.02033082
#
# Stress axis : x y z
#
# Youngs Moduli (GPa) = 47.38209 88.51923 77.16033
#
# Poissons Ratio (x) = 0.47896 0.49878
# Poissons Ratio (y) = 0.25637 0.04944
# Poissons Ratio (z) = 0.30629 0.05671
#
# Static dielectric constant tensor:
#      x y z
#    x 1.901820 0.000000 -0.062720 
#    y 0.000000 1.840360 0.000000 
#    z -0.062720 0.000000 2.006250 
# 
# From -- ./inp_files/7359.got.cif
#   From: 2010.05.17/outbox.cif.g08.bks.cpg/sg13_4_cif.got.tgz:7359.got - 2010.06.03 16:44:36.
