data_PCOD9229652
_publ_section_title
;
Structure prediction by ZEFSAII (Michael W. Deem and Ramdas Pophale) SiO2 
 PCOD9229652
Probable space group: P 2/C
;
_chemical_formula_sum "Si O2"
_cell_formula_units_Z 20
_cell_length_a 7.279062
_cell_length_b 5.643383
_cell_length_c 23.946633
_cell_angle_alpha 90.000000
_cell_angle_beta 56.027059
_cell_angle_gamma 90.000000
_cell_volume 815.777813
_symmetry_space_group_name_H-M "P 2/C"
_symmetry_group_IT_number 13
_symmetry_cell_setting 'monoclinic'
loop_
_space_group_symop_operation_xyz
x,y,z
-x,y,1/2-z
-x,-y,-z
x,-y,1/2+z
loop_
_atom_site_type_symbol
_atom_site_label
_atom_site_fract_x
_atom_site_fract_y
_atom_site_fract_z
Si Si1 0.009434 0.395277 0.181847
Si Si2 0.485828 0.409223 0.379520
Si Si3 0.983417 0.892023 0.348717
Si Si4 0.792176 0.111443 0.003579
Si Si5 0.455596 0.087275 0.638985
O O1 0.279032 0.407402 0.126108
O O2 0.901210 0.639460 0.179470
O O3 0.000000 0.386947 0.250000
O O4 0.914257 0.153510 0.172409
O O5 0.469771 0.659350 0.351894
O O6 0.284764 0.361090 0.456405
O O7 0.493717 0.166247 0.342281
O O8 0.802849 0.899241 0.329459
O O9 0.857355 0.876617 0.428824
O O10 0.585155 0.947774 0.057730
O O11 0.000000 0.000000 0.000000
#
# Coordination Sequence:
#
# PCOD9229652 Si02
#       5
#     4   4   4   4   4
#     4  10  20  35  56  80 101 137 186 231 258 302
#     4   8  18  31  51  76 103 137 168 213 269 310
#     4  10  20  33  55  81 107 135 173 222 272 314
#     4  10  21  33  52  83 114 140 167 213 273 334
#     4   8  17  31  49  74 104 133 167 210 261 315
#
# _framework density 24.516476000000001
#
# number of rings (size 3 to 8) (size 9 to 14) (size 15 to 20)
#    1.200    1.600    0.000    1.200    2.800    2.400 
#    0.000    0.000    0.000    1.200    0.000    0.000 
#    0.000    0.000    0.000    0.000    0.000    0.000 
#
# Total GULP energy -111379.004352 kJ/mol
# GULP energy per Si atom -5568.950218 kJ/mol
# Density = 2.446068 g / cm^3
# Si number density = 24.516476 Si / 1000 Ang^3
#
#
#
# Elastic Constant Matrix: (Units=GPa)
#
#
# Indices 1 2 3 4 5 6 
#
# 1 54.6880 24.0467 21.2588 0.0000 27.0447 0.0000
# 2 24.0467 276.6086 8.3133 0.0000 -12.5963 0.0000
# 3 21.2588 8.3133 83.3366 0.0000 -21.8707 0.0000
# 4 0.0000 0.0000 0.0000 -6.0257 0.0000 -12.6436
# 5 27.0447 -12.5963 -21.8707 0.0000 -27.2525 0.0000
# 6 0.0000 0.0000 0.0000 -12.6436 0.0000 -14.2030
#
#
#
# Elastic Compliance Matrix: (Units=1/GPa)
#
#
# Indices 1 2 3 4 5 6 
#
# 1 0.012340 -0.000514 0.000148 0.000000 0.012364 0.000000
# 2 -0.000514 0.003605 -0.000660 0.000000 -0.001646 0.000000
# 3 0.000148 -0.000660 0.010033 0.000000 -0.007599 0.000000
# 4 0.000000 0.000000 0.000000 0.191217 0.000000 -0.170222
# 5 0.012364 -0.001646 -0.007599 0.000000 -0.017564 0.000000
# 6 0.000000 0.000000 0.000000 -0.170222 0.000000 0.081125
#
#
# Mechanical properties :
#
#
# Convention : Reuss Voigt Hill
#
# Bulk Modulus (GPa) = 41.79737 57.98564 49.89150
# Shear Modulus (GPa) = 17.19494 14.57138 15.88316
#
# Velocity S-wave (km/s) = 2.65120 2.44058 2.54806
# Velocity P-wave (km/s) = 5.14369 5.62538 5.38992
#
# Compressibility (1/GPa) = 0.02392495
#
# Stress axis : x y z
#
# Youngs Moduli (GPa) = 81.04011 277.40843 99.66903
#
# Poissons Ratio (x) = 0.14263 -0.01478
# Poissons Ratio (y) = 0.04167 0.06583
# Poissons Ratio (z) = -0.01202 0.18323
#
# Static dielectric constant tensor:
#      x y z
#    x 1.901440 0.000000 -0.072570 
#    y 0.000000 2.075970 0.000000 
#    z -0.072570 0.000000 1.942490 
# 
# From -- ./inp_files/74199.got.cif
#   From: 2010.05.17/outbox.cif.g08.bks.cpg/sg13_38_cif.got.tgz:74199.got - 2010.06.03 16:44:36.
