data_PCOD9229158
_publ_section_title
;
Structure prediction by ZEFSAII (Michael W. Deem and Ramdas Pophale) SiO2 
 PCOD9229158
Probable space group: P 2/C
;
_chemical_formula_sum "Si O2"
_cell_formula_units_Z 18
_cell_length_a 7.260366
_cell_length_b 10.062110
_cell_length_c 9.084335
_cell_angle_alpha 90.000000
_cell_angle_beta 89.141942
_cell_angle_gamma 90.000000
_cell_volume 663.578052
_symmetry_space_group_name_H-M "P 2/C"
_symmetry_group_IT_number 13
_symmetry_cell_setting 'monoclinic'
loop_
_space_group_symop_operation_xyz
x,y,z
-x,y,1/2-z
-x,-y,-z
x,-y,1/2+z
loop_
_atom_site_type_symbol
_atom_site_label
_atom_site_fract_x
_atom_site_fract_y
_atom_site_fract_z
Si Si1 0.410830 0.825975 0.987198
Si Si2 0.500000 0.033028 0.750000
Si Si3 0.000000 0.954059 0.250000
Si Si4 0.150963 0.189943 0.037881
Si Si5 0.640587 0.442203 0.117500
Si Si6 0.000000 0.579135 0.750000
O O1 0.628309 0.794645 0.980124
O O2 0.296261 0.699819 0.945515
O O3 0.392306 0.941313 0.867076
O O4 0.375095 0.874395 0.150882
O O5 0.074040 0.855887 0.379960
O O6 0.892831 0.065895 0.353190
O O7 0.085500 0.323716 0.123111
O O8 0.500000 0.415235 0.250000
O O9 0.171363 0.502812 0.318840
O O10 0.500000 0.500000 0.000000
#
# Coordination Sequence:
#
# PCOD9229158 Si02
#       6
#     4   2   2   4   4   2
#     4  11  21  42  66 105 143 190 237 294 359 428
#     4  10  22  34  70 102 146 190 234 288 358 430
#     4   9  20  32  59 108 146 198 237 285 354 438
#     4  10  19  37  64  98 150 189 238 294 356 430
#     4  12  28  52  76 105 145 190 248 307 365 436
#     4  11  24  48  75 102 140 186 237 313 368 422
#
# _framework density 27.125672999999999
#
# number of rings (size 3 to 8) (size 9 to 14) (size 15 to 20)
#    0.000    1.333    3.333    1.333    1.556   11.556 
#    0.000    0.000    0.000    0.000    0.000    0.000 
#    0.000    0.000    0.000    0.000    0.000    0.000 
#
# Total GULP energy -100711.728256 kJ/mol
# GULP energy per Si atom -5595.096014 kJ/mol
# Density = 2.706393 g / cm^3
# Si number density = 27.125673 Si / 1000 Ang^3
#
#
#
# Elastic Constant Matrix: (Units=GPa)
#
#
# Indices 1 2 3 4 5 6 
#
# 1 157.6893 13.4488 44.5791 0.0000 42.8463 0.0000
# 2 13.4488 32.9180 36.9703 0.0000 6.6153 0.0000
# 3 44.5791 36.9703 215.5604 0.0000 39.5248 0.0000
# 4 0.0000 0.0000 0.0000 32.7556 0.0000 12.6132
# 5 42.8463 6.6153 39.5248 0.0000 42.7792 0.0000
# 6 0.0000 0.0000 0.0000 12.6132 0.0000 31.5882
#
#
#
# Elastic Compliance Matrix: (Units=1/GPa)
#
#
# Indices 1 2 3 4 5 6 
#
# 1 0.008826 -0.001980 0.000095 0.000000 -0.008622 0.000000
# 2 -0.001980 0.038071 -0.006506 0.000000 0.002107 0.000000
# 3 0.000095 -0.006506 0.006704 0.000000 -0.005283 0.000000
# 4 0.000000 0.000000 0.000000 0.036076 0.000000 -0.014405
# 5 -0.008622 0.002107 -0.005283 0.000000 0.036567 0.000000
# 6 0.000000 0.000000 0.000000 -0.014405 0.000000 0.037409
#
#
# Mechanical properties :
#
#
# Convention : Reuss Voigt Hill
#
# Bulk Modulus (GPa) = 27.16011 66.24044 46.70027
# Shear Modulus (GPa) = 25.94578 42.16924 34.05751
#
# Velocity S-wave (km/s) = 3.09609 3.94710 3.54721
# Velocity P-wave (km/s) = 4.77656 6.72649 5.83357
#
# Compressibility (1/GPa) = 0.03681870
#
# Stress axis : x y z
#
# Youngs Moduli (GPa) = 113.29883 26.26643 149.16448
#
# Poissons Ratio (x) = 0.05201 -0.01420
# Poissons Ratio (y) = 0.22436 0.97053
# Poissons Ratio (z) = -0.01079 0.17090
#
# Static dielectric constant tensor:
#      x y z
#    x 2.500710 0.000000 -0.030920 
#    y 0.000000 2.122090 0.000000 
#    z -0.030920 0.000000 2.148080 
# 
# From -- ./inp_files/11723.got.cif
#   From: 2010.05.17/outbox.cif.g08.bks.cpg/sg13_6_cif.got.tgz:11723.got - 2010.06.03 16:44:36.
