data_PCOD9229226
_publ_section_title
;
Structure prediction by ZEFSAII (Michael W. Deem and Ramdas Pophale) SiO2 
 PCOD9229226
Probable space group: P 2/C
;
_chemical_formula_sum "Si O2"
_cell_formula_units_Z 32
_cell_length_a 15.965917
_cell_length_b 13.981180
_cell_length_c 22.002717
_cell_angle_alpha 90.000000
_cell_angle_beta 163.532361
_cell_angle_gamma 90.000000
_cell_volume 1392.280882
_symmetry_space_group_name_H-M "P 2/C"
_symmetry_group_IT_number 13
_symmetry_cell_setting 'monoclinic'
loop_
_space_group_symop_operation_xyz
x,y,z
-x,y,1/2-z
-x,-y,-z
x,-y,1/2+z
loop_
_atom_site_type_symbol
_atom_site_label
_atom_site_fract_x
_atom_site_fract_y
_atom_site_fract_z
Si Si1 0.992382 0.611328 0.810519
Si Si2 0.487688 0.771944 0.887779
Si Si3 0.231385 0.822839 0.833119
Si Si4 0.665374 0.080549 0.964267
Si Si5 0.220748 0.874859 0.509924
Si Si6 0.656190 0.624119 0.264820
Si Si7 0.895201 0.173783 0.901019
Si Si8 0.735747 0.565763 0.746647
O O1 0.000000 0.567165 0.750000
O O2 0.819160 0.712004 0.685266
O O3 0.811124 0.547003 0.729733
O O4 0.329512 0.631258 0.065416
O O5 0.446812 0.824235 0.924737
O O6 0.748450 0.797257 0.022365
O O7 0.467938 0.658357 0.885140
O O8 0.194289 0.806692 0.646566
O O9 0.895759 0.857055 0.585531
O O10 0.304914 0.886097 0.944036
O O11 0.321103 0.101689 0.713838
O O12 0.754516 0.973631 0.009591
O O13 0.500000 0.869171 0.750000
O O14 0.962037 0.861624 0.379080
O O15 0.728516 0.724209 0.282709
O O16 0.643114 0.530440 0.214081
O O17 0.944389 0.602020 0.505579
#
# Coordination Sequence:
#
# PCOD9229226 Si02
#       8
#     4   4   4   4   4   4   4   4
#     4  11  19  36  58  85 118 152 195 240 297 349
#     4   9  21  39  60  86 122 154 194 245 298 352
#     4  10  21  39  57  85 115 149 194 251 295 335
#     4  11  22  38  58  83 113 154 199 249 289 351
#     4  10  24  39  57  86 119 158 198 243 305 358
#     4  10  19  38  61  90 119 152 198 243 295 350
#     4  10  21  39  62  86 117 158 198 245 296 355
#     4   9  21  35  61  92 118 154 196 242 294 354
#
# _framework density 22.983868999999999
#
# number of rings (size 3 to 8) (size 9 to 14) (size 15 to 20)
#    0.000    2.000    2.500    0.375    3.500    3.000 
#    2.250    3.750    0.000    0.000    0.000    0.000 
#    0.000    0.000    0.000    0.000    0.000    0.000 
#
# Total GULP energy -178586.904730 kJ/mol
# GULP energy per Si atom -5580.840773 kJ/mol
# Density = 2.293156 g / cm^3
# Si number density = 22.983869 Si / 1000 Ang^3
#
#
#
# Elastic Constant Matrix: (Units=GPa)
#
#
# Indices 1 2 3 4 5 6 
#
# 1 129.3471 49.3402 -3.3902 0.0000 3.8113 0.0000
# 2 49.3402 84.8212 -12.2334 0.0000 3.7444 0.0000
# 3 -3.3902 -12.2334 50.6417 0.0000 1.1365 0.0000
# 4 0.0000 0.0000 0.0000 6.7686 0.0000 27.5600
# 5 3.8113 3.7444 1.1365 0.0000 24.7210 0.0000
# 6 0.0000 0.0000 0.0000 27.5600 0.0000 -79.1228
#
#
#
# Elastic Compliance Matrix: (Units=1/GPa)
#
#
# Indices 1 2 3 4 5 6 
#
# 1 0.009973 -0.005881 -0.000739 0.000000 -0.000613 0.000000
# 2 -0.005881 0.015781 0.003455 0.000000 -0.001643 0.000000
# 3 -0.000739 0.003455 0.020562 0.000000 -0.001355 0.000000
# 4 0.000000 0.000000 0.000000 0.061094 0.000000 0.021280
# 5 -0.000613 -0.001643 -0.001355 0.000000 0.040857 0.000000
# 6 0.000000 0.000000 0.000000 0.021280 0.000000 -0.005226
#
#
# Mechanical properties :
#
#
# Convention : Reuss Voigt Hill
#
# Bulk Modulus (GPa) = 25.00801 36.91589 30.96195
# Shear Modulus (GPa) = 30.73149 5.87958 18.30554
#
# Velocity S-wave (km/s) = 3.66059 1.60115 2.82521
# Velocity P-wave (km/s) = 5.36385 4.41755 4.91353
#
# Compressibility (1/GPa) = 0.03998719
#
# Stress axis : x y z
#
# Youngs Moduli (GPa) = 100.26953 63.36624 48.63290
#
# Poissons Ratio (x) = 0.37265 0.03595
# Poissons Ratio (y) = 0.58967 -0.16805
# Poissons Ratio (z) = 0.07412 -0.21896
#
# Static dielectric constant tensor:
#      x y z
#    x 1.872690 0.000000 -0.041590 
#    y 0.000000 1.812880 0.000000 
#    z -0.041590 0.000000 1.998790 
# 
# From -- ./inp_files/80400.got.cif
#   From: 2010.05.17/outbox.cif.g08.bks.cpg/sg13_41_cif.got.tgz:80400.got - 2010.06.03 16:44:36.
