data_PCOD9229754
_publ_section_title
;
Structure prediction by ZEFSAII (Michael W. Deem and Ramdas Pophale) SiO2 
 PCOD9229754
Probable space group: P 2/C
;
_chemical_formula_sum "Si O2"
_cell_formula_units_Z 28
_cell_length_a 8.849193
_cell_length_b 35.211273
_cell_length_c 5.106419
_cell_angle_alpha 90.000000
_cell_angle_beta 120.083587
_cell_angle_gamma 90.000000
_cell_volume 1376.784790
_symmetry_space_group_name_H-M "P 2/C"
_symmetry_group_IT_number 13
_symmetry_cell_setting 'monoclinic'
loop_
_space_group_symop_operation_xyz
x,y,z
-x,y,1/2-z
-x,-y,-z
x,-y,1/2+z
loop_
_atom_site_type_symbol
_atom_site_label
_atom_site_fract_x
_atom_site_fract_y
_atom_site_fract_z
Si Si1 0.207833 0.520026 0.397830
Si Si2 0.206183 0.024865 0.923717
Si Si3 0.807022 0.198737 0.044108
Si Si4 0.624895 0.319668 0.608798
Si Si5 0.710728 0.756044 0.957239
Si Si6 0.500000 0.086410 0.250000
Si Si7 0.623762 0.596259 0.110765
Si Si8 0.500000 0.139549 0.750000
O O1 0.279453 0.509720 0.745906
O O2 0.245428 0.561893 0.324903
O O3 0.000000 0.515617 0.250000
O O4 0.000000 0.034710 0.750000
O O5 0.240644 0.008656 0.663830
O O6 0.331114 0.059167 0.112143
O O7 0.782425 0.232825 0.234781
O O8 0.000000 0.183120 0.250000
O O9 0.779771 0.214232 0.728486
O O10 0.660929 0.167132 0.957644
O O11 0.500000 0.309902 0.750000
O O12 0.746374 0.285098 0.620099
O O13 0.704089 0.361511 0.722633
O O14 0.500000 0.324239 0.250000
O O15 0.500000 0.758758 0.750000
O O16 0.526245 0.112911 0.523659
O O17 0.500000 0.589017 0.250000
O O18 0.500000 0.596832 0.750000
#
# Coordination Sequence:
#
# PCOD9229754 Si02
#       8
#     4   4   4   4   4   2   4   2
#     4  10  21  36  52  72 103 147 188 221 276 340
#     4  10  21  39  64  95 129 164 208 262 317 369
#     4  12  25  42  63  90 123 160 211 265 309 368
#     4   9  18  32  56  88 112 145 181 230 300 360
#     4  11  19  39  66  86 115 156 201 245 308 377
#     4  12  24  39  66  90 126 168 218 254 312 379
#     4  10  20  34  54  82 112 136 181 231 281 342
#     4  12  26  43  60  90 126 172 210 262 316 373
#
# _framework density 20.337236999999998
#
# number of rings (size 3 to 8) (size 9 to 14) (size 15 to 20)
#    0.000    1.429    1.429    5.143    0.000    2.857 
#    0.000    1.429    0.000    1.714    0.000    0.000 
#    0.000    0.000    0.000    0.000    0.000    0.000 
#
# Total GULP energy -156299.236729 kJ/mol
# GULP energy per Si atom -5582.115597 kJ/mol
# Density = 2.029095 g / cm^3
# Si number density = 20.337237 Si / 1000 Ang^3
#
#
#
# Elastic Constant Matrix: (Units=GPa)
#
#
# Indices 1 2 3 4 5 6 
#
# 1 63.0688 35.6598 37.5760 0.0000 -6.8031 0.0000
# 2 35.6598 105.7020 18.0190 0.0000 4.3241 0.0000
# 3 37.5760 18.0190 82.4805 0.0000 -23.7710 0.0000
# 4 0.0000 0.0000 0.0000 14.7119 0.0000 -30.4990
# 5 -6.8031 4.3241 -23.7710 0.0000 37.1146 0.0000
# 6 0.0000 0.0000 0.0000 -30.4990 0.0000 -30.3980
#
#
#
# Elastic Compliance Matrix: (Units=1/GPa)
#
#
# Indices 1 2 3 4 5 6 
#
# 1 0.025992 -0.006891 -0.010708 0.000000 -0.001291 0.000000
# 2 -0.006891 0.011951 -0.000291 0.000000 -0.002842 0.000000
# 3 -0.010708 -0.000291 0.020247 0.000000 0.011039 0.000000
# 4 0.000000 0.000000 0.000000 0.022069 0.000000 -0.022142
# 5 -0.001291 -0.002842 0.011039 0.000000 0.034108 0.000000
# 6 0.000000 0.000000 0.000000 -0.022142 0.000000 -0.010681
#
#
# Mechanical properties :
#
#
# Convention : Reuss Voigt Hill
#
# Bulk Modulus (GPa) = 44.61915 48.19563 46.40739
# Shear Modulus (GPa) = 34.02835 14.95214 24.49024
#
# Velocity S-wave (km/s) = 4.09492 2.71442 3.47393
# Velocity P-wave (km/s) = 6.65921 5.79429 6.24175
#
# Compressibility (1/GPa) = 0.02241190
#
# Stress axis : x y z
#
# Youngs Moduli (GPa) = 38.47292 83.67531 49.38913
#
# Poissons Ratio (x) = 0.57657 0.52887
# Poissons Ratio (y) = 0.26510 0.01435
# Poissons Ratio (z) = 0.41198 0.02432
#
# Static dielectric constant tensor:
#      x y z
#    x 1.727020 0.000000 -0.003090 
#    y 0.000000 1.761940 0.000000 
#    z -0.003090 0.000000 1.682210 
# 
# From -- ./inp_files/2761.got.cif
#   From: 2010.05.17/outbox.cif.g08.bks.cpg/sg13_2_cif.got.tgz:2761.got - 2010.06.03 16:44:36.
