data_PCOD9229848
_publ_section_title
;
Structure prediction by ZEFSAII (Michael W. Deem and Ramdas Pophale) SiO2 
 PCOD9229848
Probable space group: P 2/C
;
_chemical_formula_sum "Si O2"
_cell_formula_units_Z 18
_cell_length_a 7.978304
_cell_length_b 12.238913
_cell_length_c 8.616592
_cell_angle_alpha 90.000000
_cell_angle_beta 90.546000
_cell_angle_gamma 90.000000
_cell_volume 841.335545
_symmetry_space_group_name_H-M "P 2/C"
_symmetry_group_IT_number 13
_symmetry_cell_setting 'monoclinic'
loop_
_space_group_symop_operation_xyz
x,y,z
-x,y,1/2-z
-x,-y,-z
x,-y,1/2+z
loop_
_atom_site_type_symbol
_atom_site_label
_atom_site_fract_x
_atom_site_fract_y
_atom_site_fract_z
Si Si1 0.327016 0.780663 0.848229
Si Si2 0.199773 0.774927 0.536869
Si Si3 0.501568 0.378270 0.565861
Si Si4 0.000000 0.839556 0.250000
Si Si5 0.195056 0.022181 0.543729
O O1 0.500000 0.781728 0.750000
O O2 0.184290 0.752599 0.720526
O O3 0.354072 0.691031 0.982217
O O4 0.285180 0.895165 0.929186
O O5 0.331918 0.688009 0.477317
O O6 0.050728 0.776748 0.408331
O O7 0.268559 0.900956 0.545569
O O8 0.500000 0.381090 0.750000
O O9 0.500000 0.500000 0.500000
O O10 0.162521 0.913249 0.205009
O O11 0.000000 0.000000 0.500000
#
# Coordination Sequence:
#
# PCOD9229848 Si02
#       5
#     4   4   4   2   4
#     4  10  22  37  59  90 125 163 205 253 304 361
#     4  10  20  35  57  88 121 157 202 243 300 360
#     4  11  23  41  63  85 116 157 205 259 309 361
#     4  10  20  34  58  90 130 168 200 242 298 372
#     4  10  20  36  58  89 129 168 203 245 302 368
#
# _framework density 21.394555
#
# number of rings (size 3 to 8) (size 9 to 14) (size 15 to 20)
#    0.000    1.778    0.000    6.000    0.000    7.111 
#    0.000    0.000    0.000   21.333    0.000    1.556 
#    0.000    0.000    0.000    0.000    0.000    0.000 
#
# Total GULP energy -100330.056335 kJ/mol
# GULP energy per Si atom -5573.892019 kJ/mol
# Density = 2.134586 g / cm^3
# Si number density = 21.394555 Si / 1000 Ang^3
#
#
#
# Elastic Constant Matrix: (Units=GPa)
#
#
# Indices 1 2 3 4 5 6 
#
# 1 69.5881 51.8428 46.2732 0.0000 12.5086 0.0000
# 2 51.8428 156.5398 63.6823 0.0000 8.9790 0.0000
# 3 46.2732 63.6823 171.6262 0.0000 31.5889 0.0000
# 4 0.0000 0.0000 0.0000 30.8965 0.0000 0.8992
# 5 12.5086 8.9790 31.5889 0.0000 51.2618 0.0000
# 6 0.0000 0.0000 0.0000 0.8992 0.0000 16.6545
#
#
#
# Elastic Compliance Matrix: (Units=1/GPa)
#
#
# Indices 1 2 3 4 5 6 
#
# 1 0.021018 -0.005528 -0.003214 0.000000 -0.002180 0.000000
# 2 -0.005528 0.008987 -0.002033 0.000000 0.001028 0.000000
# 3 -0.003214 -0.002033 0.008164 0.000000 -0.003890 0.000000
# 4 0.000000 0.000000 0.000000 0.032417 0.000000 -0.001750
# 5 -0.002180 0.001028 -0.003890 0.000000 0.022257 0.000000
# 6 0.000000 0.000000 0.000000 -0.001750 0.000000 0.060138
#
#
# Mechanical properties :
#
#
# Convention : Reuss Voigt Hill
#
# Bulk Modulus (GPa) = 60.17890 80.15009 70.16449
# Shear Modulus (GPa) = 27.76672 35.49295 31.62984
#
# Velocity S-wave (km/s) = 3.60646 4.07747 3.84918
# Velocity P-wave (km/s) = 6.74769 7.72734 7.25407
#
# Compressibility (1/GPa) = 0.01661712
#
# Stress axis : x y z
#
# Youngs Moduli (GPa) = 47.57860 111.26946 122.49173
#
# Poissons Ratio (x) = 0.61510 0.39374
# Poissons Ratio (y) = 0.26301 0.24908
# Poissons Ratio (z) = 0.15294 0.22626
#
# Static dielectric constant tensor:
#      x y z
#    x 1.855220 0.000000 0.037290 
#    y 0.000000 1.771360 0.000000 
#    z 0.037290 0.000000 1.892760 
# 
# From -- ./inp_files/11236.got.cif
#   From: 2010.05.17/outbox.cif.g08.bks.cpg/sg13_6_cif.got.tgz:11236.got - 2010.06.03 16:44:36.
