data_PCOD9229434
_publ_section_title
;
Structure prediction by ZEFSAII (Michael W. Deem and Ramdas Pophale) SiO2 
 PCOD9229434
Probable space group: P 2/C
;
_chemical_formula_sum "Si O2"
_cell_formula_units_Z 20
_cell_length_a 7.504856
_cell_length_b 12.462953
_cell_length_c 12.432773
_cell_angle_alpha 90.000000
_cell_angle_beta 44.173407
_cell_angle_gamma 90.000000
_cell_volume 810.325654
_symmetry_space_group_name_H-M "P 2/C"
_symmetry_group_IT_number 13
_symmetry_cell_setting 'monoclinic'
loop_
_space_group_symop_operation_xyz
x,y,z
-x,y,1/2-z
-x,-y,-z
x,-y,1/2+z
loop_
_atom_site_type_symbol
_atom_site_label
_atom_site_fract_x
_atom_site_fract_y
_atom_site_fract_z
Si Si1 0.742316 0.874654 0.075947
Si Si2 0.165004 0.910922 0.072880
Si Si3 0.904585 0.341480 0.456963
Si Si4 0.569321 0.255869 0.345119
Si Si5 0.149481 0.417247 0.576980
O O1 0.500000 0.911477 0.250000
O O2 0.990345 0.874245 0.046887
O O3 0.700113 0.753629 0.054197
O O4 0.791787 0.963107 0.964363
O O5 0.000000 0.890154 0.250000
O O6 0.431638 0.846665 0.957557
O O7 0.134927 0.285856 0.290871
O O8 0.999769 0.373893 0.536133
O O9 0.825075 0.454875 0.443004
O O10 0.500000 0.243334 0.250000
O O11 0.419413 0.358480 0.455125
O O12 0.000000 0.389582 0.750000
#
# Coordination Sequence:
#
# PCOD9229434 Si02
#       5
#     4   4   4   4   4
#     4  11  25  43  66  95 132 168 214 276 315 379
#     4  11  24  44  68  95 126 174 221 256 329 389
#     4  10  23  41  63  93 133 167 213 269 322 376
#     4  10  19  40  67  86 125 175 208 260 322 381
#     4  10  21  39  62  94 124 171 216 261 318 384
#
# _framework density 24.681435
#
# number of rings (size 3 to 8) (size 9 to 14) (size 15 to 20)
#    0.000    1.600    4.000    1.200    2.800    6.400 
#    3.600    0.000    0.000    0.000    0.000    0.000 
#    0.000    0.000    0.000    0.000    0.000    0.000 
#
# Total GULP energy -112027.790784 kJ/mol
# GULP energy per Si atom -5601.389539 kJ/mol
# Density = 2.462526 g / cm^3
# Si number density = 24.681435 Si / 1000 Ang^3
#
#
#
# Elastic Constant Matrix: (Units=GPa)
#
#
# Indices 1 2 3 4 5 6 
#
# 1 95.0191 25.5438 24.2006 0.0000 21.8426 0.0000
# 2 25.5438 168.7564 42.5169 0.0000 16.9503 0.0000
# 3 24.2006 42.5169 151.9663 0.0000 26.2772 0.0000
# 4 0.0000 0.0000 0.0000 24.2346 0.0000 3.1239
# 5 21.8426 16.9503 26.2772 0.0000 11.2858 0.0000
# 6 0.0000 0.0000 0.0000 3.1239 0.0000 7.7818
#
#
#
# Elastic Compliance Matrix: (Units=1/GPa)
#
#
# Indices 1 2 3 4 5 6 
#
# 1 0.022404 0.000996 0.006545 0.000000 -0.060095 0.000000
# 2 0.000996 0.007028 0.000056 0.000000 -0.012614 0.000000
# 3 0.006545 0.000056 0.012935 0.000000 -0.042868 0.000000
# 4 0.000000 0.000000 0.000000 0.043515 0.000000 -0.017469
# 5 -0.060095 -0.012614 -0.042868 0.000000 0.323671 0.000000
# 6 0.000000 0.000000 0.000000 -0.017469 0.000000 0.135517
#
#
# Mechanical properties :
#
#
# Convention : Reuss Voigt Hill
#
# Bulk Modulus (GPa) = 17.37292 66.69605 42.03448
# Shear Modulus (GPa) = 9.10643 30.22582 19.66612
#
# Velocity S-wave (km/s) = 1.92291 3.50328 2.82582
# Velocity P-wave (km/s) = 3.46183 6.59131 5.26449
#
# Compressibility (1/GPa) = 0.05756086
#
# Stress axis : x y z
#
# Youngs Moduli (GPa) = 44.63510 142.29375 77.30970
#
# Poissons Ratio (x) = -0.14173 -0.50598
# Poissons Ratio (y) = -0.04446 -0.00435
# Poissons Ratio (z) = -0.29213 -0.00801
#
# Static dielectric constant tensor:
#      x y z
#    x 2.073030 0.000000 -0.088670 
#    y 0.000000 1.908730 0.000000 
#    z -0.088670 0.000000 2.239560 
# 
# From -- ./inp_files/51048.got.cif
#   From: 2010.05.17/outbox.cif.g08.bks.cpg/sg13_26_cif.got.tgz:51048.got - 2010.06.03 16:44:36.
