data_PCOD9229025
_publ_section_title
;
Structure prediction by ZEFSAII (Michael W. Deem and Ramdas Pophale) SiO2 
 PCOD9229025
Probable space group: P 2/C
;
_chemical_formula_sum "Si O2"
_cell_formula_units_Z 26
_cell_length_a 9.707896
_cell_length_b 13.673741
_cell_length_c 15.653395
_cell_angle_alpha 90.000000
_cell_angle_beta 35.990414
_cell_angle_gamma 90.000000
_cell_volume 1221.067488
_symmetry_space_group_name_H-M "P 2/C"
_symmetry_group_IT_number 13
_symmetry_cell_setting 'monoclinic'
loop_
_space_group_symop_operation_xyz
x,y,z
-x,y,1/2-z
-x,-y,-z
x,-y,1/2+z
loop_
_atom_site_type_symbol
_atom_site_label
_atom_site_fract_x
_atom_site_fract_y
_atom_site_fract_z
Si Si1 0.720945 0.254542 0.450121
Si Si2 0.500000 0.378971 0.250000
Si Si3 0.000000 0.717891 0.250000
Si Si4 0.000000 0.921466 0.750000
Si Si5 0.912617 0.237941 0.092750
Si Si6 0.721814 0.185069 0.737691
Si Si7 0.545042 0.596087 0.532690
Si Si8 0.826280 0.978362 0.664440
O O1 0.779362 0.149596 0.378748
O O2 0.511552 0.244308 0.623346
O O3 0.637585 0.326781 0.417714
O O4 0.952983 0.275222 0.389749
O O5 0.731826 0.313241 0.144019
O O6 0.482323 0.428011 0.352711
O O7 0.114823 0.787180 0.263766
O O8 0.796724 0.647887 0.390474
O O9 0.035273 0.982759 0.816380
O O10 0.770189 0.136566 0.182574
O O11 0.120648 0.214631 0.921930
O O12 0.654472 0.070552 0.758687
O O13 0.500000 0.500000 0.500000
O O14 0.000000 0.000000 0.500000
#
# Coordination Sequence:
#
# PCOD9229025 Si02
#       8
#     4   2   2   2   4   4   4   4
#     4  10  22  40  68  86 130 170 214 273 327 389
#     4  12  24  46  72  94 136 176 210 274 334 392
#     4  10  21  41  66  94 140 168 212 279 329 388
#     4  10  19  37  56  90 124 174 218 253 329 376
#     4  10  21  41  63  96 129 175 219 257 324 384
#     4  10  19  38  61  95 132 177 216 266 323 374
#     4  11  25  46  69 100 126 167 220 271 337 395
#     4   9  19  34  56  91 128 167 220 266 300 381
#
# _framework density 21.292843999999999
#
# number of rings (size 3 to 8) (size 9 to 14) (size 15 to 20)
#    0.000    1.846    1.538    2.769    0.000    2.462 
#   19.385    1.538    0.000    0.000    0.000    0.000 
#    0.000    0.000    0.000    0.000    0.000    0.000 
#
# Total GULP energy -144928.158718 kJ/mol
# GULP energy per Si atom -5574.159951 kJ/mol
# Density = 2.124438 g / cm^3
# Si number density = 21.292844 Si / 1000 Ang^3
#
#
#
# Elastic Constant Matrix: (Units=GPa)
#
#
# Indices 1 2 3 4 5 6 
#
# 1 147.8182 38.6652 37.1676 0.0000 18.7287 0.0000
# 2 38.6652 62.8826 29.2734 0.0000 -0.4288 0.0000
# 3 37.1676 29.2734 105.5498 0.0000 14.3694 0.0000
# 4 0.0000 0.0000 0.0000 13.6028 0.0000 4.8565
# 5 18.7287 -0.4288 14.3694 0.0000 42.8962 0.0000
# 6 0.0000 0.0000 0.0000 4.8565 0.0000 42.9330
#
#
#
# Elastic Compliance Matrix: (Units=1/GPa)
#
#
# Indices 1 2 3 4 5 6 
#
# 1 0.008789 -0.004830 -0.001285 0.000000 -0.003455 0.000000
# 2 -0.004830 0.021074 -0.004673 0.000000 0.003885 0.000000
# 3 -0.001285 -0.004673 0.011686 0.000000 -0.003400 0.000000
# 4 0.000000 0.000000 0.000000 0.076608 0.000000 -0.008666
# 5 -0.003455 0.003885 -0.003400 0.000000 0.025998 0.000000
# 6 0.000000 0.000000 0.000000 -0.008666 0.000000 0.024272
#
#
# Mechanical properties :
#
#
# Convention : Reuss Voigt Hill
#
# Bulk Modulus (GPa) = 50.06600 58.49590 54.28095
# Shear Modulus (GPa) = 25.42445 33.96269 29.69357
#
# Velocity S-wave (km/s) = 3.45923 3.99811 3.73840
# Velocity P-wave (km/s) = 6.28643 6.98892 6.64696
#
# Compressibility (1/GPa) = 0.01997364
#
# Stress axis : x y z
#
# Youngs Moduli (GPa) = 113.77479 47.45147 85.57521
#
# Poissons Ratio (x) = 0.22917 0.10998
# Poissons Ratio (y) = 0.54949 0.39989
# Poissons Ratio (z) = 0.14622 0.22174
#
# Static dielectric constant tensor:
#      x y z
#    x 1.717340 0.000000 0.071790 
#    y 0.000000 1.797970 0.000000 
#    z 0.071790 0.000000 1.742830 
# 
# From -- ./inp_files/47923.got.cif
#   From: 2010.05.17/outbox.cif.g08.bks.cpg/sg13_24_cif.got.tgz:47923.got - 2010.06.03 16:44:36.
