data_PCOD9229157
_publ_section_title
;
Structure prediction by ZEFSAII (Michael W. Deem and Ramdas Pophale) SiO2 
 PCOD9229157
Probable space group: P 2/C
;
_chemical_formula_sum "Si O2"
_cell_formula_units_Z 28
_cell_length_a 27.009814
_cell_length_b 7.868588
_cell_length_c 8.409341
_cell_angle_alpha 90.000000
_cell_angle_beta 143.431205
_cell_angle_gamma 90.000000
_cell_volume 1064.809177
_symmetry_space_group_name_H-M "P 2/C"
_symmetry_group_IT_number 13
_symmetry_cell_setting 'monoclinic'
loop_
_space_group_symop_operation_xyz
x,y,z
-x,y,1/2-z
-x,-y,-z
x,-y,1/2+z
loop_
_atom_site_type_symbol
_atom_site_label
_atom_site_fract_x
_atom_site_fract_y
_atom_site_fract_z
Si Si1 0.827012 0.982387 0.529662
Si Si2 0.594779 0.204808 0.005022
Si Si3 0.353557 0.837128 0.487121
Si Si4 0.086283 0.527511 0.810955
Si Si5 0.870883 0.783960 0.901980
Si Si6 0.311697 0.642371 0.063356
Si Si7 0.804114 0.667156 0.158102
O O1 0.887605 0.068639 0.564011
O O2 0.795602 0.144464 0.558807
O O3 0.744027 0.889802 0.254466
O O4 0.885004 0.849597 0.767317
O O5 0.500000 0.263241 0.750000
O O6 0.384225 0.200006 0.248376
O O7 0.643094 0.314034 0.988918
O O8 0.603107 0.009878 0.964813
O O9 0.357872 0.701691 0.348017
O O10 0.084334 0.380581 0.936888
O O11 0.160465 0.455467 0.890075
O O12 0.000000 0.500000 0.500000
O O13 0.124525 0.672334 0.023789
O O14 0.770983 0.758541 0.652675
O O15 0.273124 0.450836 0.977933
#
# Coordination Sequence:
#
# PCOD9229157 Si02
#       7
#     4   4   4   4   4   4   4
#     4  10  19  37  64  98 132 170 232 301 348 410
#     4  12  23  37  67 108 143 184 243 305 369 439
#     4  11  21  37  67 100 139 184 239 307 364 429
#     4  10  21  41  65  97 140 188 228 286 362 437
#     4   9  19  35  62  97 129 170 233 286 349 409
#     4  10  22  41  61 101 142 182 240 295 363 428
#     4  10  23  41  66 102 138 182 240 289 355 445
#
# _framework density 26.295788999999999
#
# number of rings (size 3 to 8) (size 9 to 14) (size 15 to 20)
#    0.000    1.714    2.857    1.714    0.000    4.571 
#    0.000    0.714    0.000    9.429    0.000    5.000 
#    0.000    0.000    0.000    0.143    0.000    0.000 
#
# Total GULP energy -156165.430096 kJ/mol
# GULP energy per Si atom -5577.336789 kJ/mol
# Density = 2.623594 g / cm^3
# Si number density = 26.295789 Si / 1000 Ang^3
#
#
#
# Elastic Constant Matrix: (Units=GPa)
#
#
# Indices 1 2 3 4 5 6 
#
# 1 143.7382 15.1794 84.3780 0.0000 -38.1472 0.0000
# 2 15.1794 49.3346 61.2245 0.0000 -33.9088 0.0000
# 3 84.3780 61.2245 166.6949 0.0000 -46.3148 0.0000
# 4 0.0000 0.0000 0.0000 35.8397 0.0000 -36.1859
# 5 -38.1472 -33.9088 -46.3148 0.0000 58.7349 0.0000
# 6 0.0000 0.0000 0.0000 -36.1859 0.0000 -20.8113
#
#
#
# Elastic Compliance Matrix: (Units=1/GPa)
#
#
# Indices 1 2 3 4 5 6 
#
# 1 0.013430 0.013824 -0.009264 0.000000 0.009398 0.000000
# 2 0.013824 0.062722 -0.022383 0.000000 0.027539 0.000000
# 3 -0.009264 -0.022383 0.017476 0.000000 -0.005158 0.000000
# 4 0.000000 0.000000 0.000000 0.010126 0.000000 -0.017606
# 5 0.009398 0.027539 -0.005158 0.000000 0.034961 0.000000
# 6 0.000000 0.000000 0.000000 -0.017606 0.000000 -0.017438
#
#
# Mechanical properties :
#
#
# Convention : Reuss Voigt Hill
#
# Bulk Modulus (GPa) = 17.24661 75.70350 46.47506
# Shear Modulus (GPa) = 28.36892 28.01839 28.19365
#
# Velocity S-wave (km/s) = 3.28813 3.26775 3.27796
# Velocity P-wave (km/s) = 4.58134 6.56425 5.66030
#
# Compressibility (1/GPa) = 0.05798240
#
# Stress axis : x y z
#
# Youngs Moduli (GPa) = 74.46194 15.94338 57.22144
#
# Poissons Ratio (x) = -0.22041 0.53011
# Poissons Ratio (y) = -1.02939 1.28078
# Poissons Ratio (z) = 0.68982 0.35686
#
# Static dielectric constant tensor:
#      x y z
#    x 2.203750 0.000000 -0.086860 
#    y 0.000000 2.128020 0.000000 
#    z -0.086860 0.000000 2.203090 
# 
# From -- ./inp_files/24586.got.cif
#   From: 2010.05.17/outbox.cif.g08.bks.cpg/sg13_13_cif.got.tgz:24586.got - 2010.06.03 16:44:36.
