data_PCOD9229136
_publ_section_title
;
Structure prediction by ZEFSAII (Michael W. Deem and Ramdas Pophale) SiO2 
 PCOD9229136
Probable space group: P 2/C
;
_chemical_formula_sum "Si O2"
_cell_formula_units_Z 18
_cell_length_a 5.304483
_cell_length_b 11.829696
_cell_length_c 15.018446
_cell_angle_alpha 90.000000
_cell_angle_beta 101.459617
_cell_angle_gamma 90.000000
_cell_volume 923.626775
_symmetry_space_group_name_H-M "P 2/C"
_symmetry_group_IT_number 13
_symmetry_cell_setting 'monoclinic'
loop_
_space_group_symop_operation_xyz
x,y,z
-x,y,1/2-z
-x,-y,-z
x,-y,1/2+z
loop_
_atom_site_type_symbol
_atom_site_label
_atom_site_fract_x
_atom_site_fract_y
_atom_site_fract_z
Si Si1 0.006682 0.883680 0.946399
Si Si2 0.539435 0.744721 0.997439
Si Si3 0.000000 0.181966 0.250000
Si Si4 0.347608 0.392381 0.329869
Si Si5 0.269716 0.642577 0.306324
O O1 0.957892 0.891105 0.836002
O O2 0.278967 0.819858 0.981499
O O3 0.771558 0.810719 0.967331
O O4 0.000000 0.000000 0.000000
O O5 0.627120 0.708164 0.100906
O O6 0.492205 0.636107 0.930977
O O7 0.790103 0.273918 0.203116
O O8 0.500000 0.412131 0.250000
O O9 0.207829 0.512318 0.331832
O O10 0.500000 0.646595 0.250000
O O11 0.000000 0.688988 0.250000
#
# Coordination Sequence:
#
# PCOD9229136 Si02
#       5
#     4   4   2   4   4
#     4  11  24  43  66  94 123 167 218 267 312 371
#     4  11  23  41  65  92 131 160 214 263 321 365
#     4  10  20  40  64  92 122 166 208 262 312 370
#     4  10  19  37  63  94 123 163 211 253 309 383
#     4  11  23  39  61  94 134 170 205 249 320 385
#
# _framework density 19.488391
#
# number of rings (size 3 to 8) (size 9 to 14) (size 15 to 20)
#    0.000    1.333    3.333    2.667    0.000    0.000 
#    6.000    6.667    0.000    0.000    0.000    0.000 
#    0.000    0.000    0.000    0.000    0.000    0.000 
#
# Total GULP energy -100265.534615 kJ/mol
# GULP energy per Si atom -5570.307479 kJ/mol
# Density = 1.944403 g / cm^3
# Si number density = 19.488391 Si / 1000 Ang^3
#
#
#
# Elastic Constant Matrix: (Units=GPa)
#
#
# Indices 1 2 3 4 5 6 
#
# 1 123.0075 30.3131 62.5968 0.0000 7.9100 0.0000
# 2 30.3131 60.4067 67.7808 0.0000 -0.4454 0.0000
# 3 62.5968 67.7808 232.1810 0.0000 7.4912 0.0000
# 4 0.0000 0.0000 0.0000 10.0333 0.0000 23.0530
# 5 7.9100 -0.4454 7.4912 0.0000 31.9620 0.0000
# 6 0.0000 0.0000 0.0000 23.0530 0.0000 87.3586
#
#
#
# Elastic Compliance Matrix: (Units=1/GPa)
#
#
# Indices 1 2 3 4 5 6 
#
# 1 0.009886 -0.003066 -0.001703 0.000000 -0.002090 0.000000
# 2 -0.003066 0.025703 -0.006764 0.000000 0.002702 0.000000
# 3 -0.001703 -0.006764 0.006781 0.000000 -0.001262 0.000000
# 4 0.000000 0.000000 0.000000 0.253173 0.000000 -0.066810
# 5 -0.002090 0.002702 -0.001262 0.000000 0.032138 0.000000
# 6 0.000000 0.000000 0.000000 -0.066810 0.000000 0.029077
#
#
# Mechanical properties :
#
#
# Convention : Reuss Voigt Hill
#
# Bulk Modulus (GPa) = 51.80031 81.88628 66.84329
# Shear Modulus (GPa) = 12.94471 42.86441 27.90456
#
# Velocity S-wave (km/s) = 2.58006 4.69495 3.78809
# Velocity P-wave (km/s) = 5.95931 8.45573 7.31480
#
# Compressibility (1/GPa) = 0.01930491
#
# Stress axis : x y z
#
# Youngs Moduli (GPa) = 101.15253 38.90663 147.46065
#
# Poissons Ratio (x) = 0.11927 0.25112
# Poissons Ratio (y) = 0.31009 0.99743
# Poissons Ratio (z) = 0.17226 0.26317
#
# Static dielectric constant tensor:
#      x y z
#    x 1.713660 0.000000 0.033980 
#    y 0.000000 1.622030 0.000000 
#    z 0.033980 0.000000 1.711470 
# 
# From -- ./inp_files/25678.got.cif
#   From: 2010.05.17/outbox.cif.g08.bks.cpg/sg13_13_cif.got.tgz:25678.got - 2010.06.03 16:44:36.
