data_PCOD9229528
_publ_section_title
;
Structure prediction by ZEFSAII (Michael W. Deem and Ramdas Pophale) SiO2 
 PCOD9229528
Probable space group: P 2/C
;
_chemical_formula_sum "Si O2"
_cell_formula_units_Z 28
_cell_length_a 29.088270
_cell_length_b 8.979725
_cell_length_c 28.572581
_cell_angle_alpha 90.000000
_cell_angle_beta 169.194980
_cell_angle_gamma 90.000000
_cell_volume 1399.123677
_symmetry_space_group_name_H-M "P 2/C"
_symmetry_group_IT_number 13
_symmetry_cell_setting 'monoclinic'
loop_
_space_group_symop_operation_xyz
x,y,z
-x,y,1/2-z
-x,-y,-z
x,-y,1/2+z
loop_
_atom_site_type_symbol
_atom_site_label
_atom_site_fract_x
_atom_site_fract_y
_atom_site_fract_z
Si Si1 0.181039 0.249347 0.887733
Si Si2 0.000757 0.319009 0.894563
Si Si3 0.818963 0.249331 0.025658
Si Si4 0.500013 0.318852 0.446149
Si Si5 0.500000 0.500008 0.250000
Si Si6 0.500003 0.681153 0.053866
Si Si7 0.000741 0.681002 0.606935
Si Si8 0.500000 0.999992 0.750000
O O1 0.000000 0.252505 0.750000
O O2 0.040605 0.257007 0.698684
O O3 0.346334 0.394998 0.061715
O O4 0.343018 0.104617 0.058942
O O5 0.000010 0.500005 0.891234
O O6 0.760282 0.274096 0.684006
O O7 0.258976 0.272989 0.175866
O O8 0.959389 0.256992 0.117467
O O9 0.000000 0.252488 0.250000
O O10 0.653666 0.394982 0.869047
O O11 0.656983 0.104601 0.872907
O O12 0.500004 0.500002 0.446209
O O13 0.480819 0.269831 0.480818
O O14 0.258961 0.727016 0.842068
O O15 0.760265 0.725914 0.336541
#
# Coordination Sequence:
#
# PCOD9229528 Si02
#       8
#     4   4   4   4   2   4   4   2
#     4  11  23  39  58  87 120 159 202 251 298 370
#     4  10  20  31  57  85 118 159 196 244 301 359
#     4  11  23  39  58  87 120 159 202 251 298 370
#     4   9  18  32  50  82 122 156 193 242 301 360
#     4  10  22  34  60  84 122 154 190 254 306 346
#     4   9  18  32  50  82 122 156 193 242 301 360
#     4  10  20  31  57  85 118 159 196 244 301 359
#     4  10  26  42  60  76 126 158 210 246 310 350
#
# _framework density 20.012526999999999
#
# number of rings (size 3 to 8) (size 9 to 14) (size 15 to 20)
#    0.000    2.000    0.000    3.429   14.000    3.429 
#    0.000    0.000    0.000    0.000    0.000    6.000 
#    0.000    0.000    0.000    0.000    0.000    0.000 
#
# Total GULP energy -156416.982964 kJ/mol
# GULP energy per Si atom -5586.320820 kJ/mol
# Density = 1.996698 g / cm^3
# Si number density = 20.012527 Si / 1000 Ang^3
#
#
#
# Elastic Constant Matrix: (Units=GPa)
#
#
# Indices 1 2 3 4 5 6 
#
# 1 200.2595 31.4528 108.9061 0.0000 -1.1593 0.0000
# 2 31.4528 58.3455 45.4443 0.0000 1.9036 0.0000
# 3 108.9061 45.4443 179.7493 0.0000 -1.6368 0.0000
# 4 0.0000 0.0000 0.0000 459.8267 0.0000 52.0126
# 5 -1.1593 1.9036 -1.6368 0.0000 41.3608 0.0000
# 6 0.0000 0.0000 0.0000 52.0126 0.0000 78.0548
#
#
#
# Elastic Compliance Matrix: (Units=1/GPa)
#
#
# Indices 1 2 3 4 5 6 
#
# 1 0.007466 -0.000628 -0.004364 0.000000 0.000065 0.000000
# 2 -0.000628 0.021454 -0.005055 0.000000 -0.001205 0.000000
# 3 -0.004364 -0.005055 0.009490 0.000000 0.000486 0.000000
# 4 0.000000 0.000000 0.000000 0.002352 0.000000 -0.001567
# 5 0.000065 -0.001205 0.000486 0.000000 0.024254 0.000000
# 6 0.000000 0.000000 0.000000 -0.001567 0.000000 0.013856
#
#
# Mechanical properties :
#
#
# Convention : Reuss Voigt Hill
#
# Bulk Modulus (GPa) = 54.59512 89.99561 72.29537
# Shear Modulus (GPa) = 47.58740 132.68517 90.13628
#
# Velocity S-wave (km/s) = 4.88164 8.15138 6.71846
# Velocity P-wave (km/s) = 7.68854 11.56117 9.81769
#
# Compressibility (1/GPa) = 0.01831666
#
# Stress axis : x y z
#
# Youngs Moduli (GPa) = 133.94474 46.61139 105.37690
#
# Poissons Ratio (x) = 0.02926 0.45987
# Poissons Ratio (y) = 0.08407 0.53265
# Poissons Ratio (z) = 0.58454 0.23561
#
# Static dielectric constant tensor:
#      x y z
#    x 1.683040 0.000000 0.012260 
#    y 0.000000 1.676340 0.000000 
#    z 0.012260 0.000000 1.773070 
# 
# From -- ./inp_files/95424.got.cif
#   From: 2010.05.17/outbox.cif.g08.bks.cpg/sg13_48_cif.got.tgz:95424.got - 2010.06.03 16:44:36.
