data_PCOD9229675
_publ_section_title
;
Structure prediction by ZEFSAII (Michael W. Deem and Ramdas Pophale) SiO2 
 PCOD9229675
Probable space group: P 2/C
;
_chemical_formula_sum "Si O2"
_cell_formula_units_Z 24
_cell_length_a 10.529475
_cell_length_b 11.934626
_cell_length_c 22.238388
_cell_angle_alpha 90.000000
_cell_angle_beta 156.133210
_cell_angle_gamma 90.000000
_cell_volume 1130.725430
_symmetry_space_group_name_H-M "P 2/C"
_symmetry_group_IT_number 13
_symmetry_cell_setting 'monoclinic'
loop_
_space_group_symop_operation_xyz
x,y,z
-x,y,1/2-z
-x,-y,-z
x,-y,1/2+z
loop_
_atom_site_type_symbol
_atom_site_label
_atom_site_fract_x
_atom_site_fract_y
_atom_site_fract_z
Si Si1 0.928848 0.886178 0.883989
Si Si2 0.677651 0.618447 0.072781
Si Si3 0.623088 0.510300 0.721603
Si Si4 0.900228 0.347145 0.532768
Si Si5 0.756883 0.895465 0.949615
Si Si6 0.215454 0.660122 0.963370
O O1 0.820854 0.903987 0.906025
O O2 0.617857 0.879901 0.708381
O O3 0.111869 0.769985 0.954643
O O4 0.134455 0.998067 0.964882
O O5 0.762429 0.640869 0.040695
O O6 0.000000 0.619625 0.250000
O O7 0.500000 0.500000 0.000000
O O8 0.419338 0.695720 0.993751
O O9 0.364272 0.603105 0.626104
O O10 0.441083 0.421840 0.600088
O O11 0.804027 0.428682 0.845476
O O12 0.906218 0.584984 0.815622
O O13 0.949522 0.216370 0.548198
#
# Coordination Sequence:
#
# PCOD9229675 Si02
#       6
#     4   4   4   4   4   4
#     4  10  23  43  64  84 111 152 199 244 289 343
#     4  12  20  32  57  86 123 158 191 229 283 351
#     4  10  20  33  59  86 124 152 193 233 288 344
#     4  11  20  37  57  90 120 155 193 236 286 345
#     4  10  23  43  64  84 111 152 199 244 289 343
#     4  11  20  37  57  90 120 155 193 236 286 345
#
# _framework density 21.225313
#
# number of rings (size 3 to 8) (size 9 to 14) (size 15 to 20)
#    0.000    1.333    6.667    0.000    2.333    0.000 
#    0.000    5.833    0.000    0.000    0.000    0.000 
#    0.000    0.000    0.000    0.000    0.000    0.000 
#
# Total GULP energy -133868.221131 kJ/mol
# GULP energy per Si atom -5577.842547 kJ/mol
# Density = 2.117700 g / cm^3
# Si number density = 21.225313 Si / 1000 Ang^3
#
#
#
# Elastic Constant Matrix: (Units=GPa)
#
#
# Indices 1 2 3 4 5 6 
#
# 1 33.8975 6.2910 15.0961 0.0000 1.6983 0.0000
# 2 6.2910 129.6570 40.4985 0.0000 3.5895 0.0000
# 3 15.0961 40.4985 113.6504 0.0000 8.9297 0.0000
# 4 0.0000 0.0000 0.0000 27.3030 0.0000 2.3687
# 5 1.6983 3.5895 8.9297 0.0000 22.5735 0.0000
# 6 0.0000 0.0000 0.0000 2.3687 0.0000 17.7954
#
#
#
# Elastic Compliance Matrix: (Units=1/GPa)
#
#
# Indices 1 2 3 4 5 6 
#
# 1 0.031374 -0.000246 -0.004023 0.000000 -0.000730 0.000000
# 2 -0.000246 0.008681 -0.003049 0.000000 -0.000156 0.000000
# 3 -0.004023 -0.003049 0.010690 0.000000 -0.003441 0.000000
# 4 0.000000 0.000000 0.000000 0.037054 0.000000 -0.004932
# 5 -0.000730 -0.000156 -0.003441 0.000000 0.045741 0.000000
# 6 0.000000 0.000000 0.000000 -0.004932 0.000000 0.056851
#
#
# Mechanical properties :
#
#
# Convention : Reuss Voigt Hill
#
# Bulk Modulus (GPa) = 27.69171 44.55289 36.12230
# Shear Modulus (GPa) = 23.03494 27.88900 25.46197
#
# Velocity S-wave (km/s) = 3.29790 3.62878 3.46729
# Velocity P-wave (km/s) = 5.25132 6.21236 5.75195
#
# Compressibility (1/GPa) = 0.03611189
#
# Stress axis : x y z
#
# Youngs Moduli (GPa) = 31.87324 115.19249 93.54574
#
# Poissons Ratio (x) = 0.02829 0.37629
# Poissons Ratio (y) = 0.00783 0.28518
# Poissons Ratio (z) = 0.12821 0.35117
#
# Static dielectric constant tensor:
#      x y z
#    x 1.877380 0.000000 0.013940 
#    y 0.000000 1.765130 0.000000 
#    z 0.013940 0.000000 1.812020 
# 
# From -- ./inp_files/92404.got.cif
#   From: 2010.05.17/outbox.cif.g08.bks.cpg/sg13_47_cif.got.tgz:92404.got - 2010.06.03 16:44:36.
