data_PCOD9229037
_publ_section_title
;
Structure prediction by ZEFSAII (Michael W. Deem and Ramdas Pophale) SiO2 
 PCOD9229037
Probable space group: P 2/C
;
_chemical_formula_sum "Si O2"
_cell_formula_units_Z 24
_cell_length_a 11.372667
_cell_length_b 8.878191
_cell_length_c 13.987204
_cell_angle_alpha 90.000000
_cell_angle_beta 66.705837
_cell_angle_gamma 90.000000
_cell_volume 1297.151120
_symmetry_space_group_name_H-M "P 2/C"
_symmetry_group_IT_number 13
_symmetry_cell_setting 'monoclinic'
loop_
_space_group_symop_operation_xyz
x,y,z
-x,y,1/2-z
-x,-y,-z
x,-y,1/2+z
loop_
_atom_site_type_symbol
_atom_site_label
_atom_site_fract_x
_atom_site_fract_y
_atom_site_fract_z
Si Si1 0.525204 0.362720 0.373564
Si Si2 0.205784 0.078434 0.932459
Si Si3 0.649274 0.629950 0.039715
Si Si4 0.115138 0.591592 0.009961
Si Si5 0.691994 0.221548 0.153745
Si Si6 0.035314 0.119609 0.629213
O O1 0.464558 0.529222 0.376049
O O2 0.594314 0.348528 0.451743
O O3 0.622735 0.304039 0.262676
O O4 0.401182 0.255368 0.405833
O O5 0.088892 0.120757 0.900092
O O6 0.287165 0.954584 0.848471
O O7 0.297237 0.216570 0.931851
O O8 0.138712 0.993831 0.045753
O O9 0.773592 0.522933 0.997132
O O10 0.083778 0.707738 0.104956
O O11 0.173127 0.700488 0.909550
O O12 0.000000 0.500000 0.000000
O O13 0.000000 0.080532 0.750000
#
# Coordination Sequence:
#
# PCOD9229037 Si02
#       6
#     4   4   4   4   4   4
#     4   9  20  39  59  84 116 155 203 242 295 357
#     4  10  21  38  61  89 123 159 198 253 301 362
#     4  10  20  37  63  87 114 157 200 249 300 353
#     4  10  19  37  58  83 122 153 191 252 299 352
#     4   9  20  38  57  81 121 155 189 250 298 350
#     4  10  22  38  57  91 128 160 199 242 309 375
#
# _framework density 18.502087
#
# number of rings (size 3 to 8) (size 9 to 14) (size 15 to 20)
#    0.000    2.333    1.667    0.000    2.333    2.000 
#    3.000    7.500    0.000    0.000    0.000    0.000 
#    0.000    0.000    0.000    0.000    0.000    0.000 
#
# Total GULP energy -133618.131555 kJ/mol
# GULP energy per Si atom -5567.422148 kJ/mol
# Density = 1.845998 g / cm^3
# Si number density = 18.502087 Si / 1000 Ang^3
#
#
#
# Elastic Constant Matrix: (Units=GPa)
#
#
# Indices 1 2 3 4 5 6 
#
# 1 87.6221 50.6814 29.0891 0.0000 3.1398 0.0000
# 2 50.6814 132.2543 41.6847 0.0000 -5.4785 0.0000
# 3 29.0891 41.6847 95.3160 0.0000 -3.4812 0.0000
# 4 0.0000 0.0000 0.0000 23.3611 0.0000 -0.8034
# 5 3.1398 -5.4785 -3.4812 0.0000 20.3090 0.0000
# 6 0.0000 0.0000 0.0000 -0.8034 0.0000 22.7023
#
#
#
# Elastic Compliance Matrix: (Units=1/GPa)
#
#
# Indices 1 2 3 4 5 6 
#
# 1 0.015483 -0.005302 -0.002562 0.000000 -0.004263 0.000000
# 2 -0.005302 0.010646 -0.002921 0.000000 0.003191 0.000000
# 3 -0.002562 -0.002921 0.012615 0.000000 0.001771 0.000000
# 4 0.000000 0.000000 0.000000 0.042858 0.000000 0.001517
# 5 -0.004263 0.003191 0.001771 0.000000 0.051062 0.000000
# 6 0.000000 0.000000 0.000000 0.001517 0.000000 0.044102
#
#
# Mechanical properties :
#
#
# Convention : Reuss Voigt Hill
#
# Bulk Modulus (GPa) = 58.22924 62.01142 60.12033
# Shear Modulus (GPa) = 24.50230 26.19030 25.34630
#
# Velocity S-wave (km/s) = 3.64304 3.76644 3.70525
# Velocity P-wave (km/s) = 7.01682 7.24592 7.13229
#
# Compressibility (1/GPa) = 0.01717350
#
# Stress axis : x y z
#
# Youngs Moduli (GPa) = 64.58761 93.93239 79.26790
#
# Poissons Ratio (x) = 0.49806 0.20308
# Poissons Ratio (y) = 0.34246 0.23155
# Poissons Ratio (z) = 0.16547 0.27438
#
# Static dielectric constant tensor:
#      x y z
#    x 1.716800 0.000000 -0.024700 
#    y 0.000000 1.674470 0.000000 
#    z -0.024700 0.000000 1.661870 
# 
# From -- ./inp_files/49586.got.cif
#   From: 2010.05.17/outbox.cif.g08.bks.cpg/sg13_25_cif.got.tgz:49586.got - 2010.06.03 16:44:36.
