data_PCOD9229367
_publ_section_title
;
Structure prediction by ZEFSAII (Michael W. Deem and Ramdas Pophale) SiO2 
 PCOD9229367
Probable space group: P 2/C
;
_chemical_formula_sum "Si O2"
_cell_formula_units_Z 32
_cell_length_a 13.087715
_cell_length_b 12.830252
_cell_length_c 9.870087
_cell_angle_alpha 90.000000
_cell_angle_beta 70.328062
_cell_angle_gamma 90.000000
_cell_volume 1560.640362
_symmetry_space_group_name_H-M "P 2/C"
_symmetry_group_IT_number 13
_symmetry_cell_setting 'monoclinic'
loop_
_space_group_symop_operation_xyz
x,y,z
-x,y,1/2-z
-x,-y,-z
x,-y,1/2+z
loop_
_atom_site_type_symbol
_atom_site_label
_atom_site_fract_x
_atom_site_fract_y
_atom_site_fract_z
Si Si1 0.081378 0.996281 0.088970
Si Si2 0.678994 0.264350 0.310955
Si Si3 0.380678 0.521351 0.787931
Si Si4 0.933886 0.561462 0.917615
Si Si5 0.257696 0.583553 0.108193
Si Si6 0.254173 0.190354 0.514830
Si Si7 0.888720 0.772832 0.887308
Si Si8 0.508786 0.103786 0.083108
O O1 0.000000 0.985424 0.250000
O O2 0.139289 0.109376 0.059937
O O3 0.167194 0.902485 0.056843
O O4 0.000000 0.000000 0.000000
O O5 0.621315 0.373265 0.301823
O O6 0.730185 0.223288 0.148122
O O7 0.783861 0.272925 0.357830
O O8 0.588875 0.183966 0.403211
O O9 0.500000 0.474477 0.750000
O O10 0.298730 0.447879 0.739703
O O11 0.348229 0.559077 0.952872
O O12 0.836166 0.490637 0.907809
O O13 0.912122 0.679009 0.980852
O O14 0.000000 0.577864 0.750000
O O15 0.000000 0.500000 0.000000
O O16 0.225806 0.704728 0.109250
O O17 0.374136 0.152558 0.502239
O O18 0.000000 0.786615 0.750000
O O19 0.500000 0.084505 0.250000
O O20 0.500000 0.000000 0.000000
#
# Coordination Sequence:
#
# PCOD9229367 Si02
#       8
#     4   4   4   4   4   4   4   4
#     4  11  24  42  63  92 124 167 211 260 321 377
#     4  10  19  39  65  91 120 167 218 253 312 389
#     4  11  22  40  64  92 126 168 213 263 316 381
#     4  11  24  40  65  93 127 167 209 259 317 384
#     4  11  23  41  64  93 128 166 212 259 322 379
#     4  10  22  39  65  90 128 165 209 263 317 377
#     4  10  21  38  63  88 122 163 212 255 308 381
#     4  10  21  39  64  91 120 164 211 259 314 372
#
# _framework density 20.504404000000001
#
# number of rings (size 3 to 8) (size 9 to 14) (size 15 to 20)
#    0.000    1.500    1.250    5.250    7.000    1.500 
#    2.250    1.875    0.000    0.000    0.000    0.000 
#    0.000    0.000    0.000    0.000    0.000    0.000 
#
# Total GULP energy -178519.017125 kJ/mol
# GULP energy per Si atom -5578.719285 kJ/mol
# Density = 2.045773 g / cm^3
# Si number density = 20.504404 Si / 1000 Ang^3
#
#
#
# Elastic Constant Matrix: (Units=GPa)
#
#
# Indices 1 2 3 4 5 6 
#
# 1 96.5440 37.6242 14.9969 0.0000 -0.3850 0.0000
# 2 37.6242 168.1237 21.3292 0.0000 -6.3837 0.0000
# 3 14.9969 21.3292 36.6417 0.0000 3.1566 0.0000
# 4 0.0000 0.0000 0.0000 59.5807 0.0000 -17.8076
# 5 -0.3850 -6.3837 3.1566 0.0000 26.4038 0.0000
# 6 0.0000 0.0000 0.0000 -17.8076 0.0000 47.6939
#
#
#
# Elastic Compliance Matrix: (Units=1/GPa)
#
#
# Indices 1 2 3 4 5 6 
#
# 1 0.011759 -0.002178 -0.003551 0.000000 0.000069 0.000000
# 2 -0.002178 0.006934 -0.003321 0.000000 0.002042 0.000000
# 3 -0.003551 -0.003321 0.031071 0.000000 -0.004569 0.000000
# 4 0.000000 0.000000 0.000000 0.018892 0.000000 0.007054
# 5 0.000069 0.002042 -0.004569 0.000000 0.038914 0.000000
# 6 0.000000 0.000000 0.000000 0.007054 0.000000 0.023601
#
#
# Mechanical properties :
#
#
# Convention : Reuss Voigt Hill
#
# Bulk Modulus (GPa) = 31.58094 49.91222 40.74658
# Shear Modulus (GPa) = 31.28405 41.89296 36.58850
#
# Velocity S-wave (km/s) = 3.91029 4.52499 4.22882
# Velocity P-wave (km/s) = 5.98520 7.18998 6.61507
#
# Compressibility (1/GPa) = 0.03166466
#
# Stress axis : x y z
#
# Youngs Moduli (GPa) = 85.04322 144.21010 32.18418
#
# Poissons Ratio (x) = 0.31415 0.11427
# Poissons Ratio (y) = 0.18526 0.10688
# Poissons Ratio (z) = 0.30195 0.47889
#
# Static dielectric constant tensor:
#      x y z
#    x 1.794890 0.000000 -0.025580 
#    y 0.000000 1.782560 0.000000 
#    z -0.025580 0.000000 1.826140 
# 
# From -- ./inp_files/34161.got.cif
#   From: 2010.05.17/outbox.cif.g08.bks.cpg/sg13_18_cif.got.tgz:34161.got - 2010.06.03 16:44:36.
