data_PCOD9229246
_publ_section_title
;
Structure prediction by ZEFSAII (Michael W. Deem and Ramdas Pophale) SiO2 
 PCOD9229246
Probable space group: P 2/C
;
_chemical_formula_sum "Si O2"
_cell_formula_units_Z 28
_cell_length_a 10.203113
_cell_length_b 8.612920
_cell_length_c 15.684030
_cell_angle_alpha 90.000000
_cell_angle_beta 51.908760
_cell_angle_gamma 90.000000
_cell_volume 1084.755108
_symmetry_space_group_name_H-M "P 2/C"
_symmetry_group_IT_number 13
_symmetry_cell_setting 'monoclinic'
loop_
_space_group_symop_operation_xyz
x,y,z
-x,y,1/2-z
-x,-y,-z
x,-y,1/2+z
loop_
_atom_site_type_symbol
_atom_site_label
_atom_site_fract_x
_atom_site_fract_y
_atom_site_fract_z
Si Si1 0.337205 0.838689 0.570892
Si Si2 0.409492 0.282822 0.876018
Si Si3 0.273364 0.199182 0.283186
Si Si4 0.047730 0.598285 0.640019
Si Si5 0.123975 0.110613 0.902736
Si Si6 0.289231 0.390742 0.451903
Si Si7 0.855621 0.165462 0.877062
O O1 0.458048 0.816529 0.440175
O O2 0.382272 0.805135 0.651852
O O3 0.201758 0.705853 0.605285
O O4 0.240275 0.002040 0.596466
O O5 0.500000 0.257671 0.750000
O O6 0.227335 0.221379 0.921329
O O7 0.418467 0.466029 0.893103
O O8 0.314107 0.283900 0.357321
O O9 0.104258 0.291199 0.325905
O O10 0.243183 0.015729 0.310283
O O11 0.117287 0.489370 0.537325
O O12 0.000000 0.516501 0.750000
O O13 0.985637 0.191000 0.902106
O O14 0.000000 0.000000 0.000000
O O15 0.283652 0.291206 0.541391
O O16 0.000000 0.169758 0.750000
#
# Coordination Sequence:
#
# PCOD9229246 Si02
#       7
#     4   4   4   4   4   4   4
#     4  10  19  38  62  89 127 166 200 263 329 378
#     4  11  26  47  62  85 133 183 215 259 322 385
#     4  11  19  33  59  96 125 158 205 270 318 372
#     4   9  17  31  51  87 132 163 190 250 324 376
#     4  12  20  37  69  99 127 163 214 265 328 382
#     4  11  23  34  57  89 124 171 213 252 311 384
#     4  12  21  35  64 104 132 153 206 278 327 377
#
# _framework density 25.812277999999999
#
# number of rings (size 3 to 8) (size 9 to 14) (size 15 to 20)
#    0.000    1.143    5.714    2.143    2.000    0.000 
#    0.000    4.286    0.000    0.000    0.000    0.000 
#    0.000    0.000    0.000    0.000    0.000    0.000 
#
# Total GULP energy -155998.577874 kJ/mol
# GULP energy per Si atom -5571.377781 kJ/mol
# Density = 2.575353 g / cm^3
# Si number density = 25.812278 Si / 1000 Ang^3
#
#
#
# Elastic Constant Matrix: (Units=GPa)
#
#
# Indices 1 2 3 4 5 6 
#
# 1 69.9090 21.5717 20.1004 0.0000 23.4548 0.0000
# 2 21.5717 150.9802 60.8663 0.0000 3.8608 0.0000
# 3 20.1004 60.8663 217.0390 0.0000 1.3938 0.0000
# 4 0.0000 0.0000 0.0000 -48.6492 0.0000 -7.1976
# 5 23.4548 3.8608 1.3938 0.0000 28.8030 0.0000
# 6 0.0000 0.0000 0.0000 -7.1976 0.0000 12.8400
#
#
#
# Elastic Compliance Matrix: (Units=1/GPa)
#
#
# Indices 1 2 3 4 5 6 
#
# 1 0.020894 -0.002054 -0.001252 0.000000 -0.016678 0.000000
# 2 -0.002054 0.007693 -0.001972 0.000000 0.000737 0.000000
# 3 -0.001252 -0.001972 0.005270 0.000000 0.001029 0.000000
# 4 0.000000 0.000000 0.000000 -0.018981 0.000000 -0.010640
# 5 -0.016678 0.000737 0.001029 0.000000 0.048151 0.000000
# 6 0.000000 0.000000 0.000000 -0.010640 0.000000 0.071917
#
#
# Mechanical properties :
#
#
# Convention : Reuss Voigt Hill
#
# Bulk Modulus (GPa) = 42.91710 71.44501 57.18106
# Shear Modulus (GPa) = 32.62293 20.95809 26.79051
#
# Velocity S-wave (km/s) = 3.55893 2.85255 3.22514
# Velocity P-wave (km/s) = 5.79229 6.21194 6.00578
#
# Compressibility (1/GPa) = 0.02330074
#
# Stress axis : x y z
#
# Youngs Moduli (GPa) = 47.86142 129.98852 189.76053
#
# Poissons Ratio (x) = 0.26701 0.23755
# Poissons Ratio (y) = 0.09831 0.37419
# Poissons Ratio (z) = 0.05992 0.25633
#
# Static dielectric constant tensor:
#      x y z
#    x 2.032700 0.000000 -0.092280 
#    y 0.000000 2.388520 0.000000 
#    z -0.092280 0.000000 2.300570 
# 
# From -- ./inp_files/53002.got.cif
#   From: 2010.05.17/outbox.cif.g08.bks.cpg/sg13_27_cif.got.tgz:53002.got - 2010.06.03 16:44:36.
