data_PCOD9229813
_publ_section_title
;
Structure prediction by ZEFSAII (Michael W. Deem and Ramdas Pophale) SiO2 
 PCOD9229813
Probable space group: P 2/C
;
_chemical_formula_sum "Si O2"
_cell_formula_units_Z 24
_cell_length_a 23.862035
_cell_length_b 11.453462
_cell_length_c 9.787476
_cell_angle_alpha 90.000000
_cell_angle_beta 149.444012
_cell_angle_gamma 90.000000
_cell_volume 1359.889108
_symmetry_space_group_name_H-M "P 2/C"
_symmetry_group_IT_number 13
_symmetry_cell_setting 'monoclinic'
loop_
_space_group_symop_operation_xyz
x,y,z
-x,y,1/2-z
-x,-y,-z
x,-y,1/2+z
loop_
_atom_site_type_symbol
_atom_site_label
_atom_site_fract_x
_atom_site_fract_y
_atom_site_fract_z
Si Si1 0.435543 0.930138 0.244865
Si Si2 0.273602 0.131557 0.859076
Si Si3 0.357947 0.431200 0.818131
Si Si4 0.610982 0.364458 0.313360
Si Si5 0.920382 0.966407 0.954952
Si Si6 0.752813 0.215276 0.003728
O O1 0.500000 0.877056 0.250000
O O2 0.500000 0.000000 0.500000
O O3 0.354576 0.839833 0.148859
O O4 0.362173 0.030521 0.021612
O O5 0.171569 0.068023 0.718295
O O6 0.240611 0.175946 0.640587
O O7 0.334069 0.236691 0.066858
O O8 0.360359 0.558808 0.758115
O O9 0.267032 0.353074 0.550367
O O10 0.477669 0.369244 0.043703
O O11 0.346738 0.426770 0.958201
O O12 0.855647 0.845481 0.792901
O O13 0.000000 0.957738 0.250000
O O14 0.000000 0.000000 0.000000
#
# Coordination Sequence:
#
# PCOD9229813 Si02
#       6
#     4   4   4   4   4   4
#     4  11  20  31  48  78 112 140 172 214 265 326
#     4  10  20  34  57  77 106 148 179 215 275 332
#     4   9  18  35  53  79 111 146 179 215 258 322
#     4   9  18  34  55  77 111 147 179 211 262 320
#     4  11  22  39  58  81 105 137 184 234 284 324
#     4  10  20  35  55  79 106 143 182 220 270 328
#
# _framework density 17.648496999999999
#
# number of rings (size 3 to 8) (size 9 to 14) (size 15 to 20)
#    0.000    2.000    3.333    1.000    2.333    0.000 
#   12.000    0.000    0.000    2.000    0.000    0.000 
#    0.000    0.000    0.000    0.000    0.000    0.000 
#
# Total GULP energy -133741.203738 kJ/mol
# GULP energy per Si atom -5572.550156 kJ/mol
# Density = 1.760833 g / cm^3
# Si number density = 17.648497 Si / 1000 Ang^3
#
#
#
# Elastic Constant Matrix: (Units=GPa)
#
#
# Indices 1 2 3 4 5 6 
#
# 1 74.0321 1.4943 13.0889 0.0000 3.5440 0.0000
# 2 1.4943 52.7562 17.0139 0.0000 -1.2708 0.0000
# 3 13.0889 17.0139 64.5907 0.0000 -1.0230 0.0000
# 4 0.0000 0.0000 0.0000 28.9273 0.0000 -3.1249
# 5 3.5440 -1.2708 -1.0230 0.0000 19.8544 0.0000
# 6 0.0000 0.0000 0.0000 -3.1249 0.0000 15.9175
#
#
#
# Elastic Compliance Matrix: (Units=1/GPa)
#
#
# Indices 1 2 3 4 5 6 
#
# 1 0.014163 0.000518 -0.003049 0.000000 -0.002652 0.000000
# 2 0.000518 0.020756 -0.005557 0.000000 0.000950 0.000000
# 3 -0.003049 -0.005557 0.017581 0.000000 0.001094 0.000000
# 4 0.000000 0.000000 0.000000 0.035318 0.000000 0.006934
# 5 -0.002652 0.000950 0.001094 0.000000 0.050957 0.000000
# 6 0.000000 0.000000 0.000000 0.006934 0.000000 0.064185
#
#
# Mechanical properties :
#
#
# Convention : Reuss Voigt Hill
#
# Bulk Modulus (GPa) = 27.52967 28.28590 27.90778
# Shear Modulus (GPa) = 21.62220 23.59198 22.60709
#
# Velocity S-wave (km/s) = 3.50402 3.66015 3.58294
# Velocity P-wave (km/s) = 5.65718 5.82447 5.74143
#
# Compressibility (1/GPa) = 0.03632445
#
# Stress axis : x y z
#
# Youngs Moduli (GPa) = 70.60584 48.17998 56.87955
#
# Poissons Ratio (x) = -0.02496 0.17340
# Poissons Ratio (y) = -0.03658 0.31609
# Poissons Ratio (z) = 0.21524 0.26774
#
# Static dielectric constant tensor:
#      x y z
#    x 1.607640 0.000000 0.004790 
#    y 0.000000 1.601160 0.000000 
#    z 0.004790 0.000000 1.610750 
# 
# From -- ./inp_files/15796.got.cif
#   From: 2010.05.17/outbox.cif.g08.bks.cpg/sg13_8_cif.got.tgz:15796.got - 2010.06.03 16:44:36.
