data_PCOD9229024
_publ_section_title
;
Structure prediction by ZEFSAII (Michael W. Deem and Ramdas Pophale) SiO2 
 PCOD9229024
Probable space group: P 2/C
;
_chemical_formula_sum "Si O2"
_cell_formula_units_Z 28
_cell_length_a 11.331448
_cell_length_b 9.113959
_cell_length_c 16.784455
_cell_angle_alpha 90.000000
_cell_angle_beta 135.151243
_cell_angle_gamma 90.000000
_cell_volume 1222.461790
_symmetry_space_group_name_H-M "P 2/C"
_symmetry_group_IT_number 13
_symmetry_cell_setting 'monoclinic'
loop_
_space_group_symop_operation_xyz
x,y,z
-x,y,1/2-z
-x,-y,-z
x,-y,1/2+z
loop_
_atom_site_type_symbol
_atom_site_label
_atom_site_fract_x
_atom_site_fract_y
_atom_site_fract_z
Si Si1 0.591773 0.155226 0.534698
Si Si2 0.751240 0.608041 0.413049
Si Si3 0.767049 0.042708 0.760990
Si Si4 0.695601 0.278702 0.188980
Si Si5 0.500000 0.631487 0.750000
Si Si6 0.928784 0.176327 0.630813
Si Si7 0.500000 0.140780 0.750000
Si Si8 0.950486 0.490178 0.850052
O O1 0.694572 0.168359 0.665579
O O2 0.453823 0.273398 0.446444
O O3 0.732964 0.145429 0.534106
O O4 0.500000 0.000000 0.500000
O O5 0.624466 0.472052 0.360458
O O6 0.633065 0.750610 0.357424
O O7 0.840100 0.577790 0.369994
O O8 0.904533 0.597005 0.547132
O O9 0.621022 0.042373 0.755201
O O10 0.950005 0.097463 0.874099
O O11 0.779672 0.882232 0.728364
O O12 0.613607 0.291084 0.238035
O O13 0.823797 0.411244 0.238742
O O14 0.000000 0.118924 0.750000
O O15 0.959150 0.349587 0.643111
#
# Coordination Sequence:
#
# PCOD9229024 Si02
#       8
#     4   4   4   4   2   4   2   4
#     4   9  20  40  63  84 117 165 201 243 308 361
#     4   9  19  33  59  83 116 159 188 246 303 360
#     4  10  21  38  60  88 120 160 200 248 305 360
#     4  10  20  37  58  88 121 154 201 250 296 363
#     4   9  17  32  60  86 120 162 198 244 300 358
#     4  10  20  39  60  84 117 157 198 245 300 358
#     4  11  19  38  60  86 118 152 208 242 294 362
#     4  10  19  37  56  86 118 149 204 243 305 351
#
# _framework density 22.904601
#
# number of rings (size 3 to 8) (size 9 to 14) (size 15 to 20)
#    0.000    2.286    1.429    1.286    0.000    0.000 
#    7.714    4.286    0.000    0.000    0.000    0.000 
#    0.000    0.000    0.000    0.000    0.000    0.000 
#
# Total GULP energy -156165.208760 kJ/mol
# GULP energy per Si atom -5577.328884 kJ/mol
# Density = 2.285247 g / cm^3
# Si number density = 22.904601 Si / 1000 Ang^3
#
#
#
# Elastic Constant Matrix: (Units=GPa)
#
#
# Indices 1 2 3 4 5 6 
#
# 1 65.1319 23.8606 23.4774 0.0000 34.5961 0.0000
# 2 23.8606 74.1697 16.5141 0.0000 22.1608 0.0000
# 3 23.4774 16.5141 71.5647 0.0000 36.7727 0.0000
# 4 0.0000 0.0000 0.0000 13.3908 0.0000 1.0197
# 5 34.5961 22.1608 36.7727 0.0000 38.2503 0.0000
# 6 0.0000 0.0000 0.0000 1.0197 0.0000 24.4416
#
#
#
# Elastic Compliance Matrix: (Units=1/GPa)
#
#
# Indices 1 2 3 4 5 6 
#
# 1 0.032161 -0.001337 0.008511 0.000000 -0.036496 0.000000
# 2 -0.001337 0.016531 0.001826 0.000000 -0.010124 0.000000
# 3 0.008511 0.001826 0.030155 0.000000 -0.037746 0.000000
# 4 0.000000 0.000000 0.000000 0.074916 0.000000 -0.003125
# 5 -0.036496 -0.010124 -0.037746 0.000000 0.101306 0.000000
# 6 0.000000 0.000000 0.000000 -0.003125 0.000000 0.041044
#
#
# Mechanical properties :
#
#
# Convention : Reuss Voigt Hill
#
# Bulk Modulus (GPa) = 10.32553 37.61892 23.97223
# Shear Modulus (GPa) = 16.10845 25.01751 20.56298
#
# Velocity S-wave (km/s) = 2.65483 3.30850 2.99953
# Velocity P-wave (km/s) = 3.73033 5.57268 4.74184
#
# Compressibility (1/GPa) = 0.09684729
#
# Stress axis : x y z
#
# Youngs Moduli (GPa) = 31.09363 60.49273 33.16159
#
# Poissons Ratio (x) = 0.08086 -0.28224
# Poissons Ratio (y) = 0.04156 -0.06055
# Poissons Ratio (z) = -0.26464 -0.11045
#
# Static dielectric constant tensor:
#      x y z
#    x 2.008000 0.000000 -0.007920 
#    y 0.000000 1.809890 0.000000 
#    z -0.007920 0.000000 1.918390 
# 
# From -- ./inp_files/78361.got.cif
#   From: 2010.05.17/outbox.cif.g08.bks.cpg/sg13_40_cif.got.tgz:78361.got - 2010.06.03 16:44:36.
