data_PCOD9229295
_publ_section_title
;
Structure prediction by ZEFSAII (Michael W. Deem and Ramdas Pophale) SiO2 
 PCOD9229295
Probable space group: P 2/C
;
_chemical_formula_sum "Si O2"
_cell_formula_units_Z 28
_cell_length_a 9.087055
_cell_length_b 15.242063
_cell_length_c 10.664422
_cell_angle_alpha 90.000000
_cell_angle_beta 115.936369
_cell_angle_gamma 90.000000
_cell_volume 1328.309648
_symmetry_space_group_name_H-M "P 2/C"
_symmetry_group_IT_number 13
_symmetry_cell_setting 'monoclinic'
loop_
_space_group_symop_operation_xyz
x,y,z
-x,y,1/2-z
-x,-y,-z
x,-y,1/2+z
loop_
_atom_site_type_symbol
_atom_site_label
_atom_site_fract_x
_atom_site_fract_y
_atom_site_fract_z
Si Si1 0.500000 0.812375 0.250000
Si Si2 0.156151 0.439594 0.022414
Si Si3 0.674550 0.146462 0.260799
Si Si4 0.000000 0.115696 0.750000
Si Si5 0.266744 0.741346 0.959673
Si Si6 0.346446 0.964494 0.356856
Si Si7 0.042393 0.241761 0.990357
Si Si8 0.200236 0.439916 0.317433
O O1 0.617976 0.754362 0.378496
O O2 0.406676 0.877198 0.310355
O O3 0.097351 0.340209 0.975065
O O4 0.250965 0.445413 0.190473
O O5 0.234085 0.480387 0.925968
O O6 0.000000 0.500000 0.000000
O O7 0.500000 0.170733 0.250000
O O8 0.698274 0.185448 0.131169
O O9 0.804623 0.189223 0.399944
O O10 0.685090 0.041933 0.254311
O O11 0.835607 0.059048 0.658648
O O12 0.031869 0.182023 0.646678
O O13 0.281332 0.646896 0.902804
O O14 0.084293 0.749927 0.943680
O O15 0.500000 0.000000 0.500000
O O16 0.000000 0.428823 0.250000
#
# Coordination Sequence:
#
# PCOD9229295 Si02
#       8
#     2   4   4   2   4   4   4   4
#     4  12  26  44  70  96 142 190 228 300 354 420
#     4  10  20  36  68 104 140 176 229 288 352 415
#     4  12  26  43  73  95 140 187 230 292 358 424
#     4  12  30  42  68 110 140 184 248 298 352 440
#     4  12  23  44  69 102 137 180 240 283 356 417
#     4  12  26  48  67 100 143 188 235 296 367 416
#     4  12  25  43  69 106 138 182 237 290 349 425
#     4  10  19  38  67 105 134 179 227 290 347 420
#
# _framework density 21.079422999999998
#
# number of rings (size 3 to 8) (size 9 to 14) (size 15 to 20)
#    0.000    0.571    7.857    1.286    5.000    0.571 
#    0.000    0.000    1.571    1.714    0.000    0.000 
#    0.000    0.000    0.000    0.000    0.000    0.000 
#
# Total GULP energy -156387.184328 kJ/mol
# GULP energy per Si atom -5585.256583 kJ/mol
# Density = 2.103145 g / cm^3
# Si number density = 21.079423 Si / 1000 Ang^3
#
#
#
# Elastic Constant Matrix: (Units=GPa)
#
#
# Indices 1 2 3 4 5 6 
#
# 1 62.9645 21.4714 23.6183 0.0000 2.5900 0.0000
# 2 21.4714 99.2453 55.3751 0.0000 15.3711 0.0000
# 3 23.6183 55.3751 109.4311 0.0000 5.0608 0.0000
# 4 0.0000 0.0000 0.0000 58.0628 0.0000 -24.1885
# 5 2.5900 15.3711 5.0608 0.0000 19.1026 0.0000
# 6 0.0000 0.0000 0.0000 -24.1885 0.0000 142.4844
#
#
#
# Elastic Compliance Matrix: (Units=1/GPa)
#
#
# Indices 1 2 3 4 5 6 
#
# 1 0.017670 -0.002403 -0.002608 0.000000 0.000229 0.000000
# 2 -0.002403 0.016320 -0.007236 0.000000 -0.010889 0.000000
# 3 -0.002608 -0.007236 0.013239 0.000000 0.002669 0.000000
# 4 0.000000 0.000000 0.000000 0.018533 0.000000 0.003146
# 5 0.000229 -0.010889 0.002669 0.000000 0.060373 0.000000
# 6 0.000000 0.000000 0.000000 0.003146 0.000000 0.007552
#
#
# Mechanical properties :
#
#
# Convention : Reuss Voigt Hill
#
# Bulk Modulus (GPa) = 43.98553 52.50782 48.24668
# Shear Modulus (GPa) = 30.16383 55.34173 42.75278
#
# Velocity S-wave (km/s) = 3.78691 5.12942 4.50841
# Velocity P-wave (km/s) = 6.32715 7.74886 7.07381
#
# Compressibility (1/GPa) = 0.02273475
#
# Stress axis : x y z
#
# Youngs Moduli (GPa) = 56.59183 61.27486 75.53237
#
# Poissons Ratio (x) = 0.14724 0.19702
# Poissons Ratio (y) = 0.13599 0.54656
# Poissons Ratio (z) = 0.14761 0.44339
#
# Static dielectric constant tensor:
#      x y z
#    x 1.775030 0.000000 -0.018050 
#    y 0.000000 1.738840 0.000000 
#    z -0.018050 0.000000 1.791860 
# 
# From -- ./inp_files/30554.got.cif
#   From: 2010.05.17/outbox.cif.g08.bks.cpg/sg13_16_cif.got.tgz:30554.got - 2010.06.03 16:44:36.
