data_PCOD9229510
_publ_section_title
;
Structure prediction by ZEFSAII (Michael W. Deem and Ramdas Pophale) SiO2 
 PCOD9229510
Probable space group: P 2/C
;
_chemical_formula_sum "Si O2"
_cell_formula_units_Z 20
_cell_length_a 21.533345
_cell_length_b 10.471603
_cell_length_c 9.130338
_cell_angle_alpha 90.000000
_cell_angle_beta 150.369950
_cell_angle_gamma 90.000000
_cell_volume 1017.860059
_symmetry_space_group_name_H-M "P 2/C"
_symmetry_group_IT_number 13
_symmetry_cell_setting 'monoclinic'
loop_
_space_group_symop_operation_xyz
x,y,z
-x,y,1/2-z
-x,-y,-z
x,-y,1/2+z
loop_
_atom_site_type_symbol
_atom_site_label
_atom_site_fract_x
_atom_site_fract_y
_atom_site_fract_z
Si Si1 0.500000 0.985497 0.750000
Si Si2 0.855103 0.620718 0.124904
Si Si3 0.152578 0.357063 0.238634
Si Si4 0.839168 0.881477 0.170534
Si Si5 0.659393 0.118002 0.832910
Si Si6 0.000000 0.004442 0.250000
O O1 0.590794 0.081436 0.844572
O O2 0.437052 0.891637 0.500286
O O3 0.814326 0.486818 0.108460
O O4 0.783197 0.741519 0.043856
O O5 0.002261 0.654663 0.463855
O O6 0.841037 0.619624 0.921991
O O7 0.244701 0.238353 0.464412
O O8 0.917740 0.905614 0.478338
O O9 0.923017 0.912433 0.199658
O O10 0.740742 0.993147 0.969326
#
# Coordination Sequence:
#
# PCOD9229510 Si02
#       6
#     2   4   4   4   4   2
#     4  10  24  40  62  86 108 152 220 262 284 324
#     4  10  21  35  56  90 122 152 186 220 289 385
#     4  10  21  37  57  84 123 158 185 230 292 356
#     4  11  20  34  57  85 120 153 187 239 296 352
#     4  11  22  40  62  84 113 152 200 256 297 328
#     4  10  20  30  54  94 124 152 192 226 288 382
#
# _framework density 19.649066999999999
#
# number of rings (size 3 to 8) (size 9 to 14) (size 15 to 20)
#    0.000    1.600    0.000    7.200    0.000    6.400 
#    0.000    0.000    0.000   20.400    0.000    0.000 
#    0.000    0.000    0.000    0.000    0.000    0.000 
#
# Total GULP energy -111594.599816 kJ/mol
# GULP energy per Si atom -5579.729991 kJ/mol
# Density = 1.960434 g / cm^3
# Si number density = 19.649067 Si / 1000 Ang^3
#
#
#
# Elastic Constant Matrix: (Units=GPa)
#
#
# Indices 1 2 3 4 5 6 
#
# 1 194.6671 78.3421 32.1629 0.0000 11.0014 0.0000
# 2 78.3421 185.3428 41.2901 0.0000 3.1063 0.0000
# 3 32.1629 41.2901 67.7755 0.0000 -16.1501 0.0000
# 4 0.0000 0.0000 0.0000 -184.1560 0.0000 -51.5169
# 5 11.0014 3.1063 -16.1501 0.0000 28.3805 0.0000
# 6 0.0000 0.0000 0.0000 -51.5169 0.0000 12.0500
#
#
#
# Elastic Compliance Matrix: (Units=1/GPa)
#
#
# Indices 1 2 3 4 5 6 
#
# 1 0.006684 -0.002131 -0.002817 0.000000 -0.003961 0.000000
# 2 -0.002131 0.007200 -0.003894 0.000000 -0.002178 0.000000
# 3 -0.002817 -0.003894 0.021779 0.000000 0.013912 0.000000
# 4 0.000000 0.000000 0.000000 -0.002473 0.000000 -0.010572
# 5 -0.003961 -0.002178 0.013912 0.000000 0.044926 0.000000
# 6 0.000000 0.000000 0.000000 -0.010572 0.000000 0.037790
#
#
# Mechanical properties :
#
#
# Convention : Reuss Voigt Hill
#
# Bulk Modulus (GPa) = 55.62419 83.48617 69.55518
# Shear Modulus (GPa) = 35.82054 -9.01239 13.40407
#
# Velocity S-wave (km/s) = 4.27431 -2.14398 2.61468
# Velocity P-wave (km/s) = 7.26154 6.03755 6.67765
#
# Compressibility (1/GPa) = 0.01797779
#
# Stress axis : x y z
#
# Youngs Moduli (GPa) = 149.61110 138.88371 45.91588
#
# Poissons Ratio (x) = 0.29599 0.12936
# Poissons Ratio (y) = 0.31885 0.17880
# Poissons Ratio (z) = 0.42151 0.54083
#
# Static dielectric constant tensor:
#      x y z
#    x 1.605990 0.000000 0.205500 
#    y 0.000000 1.705080 0.000000 
#    z 0.205500 0.000000 1.214360 
# 
# From -- ./inp_files/14957.got.cif
#   From: 2010.05.17/outbox.cif.g08.bks.cpg/sg13_8_cif.got.tgz:14957.got - 2010.06.03 16:44:36.
