data_PCOD9229418
_publ_section_title
;
Structure prediction by ZEFSAII (Michael W. Deem and Ramdas Pophale) SiO2 
 PCOD9229418
Probable space group: P 2/C
;
_chemical_formula_sum "Si O2"
_cell_formula_units_Z 24
_cell_length_a 19.064565
_cell_length_b 9.969335
_cell_length_c 13.969969
_cell_angle_alpha 90.000000
_cell_angle_beta 23.457877
_cell_angle_gamma 90.000000
_cell_volume 1056.946892
_symmetry_space_group_name_H-M "P 2/C"
_symmetry_group_IT_number 13
_symmetry_cell_setting 'monoclinic'
loop_
_space_group_symop_operation_xyz
x,y,z
-x,y,1/2-z
-x,-y,-z
x,-y,1/2+z
loop_
_atom_site_type_symbol
_atom_site_label
_atom_site_fract_x
_atom_site_fract_y
_atom_site_fract_z
Si Si1 0.500000 0.485620 0.750000
Si Si2 0.385186 0.873166 0.109340
Si Si3 0.000000 0.452288 0.750000
Si Si4 0.124491 0.402810 0.280105
Si Si5 0.338362 0.698798 0.806197
Si Si6 0.998544 0.890081 0.916421
Si Si7 0.686764 0.948972 0.519085
O O1 0.661970 0.412651 0.491926
O O2 0.419515 0.584206 0.770832
O O3 0.190692 0.873714 0.396985
O O4 0.325216 0.882023 0.071978
O O5 0.516310 0.746800 0.952422
O O6 0.500000 0.000000 0.000000
O O7 0.077241 0.548439 0.733031
O O8 0.148496 0.357748 0.515271
O O9 0.000000 0.500000 0.500000
O O10 0.060709 0.252523 0.377986
O O11 0.309322 0.829696 0.909195
O O12 0.155002 0.952241 0.658649
O O13 0.000000 0.000000 0.000000
O O14 0.500000 0.025521 0.750000
#
# Coordination Sequence:
#
# PCOD9229418 Si02
#       7
#     2   4   2   4   4   4   4
#     4  10  20  42  74  98 132 188 238 288 356 430
#     4  10  20  35  57 100 126 165 224 280 330 415
#     4  10  26  40  68 104 130 182 244 286 360 432
#     4  11  25  46  72 101 145 186 237 298 361 420
#     4  10  19  40  65  89 132 170 235 278 348 409
#     4  10  23  40  66  93 135 174 232 272 359 416
#     4   9  19  37  62  88 124 172 213 269 340 400
#
# _framework density 22.706911999999999
#
# number of rings (size 3 to 8) (size 9 to 14) (size 15 to 20)
#    0.000    2.000    2.500    1.000   10.500    1.333 
#    6.000    9.167    0.000    0.000    0.000    0.000 
#    0.000    0.000    0.000    0.000    0.000    0.000 
#
# Total GULP energy -133746.274655 kJ/mol
# GULP energy per Si atom -5572.761444 kJ/mol
# Density = 2.265523 g / cm^3
# Si number density = 22.706912 Si / 1000 Ang^3
#
#
#
# Elastic Constant Matrix: (Units=GPa)
#
#
# Indices 1 2 3 4 5 6 
#
# 1 32.3184 14.4502 6.8845 0.0000 5.3402 0.0000
# 2 14.4502 143.2046 74.2097 0.0000 -11.9138 0.0000
# 3 6.8845 74.2097 168.7868 0.0000 -30.1933 0.0000
# 4 0.0000 0.0000 0.0000 48.2682 0.0000 1.7987
# 5 5.3402 -11.9138 -30.1933 0.0000 30.0126 0.0000
# 6 0.0000 0.0000 0.0000 1.7987 0.0000 10.2487
#
#
#
# Elastic Compliance Matrix: (Units=1/GPa)
#
#
# Indices 1 2 3 4 5 6 
#
# 1 0.034275 -0.003430 -0.001493 0.000000 -0.008962 0.000000
# 2 -0.003430 0.009393 -0.003919 0.000000 0.000397 0.000000
# 3 -0.001493 -0.003919 0.009119 0.000000 0.007884 0.000000
# 4 0.000000 0.000000 0.000000 0.020854 0.000000 -0.003660
# 5 -0.008962 0.000397 0.007884 0.000000 0.043003 0.000000
# 6 0.000000 0.000000 0.000000 -0.003660 0.000000 0.098216
#
#
# Mechanical properties :
#
#
# Convention : Reuss Voigt Hill
#
# Bulk Modulus (GPa) = 28.48847 59.48874 43.98861
# Shear Modulus (GPa) = 20.47132 34.29025 27.38078
#
# Velocity S-wave (km/s) = 3.00583 3.89025 3.47628
# Velocity P-wave (km/s) = 4.96187 6.81426 5.96046
#
# Compressibility (1/GPa) = 0.03510192
#
# Stress axis : x y z
#
# Youngs Moduli (GPa) = 29.17592 106.46269 109.66351
#
# Poissons Ratio (x) = 0.36522 0.16372
# Poissons Ratio (y) = 0.10009 0.42976
# Poissons Ratio (z) = 0.04356 0.41722
#
# Static dielectric constant tensor:
#      x y z
#    x 1.854230 0.000000 0.065600 
#    y 0.000000 1.779530 0.000000 
#    z 0.065600 0.000000 2.136540 
# 
# From -- ./inp_files/71261.got.cif
#   From: 2010.05.17/outbox.cif.g08.bks.cpg/sg13_36_cif.got.tgz:71261.got - 2010.06.03 16:44:36.
