data_PCOD9229344
_publ_section_title
;
Structure prediction by ZEFSAII (Michael W. Deem and Ramdas Pophale) SiO2 
 PCOD9229344
Probable space group: P 2/C
;
_chemical_formula_sum "Si O2"
_cell_formula_units_Z 28
_cell_length_a 11.794947
_cell_length_b 8.764915
_cell_length_c 13.443604
_cell_angle_alpha 90.000000
_cell_angle_beta 111.946595
_cell_angle_gamma 90.000000
_cell_volume 1289.105929
_symmetry_space_group_name_H-M "P 2/C"
_symmetry_group_IT_number 13
_symmetry_cell_setting 'monoclinic'
loop_
_space_group_symop_operation_xyz
x,y,z
-x,y,1/2-z
-x,-y,-z
x,-y,1/2+z
loop_
_atom_site_type_symbol
_atom_site_label
_atom_site_fract_x
_atom_site_fract_y
_atom_site_fract_z
Si Si1 0.991750 0.179065 0.131620
Si Si2 0.376705 0.204736 0.271920
Si Si3 0.817076 0.932915 0.282985
Si Si4 0.779980 0.300382 0.940167
Si Si5 0.566828 0.185958 0.977693
Si Si6 0.308230 0.867113 0.452041
Si Si7 0.801112 0.354525 0.416384
O O1 0.000000 0.226845 0.250000
O O2 0.077077 0.281561 0.088894
O O3 0.856810 0.200673 0.045261
O O4 0.054890 0.013140 0.148767
O O5 0.500000 0.186823 0.250000
O O6 0.403831 0.220425 0.397228
O O7 0.299626 0.345943 0.204368
O O8 0.288122 0.058460 0.227813
O O9 0.799480 0.782689 0.341908
O O10 0.798950 0.906535 0.160046
O O11 0.822356 0.473740 0.956211
O O12 0.639749 0.293805 0.928092
O O13 0.624030 0.016153 0.979143
O O14 0.421198 0.194981 0.922250
O O15 0.256858 0.751133 0.516258
#
# Coordination Sequence:
#
# PCOD9229344 Si02
#       7
#     4   4   4   4   4   4   4
#     4  11  24  46  69  90 121 171 223 275 326 388
#     4  10  19  39  63  90 123 173 216 261 318 371
#     4  10  24  38  66  95 124 164 223 279 314 380
#     4  12  25  41  62  99 134 173 210 267 334 397
#     4  10  21  38  66  92 131 172 221 271 314 383
#     4  10  21  40  64  97 126 172 220 269 327 373
#     4  11  24  42  64  95 136 174 211 262 335 398
#
# _framework density 21.720480999999999
#
# number of rings (size 3 to 8) (size 9 to 14) (size 15 to 20)
#    0.000    1.429    1.429    5.143    4.000    4.000 
#    2.571    0.714    0.000    0.000    0.000    0.000 
#    0.000    0.000    0.000    0.000    0.000    0.000 
#
# Total GULP energy -156554.747725 kJ/mol
# GULP energy per Si atom -5591.240990 kJ/mol
# Density = 2.167104 g / cm^3
# Si number density = 21.720481 Si / 1000 Ang^3
#
#
#
# Elastic Constant Matrix: (Units=GPa)
#
#
# Indices 1 2 3 4 5 6 
#
# 1 120.5359 40.6078 -5.7031 0.0000 -7.1500 0.0000
# 2 40.6078 61.1707 23.7808 0.0000 -20.2928 0.0000
# 3 -5.7031 23.7808 57.1401 0.0000 -2.0322 0.0000
# 4 0.0000 0.0000 0.0000 9.7888 0.0000 7.7155
# 5 -7.1500 -20.2928 -2.0322 0.0000 33.0687 0.0000
# 6 0.0000 0.0000 0.0000 7.7155 0.0000 12.0707
#
#
#
# Elastic Compliance Matrix: (Units=1/GPa)
#
#
# Indices 1 2 3 4 5 6 
#
# 1 0.012375 -0.012013 0.006081 0.000000 -0.004322 0.000000
# 2 -0.012013 0.036780 -0.015830 0.000000 0.019000 0.000000
# 3 0.006081 -0.015830 0.024451 0.000000 -0.006897 0.000000
# 4 0.000000 0.000000 0.000000 0.205886 0.000000 -0.131602
# 5 -0.004322 0.019000 -0.006897 0.000000 0.040541 0.000000
# 6 0.000000 0.000000 0.000000 -0.131602 0.000000 0.166965
#
#
# Mechanical properties :
#
#
# Convention : Reuss Voigt Hill
#
# Bulk Modulus (GPa) = 33.24405 39.57976 36.41190
# Shear Modulus (GPa) = 9.24988 22.99638 16.12313
#
# Velocity S-wave (km/s) = 2.06588 3.25736 2.72748
# Velocity P-wave (km/s) = 4.58575 5.69290 5.16905
#
# Compressibility (1/GPa) = 0.03008057
#
# Stress axis : x y z
#
# Youngs Moduli (GPa) = 80.81047 27.18905 40.89840
#
# Poissons Ratio (x) = 0.32662 -0.24870
# Poissons Ratio (y) = 0.97076 0.64744
# Poissons Ratio (z) = -0.49140 0.43041
#
# Static dielectric constant tensor:
#      x y z
#    x 1.803360 0.000000 0.025240 
#    y 0.000000 1.774270 0.000000 
#    z 0.025240 0.000000 1.812600 
# 
# From -- ./inp_files/50420.got.cif
#   From: 2010.05.17/outbox.cif.g08.bks.cpg/sg13_26_cif.got.tgz:50420.got - 2010.06.03 16:44:36.
