data_PCOD9229850
_publ_section_title
;
Structure prediction by ZEFSAII (Michael W. Deem and Ramdas Pophale) SiO2 
 PCOD9229850
Probable space group: P 2/C
;
_chemical_formula_sum "Si O2"
_cell_formula_units_Z 24
_cell_length_a 18.294369
_cell_length_b 9.087983
_cell_length_c 18.154152
_cell_angle_alpha 90.000000
_cell_angle_beta 156.836210
_cell_angle_gamma 90.000000
_cell_volume 1187.277273
_symmetry_space_group_name_H-M "P 2/C"
_symmetry_group_IT_number 13
_symmetry_cell_setting 'monoclinic'
loop_
_space_group_symop_operation_xyz
x,y,z
-x,y,1/2-z
-x,-y,-z
x,-y,1/2+z
loop_
_atom_site_type_symbol
_atom_site_label
_atom_site_fract_x
_atom_site_fract_y
_atom_site_fract_z
Si Si1 0.193184 0.193738 0.388932
Si Si2 0.500000 0.621766 0.250000
Si Si3 0.000000 0.675921 0.250000
Si Si4 0.357958 0.124005 0.048233
Si Si5 0.325278 0.557882 0.240784
Si Si6 0.422458 0.320477 0.968759
Si Si7 0.074868 0.467294 0.186282
O O1 0.324824 0.280331 0.566858
O O2 0.152745 0.311234 0.287019
O O3 0.000000 0.161410 0.250000
O O4 0.291751 0.039559 0.465993
O O5 0.433294 0.543040 0.262785
O O6 0.015617 0.564054 0.332113
O O7 0.181171 0.777488 0.409450
O O8 0.500000 0.122381 0.250000
O O9 0.424489 0.195148 0.032437
O O10 0.391430 0.412314 0.344324
O O11 0.399800 0.695567 0.359228
O O12 0.104371 0.564840 0.029570
O O13 0.243629 0.425695 0.819755
#
# Coordination Sequence:
#
# PCOD9229850 Si02
#       7
#     4   2   2   4   4   4   4
#     4  12  22  38  61  91 121 160 214 250 299 371
#     4  12  22  38  66  88 120 168 206 256 300 374
#     4  10  20  34  58  94 114 152 208 250 302 358
#     4  11  23  38  61  89 128 161 201 255 309 363
#     4  11  22  39  65  92 122 159 209 258 310 359
#     4  10  24  40  60  94 126 159 205 261 310 368
#     4  11  20  37  63  88 121 163 206 257 304 363
#
# _framework density 20.214317999999999
#
# number of rings (size 3 to 8) (size 9 to 14) (size 15 to 20)
#    0.000    1.000    5.833    1.500    3.500    0.000 
#    0.000    1.667    0.000    0.000    0.000    0.000 
#    0.000    0.000    0.000    0.000    0.000    0.000 
#
# Total GULP energy -133806.396547 kJ/mol
# GULP energy per Si atom -5575.266523 kJ/mol
# Density = 2.016831 g / cm^3
# Si number density = 20.214318 Si / 1000 Ang^3
#
#
#
# Elastic Constant Matrix: (Units=GPa)
#
#
# Indices 1 2 3 4 5 6 
#
# 1 64.4077 10.1452 4.3927 0.0000 -11.1663 0.0000
# 2 10.1452 81.2512 33.4206 0.0000 -12.5563 0.0000
# 3 4.3927 33.4206 136.7938 0.0000 -25.6971 0.0000
# 4 0.0000 0.0000 0.0000 26.6500 0.0000 15.5510
# 5 -11.1663 -12.5563 -25.6971 0.0000 25.7426 0.0000
# 6 0.0000 0.0000 0.0000 15.5510 0.0000 5.5398
#
#
#
# Elastic Compliance Matrix: (Units=1/GPa)
#
#
# Indices 1 2 3 4 5 6 
#
# 1 0.017049 -0.001429 0.001305 0.000000 0.008001 0.000000
# 2 -0.001429 0.014164 -0.002749 0.000000 0.003545 0.000000
# 3 0.001305 -0.002749 0.009593 0.000000 0.008802 0.000000
# 4 0.000000 0.000000 0.000000 -0.058811 0.000000 0.165089
# 5 0.008001 0.003545 0.008802 0.000000 0.052832 0.000000
# 6 0.000000 0.000000 0.000000 0.165089 0.000000 -0.282916
#
#
# Mechanical properties :
#
#
# Convention : Reuss Voigt Hill
#
# Bulk Modulus (GPa) = 28.52195 42.04109 35.28152
# Shear Modulus (GPa) = -21.67741 27.21943 2.77101
#
# Velocity S-wave (km/s) = -3.27827 3.67351 1.17209
# Velocity P-wave (km/s) = 0.43477 6.23183 4.39583
#
# Compressibility (1/GPa) = 0.03506072
#
# Stress axis : x y z
#
# Youngs Moduli (GPa) = 58.65353 70.59947 104.23929
#
# Poissons Ratio (x) = 0.10089 -0.13599
# Poissons Ratio (y) = 0.08382 0.28652
# Poissons Ratio (z) = -0.07652 0.19406
#
# Static dielectric constant tensor:
#      x y z
#    x 1.822570 0.000000 -0.017530 
#    y 0.000000 1.703250 0.000000 
#    z -0.017530 0.000000 1.725450 
# 
# From -- ./inp_files/63419.got.cif
#   From: 2010.05.17/outbox.cif.g08.bks.cpg/sg13_32_cif.got.tgz:63419.got - 2010.06.03 16:44:36.
