data_PCOD9229404
_publ_section_title
;
Structure prediction by ZEFSAII (Michael W. Deem and Ramdas Pophale) SiO2 
 PCOD9229404
Probable space group: P 2/C
;
_chemical_formula_sum "Si O2"
_cell_formula_units_Z 20
_cell_length_a 7.982140
_cell_length_b 7.293174
_cell_length_c 23.140397
_cell_angle_alpha 90.000000
_cell_angle_beta 142.406267
_cell_angle_gamma 90.000000
_cell_volume 821.822834
_symmetry_space_group_name_H-M "P 2/C"
_symmetry_group_IT_number 13
_symmetry_cell_setting 'monoclinic'
loop_
_space_group_symop_operation_xyz
x,y,z
-x,y,1/2-z
-x,-y,-z
x,-y,1/2+z
loop_
_atom_site_type_symbol
_atom_site_label
_atom_site_fract_x
_atom_site_fract_y
_atom_site_fract_z
Si Si1 0.409063 0.833133 0.306968
Si Si2 0.399906 0.436133 0.162701
Si Si3 0.433207 0.166015 0.525484
Si Si4 0.958280 0.925776 0.390752
Si Si5 0.770456 0.439118 0.509818
O O1 0.407125 0.618455 0.288234
O O2 0.381417 0.852350 0.367191
O O3 0.712665 0.889336 0.368418
O O4 0.190803 0.946488 0.211188
O O5 0.500000 0.339828 0.250000
O O6 0.081605 0.491760 0.083085
O O7 0.389467 0.372564 0.092577
O O8 0.382506 0.384198 0.504933
O O9 0.500000 0.000000 0.500000
O O10 0.124399 0.098832 0.457195
O O11 0.157781 0.748540 0.437814
#
# Coordination Sequence:
#
# PCOD9229404 Si02
#       5
#     4   4   4   4   4
#     4   9  18  37  62  88 117 154 195 262 310 345
#     4   9  14  31  59  89 119 143 192 260 307 349
#     4  11  24  38  56  87 128 162 201 241 297 372
#     4  10  19  40  63  86 118 154 208 253 306 359
#     4   9  19  34  58  86 117 156 196 247 305 356
#
# _framework density 24.336147
#
# number of rings (size 3 to 8) (size 9 to 14) (size 15 to 20)
#    0.000    2.400    4.000    1.800    0.000    1.600 
#    7.200    0.000    0.000    2.400    0.000    0.000 
#    0.000    0.000    0.000    0.000    0.000    0.000 
#
# Total GULP energy -111386.068460 kJ/mol
# GULP energy per Si atom -5569.303423 kJ/mol
# Density = 2.428076 g / cm^3
# Si number density = 24.336147 Si / 1000 Ang^3
#
#
#
# Elastic Constant Matrix: (Units=GPa)
#
#
# Indices 1 2 3 4 5 6 
#
# 1 47.9271 47.8585 20.1937 0.0000 -19.8100 0.0000
# 2 47.8585 103.2702 46.7842 0.0000 -22.5244 0.0000
# 3 20.1937 46.7842 151.9086 0.0000 -33.3919 0.0000
# 4 0.0000 0.0000 0.0000 21.0300 0.0000 7.6620
# 5 -19.8100 -22.5244 -33.3919 0.0000 28.8788 0.0000
# 6 0.0000 0.0000 0.0000 7.6620 0.0000 14.4138
#
#
#
# Elastic Compliance Matrix: (Units=1/GPa)
#
#
# Indices 1 2 3 4 5 6 
#
# 1 0.047495 -0.019080 0.004630 0.000000 0.023052 0.000000
# 2 -0.019080 0.019874 -0.004095 0.000000 -0.002322 0.000000
# 3 0.004630 -0.004095 0.009687 0.000000 0.011182 0.000000
# 4 0.000000 0.000000 0.000000 0.058972 0.000000 -0.031348
# 5 0.023052 -0.002322 0.011182 0.000000 0.061559 0.000000
# 6 0.000000 0.000000 0.000000 -0.031348 0.000000 0.086042
#
#
# Mechanical properties :
#
#
# Convention : Reuss Voigt Hill
#
# Bulk Modulus (GPa) = 25.02158 59.19765 42.10961
# Shear Modulus (GPa) = 14.96815 25.41584 20.19200
#
# Velocity S-wave (km/s) = 2.48273 3.23517 2.88360
# Velocity P-wave (km/s) = 4.30378 6.19136 5.33177
#
# Compressibility (1/GPa) = 0.03996550
#
# Stress axis : x y z
#
# Youngs Moduli (GPa) = 21.05463 50.31607 103.23470
#
# Poissons Ratio (x) = 0.96005 -0.47795
# Poissons Ratio (y) = 0.40173 0.42273
# Poissons Ratio (z) = -0.09748 0.20604
#
# Static dielectric constant tensor:
#      x y z
#    x 2.212060 0.000000 -0.018000 
#    y 0.000000 1.941560 0.000000 
#    z -0.018000 0.000000 1.973810 
# 
# From -- ./inp_files/84891.got.cif
#   From: 2010.05.17/outbox.cif.g08.bks.cpg/sg13_43_cif.got.tgz:84891.got - 2010.06.03 16:44:36.
