data_PCOD9229385
_publ_section_title
;
Structure prediction by ZEFSAII (Michael W. Deem and Ramdas Pophale) SiO2 
 PCOD9229385
Probable space group: P 2/C
;
_chemical_formula_sum "Si O2"
_cell_formula_units_Z 22
_cell_length_a 14.705063
_cell_length_b 12.204270
_cell_length_c 11.227867
_cell_angle_alpha 90.000000
_cell_angle_beta 149.227246
_cell_angle_gamma 90.000000
_cell_volume 1030.945353
_symmetry_space_group_name_H-M "P 2/C"
_symmetry_group_IT_number 13
_symmetry_cell_setting 'monoclinic'
loop_
_space_group_symop_operation_xyz
x,y,z
-x,y,1/2-z
-x,-y,-z
x,-y,1/2+z
loop_
_atom_site_type_symbol
_atom_site_label
_atom_site_fract_x
_atom_site_fract_y
_atom_site_fract_z
Si Si1 0.863026 0.650088 0.835092
Si Si2 0.627993 0.070948 0.782047
Si Si3 0.500000 0.310901 0.250000
Si Si4 0.263248 0.420412 0.786953
Si Si5 0.696823 0.700226 0.413494
Si Si6 0.665254 0.156819 0.235566
O O1 0.742466 0.549778 0.745445
O O2 0.831961 0.647389 0.658350
O O3 0.798044 0.766744 0.810491
O O4 0.063868 0.620799 0.091741
O O5 0.500000 0.041896 0.750000
O O6 0.748135 0.172826 0.954517
O O7 0.501942 0.122603 0.536521
O O8 0.727023 0.962223 0.850488
O O9 0.617529 0.386711 0.467784
O O10 0.607376 0.230764 0.282151
O O11 0.315950 0.359098 0.726087
O O12 0.500000 0.699807 0.250000
#
# Coordination Sequence:
#
# PCOD9229385 Si02
#       6
#     4   4   2   4   4   4
#     4  11  25  45  65  94 140 177 213 279 338 391
#     4  10  19  39  68  97 128 172 225 274 322 388
#     4  12  24  40  66  98 132 168 224 272 318 398
#     4  11  27  43  65  99 135 175 220 273 337 395
#     4  11  21  43  71  97 126 172 226 269 323 401
#     4  11  22  38  68  96 132 172 220 270 331 391
#
# _framework density 21.339638999999998
#
# number of rings (size 3 to 8) (size 9 to 14) (size 15 to 20)
#    0.000    1.091    6.364    0.545    3.818    2.182 
#    0.000    0.909    4.000    0.000    0.000    0.000 
#    0.000    0.000    0.000    0.000    0.000    0.000 
#
# Total GULP energy -122995.510440 kJ/mol
# GULP energy per Si atom -5590.705020 kJ/mol
# Density = 2.129107 g / cm^3
# Si number density = 21.339639 Si / 1000 Ang^3
#
#
#
# Elastic Constant Matrix: (Units=GPa)
#
#
# Indices 1 2 3 4 5 6 
#
# 1 95.6432 46.1920 26.1246 0.0000 -22.5029 0.0000
# 2 46.1920 161.1963 38.6083 0.0000 0.0171 0.0000
# 3 26.1246 38.6083 92.1913 0.0000 -21.1281 0.0000
# 4 0.0000 0.0000 0.0000 6.6620 0.0000 17.0510
# 5 -22.5029 0.0171 -21.1281 0.0000 23.7131 0.0000
# 6 0.0000 0.0000 0.0000 17.0510 0.0000 -42.8392
#
#
#
# Elastic Compliance Matrix: (Units=1/GPa)
#
#
# Indices 1 2 3 4 5 6 
#
# 1 0.016487 -0.005034 0.001285 0.000000 0.016794 0.000000
# 2 -0.005034 0.008636 -0.004130 0.000000 -0.008463 0.000000
# 3 0.001285 -0.004130 0.015698 0.000000 0.015209 0.000000
# 4 0.000000 0.000000 0.000000 0.074356 0.000000 0.029596
# 5 0.016794 -0.008463 0.015209 0.000000 0.071665 0.000000
# 6 0.000000 0.000000 0.000000 0.029596 0.000000 -0.011563
#
#
# Mechanical properties :
#
#
# Convention : Reuss Voigt Hill
#
# Bulk Modulus (GPa) = 39.89821 63.43119 51.66470
# Shear Modulus (GPa) = 25.07628 13.38091 19.22859
#
# Velocity S-wave (km/s) = 3.43170 2.50680 3.00505
# Velocity P-wave (km/s) = 5.86851 6.17801 6.02525
#
# Compressibility (1/GPa) = 0.02506378
#
# Stress axis : x y z
#
# Youngs Moduli (GPa) = 60.65328 115.79218 63.70295
#
# Poissons Ratio (x) = 0.58291 -0.08186
# Poissons Ratio (y) = 0.30533 0.26307
# Poissons Ratio (z) = -0.07794 0.47818
#
# Static dielectric constant tensor:
#      x y z
#    x 1.788000 0.000000 0.011510 
#    y 0.000000 1.783170 0.000000 
#    z 0.011510 0.000000 1.772270 
# 
# From -- ./inp_files/37247.got.cif
#   From: 2010.05.17/outbox.cif.g08.bks.cpg/sg13_19_cif.got.tgz:37247.got - 2010.06.03 16:44:36.
