data_PCOD9229058
_publ_section_title
;
Structure prediction by ZEFSAII (Michael W. Deem and Ramdas Pophale) SiO2 
 PCOD9229058
Probable space group: P 2/C
;
_chemical_formula_sum "Si O2"
_cell_formula_units_Z 20
_cell_length_a 15.322880
_cell_length_b 5.233957
_cell_length_c 13.290103
_cell_angle_alpha 90.000000
_cell_angle_beta 116.128225
_cell_angle_gamma 90.000000
_cell_volume 956.937769
_symmetry_space_group_name_H-M "P 2/C"
_symmetry_group_IT_number 13
_symmetry_cell_setting 'monoclinic'
loop_
_space_group_symop_operation_xyz
x,y,z
-x,y,1/2-z
-x,-y,-z
x,-y,1/2+z
loop_
_atom_site_type_symbol
_atom_site_label
_atom_site_fract_x
_atom_site_fract_y
_atom_site_fract_z
Si Si1 0.925113 0.463191 0.802823
Si Si2 0.126845 0.029932 0.120324
Si Si3 0.709661 0.061523 0.436607
Si Si4 0.614625 0.437179 0.793013
Si Si5 0.725956 0.236788 0.667033
O O1 0.935050 0.219668 0.882214
O O2 0.816766 0.430447 0.701193
O O3 0.000000 0.461807 0.750000
O O4 0.925086 0.719030 0.867331
O O5 0.222793 0.981753 0.239067
O O6 0.175882 0.043346 0.035879
O O7 0.664121 0.299921 0.352884
O O8 0.695292 0.126124 0.545683
O O9 0.659437 0.795719 0.380959
O O10 0.500000 0.451378 0.750000
O O11 0.644332 0.368413 0.693668
#
# Coordination Sequence:
#
# PCOD9229058 Si02
#       5
#     4   4   4   4   4
#     4  10  19  37  60  82 117 152 188 239 287 329
#     4   9  19  37  55  82 117 148 191 235 282 332
#     4  11  21  39  63  82 117 157 190 233 291 342
#     4  11  24  40  59  88 119 148 193 243 284 341
#     4   9  23  37  62  83 119 152 195 231 291 335
#
# _framework density 20.900001
#
# number of rings (size 3 to 8) (size 9 to 14) (size 15 to 20)
#    1.200    0.800    2.000    1.200    2.800    1.600 
#    0.000    2.000    0.000    0.000    0.000    0.000 
#    0.000    0.000    0.000    0.000    0.000    0.000 
#
# Total GULP energy -111595.970274 kJ/mol
# GULP energy per Si atom -5579.798514 kJ/mol
# Density = 2.085243 g / cm^3
# Si number density = 20.900001 Si / 1000 Ang^3
#
#
#
# Elastic Constant Matrix: (Units=GPa)
#
#
# Indices 1 2 3 4 5 6 
#
# 1 144.9056 26.7496 24.9409 0.0000 -23.8949 0.0000
# 2 26.7496 129.8192 -3.5896 0.0000 4.8995 0.0000
# 3 24.9409 -3.5896 52.5147 0.0000 -15.8415 0.0000
# 4 0.0000 0.0000 0.0000 29.3267 0.0000 -4.2458
# 5 -23.8949 4.8995 -15.8415 0.0000 21.9987 0.0000
# 6 0.0000 0.0000 0.0000 -4.2458 0.0000 21.5116
#
#
#
# Elastic Compliance Matrix: (Units=1/GPa)
#
#
# Indices 1 2 3 4 5 6 
#
# 1 0.009132 -0.002276 -0.001722 0.000000 0.009187 0.000000
# 2 -0.002276 0.008336 0.000441 0.000000 -0.004011 0.000000
# 3 -0.001722 0.000441 0.024651 0.000000 0.015783 0.000000
# 4 0.000000 0.000000 0.000000 0.035102 0.000000 0.006928
# 5 0.009187 -0.004011 0.015783 0.000000 0.067695 0.000000
# 6 0.000000 0.000000 0.000000 0.006928 0.000000 0.047854
#
#
# Mechanical properties :
#
#
# Convention : Reuss Voigt Hill
#
# Bulk Modulus (GPa) = 28.56709 47.04902 37.80806
# Shear Modulus (GPa) = 23.63480 33.17664 28.40572
#
# Velocity S-wave (km/s) = 3.36646 3.98854 3.69063
# Velocity P-wave (km/s) = 5.36739 6.61601 6.02414
#
# Compressibility (1/GPa) = 0.03500531
#
# Stress axis : x y z
#
# Youngs Moduli (GPa) = 109.49978 119.96742 40.56589
#
# Poissons Ratio (x) = 0.27306 0.06984
# Poissons Ratio (y) = 0.24923 -0.01788
# Poissons Ratio (z) = 0.18851 -0.05287
#
# Static dielectric constant tensor:
#      x y z
#    x 1.752640 0.000000 0.016800 
#    y 0.000000 1.733150 0.000000 
#    z 0.016800 0.000000 1.765940 
# 
# From -- ./inp_files/35300.got.cif
#   From: 2010.05.17/outbox.cif.g08.bks.cpg/sg13_18_cif.got.tgz:35300.got - 2010.06.03 16:44:36.
