data_PCOD9229286
_publ_section_title
;
Structure prediction by ZEFSAII (Michael W. Deem and Ramdas Pophale) SiO2 
 PCOD9229286
Probable space group: P 2/C
;
_chemical_formula_sum "Si O2"
_cell_formula_units_Z 24
_cell_length_a 7.691512
_cell_length_b 19.741559
_cell_length_c 9.761907
_cell_angle_alpha 90.000000
_cell_angle_beta 131.837237
_cell_angle_gamma 90.000000
_cell_volume 1104.355689
_symmetry_space_group_name_H-M "P 2/C"
_symmetry_group_IT_number 13
_symmetry_cell_setting 'monoclinic'
loop_
_space_group_symop_operation_xyz
x,y,z
-x,y,1/2-z
-x,-y,-z
x,-y,1/2+z
loop_
_atom_site_type_symbol
_atom_site_label
_atom_site_fract_x
_atom_site_fract_y
_atom_site_fract_z
Si Si1 0.793794 0.440502 0.743097
Si Si2 0.227364 0.702686 0.136004
Si Si3 0.376744 0.579396 0.812690
Si Si4 0.000000 0.326155 0.250000
Si Si5 0.745442 0.992630 0.290166
Si Si6 0.769677 0.845737 0.353338
Si Si7 0.000000 0.094468 0.250000
O O1 0.853867 0.369455 0.846193
O O2 0.730730 0.507651 0.795596
O O3 0.565968 0.429500 0.530768
O O4 0.000000 0.460046 0.750000
O O5 0.500000 0.691841 0.250000
O O6 0.166176 0.773011 0.179267
O O7 0.120209 0.715226 0.931066
O O8 0.500000 0.613727 0.750000
O O9 0.182005 0.625448 0.772907
O O10 0.500000 0.001982 0.250000
O O11 0.760903 0.913497 0.257018
O O12 0.000000 0.000000 0.500000
O O13 0.784085 0.046496 0.188237
O O14 0.500000 0.835075 0.250000
O O15 0.912158 0.865030 0.568231
#
# Coordination Sequence:
#
# PCOD9229286 Si02
#       7
#     4   4   4   2   4   4   2
#     4  11  23  40  62  88 126 159 200 263 309 366
#     4  11  22  40  62  86 125 167 205 250 312 375
#     4  11  24  39  63  95 117 153 211 256 312 364
#     4  12  23  40  66  89 118 164 206 256 312 361
#     4   9  19  35  60  93 123 156 206 255 301 364
#     4   9  20  36  58  90 120 159 207 242 303 372
#     4  10  19  38  66  87 124 162 200 262 308 349
#
# _framework density 21.732130000000002
#
# number of rings (size 3 to 8) (size 9 to 14) (size 15 to 20)
#    0.000    1.667    2.500    2.000    2.333    7.333 
#    1.500    0.000    3.667    5.000    0.000    0.000 
#    0.000    0.000    0.000    0.000    0.000    0.000 
#
# Total GULP energy -133701.184115 kJ/mol
# GULP energy per Si atom -5570.882671 kJ/mol
# Density = 2.168267 g / cm^3
# Si number density = 21.732130 Si / 1000 Ang^3
#
#
#
# Elastic Constant Matrix: (Units=GPa)
#
#
# Indices 1 2 3 4 5 6 
#
# 1 108.0719 26.8841 -1.6286 0.0000 20.1303 0.0000
# 2 26.8841 114.0804 -12.4123 0.0000 0.5030 0.0000
# 3 -1.6286 -12.4123 72.4937 0.0000 10.6104 0.0000
# 4 0.0000 0.0000 0.0000 1538.3271 0.0000 1114.7948
# 5 20.1303 0.5030 10.6104 0.0000 25.3781 0.0000
# 6 0.0000 0.0000 0.0000 1114.7948 0.0000 844.1095
#
#
#
# Elastic Compliance Matrix: (Units=1/GPa)
#
#
# Indices 1 2 3 4 5 6 
#
# 1 0.011738 -0.002587 0.001253 0.000000 -0.009783 0.000000
# 2 -0.002587 0.009520 0.001384 0.000000 0.001284 0.000000
# 3 0.001253 0.001384 0.015135 0.000000 -0.007349 0.000000
# 4 0.000000 0.000000 0.000000 0.015141 0.000000 -0.019997
# 5 -0.009783 0.001284 -0.007349 0.000000 0.050211 0.000000
# 6 0.000000 0.000000 0.000000 -0.019997 0.000000 0.027594
#
#
# Mechanical properties :
#
#
# Convention : Reuss Voigt Hill
#
# Bulk Modulus (GPa) = 27.40266 35.59248 31.49757
# Shear Modulus (GPa) = 35.35979 500.34979 267.85479
#
# Velocity S-wave (km/s) = 4.03808 15.18996 11.11398
# Velocity P-wave (km/s) = 5.86328 18.00166 13.38727
#
# Compressibility (1/GPa) = 0.03649281
#
# Stress axis : x y z
#
# Youngs Moduli (GPa) = 85.19570 105.03948 66.07200
#
# Poissons Ratio (x) = 0.27170 -0.08277
# Poissons Ratio (y) = 0.22037 -0.09144
# Poissons Ratio (z) = -0.10672 -0.14537
#
# Static dielectric constant tensor:
#      x y z
#    x 1.751720 0.000000 -0.017390 
#    y 0.000000 1.867840 0.000000 
#    z -0.017390 0.000000 1.893340 
# 
# From -- ./inp_files/30772.got.cif
#   From: 2010.05.17/outbox.cif.g08.bks.cpg/sg13_16_cif.got.tgz:30772.got - 2010.06.03 16:44:36.
