data_PCOD9229585
_publ_section_title
;
Structure prediction by ZEFSAII (Michael W. Deem and Ramdas Pophale) SiO2 
 PCOD9229585
Probable space group: P 2/C
;
_chemical_formula_sum "Si O2"
_cell_formula_units_Z 32
_cell_length_a 16.447504
_cell_length_b 10.767413
_cell_length_c 19.571768
_cell_angle_alpha 90.000000
_cell_angle_beta 159.996827
_cell_angle_gamma 90.000000
_cell_volume 1185.657327
_symmetry_space_group_name_H-M "P 2/C"
_symmetry_group_IT_number 13
_symmetry_cell_setting 'monoclinic'
loop_
_space_group_symop_operation_xyz
x,y,z
-x,y,1/2-z
-x,-y,-z
x,-y,1/2+z
loop_
_atom_site_type_symbol
_atom_site_label
_atom_site_fract_x
_atom_site_fract_y
_atom_site_fract_z
Si Si1 0.364449 0.435282 0.293459
Si Si2 0.482957 0.719318 0.384522
Si Si3 0.171470 0.922919 0.446472
Si Si4 0.527135 0.853357 0.621827
Si Si5 0.990140 0.486477 0.878079
Si Si6 0.818254 0.306820 0.043890
Si Si7 0.115495 0.857472 0.707884
Si Si8 0.130607 0.221080 0.711179
O O1 0.503944 0.568039 0.406231
O O2 0.458846 0.295762 0.356179
O O3 0.219601 0.437455 0.250267
O O4 0.175521 0.454668 0.083893
O O5 0.570951 0.739775 0.377374
O O6 0.664092 0.799631 0.574677
O O7 0.227583 0.759573 0.211540
O O8 0.424076 0.924659 0.607167
O O9 0.000000 0.873215 0.250000
O O10 0.128729 0.831608 0.476905
O O11 0.042746 0.045776 0.372942
O O12 0.768484 0.895097 0.772994
O O13 0.321184 0.864939 0.400822
O O14 0.145431 0.548626 0.941977
O O15 0.869482 0.359514 0.759068
O O16 0.000000 0.279733 0.250000
O O17 0.920789 0.251301 0.055221
#
# Coordination Sequence:
#
# PCOD9229585 Si02
#       8
#     4   4   4   4   4   4   4   4
#     4  10  21  38  58  91 129 165 208 253 318 383
#     4   9  20  33  55  85 121 163 196 243 314 377
#     4  10  21  36  57  90 122 156 211 260 311 360
#     4  10  21  36  61  92 120 164 208 260 312 377
#     4  10  21  37  59  88 131 165 202 258 317 372
#     4  10  20  32  55  91 123 163 201 254 313 366
#     4  10  20  37  59  91 124 160 201 267 311 362
#     4   9  21  35  55  88 121 160 198 259 301 367
#
# _framework density 26.989249999999998
#
# number of rings (size 3 to 8) (size 9 to 14) (size 15 to 20)
#    0.000    2.250    1.250    1.125    5.250    8.000 
#    0.000    0.000    0.000    0.750   19.500    0.000 
#    0.000    0.000    0.000    0.000    0.000    0.000 
#
# Total GULP energy -178467.681808 kJ/mol
# GULP energy per Si atom -5577.115057 kJ/mol
# Density = 2.692782 g / cm^3
# Si number density = 26.989250 Si / 1000 Ang^3
#
#
#
# Elastic Constant Matrix: (Units=GPa)
#
#
# Indices 1 2 3 4 5 6 
#
# 1 188.6817 48.3575 69.9667 0.0000 72.3953 0.0000
# 2 48.3575 99.9414 18.1502 0.0000 24.6421 0.0000
# 3 69.9667 18.1502 88.5801 0.0000 31.8194 0.0000
# 4 0.0000 0.0000 0.0000 15.3564 0.0000 35.1874
# 5 72.3953 24.6421 31.8194 0.0000 56.4037 0.0000
# 6 0.0000 0.0000 0.0000 35.1874 0.0000 19.0026
#
#
#
# Elastic Compliance Matrix: (Units=1/GPa)
#
#
# Indices 1 2 3 4 5 6 
#
# 1 0.012311 -0.002074 -0.004952 0.000000 -0.012102 0.000000
# 2 -0.002074 0.011595 0.000158 0.000000 -0.002493 0.000000
# 3 -0.004952 0.000158 0.016191 0.000000 -0.002847 0.000000
# 4 0.000000 0.000000 0.000000 -0.020080 0.000000 0.037182
# 5 -0.012102 -0.002493 -0.002847 0.000000 0.035958 0.000000
# 6 0.000000 0.000000 0.000000 0.037182 0.000000 -0.016227
#
#
# Mechanical properties :
#
#
# Convention : Reuss Voigt Hill
#
# Bulk Modulus (GPa) = 37.93435 72.23911 55.08673
# Shear Modulus (GPa) = 80.29394 34.20113 57.24754
#
# Velocity S-wave (km/s) = 5.46030 3.56366 4.61056
# Velocity P-wave (km/s) = 7.33751 6.61490 6.98555
#
# Compressibility (1/GPa) = 0.02636133
#
# Stress axis : x y z
#
# Youngs Moduli (GPa) = 81.22760 86.24171 61.76269
#
# Poissons Ratio (x) = 0.17883 0.30585
# Poissons Ratio (y) = 0.16843 -0.00973
# Poissons Ratio (z) = 0.40224 -0.01359
#
# Static dielectric constant tensor:
#      x y z
#    x 2.108010 0.000000 0.033800 
#    y 0.000000 2.242010 0.000000 
#    z 0.033800 0.000000 2.176500 
# 
# From -- ./inp_files/88177.got.cif
#   From: 2010.05.17/outbox.cif.g08.bks.cpg/sg13_45_cif.got.tgz:88177.got - 2010.06.03 16:44:36.
