data_PCOD9229524
_publ_section_title
;
Structure prediction by ZEFSAII (Michael W. Deem and Ramdas Pophale) SiO2 
 PCOD9229524
Probable space group: P 2/C
;
_chemical_formula_sum "Si O2"
_cell_formula_units_Z 24
_cell_length_a 24.322801
_cell_length_b 10.212455
_cell_length_c 27.234118
_cell_angle_alpha 90.000000
_cell_angle_beta 170.300625
_cell_angle_gamma 90.000000
_cell_volume 1139.729718
_symmetry_space_group_name_H-M "P 2/C"
_symmetry_group_IT_number 13
_symmetry_cell_setting 'monoclinic'
loop_
_space_group_symop_operation_xyz
x,y,z
-x,y,1/2-z
-x,-y,-z
x,-y,1/2+z
loop_
_atom_site_type_symbol
_atom_site_label
_atom_site_fract_x
_atom_site_fract_y
_atom_site_fract_z
Si Si1 0.740322 0.589434 0.643834
Si Si2 0.717311 0.810861 0.259069
Si Si3 0.054274 0.025345 0.976393
Si Si4 0.302872 0.166749 0.917857
Si Si5 0.884055 0.597688 0.093177
Si Si6 0.726691 0.372097 0.245420
O O1 0.619810 0.737080 0.528054
O O2 0.437998 0.488340 0.369496
O O3 0.800011 0.584954 0.754750
O O4 0.020686 0.522699 0.858976
O O5 0.781022 0.924228 0.275235
O O6 0.958960 0.695003 0.454699
O O7 0.859437 0.876956 0.433502
O O8 0.392670 0.105230 0.284413
O O9 0.913367 0.057030 0.799116
O O10 0.081949 0.270242 0.752629
O O11 0.462211 0.255642 0.014910
O O12 0.000000 0.563651 0.250000
O O13 0.500000 0.622231 0.750000
#
# Coordination Sequence:
#
# PCOD9229524 Si02
#       6
#     4   4   4   4   4   4
#     4  10  20  35  57  85 123 155 194 241 296 361
#     4  10  20  31  55  88 130 152 187 230 297 368
#     4  10  21  33  58  89 124 157 187 230 295 362
#     4  10  20  39  58  86 118 149 198 244 289 358
#     4  11  25  42  63  86 111 155 206 256 298 341
#     4   9  19  32  56  88 121 155 184 233 308 352
#
# _framework density 21.057624000000001
#
# number of rings (size 3 to 8) (size 9 to 14) (size 15 to 20)
#    0.000    2.000    1.667    1.500    4.667    2.000 
#    0.000    0.000    0.000    4.000    0.000    0.000 
#    0.000    0.000    0.000    0.000    0.000    0.000 
#
# Total GULP energy -133880.631141 kJ/mol
# GULP energy per Si atom -5578.359631 kJ/mol
# Density = 2.100970 g / cm^3
# Si number density = 21.057624 Si / 1000 Ang^3
#
#
#
# Elastic Constant Matrix: (Units=GPa)
#
#
# Indices 1 2 3 4 5 6 
#
# 1 52.6295 -5.7811 26.1339 0.0000 5.7422 0.0000
# 2 -5.7811 67.4272 36.4186 0.0000 6.1551 0.0000
# 3 26.1339 36.4186 105.9479 0.0000 1.7386 0.0000
# 4 0.0000 0.0000 0.0000 38.8135 0.0000 -14.8689
# 5 5.7422 6.1551 1.7386 0.0000 27.7733 0.0000
# 6 0.0000 0.0000 0.0000 -14.8689 0.0000 21.3735
#
#
#
# Elastic Compliance Matrix: (Units=1/GPa)
#
#
# Indices 1 2 3 4 5 6 
#
# 1 0.024686 0.007264 -0.008485 0.000000 -0.006183 0.000000
# 2 0.007264 0.020726 -0.008825 0.000000 -0.005543 0.000000
# 3 -0.008485 -0.008825 0.014519 0.000000 0.002801 0.000000
# 4 0.000000 0.000000 0.000000 0.035125 0.000000 0.024435
# 5 -0.006183 -0.005543 0.002801 0.000000 0.038337 0.000000
# 6 0.000000 0.000000 0.000000 0.024435 0.000000 0.063786
#
#
# Mechanical properties :
#
#
# Convention : Reuss Voigt Hill
#
# Bulk Modulus (GPa) = 25.10088 37.72752 31.41420
# Shear Modulus (GPa) = 21.68710 28.87427 25.28069
#
# Velocity S-wave (km/s) = 3.21268 3.70699 3.46865
# Velocity P-wave (km/s) = 5.07027 6.02309 5.56710
#
# Compressibility (1/GPa) = 0.03983924
#
# Stress axis : x y z
#
# Youngs Moduli (GPa) = 40.50818 48.24815 68.87474
#
# Poissons Ratio (x) = -0.35046 0.58438
# Poissons Ratio (y) = -0.29424 0.60783
# Poissons Ratio (z) = 0.34370 0.42580
#
# Static dielectric constant tensor:
#      x y z
#    x 1.748730 0.000000 -0.023960 
#    y 0.000000 1.849680 0.000000 
#    z -0.023960 0.000000 1.849190 
# 
# From -- ./inp_files/93853.got.cif
#   From: 2010.05.17/outbox.cif.g08.bks.cpg/sg13_47_cif.got.tgz:93853.got - 2010.06.03 16:44:36.
