data_PCOD9229007
_publ_section_title
;
Structure prediction by ZEFSAII (Michael W. Deem and Ramdas Pophale) SiO2 
 PCOD9229007
Probable space group: P 2/C
;
_chemical_formula_sum "Si O2"
_cell_formula_units_Z 16
_cell_length_a 5.687148
_cell_length_b 7.165395
_cell_length_c 19.558469
_cell_angle_alpha 90.000000
_cell_angle_beta 119.250485
_cell_angle_gamma 90.000000
_cell_volume 695.393956
_symmetry_space_group_name_H-M "P 2/C"
_symmetry_group_IT_number 13
_symmetry_cell_setting 'monoclinic'
loop_
_space_group_symop_operation_xyz
x,y,z
-x,y,1/2-z
-x,-y,-z
x,-y,1/2+z
loop_
_atom_site_type_symbol
_atom_site_label
_atom_site_fract_x
_atom_site_fract_y
_atom_site_fract_z
Si Si1 0.679454 0.260820 0.708929
Si Si2 0.458558 0.196242 0.958629
Si Si3 0.904595 0.485661 0.063506
Si Si4 0.228902 0.675148 0.735879
O O1 0.500000 0.214786 0.750000
O O2 0.520978 0.186636 0.620189
O O3 0.687274 0.489424 0.709114
O O4 0.000000 0.208407 0.750000
O O5 0.177082 0.304815 0.927757
O O6 0.662553 0.337780 0.024350
O O7 0.500000 0.000000 0.000000
O O8 0.100402 0.403652 0.148134
O O9 0.000000 0.500000 0.000000
O O10 0.500000 0.777487 0.750000
O O11 0.000000 0.771028 0.750000
#
# Coordination Sequence:
#
# PCOD9229007 Si02
#       4
#     4   4   4   4
#     4  10  19  39  67  91 132 186 222 274 348 407
#     4  11  25  43  69 103 139 180 232 289 348 414
#     4  11  23  42  71  99 135 183 228 285 350 413
#     4  10  19  36  67  92 128 180 226 272 337 407
#
# _framework density 23.00854
#
# number of rings (size 3 to 8) (size 9 to 14) (size 15 to 20)
#    0.000    1.500    5.000    3.000    3.500    1.000 
#    0.000    1.250    0.000    1.500    0.000    0.000 
#    0.000    0.000    0.000    0.000    0.000    0.000 
#
# Total GULP energy -89322.047123 kJ/mol
# GULP energy per Si atom -5582.627945 kJ/mol
# Density = 2.295617 g / cm^3
# Si number density = 23.008540 Si / 1000 Ang^3
#
#
#
# Elastic Constant Matrix: (Units=GPa)
#
#
# Indices 1 2 3 4 5 6 
#
# 1 171.8039 21.2567 35.3888 0.0000 -14.9093 0.0000
# 2 21.2567 106.6243 14.5785 0.0000 -3.7413 0.0000
# 3 35.3888 14.5785 111.9112 0.0000 -12.6446 0.0000
# 4 0.0000 0.0000 0.0000 17.5881 0.0000 -6.4414
# 5 -14.9093 -3.7413 -12.6446 0.0000 48.3012 0.0000
# 6 0.0000 0.0000 0.0000 -6.4414 0.0000 -11.4860
#
#
#
# Elastic Compliance Matrix: (Units=1/GPa)
#
#
# Indices 1 2 3 4 5 6 
#
# 1 0.006428 -0.000993 -0.001739 0.000000 0.001452 0.000000
# 2 -0.000993 0.009711 -0.000928 0.000000 0.000203 0.000000
# 3 -0.001739 -0.000928 0.009828 0.000000 0.001964 0.000000
# 4 0.000000 0.000000 0.000000 0.047169 0.000000 -0.026452
# 5 0.001452 0.000203 0.001964 0.000000 0.021681 0.000000
# 6 0.000000 0.000000 0.000000 -0.026452 0.000000 -0.072228
#
#
# Mechanical properties :
#
#
# Convention : Reuss Voigt Hill
#
# Bulk Modulus (GPa) = 53.62893 59.19860 56.41377
# Shear Modulus (GPa) = 138.40830 32.15502 85.28166
#
# Velocity S-wave (km/s) = 7.76439 3.74240 6.09473
# Velocity P-wave (km/s) = 10.18528 6.66775 8.60810
#
# Compressibility (1/GPa) = 0.01864665
#
# Stress axis : x y z
#
# Youngs Moduli (GPa) = 155.57781 102.97972 101.74518
#
# Poissons Ratio (x) = 0.10223 0.17696
# Poissons Ratio (y) = 0.15444 0.09444
# Poissons Ratio (z) = 0.27058 0.09558
#
# Static dielectric constant tensor:
#      x y z
#    x 2.014620 0.000000 0.034360 
#    y 0.000000 1.274160 0.000000 
#    z 0.034360 0.000000 1.867690 
# 
# From -- ./inp_files/60756.got.cif
#   From: 2010.05.17/outbox.cif.g08.bks.cpg/sg13_31_cif.got.tgz:60756.got - 2010.06.03 16:44:36.
