data_PCOD9229302
_publ_section_title
;
Structure prediction by ZEFSAII (Michael W. Deem and Ramdas Pophale) SiO2 
 PCOD9229302
Probable space group: P 2/C
;
_chemical_formula_sum "Si O2"
_cell_formula_units_Z 32
_cell_length_a 13.061083
_cell_length_b 7.973637
_cell_length_c 29.037017
_cell_angle_alpha 90.000000
_cell_angle_beta 31.413669
_cell_angle_gamma 90.000000
_cell_volume 1576.170135
_symmetry_space_group_name_H-M "P 2/C"
_symmetry_group_IT_number 13
_symmetry_cell_setting 'monoclinic'
loop_
_space_group_symop_operation_xyz
x,y,z
-x,y,1/2-z
-x,-y,-z
x,-y,1/2+z
loop_
_atom_site_type_symbol
_atom_site_label
_atom_site_fract_x
_atom_site_fract_y
_atom_site_fract_z
Si Si1 0.209494 0.047581 0.290458
Si Si2 0.023843 0.077301 0.539681
Si Si3 0.353360 0.395711 0.264953
Si Si4 0.667276 0.250288 0.873837
Si Si5 0.025298 0.586046 0.072803
Si Si6 0.031075 0.794959 0.165433
Si Si7 0.452531 0.545440 0.907098
Si Si8 0.450434 0.048523 0.410440
O O1 0.224144 0.241877 0.295452
O O2 0.415005 0.010524 0.186254
O O3 0.163100 0.957429 0.356285
O O4 0.033237 0.982383 0.325414
O O5 0.053161 0.274524 0.523229
O O6 0.222958 0.014347 0.487604
O O7 0.000000 0.000000 0.500000
O O8 0.500000 0.345586 0.250000
O O9 0.460193 0.468835 0.178380
O O10 0.188983 0.513366 0.349550
O O11 0.765953 0.229516 0.885878
O O12 0.559353 0.423894 0.902526
O O13 0.852681 0.252259 0.767587
O O14 0.536626 0.084667 0.913672
O O15 0.028907 0.681653 0.120791
O O16 0.226260 0.484409 0.993807
O O17 0.466731 0.748072 0.913112
#
# Coordination Sequence:
#
# PCOD9229302 Si02
#       8
#     4   4   4   4   4   4   4   4
#     4   9  21  39  59  83 124 159 202 262 304 369
#     4  10  22  38  60  87 120 166 208 256 315 371
#     4  11  24  40  62  90 124 170 213 256 322 377
#     4  10  19  38  68  88 122 169 208 258 319 377
#     4  10  22  42  58  89 132 154 211 272 304 383
#     4   9  19  41  61  89 122 162 211 258 319 373
#     4  10  22  40  62  90 128 163 204 265 313 373
#     4   9  21  39  58  91 125 156 210 257 304 383
#
# _framework density 20.302377
#
# number of rings (size 3 to 8) (size 9 to 14) (size 15 to 20)
#    0.000    2.250    1.250    0.000    7.000    2.000 
#    2.250    6.875    0.000    0.000    0.000    0.000 
#    0.000    0.000    0.000    0.000    0.000    0.000 
#
# Total GULP energy -178232.486597 kJ/mol
# GULP energy per Si atom -5569.765206 kJ/mol
# Density = 2.025617 g / cm^3
# Si number density = 20.302377 Si / 1000 Ang^3
#
#
#
# Elastic Constant Matrix: (Units=GPa)
#
#
# Indices 1 2 3 4 5 6 
#
# 1 67.4264 38.3355 12.5314 0.0000 -8.0102 0.0000
# 2 38.3355 51.5475 16.3256 0.0000 -12.4255 0.0000
# 3 12.5314 16.3256 72.9343 0.0000 -9.8403 0.0000
# 4 0.0000 0.0000 0.0000 20.4467 0.0000 0.5507
# 5 -8.0102 -12.4255 -9.8403 0.0000 16.7582 0.0000
# 6 0.0000 0.0000 0.0000 0.5507 0.0000 20.9117
#
#
#
# Elastic Compliance Matrix: (Units=1/GPa)
#
#
# Indices 1 2 3 4 5 6 
#
# 1 0.025777 -0.019649 -0.000363 0.000000 -0.002460 0.000000
# 2 -0.019649 0.039296 -0.002993 0.000000 0.017987 0.000000
# 3 -0.000363 -0.002993 0.015335 0.000000 0.006612 0.000000
# 4 0.000000 0.000000 0.000000 0.048942 0.000000 -0.001289
# 5 -0.002460 0.017987 0.006612 0.000000 0.075715 0.000000
# 6 0.000000 0.000000 0.000000 -0.001289 0.000000 0.047854
#
#
# Mechanical properties :
#
#
# Convention : Reuss Voigt Hill
#
# Bulk Modulus (GPa) = 29.07040 36.25481 32.66261
# Shear Modulus (GPa) = 16.10847 19.93772 18.02309
#
# Velocity S-wave (km/s) = 2.81984 3.13715 2.98272
# Velocity P-wave (km/s) = 4.99518 5.56942 5.29010
#
# Compressibility (1/GPa) = 0.03439925
#
# Stress axis : x y z
#
# Youngs Moduli (GPa) = 38.79358 25.44802 65.20849
#
# Poissons Ratio (x) = 0.50002 0.02366
# Poissons Ratio (y) = 0.76224 0.19518
# Poissons Ratio (z) = 0.01408 0.07617
#
# Static dielectric constant tensor:
#      x y z
#    x 1.734710 0.000000 -0.003880 
#    y 0.000000 1.776830 0.000000 
#    z -0.003880 0.000000 1.781660 
# 
# From -- ./inp_files/96697.got.cif
#   From: 2010.05.17/outbox.cif.g08.bks.cpg/sg13_49_cif.got.tgz:96697.got - 2010.06.03 16:44:36.
