data_PCOD9229935
_publ_section_title
;
Structure prediction by ZEFSAII (Michael W. Deem and Ramdas Pophale) SiO2 
 PCOD9229935
Probable space group: P 2/C
;
_chemical_formula_sum "Si O2"
_cell_formula_units_Z 24
_cell_length_a 12.818334
_cell_length_b 4.873383
_cell_length_c 25.746537
_cell_angle_alpha 90.000000
_cell_angle_beta 131.818630
_cell_angle_gamma 90.000000
_cell_volume 1198.638758
_symmetry_space_group_name_H-M "P 2/C"
_symmetry_group_IT_number 13
_symmetry_cell_setting 'monoclinic'
loop_
_space_group_symop_operation_xyz
x,y,z
-x,y,1/2-z
-x,-y,-z
x,-y,1/2+z
loop_
_atom_site_type_symbol
_atom_site_label
_atom_site_fract_x
_atom_site_fract_y
_atom_site_fract_z
Si Si1 0.319101 0.874372 0.208128
Si Si2 0.670271 0.435196 0.893551
Si Si3 0.070020 0.724026 0.719620
Si Si4 0.145735 0.928861 0.520202
Si Si5 0.988074 0.211182 0.868722
Si Si6 0.376058 0.630412 0.795509
O O1 0.370787 0.722593 0.173519
O O2 0.336600 0.668070 0.261699
O O3 0.151637 0.890603 0.147587
O O4 0.381192 0.160873 0.248195
O O5 0.776606 0.688000 0.922020
O O6 0.530206 0.578802 0.869725
O O7 0.754397 0.195129 0.950814
O O8 0.239523 0.733609 0.781320
O O9 0.000000 0.639069 0.750000
O O10 0.034491 0.513486 0.661269
O O11 0.007215 0.011508 0.679272
O O12 0.110489 0.816366 0.451065
O O13 0.000000 0.000000 0.500000
#
# Coordination Sequence:
#
# PCOD9229935 Si02
#       6
#     4   4   4   4   4   4
#     4  10  20  35  54  81 117 154 193 241 282 349
#     4  12  23  35  57  82 124 165 191 234 290 352
#     4  10  21  40  66  86 109 148 198 264 307 331
#     4  12  24  37  57  83 126 167 200 224 278 365
#     4  10  21  37  59  86 116 147 201 245 288 348
#     4  10  22  37  55  86 116 150 198 244 296 344
#
# _framework density 20.022711999999999
#
# number of rings (size 3 to 8) (size 9 to 14) (size 15 to 20)
#    0.000    1.333    1.667    4.500    4.667    1.333 
#    0.000    0.000    0.000    6.000    0.000    0.000 
#    0.000    0.000    0.000    0.000    0.000    0.000 
#
# Total GULP energy -133891.274151 kJ/mol
# GULP energy per Si atom -5578.803090 kJ/mol
# Density = 1.997714 g / cm^3
# Si number density = 20.022712 Si / 1000 Ang^3
#
#
#
# Elastic Constant Matrix: (Units=GPa)
#
#
# Indices 1 2 3 4 5 6 
#
# 1 93.2894 9.6753 32.3731 0.0000 9.6215 0.0000
# 2 9.6753 102.4679 19.7200 0.0000 15.4401 0.0000
# 3 32.3731 19.7200 65.7253 0.0000 21.1605 0.0000
# 4 0.0000 0.0000 0.0000 33.9324 0.0000 5.3204
# 5 9.6215 15.4401 21.1605 0.0000 22.2972 0.0000
# 6 0.0000 0.0000 0.0000 5.3204 0.0000 22.5335
#
#
#
# Elastic Compliance Matrix: (Units=1/GPa)
#
#
# Indices 1 2 3 4 5 6 
#
# 1 0.012937 -0.000061 -0.006581 0.000000 0.000705 0.000000
# 2 -0.000061 0.010964 -0.001186 0.000000 -0.006440 0.000000
# 3 -0.006581 -0.001186 0.025391 0.000000 -0.020436 0.000000
# 4 0.000000 0.000000 0.000000 0.030603 0.000000 -0.007226
# 5 0.000705 -0.006440 -0.020436 0.000000 0.068398 0.000000
# 6 0.000000 0.000000 0.000000 -0.007226 0.000000 0.046084
#
#
# Mechanical properties :
#
#
# Convention : Reuss Voigt Hill
#
# Bulk Modulus (GPa) = 29.73009 42.77992 36.25500
# Shear Modulus (GPa) = 22.59937 29.06690 25.83313
#
# Velocity S-wave (km/s) = 3.36324 3.81425 3.59582
# Velocity P-wave (km/s) = 5.47378 6.38827 5.94863
#
# Compressibility (1/GPa) = 0.03363596
#
# Stress axis : x y z
#
# Youngs Moduli (GPa) = 77.30048 91.21114 39.38342
#
# Poissons Ratio (x) = 0.00559 0.25917
# Poissons Ratio (y) = 0.00474 0.04670
# Poissons Ratio (z) = 0.50868 0.10816
#
# Static dielectric constant tensor:
#      x y z
#    x 1.758530 0.000000 0.050290 
#    y 0.000000 1.719820 0.000000 
#    z 0.050290 0.000000 1.755950 
# 
# From -- ./inp_files/85875.got.cif
#   From: 2010.05.17/outbox.cif.g08.bks.cpg/sg13_43_cif.got.tgz:85875.got - 2010.06.03 16:44:36.
