data_PCOD9229437
_publ_section_title
;
Structure prediction by ZEFSAII (Michael W. Deem and Ramdas Pophale) SiO2 
 PCOD9229437
Probable space group: P 2/C
;
_chemical_formula_sum "Si O2"
_cell_formula_units_Z 32
_cell_length_a 16.940395
_cell_length_b 14.992311
_cell_length_c 11.093358
_cell_angle_alpha 90.000000
_cell_angle_beta 34.984728
_cell_angle_gamma 90.000000
_cell_volume 1615.403711
_symmetry_space_group_name_H-M "P 2/C"
_symmetry_group_IT_number 13
_symmetry_cell_setting 'monoclinic'
loop_
_space_group_symop_operation_xyz
x,y,z
-x,y,1/2-z
-x,-y,-z
x,-y,1/2+z
loop_
_atom_site_type_symbol
_atom_site_label
_atom_site_fract_x
_atom_site_fract_y
_atom_site_fract_z
Si Si1 0.776124 0.263581 0.356806
Si Si2 0.410049 0.952698 0.765501
Si Si3 0.021857 0.850771 0.486085
Si Si4 0.569032 0.623469 0.531799
Si Si5 0.728548 0.767569 0.190392
Si Si6 0.405419 0.584969 0.488036
Si Si7 0.443003 0.866669 0.489363
Si Si8 0.111410 0.008306 0.711053
O O1 0.781433 0.267479 0.495076
O O2 0.729834 0.357760 0.363454
O O3 0.654444 0.193163 0.471777
O O4 0.919658 0.231768 0.121038
O O5 0.500000 0.899035 0.750000
O O6 0.371886 0.887241 0.705190
O O7 0.515425 0.033737 0.604275
O O8 0.268716 0.998099 0.979175
O O9 0.152419 0.831584 0.407648
O O10 0.086437 0.890534 0.284814
O O11 0.922072 0.932510 0.649915
O O12 0.500000 0.645446 0.750000
O O13 0.686459 0.692592 0.341322
O O14 0.471060 0.617105 0.533755
O O15 0.618001 0.520837 0.481496
O O16 0.586772 0.818738 0.338533
O O17 0.500000 0.604249 0.250000
O O18 0.000000 0.988513 0.750000
#
# Coordination Sequence:
#
# PCOD9229437 Si02
#       8
#     4   4   4   4   4   4   4   4
#     4  12  21  39  62  89 116 157 207 248 291 361
#     4  11  22  36  56  83 118 152 200 262 315 350
#     4  11  25  38  59  85 117 161 213 247 296 358
#     4  10  22  38  65  98 128 152 191 248 312 369
#     4  12  22  39  61  90 120 155 201 251 295 355
#     4  10  19  40  67  96 123 158 195 241 307 374
#     4  11  22  35  58  87 113 154 206 255 302 361
#     4  11  22  41  57  78 118 168 203 250 306 361
#
# _framework density 19.809290000000001
#
# number of rings (size 3 to 8) (size 9 to 14) (size 15 to 20)
#    0.000    1.000    2.500    6.000    0.000    5.500 
#    2.250    0.625    0.000    0.000    0.000    0.000 
#    0.000    0.000    0.000    0.000    0.000    0.000 
#
# Total GULP energy -178490.010948 kJ/mol
# GULP energy per Si atom -5577.812842 kJ/mol
# Density = 1.976420 g / cm^3
# Si number density = 19.809290 Si / 1000 Ang^3
#
#
#
# Elastic Constant Matrix: (Units=GPa)
#
#
# Indices 1 2 3 4 5 6 
#
# 1 34.2456 9.3967 27.4164 0.0000 9.9813 0.0000
# 2 9.3967 48.3166 13.0775 0.0000 11.5025 0.0000
# 3 27.4164 13.0775 48.0940 0.0000 -4.1436 0.0000
# 4 0.0000 0.0000 0.0000 22.5835 0.0000 -8.7314
# 5 9.9813 11.5025 -4.1436 0.0000 32.3733 0.0000
# 6 0.0000 0.0000 0.0000 -8.7314 0.0000 31.3344
#
#
#
# Elastic Compliance Matrix: (Units=1/GPa)
#
#
# Indices 1 2 3 4 5 6 
#
# 1 0.073301 0.005394 -0.045871 0.000000 -0.030388 0.000000
# 2 0.005394 0.025536 -0.011066 0.000000 -0.012153 0.000000
# 3 -0.045871 -0.011066 0.052082 0.000000 0.024741 0.000000
# 4 0.000000 0.000000 0.000000 0.049627 0.000000 0.013829
# 5 -0.030388 -0.012153 0.024741 0.000000 0.047744 0.000000
# 6 0.000000 0.000000 0.000000 0.013829 0.000000 0.035767
#
#
# Mechanical properties :
#
#
# Convention : Reuss Voigt Hill
#
# Bulk Modulus (GPa) = 20.90539 25.60417 23.25478
# Shear Modulus (GPa) = 12.40426 22.64259 17.52343
#
# Velocity S-wave (km/s) = 2.50508 3.38454 2.97746
# Velocity P-wave (km/s) = 4.35241 5.31290 4.85646
#
# Compressibility (1/GPa) = 0.04783455
#
# Stress axis : x y z
#
# Youngs Moduli (GPa) = 13.64231 39.16051 19.20033
#
# Poissons Ratio (x) = -0.21124 0.88074
# Poissons Ratio (y) = -0.07359 0.21246
# Poissons Ratio (z) = 0.62579 0.43334
#
# Static dielectric constant tensor:
#      x y z
#    x 1.768020 0.000000 0.089280 
#    y 0.000000 1.720130 0.000000 
#    z 0.089280 0.000000 1.742370 
# 
# From -- ./inp_files/39461.got.cif
#   From: 2010.05.17/outbox.cif.g08.bks.cpg/sg13_20_cif.got.tgz:39461.got - 2010.06.03 16:44:36.
