data_PCOD9229716
_publ_section_title
;
Structure prediction by ZEFSAII (Michael W. Deem and Ramdas Pophale) SiO2 
 PCOD9229716
Probable space group: P 2/C
;
_chemical_formula_sum "Si O2"
_cell_formula_units_Z 24
_cell_length_a 7.328333
_cell_length_b 5.576410
_cell_length_c 26.200589
_cell_angle_alpha 90.000000
_cell_angle_beta 106.242317
_cell_angle_gamma 90.000000
_cell_volume 1027.972989
_symmetry_space_group_name_H-M "P 2/C"
_symmetry_group_IT_number 13
_symmetry_cell_setting 'monoclinic'
loop_
_space_group_symop_operation_xyz
x,y,z
-x,y,1/2-z
-x,-y,-z
x,-y,1/2+z
loop_
_atom_site_type_symbol
_atom_site_label
_atom_site_fract_x
_atom_site_fract_y
_atom_site_fract_z
Si Si1 0.750254 0.243281 0.527076
Si Si2 0.303898 0.256719 0.527076
Si Si3 0.694308 0.749997 0.694308
Si Si4 0.500000 0.882278 0.250000
Si Si5 0.000000 0.382271 0.750000
Si Si6 0.558018 0.369804 0.855854
Si Si7 0.846309 0.130190 0.644146
O O1 0.525926 0.250000 0.525926
O O2 0.785969 0.507886 0.506935
O O3 0.871681 0.189974 0.587447
O O4 0.772098 0.007886 0.493065
O O5 0.303212 0.310026 0.587447
O O6 0.648615 0.950702 0.732036
O O7 0.815458 0.549291 0.732036
O O8 0.498146 0.646995 0.656347
O O9 0.814549 0.852999 0.656347
O O10 0.405548 0.731367 0.197322
O O11 0.989095 0.231360 0.697322
O O12 0.357985 0.249996 0.857984
#
# Coordination Sequence:
#
# PCOD9229716 Si02
#       7
#     4   4   4   2   2   4   4
#     4   9  18  28  46  72 104 141 176 220 276 330
#     4   9  18  28  46  72 104 141 176 220 276 330
#     4  10  20  34  54  76 112 144 180 228 278 328
#     4  10  20  34  52  80 108 146 182 228 274 326
#     4  10  20  34  52  80 108 146 182 228 274 326
#     4   9  19  31  48  74 107 139 181 224 271 328
#     4   9  19  31  48  74 107 139 181 224 271 328
#
# _framework density 23.346916
#
# number of rings (size 3 to 8) (size 9 to 14) (size 15 to 20)
#    0.000    2.667    0.000    1.000   16.333    0.000 
#    0.000    0.000    0.000    0.000    0.000    2.333 
#    0.000    0.000    0.000    0.000    0.000    0.000 
#
# Total GULP energy -133954.980109 kJ/mol
# GULP energy per Si atom -5581.457505 kJ/mol
# Density = 2.329378 g / cm^3
# Si number density = 23.346916 Si / 1000 Ang^3
#
#
#
# Elastic Constant Matrix: (Units=GPa)
#
#
# Indices 1 2 3 4 5 6 
#
# 1 58.4878 8.0953 16.2444 0.0000 -0.2011 0.0000
# 2 8.0953 143.3787 100.2102 0.0000 1.3643 0.0000
# 3 16.2444 100.2102 230.9967 0.0000 2.7564 0.0000
# 4 0.0000 0.0000 0.0000 25.7568 0.0000 0.1369
# 5 -0.2011 1.3643 2.7564 0.0000 14.3819 0.0000
# 6 0.0000 0.0000 0.0000 0.1369 0.0000 16.5188
#
#
#
# Elastic Compliance Matrix: (Units=1/GPa)
#
#
# Indices 1 2 3 4 5 6 
#
# 1 0.017445 -0.000184 -0.001153 0.000000 0.000482 0.000000
# 2 -0.000184 0.010012 -0.004329 0.000000 -0.000123 0.000000
# 3 -0.001153 -0.004329 0.006298 0.000000 -0.000813 0.000000
# 4 0.000000 0.000000 0.000000 0.038826 0.000000 -0.000322
# 5 0.000482 -0.000123 -0.000813 0.000000 0.069706 0.000000
# 6 0.000000 0.000000 0.000000 -0.000322 0.000000 0.060540
#
#
# Mechanical properties :
#
#
# Convention : Reuss Voigt Hill
#
# Bulk Modulus (GPa) = 44.59643 75.77368 60.18505
# Shear Modulus (GPa) = 22.55998 31.88573 27.22285
#
# Velocity S-wave (km/s) = 3.11190 3.69960 3.41840
# Velocity P-wave (km/s) = 5.66171 7.12568 6.43546
#
# Compressibility (1/GPa) = 0.02242332
#
# Stress axis : x y z
#
# Youngs Moduli (GPa) = 57.32348 99.88458 158.78747
#
# Poissons Ratio (x) = 0.01836 0.18305
# Poissons Ratio (y) = 0.01054 0.68736
# Poissons Ratio (z) = 0.06608 0.43238
#
# Static dielectric constant tensor:
#      x y z
#    x 1.967410 0.000000 -0.001480 
#    y 0.000000 1.977020 0.000000 
#    z -0.001480 0.000000 1.867850 
# 
# From -- ./inp_files/81318.got.cif
#   From: 2010.05.17/outbox.cif.g08.bks.cpg/sg13_41_cif.got.tgz:81318.got - 2010.06.03 16:44:36.
