data_PCOD9229453
_publ_section_title
;
Structure prediction by ZEFSAII (Michael W. Deem and Ramdas Pophale) SiO2 
 PCOD9229453
Probable space group: P 2/C
;
_chemical_formula_sum "Si O2"
_cell_formula_units_Z 30
_cell_length_a 13.298542
_cell_length_b 12.448480
_cell_length_c 23.304309
_cell_angle_alpha 90.000000
_cell_angle_beta 155.568866
_cell_angle_gamma 90.000000
_cell_volume 1595.645099
_symmetry_space_group_name_H-M "P 2/C"
_symmetry_group_IT_number 13
_symmetry_cell_setting 'monoclinic'
loop_
_space_group_symop_operation_xyz
x,y,z
-x,y,1/2-z
-x,-y,-z
x,-y,1/2+z
loop_
_atom_site_type_symbol
_atom_site_label
_atom_site_fract_x
_atom_site_fract_y
_atom_site_fract_z
Si Si1 0.306576 0.108613 0.728317
Si Si2 0.121295 0.305480 0.684289
Si Si3 0.309904 0.780661 0.471936
Si Si4 0.736995 0.572273 0.131806
Si Si5 0.000000 0.031933 0.750000
Si Si6 0.169571 0.185943 0.538263
Si Si7 0.779542 0.584945 0.385320
Si Si8 0.207321 0.099402 0.248211
O O1 0.251512 0.190735 0.751193
O O2 0.128180 0.133649 0.580884
O O3 0.571390 0.138421 0.844373
O O4 0.296671 0.992589 0.750639
O O5 0.221206 0.388392 0.782192
O O6 0.186162 0.357814 0.657881
O O7 0.846150 0.269826 0.556454
O O8 0.300520 0.683044 0.422345
O O9 0.577420 0.817882 0.627038
O O10 0.182549 0.885768 0.377613
O O11 0.000000 0.523636 0.250000
O O12 0.500000 0.500000 0.000000
O O13 0.115888 0.957221 0.759841
O O14 0.184436 0.314599 0.552897
O O15 0.996143 0.156682 0.395892
O O16 0.500000 0.544868 0.250000
O O17 0.000000 0.500000 0.500000
#
# Coordination Sequence:
#
# PCOD9229453 Si02
#       8
#     4   4   4   4   2   4   4   4
#     4  10  19  41  64  85 127 173 207 253 331 384
#     4  10  20  42  68  82 127 173 204 268 328 382
#     4  11  22  42  62  95 132 167 217 264 327 396
#     4  10  22  42  64  90 123 169 219 269 329 387
#     4  12  22  42  64  92 132 182 212 258 330 394
#     4  10  22  42  61  94 129 164 216 268 327 387
#     4  11  24  44  69  96 126 174 225 276 336 388
#     4  12  24  36  65 101 129 168 222 266 315 399
#
# _framework density 18.801174
#
# number of rings (size 3 to 8) (size 9 to 14) (size 15 to 20)
#    0.000    1.333    6.000    1.600    0.000    5.333 
#    6.000    0.000    0.000    0.000    0.000    0.000 
#    0.000    0.000    0.000    0.000    0.000    0.000 
#
# Total GULP energy -167103.921672 kJ/mol
# GULP energy per Si atom -5570.130722 kJ/mol
# Density = 1.875838 g / cm^3
# Si number density = 18.801174 Si / 1000 Ang^3
#
#
#
# Elastic Constant Matrix: (Units=GPa)
#
#
# Indices 1 2 3 4 5 6 
#
# 1 99.6108 38.3417 48.9896 0.0000 12.5433 0.0000
# 2 38.3417 70.6153 47.2536 0.0000 19.9710 0.0000
# 3 48.9896 47.2536 134.3949 0.0000 17.4845 0.0000
# 4 0.0000 0.0000 0.0000 37.7006 0.0000 18.5661
# 5 12.5433 19.9710 17.4845 0.0000 18.7041 0.0000
# 6 0.0000 0.0000 0.0000 18.5661 0.0000 12.8171
#
#
#
# Elastic Compliance Matrix: (Units=1/GPa)
#
#
# Indices 1 2 3 4 5 6 
#
# 1 0.013615 -0.005117 -0.003059 0.000000 -0.000807 0.000000
# 2 -0.005117 0.025525 -0.004565 0.000000 -0.019555 0.000000
# 3 -0.003059 -0.004565 0.010542 0.000000 -0.002929 0.000000
# 4 0.000000 0.000000 0.000000 0.092532 0.000000 -0.134036
# 5 -0.000807 -0.019555 -0.002929 0.000000 0.077622 0.000000
# 6 0.000000 0.000000 0.000000 -0.134036 0.000000 0.272176
#
#
# Mechanical properties :
#
#
# Convention : Reuss Voigt Hill
#
# Bulk Modulus (GPa) = 41.32363 63.75456 52.53909
# Shear Modulus (GPa) = 9.51365 25.18011 17.34688
#
# Velocity S-wave (km/s) = 2.25192 3.66359 3.04081
# Velocity P-wave (km/s) = 5.36549 7.20273 6.35090
#
# Compressibility (1/GPa) = 0.02419923
#
# Stress axis : x y z
#
# Youngs Moduli (GPa) = 73.45009 39.17719 94.85988
#
# Poissons Ratio (x) = 0.20048 0.29013
# Poissons Ratio (y) = 0.37587 0.43306
# Poissons Ratio (z) = 0.22465 0.17886
#
# Static dielectric constant tensor:
#      x y z
#    x 1.726980 0.000000 -0.017150 
#    y 0.000000 1.698630 0.000000 
#    z -0.017150 0.000000 1.661270 
# 
# From -- ./inp_files/78658.got.cif
#   From: 2010.05.17/outbox.cif.g08.bks.cpg/sg13_40_cif.got.tgz:78658.got - 2010.06.03 16:44:36.
