data_PCOD9229504
_publ_section_title
;
Structure prediction by ZEFSAII (Michael W. Deem and Ramdas Pophale) SiO2 
 PCOD9229504
Probable space group: P 2/C
;
_chemical_formula_sum "Si O2"
_cell_formula_units_Z 24
_cell_length_a 13.089036
_cell_length_b 11.390061
_cell_length_c 8.682649
_cell_angle_alpha 90.000000
_cell_angle_beta 77.080228
_cell_angle_gamma 90.000000
_cell_volume 1261.681795
_symmetry_space_group_name_H-M "P 2/C"
_symmetry_group_IT_number 13
_symmetry_cell_setting 'monoclinic'
loop_
_space_group_symop_operation_xyz
x,y,z
-x,y,1/2-z
-x,-y,-z
x,-y,1/2+z
loop_
_atom_site_type_symbol
_atom_site_label
_atom_site_fract_x
_atom_site_fract_y
_atom_site_fract_z
Si Si1 0.000000 0.445208 0.250000
Si Si2 0.657272 0.710328 0.058915
Si Si3 0.710471 0.270649 0.879332
Si Si4 0.868100 0.385166 0.014276
Si Si5 0.298229 0.457139 0.187083
Si Si6 0.500000 0.483950 0.750000
Si Si7 0.506397 0.131417 0.063496
O O1 0.047235 0.371473 0.376815
O O2 0.917929 0.533410 0.363567
O O3 0.711345 0.757263 0.196281
O O4 0.575148 0.606539 0.134391
O O5 0.735580 0.644286 0.917942
O O6 0.589615 0.803899 0.989614
O O7 0.690948 0.411728 0.881611
O O8 0.814897 0.272358 0.949625
O O9 0.614037 0.198404 0.980581
O O10 0.777383 0.451822 0.141812
O O11 0.417802 0.431845 0.195274
O O12 0.500000 0.131076 0.250000
O O13 0.500000 0.000000 0.000000
#
# Coordination Sequence:
#
# PCOD9229504 Si02
#       7
#     2   4   4   4   4   2   4
#     4  10  24  38  54  82 122 168 206 268 310 356
#     4  11  21  34  53  82 119 159 206 242 281 355
#     4  11  21  37  55  82 114 163 199 242 295 363
#     4  11  22  37  56  81 122 173 206 252 309 361
#     4  11  21  32  55  85 121 162 203 242 286 369
#     4  10  20  30  52  78 124 154 198 236 276 356
#     4  12  25  41  57  80 120 163 205 247 291 350
#
# _framework density 19.02223
#
# number of rings (size 3 to 8) (size 9 to 14) (size 15 to 20)
#    0.000    1.000    5.000    4.500    3.500    0.000 
#    0.000    0.000    0.000    0.000    0.000    0.000 
#    0.000   36.000    0.000    0.167    0.000    0.000 
#
# Total GULP energy -133740.837374 kJ/mol
# GULP energy per Si atom -5572.534891 kJ/mol
# Density = 1.897893 g / cm^3
# Si number density = 19.022230 Si / 1000 Ang^3
#
#
#
# Elastic Constant Matrix: (Units=GPa)
#
#
# Indices 1 2 3 4 5 6 
#
# 1 81.2897 22.4477 43.8605 0.0000 25.0978 0.0000
# 2 22.4477 79.0790 47.6793 0.0000 7.4266 0.0000
# 3 43.8605 47.6793 149.6628 0.0000 21.9232 0.0000
# 4 0.0000 0.0000 0.0000 24.9389 0.0000 5.5193
# 5 25.0978 7.4266 21.9232 0.0000 48.0613 0.0000
# 6 0.0000 0.0000 0.0000 5.5193 0.0000 17.0236
#
#
#
# Elastic Compliance Matrix: (Units=1/GPa)
#
#
# Indices 1 2 3 4 5 6 
#
# 1 0.016783 -0.002178 -0.003204 0.000000 -0.006966 0.000000
# 2 -0.002178 0.015936 -0.004548 0.000000 0.000750 0.000000
# 3 -0.003204 -0.004548 0.009346 0.000000 -0.001887 0.000000
# 4 0.000000 0.000000 0.000000 0.043197 0.000000 -0.014005
# 5 -0.006966 0.000750 -0.001887 0.000000 0.025189 0.000000
# 6 0.000000 0.000000 0.000000 -0.014005 0.000000 0.063283
#
#
# Mechanical properties :
#
#
# Convention : Reuss Voigt Hill
#
# Bulk Modulus (GPa) = 45.03748 59.77852 52.40800
# Shear Modulus (GPa) = 24.87613 31.07437 27.97525
#
# Velocity S-wave (km/s) = 3.62019 4.04614 3.83908
# Velocity P-wave (km/s) = 6.41888 7.30221 6.87474
#
# Compressibility (1/GPa) = 0.02220373
#
# Stress axis : x y z
#
# Youngs Moduli (GPa) = 59.58567 62.75201 106.99604
#
# Poissons Ratio (x) = 0.13667 0.34283
# Poissons Ratio (y) = 0.12977 0.48665
# Poissons Ratio (z) = 0.19092 0.28542
#
# Static dielectric constant tensor:
#      x y z
#    x 1.834770 0.000000 0.089200 
#    y 0.000000 1.618110 0.000000 
#    z 0.089200 0.000000 1.784120 
# 
# From -- ./inp_files/18319.got.cif
#   From: 2010.05.17/outbox.cif.g08.bks.cpg/sg13_10_cif.got.tgz:18319.got - 2010.06.03 16:44:36.
