data_PCOD9229209
_publ_section_title
;
Structure prediction by ZEFSAII (Michael W. Deem and Ramdas Pophale) SiO2 
 PCOD9229209
Probable space group: P 2/C
;
_chemical_formula_sum "Si O2"
_cell_formula_units_Z 20
_cell_length_a 7.148738
_cell_length_b 7.718615
_cell_length_c 15.161839
_cell_angle_alpha 90.000000
_cell_angle_beta 99.590033
_cell_angle_gamma 90.000000
_cell_volume 824.913823
_symmetry_space_group_name_H-M "P 2/C"
_symmetry_group_IT_number 13
_symmetry_cell_setting 'monoclinic'
loop_
_space_group_symop_operation_xyz
x,y,z
-x,y,1/2-z
-x,-y,-z
x,-y,1/2+z
loop_
_atom_site_type_symbol
_atom_site_label
_atom_site_fract_x
_atom_site_fract_y
_atom_site_fract_z
Si Si1 0.631989 0.036912 0.898940
Si Si2 0.767839 0.334322 0.038306
Si Si3 0.688098 0.809087 0.225295
Si Si4 0.771611 0.339922 0.419452
Si Si5 0.786566 0.437393 0.225278
O O1 0.411394 0.067695 0.853951
O O2 0.748527 0.081538 0.816116
O O3 0.684969 0.846420 0.931737
O O4 0.689561 0.176495 0.975550
O O5 0.697694 0.348479 0.133148
O O6 0.998234 0.324858 0.058058
O O7 0.717606 0.511213 0.983612
O O8 0.500000 0.715509 0.250000
O O9 0.804648 0.644058 0.204812
O O10 0.710809 0.399360 0.316489
O O11 0.000000 0.367792 0.250000
#
# Coordination Sequence:
#
# PCOD9229209 Si02
#       5
#     4   4   4   4   4
#     4   9  19  38  57  85 120 158 209 233 300 363
#     4  10  20  35  62  90 120 157 202 250 302 362
#     4   8  19  39  58  82 123 163 196 246 298 358
#     4  10  19  38  60  85 125 162 193 253 307 355
#     4  10  20  38  62  93 122 159 205 252 309 356
#
# _framework density 24.244958
#
# number of rings (size 3 to 8) (size 9 to 14) (size 15 to 20)
#    1.200    1.200    2.000    0.600    0.000    0.800 
#   14.400    2.000    0.000    0.000    0.000    0.000 
#    0.000    0.000    0.000    0.000    0.000    0.000 
#
# Total GULP energy -111661.625051 kJ/mol
# GULP energy per Si atom -5583.081253 kJ/mol
# Density = 2.418978 g / cm^3
# Si number density = 24.244958 Si / 1000 Ang^3
#
#
#
# Elastic Constant Matrix: (Units=GPa)
#
#
# Indices 1 2 3 4 5 6 
#
# 1 50.1883 21.4191 38.7690 0.0000 4.9655 0.0000
# 2 21.4191 201.0184 107.8246 0.0000 16.9305 0.0000
# 3 38.7690 107.8246 212.9680 0.0000 2.2436 0.0000
# 4 0.0000 0.0000 0.0000 16.9509 0.0000 5.0932
# 5 4.9655 16.9305 2.2436 0.0000 16.1020 0.0000
# 6 0.0000 0.0000 0.0000 5.0932 0.0000 18.9405
#
#
#
# Elastic Compliance Matrix: (Units=1/GPa)
#
#
# Indices 1 2 3 4 5 6 
#
# 1 0.023933 0.000491 -0.004529 0.000000 -0.007266 0.000000
# 2 0.000491 0.007649 -0.003881 0.000000 -0.007653 0.000000
# 3 -0.004529 -0.003881 0.007438 0.000000 0.004441 0.000000
# 4 0.000000 0.000000 0.000000 0.064180 0.000000 -0.017258
# 5 -0.007266 -0.007653 0.004441 0.000000 0.071773 0.000000
# 6 0.000000 0.000000 0.000000 -0.017258 0.000000 0.057438
#
#
# Mechanical properties :
#
#
# Convention : Reuss Voigt Hill
#
# Bulk Modulus (GPa) = 43.13775 88.91112 66.02443
# Shear Modulus (GPa) = 19.53316 30.14281 24.83799
#
# Velocity S-wave (km/s) = 2.84149 3.52982 3.20419
# Velocity P-wave (km/s) = 5.34757 7.30510 6.40160
#
# Compressibility (1/GPa) = 0.02318155
#
# Stress axis : x y z
#
# Youngs Moduli (GPa) = 41.78402 130.73896 134.43963
#
# Poissons Ratio (x) = -0.06420 0.60885
# Poissons Ratio (y) = -0.02052 0.52181
# Poissons Ratio (z) = 0.18923 0.50744
#
# Static dielectric constant tensor:
#      x y z
#    x 1.984250 0.000000 -0.020330 
#    y 0.000000 1.853200 0.000000 
#    z -0.020330 0.000000 1.951450 
# 
# From -- ./inp_files/65159.got.cif
#   From: 2010.05.17/outbox.cif.g08.bks.cpg/sg13_33_cif.got.tgz:65159.got - 2010.06.03 16:44:36.
