data_PCOD9229899
_publ_section_title
;
Structure prediction by ZEFSAII (Michael W. Deem and Ramdas Pophale) SiO2 
 PCOD9229899
Probable space group: P 2/C
;
_chemical_formula_sum "Si O2"
_cell_formula_units_Z 32
_cell_length_a 9.070943
_cell_length_b 15.735948
_cell_length_c 11.070821
_cell_angle_alpha 90.000000
_cell_angle_beta 84.621572
_cell_angle_gamma 90.000000
_cell_volume 1573.290427
_symmetry_space_group_name_H-M "P 2/C"
_symmetry_group_IT_number 13
_symmetry_cell_setting 'monoclinic'
loop_
_space_group_symop_operation_xyz
x,y,z
-x,y,1/2-z
-x,-y,-z
x,-y,1/2+z
loop_
_atom_site_type_symbol
_atom_site_label
_atom_site_fract_x
_atom_site_fract_y
_atom_site_fract_z
Si Si1 0.659683 0.539419 0.699582
Si Si2 0.285010 0.274987 0.673432
Si Si3 0.845171 0.786800 0.733579
Si Si4 0.135527 0.657452 0.971257
Si Si5 0.584261 0.101856 0.874495
Si Si6 0.826762 0.383548 0.386338
Si Si7 0.599533 0.908543 0.863488
Si Si8 0.611373 0.350277 0.607531
O O1 0.500000 0.577312 0.750000
O O2 0.738065 0.594602 0.589860
O O3 0.774780 0.540612 0.803158
O O4 0.625410 0.445070 0.658819
O O5 0.160397 0.323644 0.609281
O O6 0.295994 0.176328 0.640751
O O7 0.445167 0.315363 0.622403
O O8 0.287945 0.290291 0.815883
O O9 0.839816 0.749850 0.597347
O O10 0.850318 0.696380 0.799088
O O11 0.721431 0.842240 0.808340
O O12 0.000000 0.831654 0.750000
O O13 0.977812 0.614063 0.951173
O O14 0.500000 0.108060 0.750000
O O15 0.647621 0.006522 0.880377
O O16 0.482633 0.115807 0.003485
O O17 0.684787 0.358617 0.473898
O O18 0.500000 0.912812 0.750000
#
# Coordination Sequence:
#
# PCOD9229899 Si02
#       8
#     4   4   4   4   4   4   4   4
#     4  11  22  39  59  86 113 146 201 255 293 346
#     4  11  21  39  59  85 116 159 195 242 300 363
#     4   9  19  38  61  85 117 154 200 243 292 356
#     4  10  23  40  61  84 118 154 196 252 294 354
#     4  10  20  36  59  92 130 151 198 258 307 359
#     4  10  23  41  58  85 119 156 197 245 302 357
#     4  10  20  34  64  95 116 158 203 254 302 354
#     4  11  23  37  60  82 113 157 198 239 302 360
#
# _framework density 20.339538000000001
#
# number of rings (size 3 to 8) (size 9 to 14) (size 15 to 20)
#    0.000    1.750    2.500    3.375    1.750    5.000 
#    2.250    0.000    2.750    8.250    0.000    0.000 
#    0.000    0.000    0.000    0.000    0.000    0.000 
#
# Total GULP energy -178302.229283 kJ/mol
# GULP energy per Si atom -5571.944665 kJ/mol
# Density = 2.029324 g / cm^3
# Si number density = 20.339538 Si / 1000 Ang^3
#
#
#
# Elastic Constant Matrix: (Units=GPa)
#
#
# Indices 1 2 3 4 5 6 
#
# 1 38.6275 10.7917 -7.9020 0.0000 11.2240 0.0000
# 2 10.7917 63.7953 -5.1569 0.0000 1.3565 0.0000
# 3 -7.9020 -5.1569 70.7436 0.0000 8.8274 0.0000
# 4 0.0000 0.0000 0.0000 34.1536 0.0000 10.1367
# 5 11.2240 1.3565 8.8274 0.0000 29.7009 0.0000
# 6 0.0000 0.0000 0.0000 10.1367 0.0000 1.7487
#
#
#
# Elastic Compliance Matrix: (Units=1/GPa)
#
#
# Indices 1 2 3 4 5 6 
#
# 1 0.032106 -0.004750 0.004909 0.000000 -0.013375 0.000000
# 2 -0.004750 0.016506 0.000564 0.000000 0.000874 0.000000
# 3 0.004909 0.000564 0.015536 0.000000 -0.006498 0.000000
# 4 0.000000 0.000000 0.000000 -0.040640 0.000000 0.235580
# 5 -0.013375 0.000874 -0.006498 0.000000 0.040615 0.000000
# 6 0.000000 0.000000 0.000000 0.235580 0.000000 -0.793738
#
#
# Mechanical properties :
#
#
# Convention : Reuss Voigt Hill
#
# Bulk Modulus (GPa) = 15.24566 18.73687 16.99127
# Shear Modulus (GPa) = -7.05022 24.81621 8.88299
#
# Velocity S-wave (km/s) = -1.86381 3.49678 2.09209
# Velocity P-wave (km/s) = 1.69710 5.05325 3.76931
#
# Compressibility (1/GPa) = 0.06559243
#
# Stress axis : x y z
#
# Youngs Moduli (GPa) = 31.14707 60.58542 64.36745
#
# Poissons Ratio (x) = 0.28777 -0.31597
# Poissons Ratio (y) = 0.14794 -0.03628
# Poissons Ratio (z) = -0.15290 -0.03415
#
# Static dielectric constant tensor:
#      x y z
#    x 1.822800 0.000000 -0.006850 
#    y 0.000000 1.734980 0.000000 
#    z -0.006850 0.000000 1.825820 
# 
# From -- ./inp_files/30432.got.cif
#   From: 2010.05.17/outbox.cif.g08.bks.cpg/sg13_16_cif.got.tgz:30432.got - 2010.06.03 16:44:36.
