data_PCOD9229938
_publ_section_title
;
Structure prediction by ZEFSAII (Michael W. Deem and Ramdas Pophale) SiO2 
 PCOD9229938
Probable space group: P 2/C
;
_chemical_formula_sum "Si O2"
_cell_formula_units_Z 28
_cell_length_a 28.075680
_cell_length_b 9.292660
_cell_length_c 8.404424
_cell_angle_alpha 90.000000
_cell_angle_beta 138.436805
_cell_angle_gamma 90.000000
_cell_volume 1454.734298
_symmetry_space_group_name_H-M "P 2/C"
_symmetry_group_IT_number 13
_symmetry_cell_setting 'monoclinic'
loop_
_space_group_symop_operation_xyz
x,y,z
-x,y,1/2-z
-x,-y,-z
x,-y,1/2+z
loop_
_atom_site_type_symbol
_atom_site_label
_atom_site_fract_x
_atom_site_fract_y
_atom_site_fract_z
Si Si1 0.421917 0.163718 0.495748
Si Si2 0.000029 0.663591 0.557733
Si Si3 0.141398 0.836384 0.295913
Si Si4 0.578076 0.837096 0.885732
Si Si5 0.282272 0.662534 0.647742
Si Si6 0.282318 0.663177 0.263182
Si Si7 0.141383 0.163267 0.411210
O O1 0.422706 0.161210 0.306972
O O2 0.356289 0.263026 0.386729
O O3 0.411267 0.000522 0.528766
O O4 0.500000 0.213235 0.750000
O O5 0.071272 0.748347 0.682357
O O6 0.000000 0.662717 0.750000
O O7 0.000000 0.500000 0.500000
O O8 0.928768 0.748148 0.325985
O O9 0.213770 0.755712 0.530397
O O10 0.139241 0.999778 0.348351
O O11 0.141339 0.837292 0.103431
O O12 0.500000 0.787869 0.750000
O O13 0.643668 0.737932 0.105296
O O14 0.282232 0.663108 0.455312
O O15 0.276788 0.499588 0.691396
O O16 0.213802 0.756412 0.038342
#
# Coordination Sequence:
#
# PCOD9229938 Si02
#       7
#     4   4   4   4   4   4   4
#     4  10  20  35  55  79 105 137 176 218 263 315
#     4  10  21  36  56  82 112 142 177 218 262 312
#     4  10  21  37  56  81 109 140 179 220 261 312
#     4  10  20  35  55  79 105 137 176 218 263 315
#     4  10  22  37  54  78 108 140 177 218 264 315
#     4  10  22  37  54  78 108 140 177 218 264 315
#     4  10  21  37  56  81 109 140 179 220 261 312
#
# _framework density 19.247502000000001
#
# number of rings (size 3 to 8) (size 9 to 14) (size 15 to 20)
#    0.000    2.000    0.000    3.857    0.000    5.143 
#    0.000    2.857    0.000    0.000    0.000    0.000 
#    0.000    0.000    0.000    0.000    0.000    0.000 
#
# Total GULP energy -156443.813952 kJ/mol
# GULP energy per Si atom -5587.279070 kJ/mol
# Density = 1.920369 g / cm^3
# Si number density = 19.247502 Si / 1000 Ang^3
#
#
#
# Elastic Constant Matrix: (Units=GPa)
#
#
# Indices 1 2 3 4 5 6 
#
# 1 62.9958 61.6626 55.6632 0.0000 41.8930 0.0000
# 2 61.6626 185.7744 95.3720 0.0000 59.0043 0.0000
# 3 55.6632 95.3720 119.3727 0.0000 56.8798 0.0000
# 4 0.0000 0.0000 0.0000 33.0521 0.0000 -3.4046
# 5 41.8930 59.0043 56.8798 0.0000 42.2049 0.0000
# 6 0.0000 0.0000 0.0000 -3.4046 0.0000 34.7037
#
#
#
# Elastic Compliance Matrix: (Units=1/GPa)
#
#
# Indices 1 2 3 4 5 6 
#
# 1 0.046993 -0.001636 0.001483 0.000000 -0.046358 0.000000
# 2 -0.001636 0.010324 -0.003862 0.000000 -0.007605 0.000000
# 3 0.001483 -0.003862 0.024871 0.000000 -0.029593 0.000000
# 4 0.000000 0.000000 0.000000 0.030564 0.000000 0.002998
# 5 -0.046358 -0.007605 -0.029593 0.000000 0.120225 0.000000
# 6 0.000000 0.000000 0.000000 0.002998 0.000000 0.029110
#
#
# Mechanical properties :
#
#
# Convention : Reuss Voigt Hill
#
# Bulk Modulus (GPa) = 13.48426 88.17095 50.82761
# Shear Modulus (GPa) = 16.95861 32.35514 24.65688
#
# Velocity S-wave (km/s) = 2.97152 4.10445 3.58305
# Velocity P-wave (km/s) = 4.33523 8.26865 6.60169
#
# Compressibility (1/GPa) = 0.07416052
#
# Stress axis : x y z
#
# Youngs Moduli (GPa) = 21.27955 96.86437 40.20674
#
# Poissons Ratio (x) = 0.15842 -0.05963
# Poissons Ratio (y) = 0.03480 0.15526
# Poissons Ratio (z) = -0.03156 0.37405
#
# Static dielectric constant tensor:
#      x y z
#    x 1.677640 0.000000 0.000720 
#    y 0.000000 1.611550 0.000000 
#    z 0.000720 0.000000 1.678080 
# 
# From -- ./inp_files/24595.got.cif
#   From: 2010.05.17/outbox.cif.g08.bks.cpg/sg13_13_cif.got.tgz:24595.got - 2010.06.03 16:44:36.
