data_PCOD9229917
_publ_section_title
;
Structure prediction by ZEFSAII (Michael W. Deem and Ramdas Pophale) SiO2 
 PCOD9229917
Probable space group: P 2/C
;
_chemical_formula_sum "Si O2"
_cell_formula_units_Z 24
_cell_length_a 5.354229
_cell_length_b 12.245949
_cell_length_c 16.339580
_cell_angle_alpha 90.000000
_cell_angle_beta 77.360457
_cell_angle_gamma 90.000000
_cell_volume 1045.384240
_symmetry_space_group_name_H-M "P 2/C"
_symmetry_group_IT_number 13
_symmetry_cell_setting 'monoclinic'
loop_
_space_group_symop_operation_xyz
x,y,z
-x,y,1/2-z
-x,-y,-z
x,-y,1/2+z
loop_
_atom_site_type_symbol
_atom_site_label
_atom_site_fract_x
_atom_site_fract_y
_atom_site_fract_z
Si Si1 0.782648 0.514712 0.703458
Si Si2 0.980688 0.626589 0.450943
Si Si3 0.421852 0.309926 0.031743
Si Si4 0.496871 0.913785 0.426733
Si Si5 0.270758 0.242976 0.225659
Si Si6 0.037878 0.850914 0.343117
O O1 0.500000 0.474644 0.750000
O O2 0.883589 0.467044 0.612039
O O3 0.770389 0.646188 0.716633
O O4 0.000000 0.475966 0.750000
O O5 0.163904 0.638862 0.515493
O O6 0.681269 0.621548 0.496879
O O7 0.010926 0.736921 0.394524
O O8 0.362750 0.280594 0.129886
O O9 0.461877 0.200692 0.976462
O O10 0.785027 0.922177 0.374591
O O11 0.285309 0.909558 0.368350
O O12 0.500000 0.000000 0.500000
O O13 0.500000 0.177559 0.250000
O O14 0.000000 0.184595 0.250000
O O15 0.000000 0.823870 0.250000
#
# Coordination Sequence:
#
# PCOD9229917 Si02
#       6
#     4   4   4   4   4   4
#     4  10  20  35  53  78 110 144 181 229 279 324
#     4  10  20  35  58  84 110 146 188 233 285 335
#     4  10  21  38  59  81 109 151 191 228 285 346
#     4  10  21  38  59  85 118 150 186 237 287 338
#     4  10  21  39  56  77 111 148 187 233 280 334
#     4  10  20  35  59  87 116 147 186 234 285 339
#
# _framework density 22.958065000000001
#
# number of rings (size 3 to 8) (size 9 to 14) (size 15 to 20)
#    0.000    2.000    0.000    3.500    0.000    2.667 
#    0.000   22.500    0.000    0.000    0.000    0.000 
#    0.000    0.000    0.000    0.000    0.000    0.000 
#
# Total GULP energy -133911.871349 kJ/mol
# GULP energy per Si atom -5579.661306 kJ/mol
# Density = 2.290581 g / cm^3
# Si number density = 22.958065 Si / 1000 Ang^3
#
#
#
# Elastic Constant Matrix: (Units=GPa)
#
#
# Indices 1 2 3 4 5 6 
#
# 1 243.8730 34.8310 68.6302 0.0000 15.9856 0.0000
# 2 34.8310 16.1451 0.7932 0.0000 5.4848 0.0000
# 3 68.6302 0.7932 89.2034 0.0000 24.8433 0.0000
# 4 0.0000 0.0000 0.0000 26.2579 0.0000 -0.0145
# 5 15.9856 5.4848 24.8433 0.0000 49.8584 0.0000
# 6 0.0000 0.0000 0.0000 -0.0145 0.0000 3.4627
#
#
#
# Elastic Compliance Matrix: (Units=1/GPa)
#
#
# Indices 1 2 3 4 5 6 
#
# 1 0.008807 -0.019670 -0.007451 0.000000 0.003053 0.000000
# 2 -0.019670 0.108481 0.018272 0.000000 -0.014731 0.000000
# 3 -0.007451 0.018272 0.019362 0.000000 -0.009269 0.000000
# 4 0.000000 0.000000 0.000000 0.038084 0.000000 0.000159
# 5 0.003053 -0.014731 -0.009269 0.000000 0.025317 0.000000
# 6 0.000000 0.000000 0.000000 0.000159 0.000000 0.288794
#
#
# Mechanical properties :
#
#
# Convention : Reuss Voigt Hill
#
# Bulk Modulus (GPa) = 8.40685 61.97004 35.18844
# Shear Modulus (GPa) = 9.15427 32.24693 20.70060
#
# Velocity S-wave (km/s) = 1.99901 3.75187 3.00604
# Velocity P-wave (km/s) = 2.99964 6.76905 5.23535
#
# Compressibility (1/GPa) = 0.11895065
#
# Stress axis : x y z
#
# Youngs Moduli (GPa) = 113.55215 9.21820 51.64881
#
# Poissons Ratio (x) = 0.18132 0.38482
# Poissons Ratio (y) = 2.23358 -0.94371
# Poissons Ratio (z) = 0.84605 -0.16843
#
# Static dielectric constant tensor:
#      x y z
#    x 1.914460 0.000000 0.006740 
#    y 0.000000 1.891360 0.000000 
#    z 0.006740 0.000000 2.120810 
# 
# From -- ./inp_files/43970.got.cif
#   From: 2010.05.17/outbox.cif.g08.bks.cpg/sg13_22_cif.got.tgz:43970.got - 2010.06.03 16:44:36.
