data_PCOD9229597
_publ_section_title
;
Structure prediction by ZEFSAII (Michael W. Deem and Ramdas Pophale) SiO2 
 PCOD9229597
Probable space group: P 2/C
;
_chemical_formula_sum "Si O2"
_cell_formula_units_Z 30
_cell_length_a 12.724427
_cell_length_b 7.916757
_cell_length_c 31.771770
_cell_angle_alpha 90.000000
_cell_angle_beta 153.520754
_cell_angle_gamma 90.000000
_cell_volume 1427.048499
_symmetry_space_group_name_H-M "P 2/C"
_symmetry_group_IT_number 13
_symmetry_cell_setting 'monoclinic'
loop_
_space_group_symop_operation_xyz
x,y,z
-x,y,1/2-z
-x,-y,-z
x,-y,1/2+z
loop_
_atom_site_type_symbol
_atom_site_label
_atom_site_fract_x
_atom_site_fract_y
_atom_site_fract_z
Si Si1 0.594337 0.293723 0.074605
Si Si2 0.917439 0.198625 0.961380
Si Si3 0.791806 0.080785 0.290247
Si Si4 0.107753 0.990715 0.329716
Si Si5 0.370339 0.155938 0.077912
Si Si6 0.500000 0.861625 0.250000
Si Si7 0.644765 0.352440 0.594707
Si Si8 0.209012 0.776442 0.992192
O O1 0.702184 0.130877 0.089950
O O2 0.477876 0.240401 0.075799
O O3 0.746228 0.461031 0.138161
O O4 0.400934 0.350147 0.971710
O O5 0.676098 0.218661 0.848067
O O6 0.879854 0.282731 0.993531
O O7 0.139202 0.249901 0.012430
O O8 0.000000 0.000000 0.000000
O O9 0.568873 0.155338 0.185345
O O10 0.930257 0.972098 0.304560
O O11 0.985364 0.201897 0.381006
O O12 0.682713 0.971484 0.288404
O O13 0.000000 0.080248 0.250000
O O14 0.208757 0.817929 0.348045
O O15 0.310082 0.964345 0.040460
O O16 0.413949 0.326388 0.541653
#
# Coordination Sequence:
#
# PCOD9229597 Si02
#       8
#     4   4   4   4   4   2   4   4
#     4  11  23  41  62  90 128 167 214 260 315 375
#     4  10  20  32  58  86 124 157 207 262 308 376
#     4  12  20  32  62  89 127 164 207 262 310 375
#     4  12  23  39  62  93 127 166 209 258 316 378
#     4  11  20  37  59  89 126 166 206 259 315 368
#     4  12  20  34  56 100 120 158 218 260 312 378
#     4  11  24  40  63  91 125 170 213 261 316 376
#     4  11  19  36  59  90 124 162 211 259 310 378
#
# _framework density 21.022411000000002
#
# number of rings (size 3 to 8) (size 9 to 14) (size 15 to 20)
#    0.000    0.800    9.333    1.200    0.000    0.533 
#    0.000    0.667    0.000    0.000    0.000    0.933 
#    0.000    0.000    0.000    0.000    0.000    0.000 
#
# Total GULP energy -167121.388258 kJ/mol
# GULP energy per Si atom -5570.712942 kJ/mol
# Density = 2.097456 g / cm^3
# Si number density = 21.022411 Si / 1000 Ang^3
#
#
#
# Elastic Constant Matrix: (Units=GPa)
#
#
# Indices 1 2 3 4 5 6 
#
# 1 103.8091 6.3188 -4.6335 0.0000 2.4020 0.0000
# 2 6.3188 66.4120 6.4590 0.0000 13.6764 0.0000
# 3 -4.6335 6.4590 104.1969 0.0000 -6.3454 0.0000
# 4 0.0000 0.0000 0.0000 8.9538 0.0000 2.5028
# 5 2.4020 13.6764 -6.3454 0.0000 37.3824 0.0000
# 6 0.0000 0.0000 0.0000 2.5028 0.0000 13.8288
#
#
#
# Elastic Compliance Matrix: (Units=1/GPa)
#
#
# Indices 1 2 3 4 5 6 
#
# 1 0.009716 -0.000929 0.000477 0.000000 -0.000203 0.000000
# 2 -0.000929 0.016574 -0.001449 0.000000 -0.006250 0.000000
# 3 0.000477 -0.001449 0.009840 0.000000 0.002170 0.000000
# 4 0.000000 0.000000 0.000000 0.117636 0.000000 -0.021290
# 5 -0.000203 -0.006250 0.002170 0.000000 0.029418 0.000000
# 6 0.000000 0.000000 0.000000 -0.021290 0.000000 0.076166
#
#
# Mechanical properties :
#
#
# Convention : Reuss Voigt Hill
#
# Bulk Modulus (GPa) = 30.93295 32.30071 31.61683
# Shear Modulus (GPa) = 18.25296 29.78459 24.01877
#
# Velocity S-wave (km/s) = 2.94983 3.76813 3.38380
# Velocity P-wave (km/s) = 5.13305 5.85918 5.50809
#
# Compressibility (1/GPa) = 0.03232799
#
# Stress axis : x y z
#
# Youngs Moduli (GPa) = 102.92708 60.33581 101.62166
#
# Poissons Ratio (x) = 0.05605 -0.04850
# Poissons Ratio (y) = 0.09561 0.14728
# Poissons Ratio (z) = -0.04912 0.08744
#
# Static dielectric constant tensor:
#      x y z
#    x 1.775490 0.000000 0.024840 
#    y 0.000000 1.849690 0.000000 
#    z 0.024840 0.000000 1.701760 
# 
# From -- ./inp_files/96628.got.cif
#   From: 2010.05.17/outbox.cif.g08.bks.cpg/sg13_49_cif.got.tgz:96628.got - 2010.06.03 16:44:36.
