data_PCOD9229545
_publ_section_title
;
Structure prediction by ZEFSAII (Michael W. Deem and Ramdas Pophale) SiO2 
 PCOD9229545
Probable space group: P 2/C
;
_chemical_formula_sum "Si O2"
_cell_formula_units_Z 28
_cell_length_a 22.435875
_cell_length_b 14.147847
_cell_length_c 22.069469
_cell_angle_alpha 90.000000
_cell_angle_beta 12.860095
_cell_angle_gamma 90.000000
_cell_volume 1559.172449
_symmetry_space_group_name_H-M "P 2/C"
_symmetry_group_IT_number 13
_symmetry_cell_setting 'monoclinic'
loop_
_space_group_symop_operation_xyz
x,y,z
-x,y,1/2-z
-x,-y,-z
x,-y,1/2+z
loop_
_atom_site_type_symbol
_atom_site_label
_atom_site_fract_x
_atom_site_fract_y
_atom_site_fract_z
Si Si1 0.245830 0.622665 0.962476
Si Si2 0.945030 0.827742 0.035279
Si Si3 0.761006 0.444791 0.165462
Si Si4 0.285563 0.376785 0.710646
Si Si5 0.148810 0.905826 0.236236
Si Si6 0.448920 0.929130 0.494150
Si Si7 0.629486 0.840688 0.685256
O O1 0.500000 0.597175 0.750000
O O2 0.248437 0.569777 0.896333
O O3 0.261575 0.734872 0.932433
O O4 0.000000 0.604394 0.250000
O O5 0.834085 0.722186 0.149324
O O6 0.926530 0.870719 0.121691
O O7 0.740896 0.885944 0.194472
O O8 0.245479 0.846573 0.715690
O O9 0.558769 0.374051 0.401334
O O10 0.679547 0.548942 0.269176
O O11 0.060339 0.422642 0.890662
O O12 0.879870 0.900178 0.462845
O O13 0.296914 0.006863 0.095688
O O14 0.381396 0.839931 0.977793
O O15 0.500000 0.000000 0.500000
O O16 0.500000 0.874051 0.750000
#
# Coordination Sequence:
#
# PCOD9229545 Si02
#       7
#     4   4   4   4   4   4   4
#     4  11  21  34  51  74 104 136 171 211 250 302
#     4  11  19  32  51  76 102 132 167 201 252 305
#     4  10  20  35  51  78 107 136 174 207 261 316
#     4  10  20  33  54  77 107 139 167 213 259 316
#     4  11  19  32  49  68 101 134 159 205 250 287
#     4  10  20  32  48  74 101 128 166 201 243 304
#     4  11  21  32  47  71  98 131 171 200 239 298
#
# _framework density 17.958244000000001
#
# number of rings (size 3 to 8) (size 9 to 14) (size 15 to 20)
#    0.000    1.429    0.000    9.857    0.000    0.000 
#    0.000    0.000    0.000    0.000    0.000   10.000 
#    0.000    0.000    0.000    0.000    0.000    0.000 
#
# Total GULP energy -156305.584778 kJ/mol
# GULP energy per Si atom -5582.342313 kJ/mol
# Density = 1.791737 g / cm^3
# Si number density = 17.958244 Si / 1000 Ang^3
#
#
#
# Elastic Constant Matrix: (Units=GPa)
#
#
# Indices 1 2 3 4 5 6 
#
# 1 113.4480 30.1629 40.3791 0.0000 -15.6133 0.0000
# 2 30.1629 53.8696 2.5472 0.0000 -8.3594 0.0000
# 3 40.3791 2.5472 109.3123 0.0000 -9.5991 0.0000
# 4 0.0000 0.0000 0.0000 25.3600 0.0000 -2.5088
# 5 -15.6133 -8.3594 -9.5991 0.0000 29.9675 0.0000
# 6 0.0000 0.0000 0.0000 -2.5088 0.0000 20.8500
#
#
#
# Elastic Compliance Matrix: (Units=1/GPa)
#
#
# Indices 1 2 3 4 5 6 
#
# 1 0.012412 -0.006226 -0.004141 0.000000 0.003404 0.000000
# 2 -0.006226 0.022526 0.002101 0.000000 0.003713 0.000000
# 3 -0.004141 0.002101 0.010794 0.000000 0.001886 0.000000
# 4 0.000000 0.000000 0.000000 0.039907 0.000000 0.004802
# 5 0.003404 0.003713 0.001886 0.000000 0.036783 0.000000
# 6 0.000000 0.000000 0.000000 0.004802 0.000000 0.048539
#
#
# Mechanical properties :
#
#
# Convention : Reuss Voigt Hill
#
# Bulk Modulus (GPa) = 34.24556 46.97869 40.61212
# Shear Modulus (GPa) = 25.35141 28.80490 27.07815
#
# Velocity S-wave (km/s) = 3.76132 4.00933 3.88730
# Velocity P-wave (km/s) = 6.16233 6.90288 6.54309
#
# Compressibility (1/GPa) = 0.02920087
#
# Stress axis : x y z
#
# Youngs Moduli (GPa) = 80.56546 44.39278 92.64027
#
# Poissons Ratio (x) = 0.27639 0.38363
# Poissons Ratio (y) = 0.50159 -0.19463
# Poissons Ratio (z) = 0.33362 -0.09327
#
# Static dielectric constant tensor:
#      x y z
#    x 1.605770 0.000000 -0.006910 
#    y 0.000000 1.644580 0.000000 
#    z -0.006910 0.000000 1.624350 
# 
# From -- ./inp_files/89192.got.cif
#   From: 2010.05.17/outbox.cif.g08.bks.cpg/sg13_45_cif.got.tgz:89192.got - 2010.06.03 16:44:36.
