data_PCOD9229569
_publ_section_title
;
Structure prediction by ZEFSAII (Michael W. Deem and Ramdas Pophale) SiO2 
 PCOD9229569
Probable space group: P 2/C
;
_chemical_formula_sum "Si O2"
_cell_formula_units_Z 28
_cell_length_a 29.350201
_cell_length_b 8.449525
_cell_length_c 10.255925
_cell_angle_alpha 90.000000
_cell_angle_beta 142.848064
_cell_angle_gamma 90.000000
_cell_volume 1536.049912
_symmetry_space_group_name_H-M "P 2/C"
_symmetry_group_IT_number 13
_symmetry_cell_setting 'monoclinic'
loop_
_space_group_symop_operation_xyz
x,y,z
-x,y,1/2-z
-x,-y,-z
x,-y,1/2+z
loop_
_atom_site_type_symbol
_atom_site_label
_atom_site_fract_x
_atom_site_fract_y
_atom_site_fract_z
Si Si1 0.300443 0.834147 0.084371
Si Si2 0.992660 0.856759 0.082650
Si Si3 0.858890 0.649362 0.086994
Si Si4 0.849150 0.368779 0.268294
Si Si5 0.287246 0.873246 0.750107
Si Si6 0.534836 0.200957 0.464413
Si Si7 0.445626 0.183515 0.511850
O O1 0.380241 0.753334 0.302417
O O2 0.283251 0.968786 0.153134
O O3 0.231655 0.713632 0.928980
O O4 0.304120 0.901751 0.943315
O O5 0.062801 0.741051 0.218175
O O6 0.000000 0.911315 0.250000
O O7 0.914844 0.759943 0.891384
O O8 0.000000 0.000000 0.000000
O O9 0.853733 0.513893 0.181475
O O10 0.858404 0.580023 0.939628
O O11 0.788913 0.771855 0.935128
O O12 0.359871 0.784121 0.855343
O O13 0.476195 0.241915 0.444101
O O14 0.543957 0.008639 0.472728
O O15 0.500000 0.259149 0.250000
O O16 0.500000 0.241174 0.750000
#
# Coordination Sequence:
#
# PCOD9229569 Si02
#       7
#     4   4   4   4   4   4   4
#     4  10  20  33  51  79 110 139 180 229 272 318
#     4  10  21  38  62  89 115 139 176 223 267 316
#     4  10  22  39  56  81 112 147 183 218 264 321
#     4  10  22  39  57  80 112 147 182 220 263 321
#     4  10  20  32  52  79 109 140 181 227 272 320
#     4   9  17  27  45  73 105 136 175 224 272 322
#     4   9  15  27  45  71 103 137 173 220 277 317
#
# _framework density 18.228574999999999
#
# number of rings (size 3 to 8) (size 9 to 14) (size 15 to 20)
#    0.000    2.286    1.429    1.286    6.000    2.286 
#    0.000    0.000    0.000    1.714    0.000    0.000 
#    0.000    0.000    0.000    0.000    0.000    0.000 
#
# Total GULP energy -156162.382730 kJ/mol
# GULP energy per Si atom -5577.227955 kJ/mol
# Density = 1.818709 g / cm^3
# Si number density = 18.228575 Si / 1000 Ang^3
#
#
#
# Elastic Constant Matrix: (Units=GPa)
#
#
# Indices 1 2 3 4 5 6 
#
# 1 143.6017 40.8960 67.9712 0.0000 -13.9255 0.0000
# 2 40.8960 35.8554 32.7030 0.0000 -20.2156 0.0000
# 3 67.9712 32.7030 118.0570 0.0000 -7.8675 0.0000
# 4 0.0000 0.0000 0.0000 9.0004 0.0000 -15.0874
# 5 -13.9255 -20.2156 -7.8675 0.0000 36.7787 0.0000
# 6 0.0000 0.0000 0.0000 -15.0874 0.0000 20.4696
#
#
#
# Elastic Compliance Matrix: (Units=1/GPa)
#
#
# Indices 1 2 3 4 5 6 
#
# 1 0.011756 -0.011472 -0.003768 0.000000 -0.002661 0.000000
# 2 -0.011472 0.067301 -0.010005 0.000000 0.030508 0.000000
# 3 -0.003768 -0.010005 0.013137 0.000000 -0.004116 0.000000
# 4 0.000000 0.000000 0.000000 -0.471691 0.000000 -0.347667
# 5 -0.002661 0.030508 -0.004116 0.000000 0.042071 0.000000
# 6 0.000000 0.000000 0.000000 -0.347667 0.000000 -0.207400
#
#
# Mechanical properties :
#
#
# Convention : Reuss Voigt Hill
#
# Bulk Modulus (GPa) = 23.97846 64.51717 44.24782
# Shear Modulus (GPa) = -10.40728 23.64598 6.61935
#
# Velocity S-wave (km/s) = -2.39201 3.60556 1.90767
# Velocity P-wave (km/s) = 2.35668 7.26662 5.40174
#
# Compressibility (1/GPa) = 0.04170409
#
# Stress axis : x y z
#
# Youngs Moduli (GPa) = 85.05953 14.85859 76.12030
#
# Poissons Ratio (x) = 0.17047 0.28683
# Poissons Ratio (y) = 0.97585 0.76156
# Poissons Ratio (z) = 0.32051 0.14866
#
# Static dielectric constant tensor:
#      x y z
#    x 1.622220 0.000000 0.001830 
#    y 0.000000 1.592920 0.000000 
#    z 0.001830 0.000000 1.627590 
# 
# From -- ./inp_files/24608.got.cif
#   From: 2010.05.17/outbox.cif.g08.bks.cpg/sg13_13_cif.got.tgz:24608.got - 2010.06.03 16:44:36.
