data_PCOD9229626
_publ_section_title
;
Structure prediction by ZEFSAII (Michael W. Deem and Ramdas Pophale) SiO2 
 PCOD9229626
Probable space group: P 2/C
;
_chemical_formula_sum "Si O2"
_cell_formula_units_Z 24
_cell_length_a 9.104529
_cell_length_b 16.401744
_cell_length_c 15.827492
_cell_angle_alpha 90.000000
_cell_angle_beta 150.367554
_cell_angle_gamma 90.000000
_cell_volume 1168.605955
_symmetry_space_group_name_H-M "P 2/C"
_symmetry_group_IT_number 13
_symmetry_cell_setting 'monoclinic'
loop_
_space_group_symop_operation_xyz
x,y,z
-x,y,1/2-z
-x,-y,-z
x,-y,1/2+z
loop_
_atom_site_type_symbol
_atom_site_label
_atom_site_fract_x
_atom_site_fract_y
_atom_site_fract_z
Si Si1 0.854593 0.759187 0.084750
Si Si2 0.145398 0.240814 0.230152
Si Si3 0.832206 0.920699 0.516499
Si Si4 0.856258 0.419811 0.272291
Si Si5 0.856249 0.580190 0.083964
Si Si6 0.167790 0.079301 0.684292
O O1 0.918412 0.669743 0.077068
O O2 0.000000 0.759319 0.250000
O O3 0.988396 0.837636 0.106820
O O4 0.499996 0.766250 0.913686
O O5 0.081576 0.330259 0.158651
O O6 0.000000 0.240683 0.250000
O O7 0.011596 0.162365 0.118421
O O8 0.805429 0.933303 0.402714
O O9 0.499999 0.913169 0.386413
O O10 0.999999 0.000000 0.635789
O O11 0.000000 0.416492 0.250000
O O12 0.000005 0.500001 0.385498
O O13 0.500004 0.429567 0.087982
O O14 0.000000 0.583510 0.250000
#
# Coordination Sequence:
#
# PCOD9229626 Si02
#       6
#     4   4   4   4   4   4
#     4  10  20  33  51  77 106 134 167 208 251 294
#     4  10  20  33  51  77 106 134 167 208 251 294
#     4  10  21  37  56  76  99 130 167 206 250 302
#     4   9  16  26  43  68  98 131 164 200 242 289
#     4   9  16  26  43  68  98 131 164 200 242 289
#     4  10  21  37  56  76  99 130 167 206 250 302
#
# _framework density 20.537292000000001
#
# number of rings (size 3 to 8) (size 9 to 14) (size 15 to 20)
#    0.000    2.333    0.000    4.000    0.000    6.667 
#    0.000    3.333    0.000    1.000    0.000    0.000 
#    0.000    0.000    0.000    0.000    0.000    0.000 
#
# Total GULP energy -133809.315205 kJ/mol
# GULP energy per Si atom -5575.388134 kJ/mol
# Density = 2.049055 g / cm^3
# Si number density = 20.537292 Si / 1000 Ang^3
#
#
#
# Elastic Constant Matrix: (Units=GPa)
#
#
# Indices 1 2 3 4 5 6 
#
# 1 21.8986 24.9908 16.8963 0.0000 15.3326 0.0000
# 2 24.9908 223.9409 88.7334 0.0000 36.4222 0.0000
# 3 16.8963 88.7334 110.4598 0.0000 35.2664 0.0000
# 4 0.0000 0.0000 0.0000 74.2177 0.0000 46.6952
# 5 15.3326 36.4222 35.2664 0.0000 27.3100 0.0000
# 6 0.0000 0.0000 0.0000 46.6952 0.0000 -7.4752
#
#
#
# Elastic Compliance Matrix: (Units=1/GPa)
#
#
# Indices 1 2 3 4 5 6 
#
# 1 0.077613 -0.003347 0.005621 0.000000 -0.046369 0.000000
# 2 -0.003347 0.006875 -0.004566 0.000000 -0.001394 0.000000
# 3 0.005621 -0.004566 0.018588 0.000000 -0.021070 0.000000
# 4 0.000000 0.000000 0.000000 0.002733 0.000000 0.017072
# 5 -0.046369 -0.001394 -0.021070 0.000000 0.091716 0.000000
# 6 0.000000 0.000000 0.000000 0.017072 0.000000 -0.027134
#
#
# Mechanical properties :
#
#
# Convention : Reuss Voigt Hill
#
# Bulk Modulus (GPa) = 10.15307 68.61558 39.38433
# Shear Modulus (GPa) = 24.06098 33.85576 28.95837
#
# Velocity S-wave (km/s) = 3.42654 4.06458 3.75912
# Velocity P-wave (km/s) = 4.53975 7.45054 6.16927
#
# Compressibility (1/GPa) = 0.09849238
#
# Stress axis : x y z
#
# Youngs Moduli (GPa) = 12.88439 145.46119 53.79874
#
# Poissons Ratio (x) = 0.48685 -0.30239
# Poissons Ratio (y) = 0.04312 0.24562
# Poissons Ratio (z) = -0.07242 0.66411
#
# Static dielectric constant tensor:
#      x y z
#    x 1.724060 0.000000 -0.005630 
#    y 0.000000 1.788110 0.000000 
#    z -0.005630 0.000000 1.714210 
# 
# From -- ./inp_files/78709.got.cif
#   From: 2010.05.17/outbox.cif.g08.bks.cpg/sg13_40_cif.got.tgz:78709.got - 2010.06.03 16:44:36.
