data_PCOD9229347
_publ_section_title
;
Structure prediction by ZEFSAII (Michael W. Deem and Ramdas Pophale) SiO2 
 PCOD9229347
Probable space group: P 2/C
;
_chemical_formula_sum "Si O2"
_cell_formula_units_Z 28
_cell_length_a 21.366232
_cell_length_b 11.230981
_cell_length_c 16.218407
_cell_angle_alpha 90.000000
_cell_angle_beta 17.067210
_cell_angle_gamma 90.000000
_cell_volume 1142.225873
_symmetry_space_group_name_H-M "P 2/C"
_symmetry_group_IT_number 13
_symmetry_cell_setting 'monoclinic'
loop_
_space_group_symop_operation_xyz
x,y,z
-x,y,1/2-z
-x,-y,-z
x,-y,1/2+z
loop_
_atom_site_type_symbol
_atom_site_label
_atom_site_fract_x
_atom_site_fract_y
_atom_site_fract_z
Si Si1 0.923488 0.473596 0.465644
Si Si2 0.700063 0.957960 0.388043
Si Si3 0.698772 0.226703 0.749778
Si Si4 0.204959 0.891418 0.047664
Si Si5 0.657735 0.351296 0.191140
Si Si6 0.680801 0.465330 0.437669
Si Si7 0.542053 0.192662 0.603091
O O1 0.860355 0.335803 0.538182
O O2 0.814669 0.553896 0.534397
O O3 0.819464 0.521512 0.680655
O O4 0.173291 0.479042 0.166024
O O5 0.768287 0.874465 0.226516
O O6 0.441183 0.937222 0.722345
O O7 0.805895 0.922273 0.341711
O O8 0.720632 0.099340 0.347268
O O9 0.648110 0.180267 0.722748
O O10 0.479178 0.283360 0.064383
O O11 0.227688 0.748927 0.006715
O O12 0.000000 0.928889 0.250000
O O13 0.481292 0.426753 0.365750
O O14 0.592445 0.332193 0.544211
O O15 0.500000 0.155734 0.750000
#
# Coordination Sequence:
#
# PCOD9229347 Si02
#       7
#     4   4   4   4   4   4   4
#     4  10  19  39  63  96 130 161 217 263 315 388
#     4  10  23  45  64  92 131 173 220 266 322 383
#     4  10  20  41  67  90 128 175 213 265 318 386
#     4  10  22  42  67  94 125 172 218 273 319 378
#     4  10  19  40  64  92 133 160 213 260 329 380
#     4  10  21  38  64  95 131 170 200 268 323 387
#     4  12  22  43  65  91 133 174 214 265 331 378
#
# _framework density 24.513539000000002
#
# number of rings (size 3 to 8) (size 9 to 14) (size 15 to 20)
#    0.000    1.714    4.286    1.286    0.000    5.714 
#   12.857    1.429    0.000    0.000    0.000    0.000 
#    0.000    0.000    0.000    0.000    0.000    0.000 
#
# Total GULP energy -156699.024788 kJ/mol
# GULP energy per Si atom -5596.393742 kJ/mol
# Density = 2.445775 g / cm^3
# Si number density = 24.513539 Si / 1000 Ang^3
#
#
#
# Elastic Constant Matrix: (Units=GPa)
#
#
# Indices 1 2 3 4 5 6 
#
# 1 146.6698 35.4849 35.9433 0.0000 -39.9860 0.0000
# 2 35.4849 110.1676 -1.5779 0.0000 -14.5215 0.0000
# 3 35.9433 -1.5779 58.0444 0.0000 -20.4350 0.0000
# 4 0.0000 0.0000 0.0000 15.6461 0.0000 27.0273
# 5 -39.9860 -14.5215 -20.4350 0.0000 43.8882 0.0000
# 6 0.0000 0.0000 0.0000 27.0273 0.0000 -81.4549
#
#
#
# Elastic Compliance Matrix: (Units=1/GPa)
#
#
# Indices 1 2 3 4 5 6 
#
# 1 0.010212 -0.002479 -0.004072 0.000000 0.006588 0.000000
# 2 -0.002479 0.010224 0.002642 0.000000 0.002354 0.000000
# 3 -0.004072 0.002642 0.022514 0.000000 0.007647 0.000000
# 4 0.000000 0.000000 0.000000 0.040627 0.000000 0.013480
# 5 0.006588 0.002354 0.007647 0.000000 0.033127 0.000000
# 6 0.000000 0.000000 0.000000 0.013480 0.000000 -0.007804
#
#
# Mechanical properties :
#
#
# Convention : Reuss Voigt Hill
#
# Bulk Modulus (GPa) = 28.46466 50.50915 39.48690
# Shear Modulus (GPa) = 38.93262 11.95132 25.44197
#
# Velocity S-wave (km/s) = 3.98956 2.21043 3.22510
# Velocity P-wave (km/s) = 5.73229 5.21191 5.47828
#
# Compressibility (1/GPa) = 0.03513129
#
# Stress axis : x y z
#
# Youngs Moduli (GPa) = 97.92822 97.81141 44.41770
#
# Poissons Ratio (x) = 0.24249 0.18085
# Poissons Ratio (y) = 0.24278 -0.11735
# Poissons Ratio (z) = 0.39872 -0.25841
#
# Static dielectric constant tensor:
#      x y z
#    x 1.925510 0.000000 0.013000 
#    y 0.000000 1.927090 0.000000 
#    z 0.013000 0.000000 1.993260 
# 
# From -- ./inp_files/70678.got.cif
#   From: 2010.05.17/outbox.cif.g08.bks.cpg/sg13_36_cif.got.tgz:70678.got - 2010.06.03 16:44:36.
