data_PCOD9229162
_publ_section_title
;
Structure prediction by ZEFSAII (Michael W. Deem and Ramdas Pophale) SiO2 
 PCOD9229162
Probable space group: P 2/C
;
_chemical_formula_sum "Si O2"
_cell_formula_units_Z 20
_cell_length_a 8.777008
_cell_length_b 12.460047
_cell_length_c 12.126105
_cell_angle_alpha 90.000000
_cell_angle_beta 138.521812
_cell_angle_gamma 90.000000
_cell_volume 878.344984
_symmetry_space_group_name_H-M "P 2/C"
_symmetry_group_IT_number 13
_symmetry_cell_setting 'monoclinic'
loop_
_space_group_symop_operation_xyz
x,y,z
-x,y,1/2-z
-x,-y,-z
x,-y,1/2+z
loop_
_atom_site_type_symbol
_atom_site_label
_atom_site_fract_x
_atom_site_fract_y
_atom_site_fract_z
Si Si1 0.000664 0.611773 0.064806
Si Si2 0.775660 0.806050 0.422413
Si Si3 0.369686 0.166811 0.418529
Si Si4 0.384145 0.613670 0.464582
Si Si5 0.814012 0.039364 0.746429
O O1 0.062500 0.705203 0.013349
O O2 0.201387 0.627004 0.265603
O O3 0.763323 0.616947 0.003346
O O4 0.000000 0.500000 0.000000
O O5 0.500000 0.782587 0.250000
O O6 0.781431 0.835304 0.552915
O O7 0.854003 0.899402 0.382263
O O8 0.433743 0.289442 0.429438
O O9 0.605253 0.107985 0.581076
O O10 0.262454 0.083445 0.274565
O O11 0.500000 0.500000 0.500000
O O12 0.000000 0.045116 0.750000
#
# Coordination Sequence:
#
# PCOD9229162 Si02
#       5
#     4   4   4   4   4
#     4  11  23  39  68  98 119 172 216 255 328 388
#     4  10  19  37  65  87 127 165 206 264 317 374
#     4  10  21  38  63  90 120 173 208 259 324 375
#     4  11  23  42  67  92 134 162 207 273 321 379
#     4  10  20  37  62  87 123 164 217 255 313 380
#
# _framework density 22.770095999999999
#
# number of rings (size 3 to 8) (size 9 to 14) (size 15 to 20)
#    0.000    1.600    4.000    2.400    0.000    0.800 
#    7.200    4.000    4.400    0.000    0.000    0.000 
#    0.000    0.000    0.000    0.000    0.000    0.000 
#
# Total GULP energy -111813.378536 kJ/mol
# GULP energy per Si atom -5590.668927 kJ/mol
# Density = 2.271827 g / cm^3
# Si number density = 22.770096 Si / 1000 Ang^3
#
#
#
# Elastic Constant Matrix: (Units=GPa)
#
#
# Indices 1 2 3 4 5 6 
#
# 1 168.7631 94.7300 30.6300 0.0000 1.8589 0.0000
# 2 94.7300 228.9334 37.1484 0.0000 6.0259 0.0000
# 3 30.6300 37.1484 52.5218 0.0000 3.0725 0.0000
# 4 0.0000 0.0000 0.0000 21.2098 0.0000 5.5190
# 5 1.8589 6.0259 3.0725 0.0000 23.6232 0.0000
# 6 0.0000 0.0000 0.0000 5.5190 0.0000 37.3309
#
#
#
# Elastic Compliance Matrix: (Units=1/GPa)
#
#
# Indices 1 2 3 4 5 6 
#
# 1 0.008033 -0.002905 -0.002657 0.000000 0.000454 0.000000
# 2 -0.002905 0.006000 -0.002493 0.000000 -0.000978 0.000000
# 3 -0.002657 -0.002493 0.022474 0.000000 -0.002078 0.000000
# 4 0.000000 0.000000 0.000000 0.049034 0.000000 -0.007249
# 5 0.000454 -0.000978 -0.002078 0.000000 0.042815 0.000000
# 6 0.000000 0.000000 0.000000 -0.007249 0.000000 0.027859
#
#
# Mechanical properties :
#
#
# Convention : Reuss Voigt Hill
#
# Bulk Modulus (GPa) = 49.02324 86.13721 67.58023
# Shear Modulus (GPa) = 27.91354 35.61343 31.76348
#
# Velocity S-wave (km/s) = 3.50506 3.95909 3.73897
# Velocity P-wave (km/s) = 6.16093 7.66879 6.95584
#
# Compressibility (1/GPa) = 0.02039849
#
# Stress axis : x y z
#
# Youngs Moduli (GPa) = 124.48263 166.65783 44.49626
#
# Poissons Ratio (x) = 0.48413 0.11822
# Poissons Ratio (y) = 0.36161 0.11092
# Poissons Ratio (z) = 0.33073 0.41543
#
# Static dielectric constant tensor:
#      x y z
#    x 1.963550 0.000000 -0.096160 
#    y 0.000000 1.830620 0.000000 
#    z -0.096160 0.000000 2.039040 
# 
# From -- ./inp_files/46715.got.cif
#   From: 2010.05.17/outbox.cif.g08.bks.cpg/sg13_24_cif.got.tgz:46715.got - 2010.06.03 16:44:36.
