data_PCOD9229020
_publ_section_title
;
Structure prediction by ZEFSAII (Michael W. Deem and Ramdas Pophale) SiO2 
 PCOD9229020
Probable space group: P 2/C
;
_chemical_formula_sum "Si O2"
_cell_formula_units_Z 20
_cell_length_a 9.050477
_cell_length_b 9.302060
_cell_length_c 9.520006
_cell_angle_alpha 90.000000
_cell_angle_beta 76.890508
_cell_angle_gamma 90.000000
_cell_volume 780.583414
_symmetry_space_group_name_H-M "P 2/C"
_symmetry_group_IT_number 13
_symmetry_cell_setting 'monoclinic'
loop_
_space_group_symop_operation_xyz
x,y,z
-x,y,1/2-z
-x,-y,-z
x,-y,1/2+z
loop_
_atom_site_type_symbol
_atom_site_label
_atom_site_fract_x
_atom_site_fract_y
_atom_site_fract_z
Si Si1 0.500000 0.365257 0.250000
Si Si2 0.793011 0.232243 0.065816
Si Si3 0.675593 0.811554 0.169546
Si Si4 0.743827 0.453148 0.835806
Si Si5 0.323886 0.980036 0.585397
Si Si6 0.000000 0.311529 0.250000
O O1 0.633816 0.257122 0.179439
O O2 0.419902 0.471946 0.155140
O O3 0.938830 0.221094 0.132522
O O4 0.779124 0.098382 0.967848
O O5 0.783799 0.375208 0.971987
O O6 0.500000 0.781210 0.250000
O O7 0.760868 0.674102 0.215834
O O8 0.706309 0.834412 0.997163
O O9 0.699006 0.963333 0.250039
O O10 0.861226 0.580626 0.798502
O O11 0.500000 0.000000 0.500000
#
# Coordination Sequence:
#
# PCOD9229020 Si02
#       6
#     2   4   4   4   4   2
#     4  10  20  32  56  88 110 142 196 240 296 336
#     4  10  21  36  57  83 116 151 190 239 287 342
#     4   9  17  33  55  83 116 145 185 242 293 339
#     4  10  19  37  56  82 115 151 192 241 287 340
#     4   9  19  33  56  85 116 144 187 240 293 335
#     4  10  22  38  56  78 116 158 192 224 290 348
#
# _framework density 25.621865
#
# number of rings (size 3 to 8) (size 9 to 14) (size 15 to 20)
#    0.000    2.400    1.000    1.200    4.200    0.000 
#    0.000    3.000    0.000    4.800    0.000    0.000 
#    0.000    0.000    0.000    0.000    0.000    0.000 
#
# Total GULP energy -111599.982865 kJ/mol
# GULP energy per Si atom -5579.999143 kJ/mol
# Density = 2.556355 g / cm^3
# Si number density = 25.621865 Si / 1000 Ang^3
#
#
#
# Elastic Constant Matrix: (Units=GPa)
#
#
# Indices 1 2 3 4 5 6 
#
# 1 116.5254 19.7617 20.3926 0.0000 38.5084 0.0000
# 2 19.7617 96.6767 17.4235 0.0000 10.9270 0.0000
# 3 20.3926 17.4235 57.6806 0.0000 24.7252 0.0000
# 4 0.0000 0.0000 0.0000 39.8116 0.0000 19.5904
# 5 38.5084 10.9270 24.7252 0.0000 39.6627 0.0000
# 6 0.0000 0.0000 0.0000 19.5904 0.0000 34.9143
#
#
#
# Elastic Compliance Matrix: (Units=1/GPa)
#
#
# Indices 1 2 3 4 5 6 
#
# 1 0.012867 -0.001422 0.001457 0.000000 -0.013009 0.000000
# 2 -0.001422 0.011146 -0.002920 0.000000 0.000131 0.000000
# 3 0.001457 -0.002920 0.024517 0.000000 -0.015894 0.000000
# 4 0.000000 0.000000 0.000000 0.034699 0.000000 -0.019470
# 5 -0.013009 0.000131 -0.015894 0.000000 0.047715 0.000000
# 6 0.000000 0.000000 0.000000 -0.019470 0.000000 0.039566
#
#
# Mechanical properties :
#
#
# Convention : Reuss Voigt Hill
#
# Bulk Modulus (GPa) = 23.38676 42.89315 33.13996
# Shear Modulus (GPa) = 26.24210 37.09803 31.67006
#
# Velocity S-wave (km/s) = 3.20380 3.80926 3.51957
# Velocity P-wave (km/s) = 4.77841 6.01037 5.42944
#
# Compressibility (1/GPa) = 0.04275924
#
# Stress axis : x y z
#
# Youngs Moduli (GPa) = 77.71678 89.71833 40.78857
#
# Poissons Ratio (x) = 0.12762 -0.05943
# Poissons Ratio (y) = 0.11055 0.11910
# Poissons Ratio (z) = -0.11324 0.26197
#
# Static dielectric constant tensor:
#      x y z
#    x 1.999200 0.000000 0.028900 
#    y 0.000000 2.042480 0.000000 
#    z 0.028900 0.000000 2.320520 
# 
# From -- ./inp_files/11901.got.cif
#   From: 2010.05.17/outbox.cif.g08.bks.cpg/sg13_6_cif.got.tgz:11901.got - 2010.06.03 16:44:36.
