data_PCOD9229881
_publ_section_title
;
Structure prediction by ZEFSAII (Michael W. Deem and Ramdas Pophale) SiO2 
 PCOD9229881
Probable space group: P 2/C
;
_chemical_formula_sum "Si O2"
_cell_formula_units_Z 30
_cell_length_a 8.839468
_cell_length_b 11.322272
_cell_length_c 18.875917
_cell_angle_alpha 90.000000
_cell_angle_beta 54.994095
_cell_angle_gamma 90.000000
_cell_volume 1547.394134
_symmetry_space_group_name_H-M "P 2/C"
_symmetry_group_IT_number 13
_symmetry_cell_setting 'monoclinic'
loop_
_space_group_symop_operation_xyz
x,y,z
-x,y,1/2-z
-x,-y,-z
x,-y,1/2+z
loop_
_atom_site_type_symbol
_atom_site_label
_atom_site_fract_x
_atom_site_fract_y
_atom_site_fract_z
Si Si1 0.309727 0.326474 0.836110
Si Si2 0.109547 0.593375 0.518889
Si Si3 0.197992 0.186110 0.658438
Si Si4 0.954165 0.420993 0.843922
Si Si5 0.877331 0.167068 0.089213
Si Si6 0.546740 0.893801 0.137304
Si Si7 0.500000 0.106807 0.250000
Si Si8 0.177612 0.017658 0.536349
O O1 0.500000 0.366781 0.750000
O O2 0.325877 0.184502 0.844305
O O3 0.137370 0.370001 0.835000
O O4 0.283816 0.374730 0.923143
O O5 0.127507 0.528830 0.589097
O O6 0.000000 0.500000 0.500000
O O7 0.991060 0.712605 0.558353
O O8 0.185263 0.310956 0.622277
O O9 0.368891 0.182393 0.665557
O O10 0.000000 0.172728 0.750000
O O11 0.226007 0.080841 0.595722
O O12 0.000000 0.451980 0.750000
O O13 0.682799 0.178850 0.181605
O O14 0.993864 0.060817 0.093092
O O15 0.850413 0.118176 0.016413
O O16 0.479605 0.015296 0.190434
O O17 0.668517 0.930253 0.037100
#
# Coordination Sequence:
#
# PCOD9229881 Si02
#       8
#     4   4   4   4   4   4   2   4
#     4  11  20  37  66  91 115 160 213 256 301 380
#     4  10  21  40  62  85 122 164 214 257 306 364
#     4  11  22  36  58  89 121 158 202 260 313 364
#     4  10  23  40  62  89 121 163 212 270 309 359
#     4  10  20  37  61  90 117 163 199 251 309 375
#     4  11  21  35  59  89 126 152 199 247 308 384
#     4  10  22  34  60  92 124 152 198 250 302 388
#     4  10  20  34  61  87 125 154 200 249 322 371
#
# _framework density 19.387433999999999
#
# number of rings (size 3 to 8) (size 9 to 14) (size 15 to 20)
#    0.000    1.600    2.000    4.400    3.733    0.000 
#    4.800    4.667    2.933    0.000    0.000    0.000 
#    0.000    0.000    0.000    0.000    0.000    0.000 
#
# Total GULP energy -167424.734736 kJ/mol
# GULP energy per Si atom -5580.824491 kJ/mol
# Density = 1.934331 g / cm^3
# Si number density = 19.387434 Si / 1000 Ang^3
#
#
#
# Elastic Constant Matrix: (Units=GPa)
#
#
# Indices 1 2 3 4 5 6 
#
# 1 68.3423 24.9650 37.9008 0.0000 -1.7498 0.0000
# 2 24.9650 79.8160 52.9520 0.0000 -1.8259 0.0000
# 3 37.9008 52.9520 131.1535 0.0000 -14.3964 0.0000
# 4 0.0000 0.0000 0.0000 37.1131 0.0000 10.6646
# 5 -1.7498 -1.8259 -14.3964 0.0000 33.4597 0.0000
# 6 0.0000 0.0000 0.0000 10.6646 0.0000 17.1361
#
#
#
# Elastic Compliance Matrix: (Units=1/GPa)
#
#
# Indices 1 2 3 4 5 6 
#
# 1 0.017955 -0.002901 -0.004127 0.000000 -0.000995 0.000000
# 2 -0.002901 0.017728 -0.006539 0.000000 -0.001998 0.000000
# 3 -0.004127 -0.006539 0.011959 0.000000 0.004573 0.000000
# 4 0.000000 0.000000 0.000000 0.032813 0.000000 -0.020421
# 5 -0.000995 -0.001998 0.004573 0.000000 0.031693 0.000000
# 6 0.000000 0.000000 0.000000 -0.020421 0.000000 0.071065
#
#
# Mechanical properties :
#
#
# Convention : Reuss Voigt Hill
#
# Bulk Modulus (GPa) = 48.75694 56.77195 52.76445
# Shear Modulus (GPa) = 23.02211 28.44137 25.73174
#
# Velocity S-wave (km/s) = 3.44972 3.83430 3.64708
# Velocity P-wave (km/s) = 6.40864 6.99635 6.70893
#
# Compressibility (1/GPa) = 0.02050990
#
# Stress axis : x y z
#
# Youngs Moduli (GPa) = 55.69488 56.40672 83.61911
#
# Poissons Ratio (x) = 0.16364 0.34506
# Poissons Ratio (y) = 0.16158 0.54675
# Poissons Ratio (z) = 0.22983 0.36882
#
# Static dielectric constant tensor:
#      x y z
#    x 1.719040 0.000000 0.033480 
#    y 0.000000 1.670440 0.000000 
#    z 0.033480 0.000000 1.751470 
# 
# From -- ./inp_files/64431.got.cif
#   From: 2010.05.17/outbox.cif.g08.bks.cpg/sg13_33_cif.got.tgz:64431.got - 2010.06.03 16:44:36.
