data_PCOD9229564
_publ_section_title
;
Structure prediction by ZEFSAII (Michael W. Deem and Ramdas Pophale) SiO2 
 PCOD9229564
Probable space group: P 2/C
;
_chemical_formula_sum "Si O2"
_cell_formula_units_Z 28
_cell_length_a 22.398057
_cell_length_b 15.181430
_cell_length_c 24.990236
_cell_angle_alpha 90.000000
_cell_angle_beta 10.552248
_cell_angle_gamma 90.000000
_cell_volume 1556.172768
_symmetry_space_group_name_H-M "P 2/C"
_symmetry_group_IT_number 13
_symmetry_cell_setting 'monoclinic'
loop_
_space_group_symop_operation_xyz
x,y,z
-x,y,1/2-z
-x,-y,-z
x,-y,1/2+z
loop_
_atom_site_type_symbol
_atom_site_label
_atom_site_fract_x
_atom_site_fract_y
_atom_site_fract_z
Si Si1 0.665744 0.602619 0.434758
Si Si2 0.408058 0.185127 0.629195
Si Si3 0.879421 0.750369 0.415389
Si Si4 0.115788 0.509321 0.459626
Si Si5 0.106597 0.696724 0.857128
Si Si6 0.132924 0.905843 0.263701
Si Si7 0.720107 0.987794 0.201527
O O1 0.464315 0.538648 0.651805
O O2 0.406903 0.658789 0.627760
O O3 0.900371 0.669826 0.258108
O O4 0.871804 0.543543 0.212378
O O5 0.735082 0.237332 0.325521
O O6 0.285312 0.139213 0.682550
O O7 0.423293 0.108792 0.660596
O O8 0.136258 0.252766 0.889381
O O9 0.000000 0.774242 0.250000
O O10 0.938581 0.832523 0.402575
O O11 0.500000 0.726624 0.750000
O O12 0.000000 0.500000 0.500000
O O13 0.082007 0.612810 0.501166
O O14 0.902475 0.985713 0.486530
O O15 0.434155 0.942966 0.964595
O O16 0.000000 0.000000 0.000000
#
# Coordination Sequence:
#
# PCOD9229564 Si02
#       7
#     4   4   4   4   4   4   4
#     4  11  21  36  51  70 112 145 182 224 268 306
#     4  11  19  30  52  79 110 140 177 208 266 338
#     4  12  26  38  56  78 104 150 206 230 258 308
#     4  10  20  32  51  76 104 145 179 209 271 341
#     4  11  19  30  52  79 110 140 177 208 266 338
#     4  11  21  36  51  70 112 145 182 224 268 306
#     4  10  20  32  51  76 104 145 179 209 271 341
#
# _framework density 17.99286
#
# number of rings (size 3 to 8) (size 9 to 14) (size 15 to 20)
#    0.000    1.143    1.429   10.286    2.000    0.000 
#    0.000    0.000    0.000    0.000    0.000    0.000 
#    0.000   64.000    0.000    0.000    0.000    0.000 
#
# Total GULP energy -156356.578144 kJ/mol
# GULP energy per Si atom -5584.163505 kJ/mol
# Density = 1.795191 g / cm^3
# Si number density = 17.992860 Si / 1000 Ang^3
#
#
#
# Elastic Constant Matrix: (Units=GPa)
#
#
# Indices 1 2 3 4 5 6 
#
# 1 17.1604 3.2152 2.2836 0.0000 -0.3836 0.0000
# 2 3.2152 69.4268 11.4350 0.0000 -10.1336 0.0000
# 3 2.2836 11.4350 88.1405 0.0000 5.4302 0.0000
# 4 0.0000 0.0000 0.0000 40.0765 0.0000 19.6798
# 5 -0.3836 -10.1336 5.4302 0.0000 26.1105 0.0000
# 6 0.0000 0.0000 0.0000 19.6798 0.0000 6.9908
#
#
#
# Elastic Compliance Matrix: (Units=1/GPa)
#
#
# Indices 1 2 3 4 5 6 
#
# 1 0.058908 -0.002508 -0.001210 0.000000 0.000144 0.000000
# 2 -0.002508 0.015883 -0.002404 0.000000 0.006627 0.000000
# 3 -0.001210 -0.002404 0.011900 0.000000 -0.003426 0.000000
# 4 0.000000 0.000000 0.000000 -0.065257 0.000000 0.183706
# 5 0.000144 0.006627 -0.003426 0.000000 0.041585 0.000000
# 6 0.000000 0.000000 0.000000 0.183706 0.000000 -0.374103
#
#
# Mechanical properties :
#
#
# Convention : Reuss Voigt Hill
#
# Bulk Modulus (GPa) = 13.43224 23.17725 18.30475
# Shear Modulus (GPa) = -18.24647 25.15515 3.45434
#
# Velocity S-wave (km/s) = -3.18794 3.74312 1.38709
# Velocity P-wave (km/s) = 2.46355 5.62055 3.57222
#
# Compressibility (1/GPa) = 0.07444775
#
# Stress axis : x y z
#
# Youngs Moduli (GPa) = 16.97565 62.96008 84.03518
#
# Poissons Ratio (x) = 0.15789 0.10166
# Poissons Ratio (y) = 0.04257 0.20201
# Poissons Ratio (z) = 0.02054 0.15135
#
# Static dielectric constant tensor:
#      x y z
#    x 1.595990 0.000000 0.014920 
#    y 0.000000 1.662790 0.000000 
#    z 0.014920 0.000000 1.622390 
# 
# From -- ./inp_files/93884.got.cif
#   From: 2010.05.17/outbox.cif.g08.bks.cpg/sg13_47_cif.got.tgz:93884.got - 2010.06.03 16:44:36.
