data_PCOD9229019
_publ_section_title
;
Structure prediction by ZEFSAII (Michael W. Deem and Ramdas Pophale) SiO2 
 PCOD9229019
Probable space group: P 2/C
;
_chemical_formula_sum "Si O2"
_cell_formula_units_Z 28
_cell_length_a 21.853843
_cell_length_b 12.094660
_cell_length_c 11.332624
_cell_angle_alpha 90.000000
_cell_angle_beta 148.173153
_cell_angle_gamma 90.000000
_cell_volume 1579.625671
_symmetry_space_group_name_H-M "P 2/C"
_symmetry_group_IT_number 13
_symmetry_cell_setting 'monoclinic'
loop_
_space_group_symop_operation_xyz
x,y,z
-x,y,1/2-z
-x,-y,-z
x,-y,1/2+z
loop_
_atom_site_type_symbol
_atom_site_label
_atom_site_fract_x
_atom_site_fract_y
_atom_site_fract_z
Si Si1 0.861322 0.662175 0.492248
Si Si2 0.510606 0.916095 0.404615
Si Si3 0.883715 0.202623 0.407646
Si Si4 0.139958 0.407443 0.986060
Si Si5 0.151399 0.249911 0.791428
Si Si6 0.266025 0.839854 0.059300
Si Si7 0.242719 0.915201 0.606423
O O1 0.825367 0.533759 0.442123
O O2 0.839117 0.707541 0.324964
O O3 0.785678 0.736724 0.455519
O O4 0.000000 0.670954 0.750000
O O5 0.500000 0.957483 0.250000
O O6 0.401616 0.835202 0.246797
O O7 0.640786 0.873146 0.637630
O O8 0.500000 0.000000 0.500000
O O9 0.835352 0.323707 0.366047
O O10 0.863716 0.126703 0.488994
O O11 0.016943 0.216777 0.590754
O O12 0.810603 0.151416 0.183193
O O13 0.180174 0.347413 0.932140
O O14 0.000000 0.408830 0.750000
O O15 0.228512 0.145152 0.957099
O O16 0.247521 0.953600 0.101155
#
# Coordination Sequence:
#
# PCOD9229019 Si02
#       7
#     4   4   4   4   4   4   4
#     4  11  22  34  55  88 117 149 191 238 285 338
#     4  10  21  39  61  84 110 154 199 241 282 337
#     4  10  19  37  56  82 114 149 185 227 286 346
#     4   8  19  34  56  79 111 152 190 231 281 337
#     4  10  21  37  55  83 118 152 186 228 293 348
#     4  11  23  34  57  86 113 143 197 232 280 341
#     4  10  22  37  57  81 115 153 186 234 288 343
#
# _framework density 17.725719000000002
#
# number of rings (size 3 to 8) (size 9 to 14) (size 15 to 20)
#    0.000    2.000    2.857    1.286    4.000    4.571 
#    0.000    0.000    0.000    3.429    7.429    0.000 
#    0.000    0.000    0.000    0.000    0.000    0.000 
#
# Total GULP energy -155962.460401 kJ/mol
# GULP energy per Si atom -5570.087871 kJ/mol
# Density = 1.768537 g / cm^3
# Si number density = 17.725719 Si / 1000 Ang^3
#
#
#
# Elastic Constant Matrix: (Units=GPa)
#
#
# Indices 1 2 3 4 5 6 
#
# 1 56.8070 3.0555 10.0724 0.0000 -0.7980 0.0000
# 2 3.0555 68.3975 6.2295 0.0000 12.5119 0.0000
# 3 10.0724 6.2295 79.3859 0.0000 -1.4256 0.0000
# 4 0.0000 0.0000 0.0000 8.4014 0.0000 -5.5282
# 5 -0.7980 12.5119 -1.4256 0.0000 24.0200 0.0000
# 6 0.0000 0.0000 0.0000 -5.5282 0.0000 11.5106
#
#
#
# Elastic Compliance Matrix: (Units=1/GPa)
#
#
# Indices 1 2 3 4 5 6 
#
# 1 0.018049 -0.000763 -0.002215 0.000000 0.000866 0.000000
# 2 -0.000763 0.016354 -0.001341 0.000000 -0.008624 0.000000
# 3 -0.002215 -0.001341 0.013008 0.000000 0.001397 0.000000
# 4 0.000000 0.000000 0.000000 0.174023 0.000000 0.083578
# 5 0.000866 -0.008624 0.001397 0.000000 0.046236 0.000000
# 6 0.000000 0.000000 0.000000 0.083578 0.000000 0.127016
#
#
# Mechanical properties :
#
#
# Convention : Reuss Voigt Hill
#
# Bulk Modulus (GPa) = 25.79074 27.03389 26.41232
# Shear Modulus (GPa) = 12.01204 21.13527 16.57365
#
# Velocity S-wave (km/s) = 2.60602 3.45679 3.06110
# Velocity P-wave (km/s) = 4.86175 5.58720 5.23705
#
# Compressibility (1/GPa) = 0.03877360
#
# Stress axis : x y z
#
# Youngs Moduli (GPa) = 55.40373 61.14631 76.87557
#
# Poissons Ratio (x) = 0.04665 0.17025
# Poissons Ratio (y) = 0.04227 0.10312
# Poissons Ratio (z) = 0.12270 0.08202
#
# Static dielectric constant tensor:
#      x y z
#    x 1.666750 0.000000 -0.011340 
#    y 0.000000 1.608230 0.000000 
#    z -0.011340 0.000000 1.629310 
# 
# From -- ./inp_files/41790.got.cif
#   From: 2010.05.17/outbox.cif.g08.bks.cpg/sg13_21_cif.got.tgz:41790.got - 2010.06.03 16:44:36.
