data_PCOD9229540
_publ_section_title
;
Structure prediction by ZEFSAII (Michael W. Deem and Ramdas Pophale) SiO2 
 PCOD9229540
Probable space group: P 2/C
;
_chemical_formula_sum "Si O2"
_cell_formula_units_Z 20
_cell_length_a 6.098383
_cell_length_b 4.151594
_cell_length_c 25.636283
_cell_angle_alpha 90.000000
_cell_angle_beta 89.491985
_cell_angle_gamma 90.000000
_cell_volume 649.034163
_symmetry_space_group_name_H-M "P 2/C"
_symmetry_group_IT_number 13
_symmetry_cell_setting 'monoclinic'
loop_
_space_group_symop_operation_xyz
x,y,z
-x,y,1/2-z
-x,-y,-z
x,-y,1/2+z
loop_
_atom_site_type_symbol
_atom_site_label
_atom_site_fract_x
_atom_site_fract_y
_atom_site_fract_z
Si Si1 0.500000 0.500000 0.500000
Si Si2 0.924008 0.190705 0.449257
Si Si3 0.324265 0.402889 0.898986
Si Si4 0.715827 0.821478 0.848788
Si Si5 0.108055 0.397294 0.799611
Si Si6 0.500000 0.178704 0.250000
O O1 0.728439 0.416629 0.469739
O O2 0.573714 0.247938 0.549215
O O3 0.822378 0.009588 0.398838
O O4 0.136942 0.373565 0.425783
O O5 0.000000 0.000000 0.500000
O O6 0.516863 0.613542 0.872854
O O7 0.213652 0.225654 0.850013
O O8 0.607948 0.000141 0.799334
O O9 0.912188 0.609273 0.824365
O O10 0.303593 0.609452 0.774637
O O11 0.000000 0.220371 0.750000
#
# Coordination Sequence:
#
# PCOD9229540 Si02
#       6
#     2   4   4   4   4   2
#     4  10  20  32  48  70  98 132 166 208 258 312
#     4  10  20  33  49  71  99 132 172 216 264 322
#     4   9  17  30  46  69  98 127 164 208 255 311
#     4   8  15  25  42  67  95 123 157 201 254 306
#     4   8  13  23  41  67  95 123 158 206 253 298
#     4   8  12  22  40  64  96 122 150 202 256 296
#
# _framework density 30.815020000000001
#
# number of rings (size 3 to 8) (size 9 to 14) (size 15 to 20)
#    0.000    3.200    0.000    0.600    0.000    3.200 
#    0.000    0.000    0.000    0.000    0.000   16.800 
#    0.000  179.200    0.000    0.000    0.000    0.000 
#
# Total GULP energy -111469.533232 kJ/mol
# GULP energy per Si atom -5573.476662 kJ/mol
# Density = 3.074488 g / cm^3
# Si number density = 30.815020 Si / 1000 Ang^3
#
#
#
# Elastic Constant Matrix: (Units=GPa)
#
#
# Indices 1 2 3 4 5 6 
#
# 1 260.5929 83.6111 87.5363 0.0000 -79.3869 0.0000
# 2 83.6111 56.5341 46.4179 0.0000 -18.3360 0.0000
# 3 87.5363 46.4179 299.1512 0.0000 69.1423 0.0000
# 4 0.0000 0.0000 0.0000 42.8753 0.0000 -32.6518
# 5 -79.3869 -18.3360 69.1423 0.0000 141.2976 0.0000
# 6 0.0000 0.0000 0.0000 -32.6518 0.0000 76.0149
#
#
#
# Elastic Compliance Matrix: (Units=1/GPa)
#
#
# Indices 1 2 3 4 5 6 
#
# 1 0.009607 -0.010585 -0.002367 0.000000 0.005182 0.000000
# 2 -0.010585 0.035141 -0.002294 0.000000 -0.000264 0.000000
# 3 -0.002367 -0.002294 0.005375 0.000000 -0.004258 0.000000
# 4 0.000000 0.000000 0.000000 0.034662 0.000000 0.014889
# 5 0.005182 -0.000264 -0.004258 0.000000 0.012038 0.000000
# 6 0.000000 0.000000 0.000000 0.014889 0.000000 0.019551
#
#
# Mechanical properties :
#
#
# Convention : Reuss Voigt Hill
#
# Bulk Modulus (GPa) = 50.93697 116.82319 83.88008
# Shear Modulus (GPa) = 32.59250 78.61842 55.60546
#
# Velocity S-wave (km/s) = 3.25573 5.05652 4.25254
# Velocity P-wave (km/s) = 5.54065 8.49027 7.16880
#
# Compressibility (1/GPa) = 0.01963210
#
# Stress axis : x y z
#
# Youngs Moduli (GPa) = 104.08931 28.45703 186.03270
#
# Poissons Ratio (x) = 0.30121 0.44026
# Poissons Ratio (y) = 1.10174 0.42683
# Poissons Ratio (z) = 0.24634 0.06529
#
# Static dielectric constant tensor:
#      x y z
#    x 2.354310 0.000000 0.150080 
#    y 0.000000 2.524240 0.000000 
#    z 0.150080 0.000000 2.402800 
# 
# From -- ./inp_files/83128.got.cif
#   From: 2010.05.17/outbox.cif.g08.bks.cpg/sg13_42_cif.got.tgz:83128.got - 2010.06.03 16:44:36.
