data_PCOD9229365
_publ_section_title
;
Structure prediction by ZEFSAII (Michael W. Deem and Ramdas Pophale) SiO2 
 PCOD9229365
Probable space group: P 2/C
;
_chemical_formula_sum "Si O2"
_cell_formula_units_Z 28
_cell_length_a 22.077633
_cell_length_b 8.440997
_cell_length_c 16.275102
_cell_angle_alpha 90.000000
_cell_angle_beta 151.345713
_cell_angle_gamma 90.000000
_cell_volume 1454.386681
_symmetry_space_group_name_H-M "P 2/C"
_symmetry_group_IT_number 13
_symmetry_cell_setting 'monoclinic'
loop_
_space_group_symop_operation_xyz
x,y,z
-x,y,1/2-z
-x,-y,-z
x,-y,1/2+z
loop_
_atom_site_type_symbol
_atom_site_label
_atom_site_fract_x
_atom_site_fract_y
_atom_site_fract_z
Si Si1 0.963757 0.327170 0.303196
Si Si2 0.181611 0.227721 0.677987
Si Si3 0.363165 0.837792 0.631292
Si Si4 0.191328 0.040615 0.308693
Si Si5 0.606488 0.925518 0.183071
Si Si6 0.431284 0.749162 0.084346
Si Si7 0.269783 0.447888 0.932093
O O1 0.898856 0.161150 0.251554
O O2 0.860032 0.461900 0.199561
O O3 0.000000 0.330699 0.250000
O O4 0.083108 0.328946 0.506964
O O5 0.277818 0.143437 0.730082
O O6 0.247031 0.338924 0.824558
O O7 0.130405 0.077969 0.670159
O O8 0.500000 0.845273 0.750000
O O9 0.318404 0.656498 0.566985
O O10 0.259484 0.930948 0.455768
O O11 0.365145 0.932889 0.718800
O O12 0.310019 0.143516 0.415744
O O13 0.540627 0.776379 0.149348
O O14 0.500000 0.000000 0.000000
O O15 0.500000 0.803931 0.250000
O O16 0.374694 0.577333 0.033504
#
# Coordination Sequence:
#
# PCOD9229365 Si02
#       7
#     4   4   4   4   4   4   4
#     4  11  24  43  64  90 124 169 221 263 314 374
#     4  11  23  41  64  93 128 171 211 265 317 377
#     4  11  19  40  64  92 126 163 207 260 318 375
#     4  10  19  39  65  89 120 165 211 256 314 368
#     4  12  21  36  65 101 131 161 214 263 313 388
#     4  11  20  38  63  91 130 169 201 260 324 373
#     4  10  25  42  62  90 129 174 210 257 329 379
#
# _framework density 19.252102000000001
#
# number of rings (size 3 to 8) (size 9 to 14) (size 15 to 20)
#    0.000    1.143    4.286    3.000    2.000    0.571 
#    2.571    7.143    0.000    0.000    0.000    0.000 
#    0.000    0.000    0.000    0.000    0.000    0.000 
#
# Total GULP energy -156107.144046 kJ/mol
# GULP energy per Si atom -5575.255144 kJ/mol
# Density = 1.920828 g / cm^3
# Si number density = 19.252102 Si / 1000 Ang^3
#
#
#
# Elastic Constant Matrix: (Units=GPa)
#
#
# Indices 1 2 3 4 5 6 
#
# 1 107.3002 45.6519 40.2901 0.0000 -14.0812 0.0000
# 2 45.6519 117.3124 35.1042 0.0000 -3.7426 0.0000
# 3 40.2901 35.1042 90.9371 0.0000 -11.2670 0.0000
# 4 0.0000 0.0000 0.0000 38.5345 0.0000 17.4700
# 5 -14.0812 -3.7426 -11.2670 0.0000 18.0299 0.0000
# 6 0.0000 0.0000 0.0000 17.4700 0.0000 18.3301
#
#
#
# Elastic Compliance Matrix: (Units=1/GPa)
#
#
# Indices 1 2 3 4 5 6 
#
# 1 0.013235 -0.003882 -0.003452 0.000000 0.007374 0.000000
# 2 -0.003882 0.010778 -0.002752 0.000000 -0.002515 0.000000
# 3 -0.003452 -0.002752 0.014290 0.000000 0.005663 0.000000
# 4 0.000000 0.000000 0.000000 0.045695 0.000000 -0.043551
# 5 0.007374 -0.002515 0.005663 0.000000 0.064239 0.000000
# 6 0.000000 0.000000 0.000000 -0.043551 0.000000 0.096063
#
#
# Mechanical properties :
#
#
# Convention : Reuss Voigt Hill
#
# Bulk Modulus (GPa) = 55.15379 61.96022 58.55700
# Shear Modulus (GPa) = 18.48318 27.94579 23.21448
#
# Velocity S-wave (km/s) = 3.10185 3.81408 3.47625
# Velocity P-wave (km/s) = 6.44507 7.18678 6.82601
#
# Compressibility (1/GPa) = 0.01813112
#
# Stress axis : x y z
#
# Youngs Moduli (GPa) = 75.55651 92.77816 69.97938
#
# Poissons Ratio (x) = 0.36020 0.24154
# Poissons Ratio (y) = 0.29334 0.19260
# Poissons Ratio (z) = 0.26079 0.25535
#
# Static dielectric constant tensor:
#      x y z
#    x 2.003920 0.000000 0.018610 
#    y 0.000000 1.705030 0.000000 
#    z 0.018610 0.000000 1.708240 
# 
# From -- ./inp_files/50104.got.cif
#   From: 2010.05.17/outbox.cif.g08.bks.cpg/sg13_26_cif.got.tgz:50104.got - 2010.06.03 16:44:36.
