data_PCOD9229558
_publ_section_title
;
Structure prediction by ZEFSAII (Michael W. Deem and Ramdas Pophale) SiO2 
 PCOD9229558
Probable space group: P 2/C
;
_chemical_formula_sum "Si O2"
_cell_formula_units_Z 32
_cell_length_a 15.678063
_cell_length_b 8.356874
_cell_length_c 15.578068
_cell_angle_alpha 90.000000
_cell_angle_beta 145.338689
_cell_angle_gamma 90.000000
_cell_volume 1160.784484
_symmetry_space_group_name_H-M "P 2/C"
_symmetry_group_IT_number 13
_symmetry_cell_setting 'monoclinic'
loop_
_space_group_symop_operation_xyz
x,y,z
-x,y,1/2-z
-x,-y,-z
x,-y,1/2+z
loop_
_atom_site_type_symbol
_atom_site_label
_atom_site_fract_x
_atom_site_fract_y
_atom_site_fract_z
Si Si1 0.146107 0.073219 0.962436
Si Si2 0.367796 0.623717 0.482766
Si Si3 0.636942 0.728175 0.520132
Si Si4 0.813724 0.269627 0.985021
Si Si5 0.160931 0.155292 0.163060
Si Si6 0.830250 0.786826 0.322982
Si Si7 0.115263 0.411002 0.909572
Si Si8 0.437339 0.054559 0.101195
O O1 0.224051 0.119654 0.118393
O O2 0.259484 0.066119 0.977217
O O3 0.086139 0.891687 0.916535
O O4 0.050689 0.235151 0.874173
O O5 0.436646 0.446979 0.529731
O O6 0.247011 0.670841 0.309305
O O7 0.272999 0.612816 0.493149
O O8 0.472414 0.778681 0.582215
O O9 0.715910 0.722053 0.490921
O O10 0.754794 0.741800 0.696260
O O11 0.549179 0.896258 0.444768
O O12 0.732710 0.224738 0.829900
O O13 0.866203 0.450106 0.007457
O O14 0.161195 0.972311 0.198365
O O15 0.999150 0.231165 0.003185
O O16 0.000000 0.493882 0.750000
O O17 0.500000 0.038057 0.250000
#
# Coordination Sequence:
#
# PCOD9229558 Si02
#       8
#     4   4   4   4   4   4   4   4
#     4   9  20  38  53  80 110 144 183 240 280 328
#     4  10  21  36  56  85 114 148 185 235 275 337
#     4  10  21  37  58  84 114 148 193 235 281 334
#     4   9  21  34  51  78 116 155 186 224 264 325
#     4  10  20  34  56  85 119 156 188 220 276 335
#     4  10  20  34  55  84 122 160 188 216 270 337
#     4  10  20  32  50  80 113 150 192 214 269 335
#     4  10  21  42  65  79 105 145 192 247 299 336
#
# _framework density 27.567564000000001
#
# number of rings (size 3 to 8) (size 9 to 14) (size 15 to 20)
#    0.000    2.250    1.250    0.750    5.250    1.500 
#    0.000    0.625    0.000    0.750    0.000    0.000 
#    0.000    0.000    0.000    0.000    0.000    0.000 
#
# Total GULP energy -178356.748471 kJ/mol
# GULP energy per Si atom -5573.648390 kJ/mol
# Density = 2.750482 g / cm^3
# Si number density = 27.567564 Si / 1000 Ang^3
#
#
#
# Elastic Constant Matrix: (Units=GPa)
#
#
# Indices 1 2 3 4 5 6 
#
# 1 84.9615 22.9503 15.4550 0.0000 -21.1541 0.0000
# 2 22.9503 257.8217 67.1639 0.0000 -7.5045 0.0000
# 3 15.4550 67.1639 128.4818 0.0000 -16.3977 0.0000
# 4 0.0000 0.0000 0.0000 -3.3331 0.0000 -0.5601
# 5 -21.1541 -7.5045 -16.3977 0.0000 36.1515 0.0000
# 6 0.0000 0.0000 0.0000 -0.5601 0.0000 16.3759
#
#
#
# Elastic Compliance Matrix: (Units=1/GPa)
#
#
# Indices 1 2 3 4 5 6 
#
# 1 0.014040 -0.000976 -0.000166 0.000000 0.007938 0.000000
# 2 -0.000976 0.004559 -0.002354 0.000000 -0.000692 0.000000
# 3 -0.000166 -0.002354 0.009509 0.000000 0.003728 0.000000
# 4 0.000000 0.000000 0.000000 -0.298309 0.000000 -0.010204
# 5 0.007938 -0.000692 0.003728 0.000000 0.033853 0.000000
# 6 0.000000 0.000000 0.000000 -0.010204 0.000000 0.060716
#
#
# Mechanical properties :
#
#
# Convention : Reuss Voigt Hill
#
# Bulk Modulus (GPa) = 47.35423 75.82258 61.58841
# Shear Modulus (GPa) = -30.94036 34.21860 1.63912
#
# Velocity S-wave (km/s) = -3.35378 3.52698 0.77193
# Velocity P-wave (km/s) = 1.48920 6.64455 4.81497
#
# Compressibility (1/GPa) = 0.02111744
#
# Stress axis : x y z
#
# Youngs Moduli (GPa) = 71.22431 219.36723 105.15854
#
# Poissons Ratio (x) = 0.21400 0.01744
# Poissons Ratio (y) = 0.06948 0.24754
# Poissons Ratio (z) = 0.01181 0.51639
#
# Static dielectric constant tensor:
#      x y z
#    x 2.340160 0.000000 0.006430 
#    y 0.000000 2.177570 0.000000 
#    z 0.006430 0.000000 2.121000 
# 
# From -- ./inp_files/71166.got.cif
#   From: 2010.05.17/outbox.cif.g08.bks.cpg/sg13_36_cif.got.tgz:71166.got - 2010.06.03 16:44:36.
