data_PCOD9229731
_publ_section_title
;
Structure prediction by ZEFSAII (Michael W. Deem and Ramdas Pophale) SiO2 
 PCOD9229731
Probable space group: P 2/C
;
_chemical_formula_sum "Si O2"
_cell_formula_units_Z 32
_cell_length_a 19.065202
_cell_length_b 11.387840
_cell_length_c 15.631463
_cell_angle_alpha 90.000000
_cell_angle_beta 29.478172
_cell_angle_gamma 90.000000
_cell_volume 1670.046834
_symmetry_space_group_name_H-M "P 2/C"
_symmetry_group_IT_number 13
_symmetry_cell_setting 'monoclinic'
loop_
_space_group_symop_operation_xyz
x,y,z
-x,y,1/2-z
-x,-y,-z
x,-y,1/2+z
loop_
_atom_site_type_symbol
_atom_site_label
_atom_site_fract_x
_atom_site_fract_y
_atom_site_fract_z
Si Si1 0.247407 0.595378 0.637367
Si Si2 0.145781 0.018466 0.941132
Si Si3 0.750370 0.323848 0.815570
Si Si4 0.660695 0.961709 0.105348
Si Si5 0.687667 0.315375 0.605491
Si Si6 0.499699 0.634936 0.028829
Si Si7 0.153945 0.918534 0.236660
Si Si8 0.943840 0.283368 0.444320
O O1 0.236186 0.456260 0.665160
O O2 0.331026 0.611144 0.459809
O O3 0.338309 0.658042 0.616214
O O4 0.098472 0.661695 0.786232
O O5 0.067974 0.142209 0.047918
O O6 0.274373 0.999286 0.871281
O O7 0.190689 0.034868 0.794098
O O8 0.017864 0.925710 0.085178
O O9 0.590380 0.301126 0.949005
O O10 0.794287 0.215459 0.827698
O O11 0.856857 0.316394 0.621934
O O12 0.500000 0.998843 0.250000
O O13 0.662238 0.820358 0.109419
O O14 0.768917 0.005201 0.917369
O O15 0.591248 0.348019 0.788435
O O16 0.849909 0.329573 0.465566
O O17 0.500000 0.500000 0.000000
#
# Coordination Sequence:
#
# PCOD9229731 Si02
#       8
#     4   4   4   4   4   4   4   4
#     4  11  18  30  56  83 106 137 177 221 273 331
#     4   9  20  38  60  81 108 148 192 235 280 335
#     4   9  20  36  52  75 112 145 175 219 273 334
#     4  11  22  37  59  84 112 146 189 242 284 331
#     4  10  20  34  53  81 109 134 176 229 278 324
#     4   9  19  35  54  77 108 145 178 222 278 332
#     4  10  20  38  58  79 112 153 190 230 284 337
#     4   9  18  34  54  78 104 135 180 228 269 318
#
# _framework density 19.161138999999999
#
# number of rings (size 3 to 8) (size 9 to 14) (size 15 to 20)
#    0.000    2.250    0.000    3.750    0.000    2.500 
#    0.000    8.750    0.000    3.000    0.000    0.000 
#    0.000    0.000    0.000    0.000    0.000    0.000 
#
# Total GULP energy -178376.699402 kJ/mol
# GULP energy per Si atom -5574.271856 kJ/mol
# Density = 1.911753 g / cm^3
# Si number density = 19.161139 Si / 1000 Ang^3
#
#
#
# Elastic Constant Matrix: (Units=GPa)
#
#
# Indices 1 2 3 4 5 6 
#
# 1 103.5961 17.0982 21.8596 0.0000 -26.0457 0.0000
# 2 17.0982 51.4773 6.2970 0.0000 1.1564 0.0000
# 3 21.8596 6.2970 39.6292 0.0000 -11.9136 0.0000
# 4 0.0000 0.0000 0.0000 24.2180 0.0000 2.6614
# 5 -26.0457 1.1564 -11.9136 0.0000 41.2496 0.0000
# 6 0.0000 0.0000 0.0000 2.6614 0.0000 25.4328
#
#
#
# Elastic Compliance Matrix: (Units=1/GPa)
#
#
# Indices 1 2 3 4 5 6 
#
# 1 0.013009 -0.003937 -0.004433 0.000000 0.007044 0.000000
# 2 -0.003937 0.021100 -0.002307 0.000000 -0.003744 0.000000
# 3 -0.004433 -0.002307 0.029812 0.000000 0.005876 0.000000
# 4 0.000000 0.000000 0.000000 0.041772 0.000000 -0.004371
# 5 0.007044 -0.003744 0.005876 0.000000 0.030493 0.000000
# 6 0.000000 0.000000 0.000000 -0.004371 0.000000 0.039777
#
#
# Mechanical properties :
#
#
# Convention : Reuss Voigt Hill
#
# Bulk Modulus (GPa) = 23.49136 31.69025 27.59080
# Shear Modulus (GPa) = 23.64024 28.14327 25.89175
#
# Velocity S-wave (km/s) = 3.51630 3.83661 3.67994
# Velocity P-wave (km/s) = 5.36399 6.01671 5.69970
#
# Compressibility (1/GPa) = 0.04256884
#
# Stress axis : x y z
#
# Youngs Moduli (GPa) = 76.86987 47.39352 33.54360
#
# Poissons Ratio (x) = 0.18659 0.14868
# Poissons Ratio (y) = 0.30263 0.07737
# Poissons Ratio (z) = 0.34073 0.10931
#
# Static dielectric constant tensor:
#      x y z
#    x 1.711950 0.000000 -0.033810 
#    y 0.000000 1.672140 0.000000 
#    z -0.033810 0.000000 1.672990 
# 
# From -- ./inp_files/55778.got.cif
#   From: 2010.05.17/outbox.cif.g08.bks.cpg/sg13_28_cif.got.tgz:55778.got - 2010.06.03 16:44:36.
