data_PCOD9229686
_publ_section_title
;
Structure prediction by ZEFSAII (Michael W. Deem and Ramdas Pophale) SiO2 
 PCOD9229686
Probable space group: P 2/C
;
_chemical_formula_sum "Si O2"
_cell_formula_units_Z 30
_cell_length_a 13.374878
_cell_length_b 7.860002
_cell_length_c 20.376993
_cell_angle_alpha 90.000000
_cell_angle_beta 149.218133
_cell_angle_gamma 90.000000
_cell_volume 1096.297063
_symmetry_space_group_name_H-M "P 2/C"
_symmetry_group_IT_number 13
_symmetry_cell_setting 'monoclinic'
loop_
_space_group_symop_operation_xyz
x,y,z
-x,y,1/2-z
-x,-y,-z
x,-y,1/2+z
loop_
_atom_site_type_symbol
_atom_site_label
_atom_site_fract_x
_atom_site_fract_y
_atom_site_fract_z
Si Si1 0.134023 0.186067 0.746185
Si Si2 0.037651 0.183905 0.988222
Si Si3 0.266361 0.941511 0.052749
Si Si4 0.500000 0.658994 0.250000
Si Si5 0.317180 0.114220 0.967799
Si Si6 0.014475 0.340002 0.108448
Si Si7 0.794484 0.431439 0.165598
Si Si8 0.371838 0.518336 0.554074
O O1 0.116705 0.207381 0.657880
O O2 0.293636 0.076888 0.877091
O O3 0.177969 0.368941 0.803636
O O4 0.913862 0.132145 0.641596
O O5 0.053723 0.324660 0.053162
O O6 0.000000 0.000000 0.000000
O O7 0.243500 0.127357 0.071761
O O8 0.333165 0.797269 0.141213
O O9 0.069808 0.844841 0.919625
O O10 0.394216 0.967846 0.060007
O O11 0.489274 0.547412 0.309732
O O12 0.396371 0.292974 0.040122
O O13 0.203482 0.360428 0.260191
O O14 0.846093 0.478183 0.035322
O O15 0.000000 0.369855 0.250000
O O16 0.636471 0.410725 0.019091
#
# Coordination Sequence:
#
# PCOD9229686 Si02
#       8
#     4   4   4   2   4   4   4   4
#     4   9  14  27  47  70 106 122 149 201 248 296
#     4   9  18  30  42  73 106 135 153 189 252 304
#     4   9  19  32  47  70 101 128 167 199 241 293
#     4  10  20  34  46  70  94 132 166 206 244 278
#     4   9  15  30  48  74  95 126 158 205 250 285
#     4   9  16  30  47  73 103 127 152 199 251 299
#     4   9  14  28  47  73  99 117 163 207 242 289
#     4   9  17  31  50  70  95 126 162 208 246 281
#
# _framework density 27.364847999999999
#
# number of rings (size 3 to 8) (size 9 to 14) (size 15 to 20)
#    0.000    2.933    4.000    0.000    0.000    1.067 
#   33.600    0.000    0.000    0.800    3.467   16.800 
#    0.000    0.000    0.000    0.000    0.000    0.000 
#
# Total GULP energy -167049.675196 kJ/mol
# GULP energy per Si atom -5568.322507 kJ/mol
# Density = 2.730256 g / cm^3
# Si number density = 27.364848 Si / 1000 Ang^3
#
#
#
# Elastic Constant Matrix: (Units=GPa)
#
#
# Indices 1 2 3 4 5 6 
#
# 1 61.7386 -7.7729 39.0227 0.0000 -28.0936 0.0000
# 2 -7.7729 61.9767 38.5053 0.0000 -13.8825 0.0000
# 3 39.0227 38.5053 181.6667 0.0000 -68.6869 0.0000
# 4 0.0000 0.0000 0.0000 39.0447 0.0000 -20.3637
# 5 -28.0936 -13.8825 -68.6869 0.0000 65.6678 0.0000
# 6 0.0000 0.0000 0.0000 -20.3637 0.0000 19.7177
#
#
#
# Elastic Compliance Matrix: (Units=1/GPa)
#
#
# Indices 1 2 3 4 5 6 
#
# 1 0.022612 0.006647 -0.003436 0.000000 0.007485 0.000000
# 2 0.006647 0.020540 -0.005069 0.000000 0.001884 0.000000
# 3 -0.003436 -0.005069 0.010514 0.000000 0.008456 0.000000
# 4 0.000000 0.000000 0.000000 0.055513 0.000000 0.057331
# 5 0.007485 0.001884 0.008456 0.000000 0.027673 0.000000
# 6 0.000000 0.000000 0.000000 0.057331 0.000000 0.109925
#
#
# Mechanical properties :
#
#
# Convention : Reuss Voigt Hill
#
# Bulk Modulus (GPa) = 20.01984 49.43247 34.72615
# Shear Modulus (GPa) = 18.71653 40.59452 29.65552
#
# Velocity S-wave (km/s) = 2.61811 3.85574 3.29554
# Velocity P-wave (km/s) = 4.05846 6.15839 5.21521
#
# Compressibility (1/GPa) = 0.04995045
#
# Stress axis : x y z
#
# Youngs Moduli (GPa) = 44.22430 48.68508 95.10888
#
# Poissons Ratio (x) = -0.32362 0.32680
# Poissons Ratio (y) = -0.29397 0.48213
# Poissons Ratio (z) = 0.15196 0.24679
#
# Static dielectric constant tensor:
#      x y z
#    x 2.508510 0.000000 0.043990 
#    y 0.000000 2.237400 0.000000 
#    z 0.043990 0.000000 2.384700 
# 
# From -- ./inp_files/80943.got.cif
#   From: 2010.05.17/outbox.cif.g08.bks.cpg/sg13_41_cif.got.tgz:80943.got - 2010.06.03 16:44:36.
