data_PCOD9229994
_publ_section_title
;
Structure prediction by ZEFSAII (Michael W. Deem and Ramdas Pophale) SiO2 
 PCOD9229994
Probable space group: P 2/C
;
_chemical_formula_sum "Si O2"
_cell_formula_units_Z 24
_cell_length_a 18.591679
_cell_length_b 8.634753
_cell_length_c 16.276564
_cell_angle_alpha 90.000000
_cell_angle_beta 150.750006
_cell_angle_gamma 90.000000
_cell_volume 1276.743111
_symmetry_space_group_name_H-M "P 2/C"
_symmetry_group_IT_number 13
_symmetry_cell_setting 'monoclinic'
loop_
_space_group_symop_operation_xyz
x,y,z
-x,y,1/2-z
-x,-y,-z
x,-y,1/2+z
loop_
_atom_site_type_symbol
_atom_site_label
_atom_site_fract_x
_atom_site_fract_y
_atom_site_fract_z
Si Si1 0.580230 0.808324 0.414331
Si Si2 0.416110 0.179395 0.083827
Si Si3 0.089776 0.307140 0.760206
Si Si4 0.928567 0.329701 0.934435
Si Si5 0.428021 0.331221 0.923215
Si Si6 0.087760 0.316154 0.255909
O O1 0.500000 0.758148 0.250000
O O2 0.492789 0.749446 0.406899
O O3 0.746209 0.744400 0.580565
O O4 0.583158 0.994130 0.418790
O O5 0.500000 0.229631 0.250000
O O6 0.252599 0.243598 0.929994
O O7 0.470422 0.244670 0.050314
O O8 0.031233 0.252808 0.612840
O O9 0.092690 0.495278 0.761366
O O10 0.000000 0.257159 0.750000
O O11 0.750633 0.338671 0.760743
O O12 0.000000 0.500000 0.000000
O O13 0.998716 0.261154 0.086607
O O14 0.500000 0.500000 0.000000
O O15 0.000000 0.267739 0.250000
#
# Coordination Sequence:
#
# PCOD9229994 Si02
#       6
#     4   4   4   4   4   4
#     4  11  23  39  57  83 118 154 190 232 286 348
#     4  10  23  39  56  82 118 153 188 232 286 344
#     4   9  19  35  55  80 109 143 187 233 276 332
#     4   9  18  34  53  82 112 139 182 235 284 330
#     4  11  22  38  62  87 113 150 194 241 286 336
#     4  10  20  35  57  82 111 147 189 237 282 334
#
# _framework density 18.797830999999999
#
# number of rings (size 3 to 8) (size 9 to 14) (size 15 to 20)
#    0.000    2.000    0.000    4.500    0.000    8.667 
#    0.000    3.333    0.000    0.000    0.000    0.000 
#    0.000    0.000    0.000    0.000    0.000    0.000 
#
# Total GULP energy -133897.905885 kJ/mol
# GULP energy per Si atom -5579.079412 kJ/mol
# Density = 1.875505 g / cm^3
# Si number density = 18.797831 Si / 1000 Ang^3
#
#
#
# Elastic Constant Matrix: (Units=GPa)
#
#
# Indices 1 2 3 4 5 6 
#
# 1 206.3514 33.8501 94.7722 0.0000 -29.1390 0.0000
# 2 33.8501 24.7900 23.2137 0.0000 -9.9114 0.0000
# 3 94.7722 23.2137 153.1684 0.0000 -34.1416 0.0000
# 4 0.0000 0.0000 0.0000 1172.8325 0.0000 80.5613
# 5 -29.1390 -9.9114 -34.1416 0.0000 39.5827 0.0000
# 6 0.0000 0.0000 0.0000 80.5613 0.0000 27.1249
#
#
#
# Elastic Compliance Matrix: (Units=1/GPa)
#
#
# Indices 1 2 3 4 5 6 
#
# 1 0.007727 -0.006874 -0.003534 0.000000 0.000918 0.000000
# 2 -0.006874 0.054729 -0.002618 0.000000 0.006386 0.000000
# 3 -0.003534 -0.002618 0.010382 0.000000 0.005698 0.000000
# 4 0.000000 0.000000 0.000000 0.001071 0.000000 -0.003181
# 5 0.000918 0.006386 0.005698 0.000000 0.032453 0.000000
# 6 0.000000 0.000000 0.000000 -0.003181 0.000000 0.046315
#
#
# Mechanical properties :
#
#
# Convention : Reuss Voigt Hill
#
# Bulk Modulus (GPa) = 21.37386 76.44245 48.90816
# Shear Modulus (GPa) = 25.72999 263.40629 144.56814
#
# Velocity S-wave (km/s) = 3.70371 11.85032 8.77917
# Velocity P-wave (km/s) = 5.44840 15.09947 11.35075
#
# Compressibility (1/GPa) = 0.04678612
#
# Stress axis : x y z
#
# Youngs Moduli (GPa) = 129.42331 18.27171 96.31595
#
# Poissons Ratio (x) = 0.12559 0.34041
# Poissons Ratio (y) = 0.88962 0.25217
# Poissons Ratio (z) = 0.45743 0.04784
#
# Static dielectric constant tensor:
#      x y z
#    x 1.665080 0.000000 -0.045440 
#    y 0.000000 1.636630 0.000000 
#    z -0.045440 0.000000 1.640740 
# 
# From -- ./inp_files/46121.got.cif
#   From: 2010.05.17/outbox.cif.g08.bks.cpg/sg13_24_cif.got.tgz:46121.got - 2010.06.03 16:44:36.
