data_PCOD9229087
_publ_section_title
;
Structure prediction by ZEFSAII (Michael W. Deem and Ramdas Pophale) SiO2 
 PCOD9229087
Probable space group: P 2/C
;
_chemical_formula_sum "Si O2"
_cell_formula_units_Z 20
_cell_length_a 11.430872
_cell_length_b 7.589551
_cell_length_c 12.848474
_cell_angle_alpha 90.000000
_cell_angle_beta 133.754165
_cell_angle_gamma 90.000000
_cell_volume 805.142669
_symmetry_space_group_name_H-M "P 2/C"
_symmetry_group_IT_number 13
_symmetry_cell_setting 'monoclinic'
loop_
_space_group_symop_operation_xyz
x,y,z
-x,y,1/2-z
-x,-y,-z
x,-y,1/2+z
loop_
_atom_site_type_symbol
_atom_site_label
_atom_site_fract_x
_atom_site_fract_y
_atom_site_fract_z
Si Si1 0.610259 0.567876 0.222342
Si Si2 0.353738 0.271940 0.432275
Si Si3 0.963683 0.208267 0.609295
Si Si4 0.818338 0.906057 0.834087
Si Si5 0.095755 0.622976 0.945893
O O1 0.500000 0.496491 0.250000
O O2 0.634054 0.431508 0.143502
O O3 0.776200 0.612813 0.380935
O O4 0.506951 0.722244 0.103634
O O5 0.326624 0.112431 0.336433
O O6 0.199878 0.306213 0.412747
O O7 0.957622 0.420108 0.603452
O O8 0.000000 0.158449 0.750000
O O9 0.803607 0.137427 0.448237
O O10 0.099044 0.092000 0.634496
O O11 0.946186 0.751436 0.877640
#
# Coordination Sequence:
#
# PCOD9229087 Si02
#       5
#     4   4   4   4   4
#     4   9  20  35  59  92 120 161 216 252 307 373
#     4  10  19  37  61  88 126 165 204 260 309 371
#     4  11  23  36  58  94 127 158 201 257 311 374
#     4  11  23  39  61  92 127 158 207 258 315 371
#     4  11  21  37  64  92 122 162 204 255 314 375
#
# _framework density 24.840318
#
# number of rings (size 3 to 8) (size 9 to 14) (size 15 to 20)
#    0.000    1.600    2.000    3.600    2.800    0.000 
#    0.000    0.000    0.000   25.200    0.000    0.000 
#    0.000    0.000    0.000    0.000    0.000    0.000 
#
# Total GULP energy -111666.648815 kJ/mol
# GULP energy per Si atom -5583.332441 kJ/mol
# Density = 2.478378 g / cm^3
# Si number density = 24.840318 Si / 1000 Ang^3
#
#
#
# Elastic Constant Matrix: (Units=GPa)
#
#
# Indices 1 2 3 4 5 6 
#
# 1 57.0676 3.0253 28.7052 0.0000 -17.4627 0.0000
# 2 3.0253 88.9472 16.9781 0.0000 -3.1602 0.0000
# 3 28.7052 16.9781 200.7723 0.0000 -32.5317 0.0000
# 4 0.0000 0.0000 0.0000 25.5310 0.0000 11.4422
# 5 -17.4627 -3.1602 -32.5317 0.0000 42.1470 0.0000
# 6 0.0000 0.0000 0.0000 11.4422 0.0000 4.8914
#
#
#
# Elastic Compliance Matrix: (Units=1/GPa)
#
#
# Indices 1 2 3 4 5 6 
#
# 1 0.020614 -0.000107 -0.001778 0.000000 0.007161 0.000000
# 2 -0.000107 0.011428 -0.000937 0.000000 0.000090 0.000000
# 3 -0.001778 -0.000937 0.005924 0.000000 0.003766 0.000000
# 4 0.000000 0.000000 0.000000 -0.809705 0.000000 1.894101
# 5 0.007161 0.000090 0.003766 0.000000 0.029607 0.000000
# 6 0.000000 0.000000 0.000000 1.894101 0.000000 -4.226334
#
#
# Mechanical properties :
#
#
# Convention : Reuss Voigt Hill
#
# Bulk Modulus (GPa) = 30.93759 49.35604 40.14681
# Shear Modulus (GPa) = -1.00968 34.38578 16.68805
#
# Velocity S-wave (km/s) = -0.63824 3.72462 2.59475
# Velocity P-wave (km/s) = 3.45521 6.19754 5.01737
#
# Compressibility (1/GPa) = 0.03232314
#
# Stress axis : x y z
#
# Youngs Moduli (GPa) = 48.51007 87.50261 168.79440
#
# Poissons Ratio (x) = 0.00939 0.30011
# Poissons Ratio (y) = 0.00521 0.15809
# Poissons Ratio (z) = 0.08625 0.08195
#
# Static dielectric constant tensor:
#      x y z
#    x 2.012020 0.000000 0.007080 
#    y 0.000000 1.958670 0.000000 
#    z 0.007080 0.000000 2.186260 
# 
# From -- ./inp_files/32760.got.cif
#   From: 2010.05.17/outbox.cif.g08.bks.cpg/sg13_17_cif.got.tgz:32760.got - 2010.06.03 16:44:36.
