data_PCOD9229417
_publ_section_title
;
Structure prediction by ZEFSAII (Michael W. Deem and Ramdas Pophale) SiO2 
 PCOD9229417
Probable space group: P 2/C
;
_chemical_formula_sum "Si O2"
_cell_formula_units_Z 28
_cell_length_a 11.574058
_cell_length_b 8.482857
_cell_length_c 14.337197
_cell_angle_alpha 90.000000
_cell_angle_beta 74.719445
_cell_angle_gamma 90.000000
_cell_volume 1357.877003
_symmetry_space_group_name_H-M "P 2/C"
_symmetry_group_IT_number 13
_symmetry_cell_setting 'monoclinic'
loop_
_space_group_symop_operation_xyz
x,y,z
-x,y,1/2-z
-x,-y,-z
x,-y,1/2+z
loop_
_atom_site_type_symbol
_atom_site_label
_atom_site_fract_x
_atom_site_fract_y
_atom_site_fract_z
Si Si1 0.692156 0.790996 0.723888
Si Si2 0.000000 0.010954 0.750000
Si Si3 0.191057 0.891506 0.350387
Si Si4 0.500000 0.547856 0.750000
Si Si5 0.856399 0.168799 0.439845
Si Si6 0.671336 0.313399 0.803224
Si Si7 0.619035 0.011678 0.414828
Si Si8 0.862809 0.432626 0.306405
O O1 0.606210 0.664286 0.693760
O O2 0.800302 0.693412 0.748876
O O3 0.747325 0.936589 0.655620
O O4 0.617503 0.875030 0.823750
O O5 0.893085 0.103601 0.723177
O O6 0.946195 0.909726 0.846517
O O7 0.116363 0.852608 0.457907
O O8 0.290467 0.760292 0.305432
O O9 0.561785 0.433876 0.812292
O O10 0.852381 0.349598 0.408970
O O11 0.728938 0.083890 0.450036
O O12 0.644560 0.163362 0.872091
O O13 0.781873 0.414021 0.817674
O O14 0.500000 0.000000 0.500000
O O15 0.000000 0.459576 0.250000
#
# Coordination Sequence:
#
# PCOD9229417 Si02
#       8
#     4   2   4   2   4   4   4   4
#     4   9  20  40  61  90 129 175 215 276 327 382
#     4  12  20  44  66  94 138 164 224 290 318 390
#     4  11  23  39  69  98 125 173 232 270 330 394
#     4  10  22  38  62  92 130 176 216 254 346 402
#     4  11  22  40  67  97 126 179 223 267 336 397
#     4  10  23  41  62  96 134 177 211 283 331 386
#     4  10  22  40  64  92 128 174 223 273 326 382
#     4  10  19  40  65  87 137 179 203 272 348 389
#
# _framework density 20.620424
#
# number of rings (size 3 to 8) (size 9 to 14) (size 15 to 20)
#    0.000    1.714    5.000    0.429    5.000    1.143 
#    2.571    2.857    0.000    0.000    0.000    0.000 
#    0.000    0.000    0.000    0.000    0.000    0.000 
#
# Total GULP energy -156306.899527 kJ/mol
# GULP energy per Si atom -5582.389269 kJ/mol
# Density = 2.057349 g / cm^3
# Si number density = 20.620424 Si / 1000 Ang^3
#
#
#
# Elastic Constant Matrix: (Units=GPa)
#
#
# Indices 1 2 3 4 5 6 
#
# 1 102.5434 54.0128 23.3482 0.0000 -21.3750 0.0000
# 2 54.0128 127.1779 38.5155 0.0000 -3.7019 0.0000
# 3 23.3482 38.5155 106.3484 0.0000 -14.4911 0.0000
# 4 0.0000 0.0000 0.0000 1.3008 0.0000 0.6167
# 5 -21.3750 -3.7019 -14.4911 0.0000 29.2688 0.0000
# 6 0.0000 0.0000 0.0000 0.6167 0.0000 25.6733
#
#
#
# Elastic Compliance Matrix: (Units=1/GPa)
#
#
# Indices 1 2 3 4 5 6 
#
# 1 0.015127 -0.006229 0.000357 0.000000 0.010436 0.000000
# 2 -0.006229 0.011403 -0.003416 0.000000 -0.004798 0.000000
# 3 0.000357 -0.003416 0.011301 0.000000 0.005424 0.000000
# 4 0.000000 0.000000 0.000000 0.777596 0.000000 -0.018679
# 5 0.010436 -0.004798 0.005424 0.000000 0.043866 0.000000
# 6 0.000000 0.000000 0.000000 -0.018679 0.000000 0.039400
#
#
# Mechanical properties :
#
#
# Convention : Reuss Voigt Hill
#
# Bulk Modulus (GPa) = 51.93435 63.09141 57.51288
# Shear Modulus (GPa) = 5.41309 25.92814 15.67061
#
# Velocity S-wave (km/s) = 1.62198 3.54983 2.75972
# Velocity P-wave (km/s) = 5.36174 6.88946 6.17305
#
# Compressibility (1/GPa) = 0.01925508
#
# Stress axis : x y z
#
# Youngs Moduli (GPa) = 66.10704 87.69410 88.48807
#
# Poissons Ratio (x) = 0.54622 -0.03157
# Poissons Ratio (y) = 0.41176 0.30229
# Poissons Ratio (z) = -0.02359 0.29958
#
# Static dielectric constant tensor:
#      x y z
#    x 1.782690 0.000000 0.015590 
#    y 0.000000 1.756740 0.000000 
#    z 0.015590 0.000000 1.728290 
# 
# From -- ./inp_files/50012.got.cif
#   From: 2010.05.17/outbox.cif.g08.bks.cpg/sg13_26_cif.got.tgz:50012.got - 2010.06.03 16:44:36.
