data_PCOD9229889
_publ_section_title
;
Structure prediction by ZEFSAII (Michael W. Deem and Ramdas Pophale) SiO2 
 PCOD9229889
Probable space group: P 2/C
;
_chemical_formula_sum "Si O2"
_cell_formula_units_Z 18
_cell_length_a 13.898582
_cell_length_b 8.794190
_cell_length_c 9.874278
_cell_angle_alpha 90.000000
_cell_angle_beta 49.876521
_cell_angle_gamma 90.000000
_cell_volume 922.865849
_symmetry_space_group_name_H-M "P 2/C"
_symmetry_group_IT_number 13
_symmetry_cell_setting 'monoclinic'
loop_
_space_group_symop_operation_xyz
x,y,z
-x,y,1/2-z
-x,-y,-z
x,-y,1/2+z
loop_
_atom_site_type_symbol
_atom_site_label
_atom_site_fract_x
_atom_site_fract_y
_atom_site_fract_z
Si Si1 0.500000 0.401772 0.750000
Si Si2 0.586779 0.941678 0.798551
Si Si3 0.300795 0.769054 0.250275
Si Si4 0.693949 0.664102 0.557096
Si Si5 0.087252 0.543256 0.546423
O O1 0.571442 0.302977 0.799295
O O2 0.607734 0.517386 0.601508
O O3 0.500000 0.974205 0.750000
O O4 0.632658 0.769026 0.730819
O O5 0.703527 0.056627 0.699154
O O6 0.500000 0.000000 0.000000
O O7 0.185864 0.671098 0.410943
O O8 0.301284 0.756317 0.087343
O O9 0.827624 0.599406 0.482574
O O10 0.000000 0.592086 0.750000
O O11 0.000000 0.500000 0.500000
#
# Coordination Sequence:
#
# PCOD9229889 Si02
#       5
#     2   4   4   4   4
#     4  10  20  34  62  98 124 166 212 258 328 388
#     4  12  23  39  62  96 141 167 205 258 329 396
#     4  11  22  38  64  94 130 171 212 263 327 382
#     4  11  22  40  64  94 133 165 213 269 325 377
#     4  11  24  45  69  92 125 170 225 274 314 370
#
# _framework density 19.504460000000002
#
# number of rings (size 3 to 8) (size 9 to 14) (size 15 to 20)
#    0.000    0.889    6.667    0.667    0.000    3.556 
#    0.000    2.222    0.000    0.000    0.000    0.000 
#    0.000    0.000    0.000    0.000    0.000    0.000 
#
# Total GULP energy -100432.353256 kJ/mol
# GULP energy per Si atom -5579.575181 kJ/mol
# Density = 1.946007 g / cm^3
# Si number density = 19.504460 Si / 1000 Ang^3
#
#
#
# Elastic Constant Matrix: (Units=GPa)
#
#
# Indices 1 2 3 4 5 6 
#
# 1 124.2288 19.9305 29.1158 0.0000 -4.1725 0.0000
# 2 19.9305 76.5005 19.8839 0.0000 -8.8683 0.0000
# 3 29.1158 19.8839 104.6215 0.0000 0.5961 0.0000
# 4 0.0000 0.0000 0.0000 28.7238 0.0000 -3.8791
# 5 -4.1725 -8.8683 0.5961 0.0000 24.6521 0.0000
# 6 0.0000 0.0000 0.0000 -3.8791 0.0000 26.3973
#
#
#
# Elastic Compliance Matrix: (Units=1/GPa)
#
#
# Indices 1 2 3 4 5 6 
#
# 1 0.008850 -0.001633 -0.002158 0.000000 0.000963 0.000000
# 2 -0.001633 0.014701 -0.002368 0.000000 0.005069 0.000000
# 3 -0.002158 -0.002368 0.010617 0.000000 -0.001474 0.000000
# 4 0.000000 0.000000 0.000000 0.035519 0.000000 0.005220
# 5 0.000963 0.005069 -0.001474 0.000000 0.042587 0.000000
# 6 0.000000 0.000000 0.000000 0.005220 0.000000 0.038650
#
#
# Mechanical properties :
#
#
# Convention : Reuss Voigt Hill
#
# Bulk Modulus (GPa) = 45.76908 49.24568 47.50738
# Shear Modulus (GPa) = 29.32124 31.71602 30.51863
#
# Velocity S-wave (km/s) = 3.88146 4.03686 3.95992
# Velocity P-wave (km/s) = 6.60337 6.85795 6.73187
#
# Compressibility (1/GPa) = 0.02184881
#
# Stress axis : x y z
#
# Youngs Moduli (GPa) = 112.99729 68.02489 94.18571
#
# Poissons Ratio (x) = 0.11109 0.20325
# Poissons Ratio (y) = 0.18454 0.22306
# Poissons Ratio (z) = 0.24384 0.16110
#
# Static dielectric constant tensor:
#      x y z
#    x 1.664310 0.000000 -0.013440 
#    y 0.000000 1.734460 0.000000 
#    z -0.013440 0.000000 1.738960 
# 
# From -- ./inp_files/14486.got.cif
#   From: 2010.05.17/outbox.cif.g08.bks.cpg/sg13_8_cif.got.tgz:14486.got - 2010.06.03 16:44:36.
