data_PCOD9229568
_publ_section_title
;
Structure prediction by ZEFSAII (Michael W. Deem and Ramdas Pophale) SiO2 
 PCOD9229568
Probable space group: P 2/C
;
_chemical_formula_sum "Si O2"
_cell_formula_units_Z 24
_cell_length_a 24.592225
_cell_length_b 4.218978
_cell_length_c 7.836173
_cell_angle_alpha 90.000000
_cell_angle_beta 107.315108
_cell_angle_gamma 90.000000
_cell_volume 776.189913
_symmetry_space_group_name_H-M "P 2/C"
_symmetry_group_IT_number 13
_symmetry_cell_setting 'monoclinic'
loop_
_space_group_symop_operation_xyz
x,y,z
-x,y,1/2-z
-x,-y,-z
x,-y,1/2+z
loop_
_atom_site_type_symbol
_atom_site_label
_atom_site_fract_x
_atom_site_fract_y
_atom_site_fract_z
Si Si1 0.248334 0.698263 0.715472
Si Si2 0.332690 0.713917 0.060346
Si Si3 0.500000 0.288986 0.250000
Si Si4 0.833716 0.250185 0.634391
Si Si5 0.084261 0.197903 0.062250
Si Si6 0.000000 0.782720 0.750000
Si Si7 0.583693 0.710435 0.094707
O O1 0.290597 0.492758 0.638231
O O2 0.204954 0.482958 0.787857
O O3 0.210728 0.895758 0.545453
O O4 0.290069 0.877606 0.885828
O O5 0.374670 0.887098 0.233119
O O6 0.374423 0.499732 0.983313
O O7 0.541854 0.499749 0.172335
O O8 0.541843 0.114433 0.422455
O O9 0.878137 0.395762 0.537396
O O10 0.872372 0.017437 0.784441
O O11 0.042743 0.379127 0.154844
O O12 0.041979 0.992951 0.905627
#
# Coordination Sequence:
#
# PCOD9229568 Si02
#       7
#     4   4   2   4   4   2   4
#     4   9  18  31  46  68  96 127 160 195 230 280
#     4   8  14  24  38  54  84 124 162 180 224 294
#     4   8  12  16  28  48  76 108 160 204 224 254
#     4  10  20  32  52  74  96 122 160 198 232 272
#     4   9  18  34  56  76  92 122 160 195 230 280
#     4   8  16  32  56  72  92 122 160 184 228 298
#     4   8  12  19  30  50  76 115 162 194 222 272
#
# _framework density 30.920262999999998
#
# number of rings (size 3 to 8) (size 9 to 14) (size 15 to 20)
#    0.000    3.333    0.000    0.000    0.000    5.333 
#    0.000    0.000    0.000   50.000    0.000    0.000 
#    0.000    0.000    0.000    0.000    0.000 17410.001 
#
# Total GULP energy -134308.237447 kJ/mol
# GULP energy per Si atom -5596.176560 kJ/mol
# Density = 3.084989 g / cm^3
# Si number density = 30.920263 Si / 1000 Ang^3
#
#
#
# Elastic Constant Matrix: (Units=GPa)
#
#
# Indices 1 2 3 4 5 6 
#
# 1 303.4357 81.9801 85.3726 0.0000 -83.0253 0.0000
# 2 81.9801 68.9183 68.2540 0.0000 -4.6448 0.0000
# 3 85.3726 68.2540 328.4144 0.0000 101.9703 0.0000
# 4 0.0000 0.0000 0.0000 -65.5085 0.0000 20.2631
# 5 -83.0253 -4.6448 101.9703 0.0000 136.6674 0.0000
# 6 0.0000 0.0000 0.0000 20.2631 0.0000 58.1319
#
#
#
# Elastic Compliance Matrix: (Units=1/GPa)
#
#
# Indices 1 2 3 4 5 6 
#
# 1 0.007233 -0.005575 -0.002638 0.000000 0.006173 0.000000
# 2 -0.005575 0.024969 -0.003842 0.000000 0.000328 0.000000
# 3 -0.002638 -0.003842 0.006595 0.000000 -0.006654 0.000000
# 4 0.000000 0.000000 0.000000 -0.013779 0.000000 0.004803
# 5 0.006173 0.000328 -0.006654 0.000000 0.016043 0.000000
# 6 0.000000 0.000000 0.000000 0.004803 0.000000 0.015528
#
#
# Mechanical properties :
#
#
# Convention : Reuss Voigt Hill
#
# Bulk Modulus (GPa) = 68.08960 130.22022 99.15491
# Shear Modulus (GPa) = 58.41428 56.86894 57.64161
#
# Velocity S-wave (km/s) = 4.35120 4.29326 4.32232
# Velocity P-wave (km/s) = 6.87843 8.17205 7.55298
#
# Compressibility (1/GPa) = 0.01468653
#
# Stress axis : x y z
#
# Youngs Moduli (GPa) = 138.24929 40.05025 151.62185
#
# Poissons Ratio (x) = 0.22329 0.40004
# Poissons Ratio (y) = 0.77076 0.58250
# Poissons Ratio (z) = 0.36476 0.15386
#
# Static dielectric constant tensor:
#      x y z
#    x 2.362390 0.000000 0.021350 
#    y 0.000000 2.290360 0.000000 
#    z 0.021350 0.000000 2.366400 
# 
# From -- ./inp_files/23775.got.cif
#   From: 2010.05.17/outbox.cif.g08.bks.cpg/sg13_12_cif.got.tgz:23775.got - 2010.06.03 16:44:36.
