data_PCOD9229770
_publ_section_title
;
Structure prediction by ZEFSAII (Michael W. Deem and Ramdas Pophale) SiO2 
 PCOD9229770
Probable space group: P 2/C
;
_chemical_formula_sum "Si O2"
_cell_formula_units_Z 32
_cell_length_a 12.867197
_cell_length_b 9.307530
_cell_length_c 20.626991
_cell_angle_alpha 90.000000
_cell_angle_beta 147.667878
_cell_angle_gamma 90.000000
_cell_volume 1321.194954
_symmetry_space_group_name_H-M "P 2/C"
_symmetry_group_IT_number 13
_symmetry_cell_setting 'monoclinic'
loop_
_space_group_symop_operation_xyz
x,y,z
-x,y,1/2-z
-x,-y,-z
x,-y,1/2+z
loop_
_atom_site_type_symbol
_atom_site_label
_atom_site_fract_x
_atom_site_fract_y
_atom_site_fract_z
Si Si1 0.754688 0.041089 0.071826
Si Si2 0.785046 0.625218 0.560851
Si Si3 0.241508 0.593877 0.191919
Si Si4 0.252192 0.414457 0.315484
Si Si5 0.810107 0.105936 0.475325
Si Si6 0.233358 0.581578 0.563722
Si Si7 0.329193 0.909498 0.831087
Si Si8 0.762023 0.908217 0.342929
O O1 0.752837 0.204257 0.045088
O O2 0.798692 0.050067 0.172057
O O3 0.861713 0.942157 0.075190
O O4 0.539803 0.975347 0.954100
O O5 0.704925 0.564267 0.586412
O O6 0.712487 0.536923 0.461063
O O7 0.018710 0.606284 0.686617
O O8 0.302375 0.544980 0.295247
O O9 0.292883 0.475686 0.165252
O O10 0.320314 0.751025 0.215930
O O11 0.003917 0.591056 0.065313
O O12 0.336241 0.262789 0.335460
O O13 0.699831 0.256815 0.415904
O O14 0.006053 0.123864 0.536835
O O15 0.705044 0.977440 0.381514
O O16 0.266476 0.977690 0.729985
#
# Coordination Sequence:
#
# PCOD9229770 Si02
#       8
#     4   4   4   4   4   4   4   4
#     4  10  21  36  53  75 105 141 178 216 262 315
#     4   9  17  31  52  76 103 137 175 215 261 313
#     4   9  17  30  50  76 104 132 166 212 263 314
#     4   9  17  31  52  76 103 137 175 215 261 313
#     4  10  20  34  55  81 106 135 174 220 267 315
#     4   9  17  30  50  76 104 132 166 212 263 314
#     4  10  21  36  53  75 105 141 178 216 262 315
#     4  10  20  34  55  81 106 135 174 220 267 315
#
# _framework density 24.220499
#
# number of rings (size 3 to 8) (size 9 to 14) (size 15 to 20)
#    0.000    2.500    0.000    2.250    0.000    7.000 
#    0.000    3.750    0.000    6.000    0.000    0.000 
#    0.000    0.000    0.000    0.000    0.000    0.000 
#
# Total GULP energy -178901.316584 kJ/mol
# GULP energy per Si atom -5590.666143 kJ/mol
# Density = 2.416537 g / cm^3
# Si number density = 24.220499 Si / 1000 Ang^3
#
#
#
# Elastic Constant Matrix: (Units=GPa)
#
#
# Indices 1 2 3 4 5 6 
#
# 1 83.2376 42.3755 13.0138 0.0000 -15.2660 0.0000
# 2 42.3755 137.8551 13.2583 0.0000 -38.8932 0.0000
# 3 13.0138 13.2583 53.9615 0.0000 -21.5030 0.0000
# 4 0.0000 0.0000 0.0000 26.6543 0.0000 -12.5752
# 5 -15.2660 -38.8932 -21.5030 0.0000 50.3572 0.0000
# 6 0.0000 0.0000 0.0000 -12.5752 0.0000 30.3353
#
#
#
# Elastic Compliance Matrix: (Units=1/GPa)
#
#
# Indices 1 2 3 4 5 6 
#
# 1 0.014558 -0.004205 -0.002426 0.000000 0.000130 0.000000
# 2 -0.004205 0.010511 0.001396 0.000000 0.007440 0.000000
# 3 -0.002426 0.001396 0.022788 0.000000 0.010074 0.000000
# 4 0.000000 0.000000 0.000000 0.046639 0.000000 0.019334
# 5 0.000130 0.007440 0.010074 0.000000 0.029945 0.000000
# 6 0.000000 0.000000 0.000000 0.019334 0.000000 0.040980
#
#
# Mechanical properties :
#
#
# Convention : Reuss Voigt Hill
#
# Bulk Modulus (GPa) = 26.74723 45.81661 36.28192
# Shear Modulus (GPa) = 26.54598 35.22980 30.88789
#
# Velocity S-wave (km/s) = 3.31420 3.81799 3.57498
# Velocity P-wave (km/s) = 5.07074 6.19625 5.66154
#
# Compressibility (1/GPa) = 0.03738705
#
# Stress axis : x y z
#
# Youngs Moduli (GPa) = 68.69268 95.13578 43.88284
#
# Poissons Ratio (x) = 0.40005 0.10646
# Poissons Ratio (y) = 0.28885 -0.06127
# Poissons Ratio (z) = 0.16665 -0.13282
#
# Static dielectric constant tensor:
#      x y z
#    x 2.003020 0.000000 0.061860 
#    y 0.000000 1.887320 0.000000 
#    z 0.061860 0.000000 1.946300 
# 
# From -- ./inp_files/79829.got.cif
#   From: 2010.05.17/outbox.cif.g08.bks.cpg/sg13_40_cif.got.tgz:79829.got - 2010.06.03 16:44:36.
