data_PCOD9229843
_publ_section_title
;
Structure prediction by ZEFSAII (Michael W. Deem and Ramdas Pophale) SiO2 
 PCOD9229843
Probable space group: P 2/C
;
_chemical_formula_sum "Si O2"
_cell_formula_units_Z 26
_cell_length_a 21.808891
_cell_length_b 9.260352
_cell_length_c 9.091489
_cell_angle_alpha 90.000000
_cell_angle_beta 130.737841
_cell_angle_gamma 90.000000
_cell_volume 1391.218627
_symmetry_space_group_name_H-M "P 2/C"
_symmetry_group_IT_number 13
_symmetry_cell_setting 'monoclinic'
loop_
_space_group_symop_operation_xyz
x,y,z
-x,y,1/2-z
-x,-y,-z
x,-y,1/2+z
loop_
_atom_site_type_symbol
_atom_site_label
_atom_site_fract_x
_atom_site_fract_y
_atom_site_fract_z
Si Si1 0.781923 0.381771 0.144831
Si Si2 0.273322 0.934642 0.422666
Si Si3 0.326841 0.821709 0.822006
Si Si4 0.000000 0.973395 0.250000
Si Si5 0.109001 0.125428 0.178116
Si Si6 0.283026 0.626988 0.286046
Si Si7 0.441042 0.568554 0.024406
O O1 0.735071 0.286725 0.193902
O O2 0.861841 0.288037 0.246057
O O3 0.782107 0.539156 0.217238
O O4 0.735651 0.386102 0.916579
O O5 0.292619 0.888400 0.618890
O O6 0.278098 0.791933 0.329908
O O7 0.336700 0.049454 0.454297
O O8 0.186723 0.017563 0.284662
O O9 0.401626 0.717489 0.907848
O O10 0.945020 0.068498 0.272471
O O11 0.058236 0.883360 0.448449
O O12 0.369049 0.546054 0.448898
O O13 0.500000 0.602680 0.250000
O O14 0.500000 0.500000 0.000000
#
# Coordination Sequence:
#
# PCOD9229843 Si02
#       7
#     4   4   4   2   4   4   4
#     4  10  20  36  57  85 112 146 198 235 278 328
#     4  11  20  37  61  86 114 146 199 247 284 321
#     4  10  21  36  57  85 112 148 196 241 278 342
#     4  10  20  34  58  88 118 148 184 220 298 356
#     4  10  20  36  59  85 114 149 184 236 282 346
#     4  11  21  36  61  86 111 151 199 245 283 344
#     4  11  22  39  57  80 117 155 189 235 301 355
#
# _framework density 18.688651
#
# number of rings (size 3 to 8) (size 9 to 14) (size 15 to 20)
#    0.000    1.538    0.000    9.231    0.000    0.000 
#    0.000    3.846    0.000   15.692    0.000    0.000 
#    0.000    0.000    0.000    0.000    0.000    0.000 
#
# Total GULP energy -145015.975274 kJ/mol
# GULP energy per Si atom -5577.537511 kJ/mol
# Density = 1.864611 g / cm^3
# Si number density = 18.688651 Si / 1000 Ang^3
#
#
#
# Elastic Constant Matrix: (Units=GPa)
#
#
# Indices 1 2 3 4 5 6 
#
# 1 60.6744 30.3881 25.7559 0.0000 -0.7671 0.0000
# 2 30.3881 98.6708 7.6571 0.0000 13.2976 0.0000
# 3 25.7559 7.6571 100.7603 0.0000 -1.0044 0.0000
# 4 0.0000 0.0000 0.0000 4.4175 0.0000 -21.8621
# 5 -0.7671 13.2976 -1.0044 0.0000 32.2627 0.0000
# 6 0.0000 0.0000 0.0000 -21.8621 0.0000 15.2452
#
#
#
# Elastic Compliance Matrix: (Units=1/GPa)
#
#
# Indices 1 2 3 4 5 6 
#
# 1 0.022115 -0.006845 -0.005101 0.000000 0.003188 0.000000
# 2 -0.006845 0.012924 0.000713 0.000000 -0.005467 0.000000
# 3 -0.005101 0.000713 0.011174 0.000000 -0.000067 0.000000
# 4 0.000000 0.000000 0.000000 -0.037129 0.000000 -0.053244
# 5 0.003188 -0.005467 -0.000067 0.000000 0.033323 0.000000
# 6 0.000000 0.000000 0.000000 -0.053244 0.000000 -0.010759
#
#
# Mechanical properties :
#
#
# Convention : Reuss Voigt Hill
#
# Bulk Modulus (GPa) = 42.10993 43.07865 42.59429
# Shear Modulus (GPa) = 80.60608 23.47205 52.03906
#
# Velocity S-wave (km/s) = 6.57455 3.54779 5.28259
# Velocity P-wave (km/s) = 8.95624 6.31531 7.74911
#
# Compressibility (1/GPa) = 0.02374737
#
# Stress axis : x y z
#
# Youngs Moduli (GPa) = 45.21779 77.37417 89.49659
#
# Poissons Ratio (x) = 0.52960 0.45653
# Poissons Ratio (y) = 0.30950 -0.06381
# Poissons Ratio (z) = 0.23066 -0.05517
#
# Static dielectric constant tensor:
#      x y z
#    x 1.668990 0.000000 0.018970 
#    y 0.000000 1.654210 0.000000 
#    z 0.018970 0.000000 1.636020 
# 
# From -- ./inp_files/20928.got.cif
#   From: 2010.05.17/outbox.cif.g08.bks.cpg/sg13_11_cif.got.tgz:20928.got - 2010.06.03 16:44:36.
