data_PCOD9229043
_publ_section_title
;
Structure prediction by ZEFSAII (Michael W. Deem and Ramdas Pophale) SiO2 
 PCOD9229043
Probable space group: P 2/C
;
_chemical_formula_sum "Si O2"
_cell_formula_units_Z 32
_cell_length_a 18.402150
_cell_length_b 19.241999
_cell_length_c 17.945160
_cell_angle_alpha 90.000000
_cell_angle_beta 16.024914
_cell_angle_gamma 90.000000
_cell_volume 1754.131730
_symmetry_space_group_name_H-M "P 2/C"
_symmetry_group_IT_number 13
_symmetry_cell_setting 'monoclinic'
loop_
_space_group_symop_operation_xyz
x,y,z
-x,y,1/2-z
-x,-y,-z
x,-y,1/2+z
loop_
_atom_site_type_symbol
_atom_site_label
_atom_site_fract_x
_atom_site_fract_y
_atom_site_fract_z
Si Si1 0.034694 0.030491 0.803146
Si Si2 0.091329 0.684078 0.001782
Si Si3 0.879232 0.841770 0.559841
Si Si4 0.233796 0.437686 0.465656
Si Si5 0.598365 0.173651 0.864572
Si Si6 0.573236 0.331224 0.921087
Si Si7 0.463549 0.937073 0.198744
Si Si8 0.739371 0.476067 0.712278
O O1 0.000000 0.048024 0.750000
O O2 0.967296 0.097024 0.918838
O O3 0.318318 0.995443 0.535739
O O4 0.820048 0.971696 0.032353
O O5 0.129655 0.766654 0.971576
O O6 0.158959 0.637714 0.005956
O O7 0.290380 0.659189 0.739561
O O8 0.791136 0.672970 0.272156
O O9 0.102000 0.837330 0.404388
O O10 0.596752 0.851107 0.876968
O O11 0.500000 0.434593 0.250000
O O12 0.261321 0.487451 0.366984
O O13 0.000000 0.461475 0.750000
O O14 0.562577 0.256495 0.892055
O O15 0.522956 0.129639 0.866913
O O16 0.683030 0.393618 0.762710
O O17 0.500000 0.919945 0.250000
O O18 0.000000 0.500000 0.500000
O O19 0.500000 0.500000 0.000000
#
# Coordination Sequence:
#
# PCOD9229043 Si02
#       8
#     4   4   4   4   4   4   4   4
#     4  10  21  36  54  77 112 150 191 225 278 352
#     4  10  20  37  56  80 115 149 187 227 288 346
#     4  10  21  35  56  84 111 144 187 237 278 330
#     4  12  24  37  56  89 123 148 191 249 291 345
#     4  10  21  35  57  84 111 139 189 243 277 331
#     4  10  19  37  59  84 106 144 199 231 274 349
#     4  10  21  37  55  78 109 150 188 229 287 344
#     4  12  21  38  65  84 109 160 199 233 288 356
#
# _framework density 18.242643999999999
#
# number of rings (size 3 to 8) (size 9 to 14) (size 15 to 20)
#    0.000    1.500    2.500    3.000    0.000    3.500 
#    0.000    2.500    0.000    2.250    0.000    0.000 
#    0.000    0.000    0.000    0.000    0.000    0.000 
#
# Total GULP energy -178665.721410 kJ/mol
# GULP energy per Si atom -5583.303794 kJ/mol
# Density = 1.820112 g / cm^3
# Si number density = 18.242644 Si / 1000 Ang^3
#
#
#
# Elastic Constant Matrix: (Units=GPa)
#
#
# Indices 1 2 3 4 5 6 
#
# 1 81.0447 64.8682 22.6020 0.0000 12.4798 0.0000
# 2 64.8682 113.0497 15.3962 0.0000 20.9661 0.0000
# 3 22.6020 15.3962 88.3213 0.0000 4.9430 0.0000
# 4 0.0000 0.0000 0.0000 10.5063 0.0000 -8.4023
# 5 12.4798 20.9661 4.9430 0.0000 22.4290 0.0000
# 6 0.0000 0.0000 0.0000 -8.4023 0.0000 -15.7905
#
#
#
# Elastic Compliance Matrix: (Units=1/GPa)
#
#
# Indices 1 2 3 4 5 6 
#
# 1 0.024025 -0.013235 -0.003832 0.000000 -0.000151 0.000000
# 2 -0.013235 0.018147 0.000770 0.000000 -0.009769 0.000000
# 3 -0.003832 0.000770 0.012241 0.000000 -0.001285 0.000000
# 4 0.000000 0.000000 0.000000 0.066768 0.000000 -0.035528
# 5 -0.000151 -0.009769 -0.001285 0.000000 0.054084 0.000000
# 6 0.000000 0.000000 0.000000 -0.035528 0.000000 -0.044424
#
#
# Mechanical properties :
#
#
# Convention : Reuss Voigt Hill
#
# Bulk Modulus (GPa) = 45.83524 54.23871 50.03697
# Shear Modulus (GPa) = 29.28995 15.39891 22.34443
#
# Velocity S-wave (km/s) = 4.01131 2.90852 3.50358
# Velocity P-wave (km/s) = 6.82891 6.40903 6.62230
#
# Compressibility (1/GPa) = 0.02181727
#
# Stress axis : x y z
#
# Youngs Moduli (GPa) = 41.62409 55.10560 81.69484
#
# Poissons Ratio (x) = 0.72935 0.31309
# Poissons Ratio (y) = 0.55091 -0.06293
# Poissons Ratio (z) = 0.15952 -0.04245
#
# Static dielectric constant tensor:
#      x y z
#    x 1.601290 0.000000 -0.009920 
#    y 0.000000 1.648030 0.000000 
#    z -0.009920 0.000000 1.643980 
# 
# From -- ./inp_files/53994.got.cif
#   From: 2010.05.17/outbox.cif.g08.bks.cpg/sg13_27_cif.got.tgz:53994.got - 2010.06.03 16:44:36.
