data_PCOD9229301
_publ_section_title
;
Structure prediction by ZEFSAII (Michael W. Deem and Ramdas Pophale) SiO2 
 PCOD9229301
Probable space group: P 2/C
;
_chemical_formula_sum "Si O2"
_cell_formula_units_Z 22
_cell_length_a 11.989345
_cell_length_b 6.606787
_cell_length_c 11.482388
_cell_angle_alpha 90.000000
_cell_angle_beta 103.008692
_cell_angle_gamma 90.000000
_cell_volume 886.189700
_symmetry_space_group_name_H-M "P 2/C"
_symmetry_group_IT_number 13
_symmetry_cell_setting 'monoclinic'
loop_
_space_group_symop_operation_xyz
x,y,z
-x,y,1/2-z
-x,-y,-z
x,-y,1/2+z
loop_
_atom_site_type_symbol
_atom_site_label
_atom_site_fract_x
_atom_site_fract_y
_atom_site_fract_z
Si Si1 0.000000 0.571450 0.750000
Si Si2 0.808407 0.264180 0.703440
Si Si3 0.693049 0.651815 0.620329
Si Si4 0.240349 0.072048 0.153164
Si Si5 0.120399 0.896133 0.937168
Si Si6 0.528172 0.871208 0.891232
O O1 0.904691 0.415245 0.775428
O O2 0.956408 0.718524 0.636118
O O3 0.728537 0.421658 0.617516
O O4 0.730943 0.135076 0.772217
O O5 0.871813 0.088980 0.646016
O O6 0.753919 0.782846 0.534236
O O7 0.559199 0.684883 0.610600
O O8 0.755941 0.754778 0.748022
O O9 0.335840 0.146638 0.086050
O O10 0.121506 0.005104 0.063580
O O11 0.500000 0.941393 0.750000
O O12 0.500000 0.000000 0.000000
#
# Coordination Sequence:
#
# PCOD9229301 Si02
#       6
#     2   4   4   4   4   4
#     4  10  22  40  64  92 128 168 226 284 354 418
#     4  10  22  41  63  94 130 172 226 286 340 417
#     4   9  20  38  59  92 132 170 223 271 336 409
#     4  10  21  38  65  92 132 174 222 279 348 404
#     4  10  20  39  63  89 127 175 211 284 346 407
#     4  10  19  38  67  96 138 184 225 276 343 412
#
# _framework density 24.825384
#
# number of rings (size 3 to 8) (size 9 to 14) (size 15 to 20)
#    0.000    2.182    1.818    0.545    0.000    3.636 
#    0.000   27.273    0.000    0.000    0.000    0.000 
#    0.000    0.000    0.000    0.000    0.000    0.000 
#
# Total GULP energy -122498.847860 kJ/mol
# GULP energy per Si atom -5568.129448 kJ/mol
# Density = 2.476888 g / cm^3
# Si number density = 24.825384 Si / 1000 Ang^3
#
#
#
# Elastic Constant Matrix: (Units=GPa)
#
#
# Indices 1 2 3 4 5 6 
#
# 1 69.9967 54.9665 -9.1404 0.0000 1.8099 0.0000
# 2 54.9665 174.0969 37.0006 0.0000 6.1751 0.0000
# 3 -9.1404 37.0006 86.9593 0.0000 -0.0676 0.0000
# 4 0.0000 0.0000 0.0000 18.0940 0.0000 -2.5874
# 5 1.8099 6.1751 -0.0676 0.0000 35.0009 0.0000
# 6 0.0000 0.0000 0.0000 -2.5874 0.0000 13.7733
#
#
#
# Elastic Compliance Matrix: (Units=1/GPa)
#
#
# Indices 1 2 3 4 5 6 
#
# 1 0.021207 -0.007894 0.005588 0.000000 0.000307 0.000000
# 2 -0.007894 0.009298 -0.004787 0.000000 -0.001241 0.000000
# 3 0.005588 -0.004787 0.014124 0.000000 0.000583 0.000000
# 4 0.000000 0.000000 0.000000 0.056793 0.000000 0.010669
# 5 0.000307 -0.001241 0.000583 0.000000 0.028775 0.000000
# 6 0.000000 0.000000 0.000000 0.010669 0.000000 0.074609
#
#
# Mechanical properties :
#
#
# Convention : Reuss Voigt Hill
#
# Bulk Modulus (GPa) = 32.84744 55.18959 44.01852
# Shear Modulus (GPa) = 21.82081 29.92204 25.87143
#
# Velocity S-wave (km/s) = 2.96796 3.47551 3.23172
# Velocity P-wave (km/s) = 5.00052 6.19556 5.62984
#
# Compressibility (1/GPa) = 0.03044377
#
# Stress axis : x y z
#
# Youngs Moduli (GPa) = 47.15354 107.55356 70.80016
#
# Poissons Ratio (x) = 0.84905 -0.39565
# Poissons Ratio (y) = 0.37224 0.33891
# Poissons Ratio (z) = -0.26351 0.51484
#
# Static dielectric constant tensor:
#      x y z
#    x 2.105440 0.000000 0.036350 
#    y 0.000000 1.884600 0.000000 
#    z 0.036350 0.000000 2.118320 
# 
# From -- ./inp_files/35331.got.cif
#   From: 2010.05.17/outbox.cif.g08.bks.cpg/sg13_18_cif.got.tgz:35331.got - 2010.06.03 16:44:36.
