data_PCOD9229502
_publ_section_title
;
Structure prediction by ZEFSAII (Michael W. Deem and Ramdas Pophale) SiO2 
 PCOD9229502
Probable space group: P 2/C
;
_chemical_formula_sum "Si O2"
_cell_formula_units_Z 30
_cell_length_a 25.684428
_cell_length_b 12.299210
_cell_length_c 27.737364
_cell_angle_alpha 90.000000
_cell_angle_beta 10.199240
_cell_angle_gamma 90.000000
_cell_volume 1551.534447
_symmetry_space_group_name_H-M "P 2/C"
_symmetry_group_IT_number 13
_symmetry_cell_setting 'monoclinic'
loop_
_space_group_symop_operation_xyz
x,y,z
-x,y,1/2-z
-x,-y,-z
x,-y,1/2+z
loop_
_atom_site_type_symbol
_atom_site_label
_atom_site_fract_x
_atom_site_fract_y
_atom_site_fract_z
Si Si1 0.958218 0.084790 0.994696
Si Si2 0.508023 0.782108 0.964553
Si Si3 0.743466 0.220212 0.559920
Si Si4 0.670538 0.241765 0.424723
Si Si5 0.498935 0.948492 0.143238
Si Si6 0.384898 0.451346 0.684064
Si Si7 0.000000 0.048051 0.250000
Si Si8 0.863885 0.568399 0.197930
O O1 0.756864 0.182907 0.199726
O O2 0.767222 0.025421 0.128147
O O3 0.276471 0.121939 0.686574
O O4 0.000000 0.000000 0.000000
O O5 0.286422 0.684069 0.153061
O O6 0.672277 0.753491 0.865075
O O7 0.500000 0.283637 0.750000
O O8 0.600790 0.153259 0.733451
O O9 0.032681 0.274693 0.318021
O O10 0.852961 0.127378 0.423141
O O11 0.613883 0.116123 0.491321
O O12 0.412650 0.326045 0.674632
O O13 0.748360 0.008846 0.947567
O O14 0.713824 0.490148 0.373462
O O15 0.247829 0.452081 0.755115
O O16 0.202999 0.533335 0.883384
#
# Coordination Sequence:
#
# PCOD9229502 Si02
#       8
#     4   4   4   4   4   4   2   4
#     4  12  23  34  50  78 109 150 180 214 261 326
#     4  11  23  35  51  74 111 150 183 216 265 304
#     4   9  18  33  50  72 104 140 169 218 267 318
#     4  10  20  30  51  76 107 143 172 214 262 325
#     4  10  20  32  51  72 111 135 178 214 264 319
#     4   9  18  30  51  72  96 135 176 207 255 297
#     4   8  18  34  50  70  96 140 170 222 262 308
#     4   9  18  34  47  69 101 135 177 219 241 299
#
# _framework density 19.335697
#
# number of rings (size 3 to 8) (size 9 to 14) (size 15 to 20)
#    0.000    2.133    1.333    2.000    5.600    2.133 
#    0.000    0.000    0.000    0.000    0.000    0.000 
#    8.000    0.000    0.000    0.000    0.000    0.000 
#
# Total GULP energy -167061.020024 kJ/mol
# GULP energy per Si atom -5568.700667 kJ/mol
# Density = 1.929169 g / cm^3
# Si number density = 19.335697 Si / 1000 Ang^3
#
#
#
# Elastic Constant Matrix: (Units=GPa)
#
#
# Indices 1 2 3 4 5 6 
#
# 1 54.4707 14.1430 27.6051 0.0000 -20.5184 0.0000
# 2 14.1430 40.8286 9.7931 0.0000 -7.3077 0.0000
# 3 27.6051 9.7931 90.8723 0.0000 -15.2537 0.0000
# 4 0.0000 0.0000 0.0000 21.2919 0.0000 -1.2826
# 5 -20.5184 -7.3077 -15.2537 0.0000 36.6781 0.0000
# 6 0.0000 0.0000 0.0000 -1.2826 0.0000 9.5282
#
#
#
# Elastic Compliance Matrix: (Units=1/GPa)
#
#
# Indices 1 2 3 4 5 6 
#
# 1 0.027163 -0.005967 -0.005652 0.000000 0.011656 0.000000
# 2 -0.005967 0.027062 -0.000816 0.000000 0.001714 0.000000
# 3 -0.005652 -0.000816 0.013171 0.000000 0.002153 0.000000
# 4 0.000000 0.000000 0.000000 0.047350 0.000000 0.006374
# 5 0.011656 0.001714 0.002153 0.000000 0.035022 0.000000
# 6 0.000000 0.000000 0.000000 0.006374 0.000000 0.105810
#
#
# Mechanical properties :
#
#
# Convention : Reuss Voigt Hill
#
# Bulk Modulus (GPa) = 23.51522 32.13930 27.82726
# Shear Modulus (GPa) = 16.97083 22.47498 19.72291
#
# Velocity S-wave (km/s) = 2.96580 3.41303 3.19725
# Velocity P-wave (km/s) = 4.89039 5.67359 5.29649
#
# Compressibility (1/GPa) = 0.04252565
#
# Stress axis : x y z
#
# Youngs Moduli (GPa) = 36.81505 36.95180 75.92597
#
# Poissons Ratio (x) = 0.22050 0.42912
# Poissons Ratio (y) = 0.21969 0.06195
# Poissons Ratio (z) = 0.20807 0.03015
#
# Static dielectric constant tensor:
#      x y z
#    x 1.789990 0.000000 0.032650 
#    y 0.000000 1.730740 0.000000 
#    z 0.032650 0.000000 1.798980 
# 
# From -- ./inp_files/97882.got.cif
#   From: 2010.05.17/outbox.cif.g08.bks.cpg/sg13_49_cif.got.tgz:97882.got - 2010.06.03 16:44:36.
