data_PCOD9229120
_publ_section_title
;
Structure prediction by ZEFSAII (Michael W. Deem and Ramdas Pophale) SiO2 
 PCOD9229120
Probable space group: P 2/C
;
_chemical_formula_sum "Si O2"
_cell_formula_units_Z 32
_cell_length_a 18.750236
_cell_length_b 9.668968
_cell_length_c 24.391760
_cell_angle_alpha 90.000000
_cell_angle_beta 160.257892
_cell_angle_gamma 90.000000
_cell_volume 1493.733182
_symmetry_space_group_name_H-M "P 2/C"
_symmetry_group_IT_number 13
_symmetry_cell_setting 'monoclinic'
loop_
_space_group_symop_operation_xyz
x,y,z
-x,y,1/2-z
-x,-y,-z
x,-y,1/2+z
loop_
_atom_site_type_symbol
_atom_site_label
_atom_site_fract_x
_atom_site_fract_y
_atom_site_fract_z
Si Si1 0.492380 0.923101 0.580474
Si Si2 0.750456 0.534851 0.173902
Si Si3 0.638685 0.627423 0.985364
Si Si4 0.052709 0.875731 0.613002
Si Si5 0.907103 0.238158 0.582538
Si Si6 0.659725 0.937293 0.821620
Si Si7 0.077565 0.940815 0.747417
Si Si8 0.161322 0.593170 0.649460
O O1 0.412620 0.765350 0.514737
O O2 0.722558 0.953035 0.723406
O O3 0.525373 0.922324 0.669767
O O4 0.323736 0.028220 0.435076
O O5 0.843835 0.439988 0.289380
O O6 0.883939 0.676386 0.282651
O O7 0.500000 0.500000 0.000000
O O8 0.763992 0.527004 0.117441
O O9 0.401479 0.574869 0.801711
O O10 0.774825 0.674000 0.031727
O O11 0.021660 0.846100 0.655243
O O12 0.090943 0.752180 0.598552
O O13 0.858474 0.966774 0.453811
O O14 0.757655 0.197550 0.422929
O O15 0.972781 0.091194 0.657528
O O16 0.500000 0.001853 0.750000
O O17 0.000000 0.890092 0.750000
O O18 0.000000 0.500000 0.500000
#
# Coordination Sequence:
#
# PCOD9229120 Si02
#       8
#     4   4   4   4   4   4   4   4
#     4  11  19  36  57  94 132 155 202 251 325 396
#     4  10  21  37  60  88 123 163 211 267 316 365
#     4  10  19  37  62  94 120 153 209 271 311 373
#     4  10  24  39  58  88 128 170 208 261 320 388
#     4  11  20  36  66  97 124 158 209 271 330 375
#     4  11  22  37  61  98 133 163 203 265 335 396
#     4  11  19  37  63  95 126 160 202 267 332 385
#     4  10  24  44  61  84 125 172 222 263 308 377
#
# _framework density 21.422836
#
# number of rings (size 3 to 8) (size 9 to 14) (size 15 to 20)
#    0.000    1.500    3.750    1.875    3.500    0.000 
#    0.000    3.750    0.000    0.000    0.000    0.000 
#    0.000    0.000    0.000    0.000    0.000    0.000 
#
# Total GULP energy -178338.010576 kJ/mol
# GULP energy per Si atom -5573.062831 kJ/mol
# Density = 2.137408 g / cm^3
# Si number density = 21.422836 Si / 1000 Ang^3
#
#
#
# Elastic Constant Matrix: (Units=GPa)
#
#
# Indices 1 2 3 4 5 6 
#
# 1 91.0456 22.7416 22.6315 0.0000 -7.0812 0.0000
# 2 22.7416 34.6828 38.2032 0.0000 1.8992 0.0000
# 3 22.6315 38.2032 126.9289 0.0000 -0.8291 0.0000
# 4 0.0000 0.0000 0.0000 34.9090 0.0000 -0.3345
# 5 -7.0812 1.8992 -0.8291 0.0000 36.1392 0.0000
# 6 0.0000 0.0000 0.0000 -0.3345 0.0000 26.1534
#
#
#
# Elastic Compliance Matrix: (Units=1/GPa)
#
#
# Indices 1 2 3 4 5 6 
#
# 1 0.013496 -0.009566 0.000493 0.000000 0.003158 0.000000
# 2 -0.009566 0.050152 -0.013421 0.000000 -0.004818 0.000000
# 3 0.000493 -0.013421 0.011837 0.000000 0.001074 0.000000
# 4 0.000000 0.000000 0.000000 0.028649 0.000000 0.000366
# 5 0.003158 -0.004818 0.001074 0.000000 0.028567 0.000000
# 6 0.000000 0.000000 0.000000 0.000366 0.000000 0.038241
#
#
# Mechanical properties :
#
#
# Convention : Reuss Voigt Hill
#
# Bulk Modulus (GPa) = 32.78850 46.64555 39.71702
# Shear Modulus (GPa) = 22.11474 30.71238 26.41356
#
# Velocity S-wave (km/s) = 3.21642 3.79044 3.51517
# Velocity P-wave (km/s) = 5.39745 6.40137 5.92073
#
# Compressibility (1/GPa) = 0.03049850
#
# Stress axis : x y z
#
# Youngs Moduli (GPa) = 74.09689 19.93958 84.48231
#
# Poissons Ratio (x) = 0.19074 -0.04168
# Poissons Ratio (y) = 0.70879 1.13380
# Poissons Ratio (z) = -0.03656 0.26760
#
# Static dielectric constant tensor:
#      x y z
#    x 1.859410 0.000000 0.011020 
#    y 0.000000 1.820880 0.000000 
#    z 0.011020 0.000000 1.800480 
# 
# From -- ./inp_files/88183.got.cif
#   From: 2010.05.17/outbox.cif.g08.bks.cpg/sg13_45_cif.got.tgz:88183.got - 2010.06.03 16:44:36.
