data_PCOD9229289
_publ_section_title
;
Structure prediction by ZEFSAII (Michael W. Deem and Ramdas Pophale) SiO2 
 PCOD9229289
Probable space group: P 2/C
;
_chemical_formula_sum "Si O2"
_cell_formula_units_Z 20
_cell_length_a 10.376296
_cell_length_b 10.018075
_cell_length_c 13.410434
_cell_angle_alpha 90.000000
_cell_angle_beta 42.207247
_cell_angle_gamma 90.000000
_cell_volume 936.523539
_symmetry_space_group_name_H-M "P 2/C"
_symmetry_group_IT_number 13
_symmetry_cell_setting 'monoclinic'
loop_
_space_group_symop_operation_xyz
x,y,z
-x,y,1/2-z
-x,-y,-z
x,-y,1/2+z
loop_
_atom_site_type_symbol
_atom_site_label
_atom_site_fract_x
_atom_site_fract_y
_atom_site_fract_z
Si Si1 0.282978 0.992834 0.899499
Si Si2 0.461178 0.494505 0.887540
Si Si3 0.158590 0.252090 0.071755
Si Si4 0.050876 0.803889 0.416677
Si Si5 0.803602 0.593871 0.321143
O O1 0.500000 0.964906 0.750000
O O2 0.188175 0.069470 0.858978
O O3 0.253108 0.104654 0.002838
O O4 0.155580 0.863296 0.988343
O O5 0.500000 0.503436 0.750000
O O6 0.663486 0.487535 0.828254
O O7 0.329328 0.361513 0.983189
O O8 0.333613 0.612880 0.005569
O O9 0.000000 0.248649 0.250000
O O10 0.061241 0.273606 0.017379
O O11 0.130793 0.718338 0.280981
O O12 0.000000 0.530970 0.250000
#
# Coordination Sequence:
#
# PCOD9229289 Si02
#       5
#     4   4   4   4   4
#     4   9  18  38  67  92 131 176 216 269 328 385
#     4  11  22  44  69  91 128 182 221 259 332 406
#     4  10  19  38  66  94 126 180 222 258 319 404
#     4   9  20  40  63  96 137 167 219 276 323 386
#     4  11  24  42  64  99 130 169 215 284 325 380
#
# _framework density 21.355577
#
# number of rings (size 3 to 8) (size 9 to 14) (size 15 to 20)
#    1.200    0.800    2.000    2.400    0.000    1.600 
#   10.800    1.000    0.000    0.000    0.000    0.000 
#    0.000    0.000    0.000    0.000    0.000    0.000 
#
# Total GULP energy -111466.134934 kJ/mol
# GULP energy per Si atom -5573.306747 kJ/mol
# Density = 2.130697 g / cm^3
# Si number density = 21.355577 Si / 1000 Ang^3
#
#
#
# Elastic Constant Matrix: (Units=GPa)
#
#
# Indices 1 2 3 4 5 6 
#
# 1 119.0442 49.6246 88.8789 0.0000 -9.7839 0.0000
# 2 49.6246 73.6512 60.6214 0.0000 -1.6247 0.0000
# 3 88.8789 60.6214 196.3388 0.0000 -7.9939 0.0000
# 4 0.0000 0.0000 0.0000 26.2312 0.0000 -6.1011
# 5 -9.7839 -1.6247 -7.9939 0.0000 34.2758 0.0000
# 6 0.0000 0.0000 0.0000 -6.1011 0.0000 -7.4411
#
#
#
# Elastic Compliance Matrix: (Units=1/GPa)
#
#
# Indices 1 2 3 4 5 6 
#
# 1 0.014576 -0.005929 -0.004654 0.000000 0.002794 0.000000
# 2 -0.005929 0.020622 -0.003748 0.000000 -0.001589 0.000000
# 3 -0.004654 -0.003748 0.008375 0.000000 0.000447 0.000000
# 4 0.000000 0.000000 0.000000 0.032017 0.000000 -0.026251
# 5 0.002794 -0.001589 0.000447 0.000000 0.030002 0.000000
# 6 0.000000 0.000000 0.000000 -0.026251 0.000000 -0.112865
#
#
# Mechanical properties :
#
#
# Convention : Reuss Voigt Hill
#
# Bulk Modulus (GPa) = 67.06028 87.47599 77.26813
# Shear Modulus (GPa) = 189.68328 23.27380 106.47854
#
# Velocity S-wave (km/s) = 9.43474 3.30483 7.06881
# Velocity P-wave (km/s) = 12.25380 7.45742 10.14319
#
# Compressibility (1/GPa) = 0.01491196
#
# Stress axis : x y z
#
# Youngs Moduli (GPa) = 68.60596 48.49145 119.39604
#
# Poissons Ratio (x) = 0.28749 0.55566
# Poissons Ratio (y) = 0.40675 0.44752
# Poissons Ratio (z) = 0.31929 0.18175
#
# Static dielectric constant tensor:
#      x y z
#    x 1.799850 0.000000 -0.001240 
#    y 0.000000 1.809970 0.000000 
#    z -0.001240 0.000000 1.763650 
# 
# From -- ./inp_files/51064.got.cif
#   From: 2010.05.17/outbox.cif.g08.bks.cpg/sg13_26_cif.got.tgz:51064.got - 2010.06.03 16:44:36.
