data_PCOD9229874
_publ_section_title
;
Structure prediction by ZEFSAII (Michael W. Deem and Ramdas Pophale) SiO2 
 PCOD9229874
Probable space group: P 2/C
;
_chemical_formula_sum "Si O2"
_cell_formula_units_Z 26
_cell_length_a 8.145222
_cell_length_b 22.557413
_cell_length_c 9.211880
_cell_angle_alpha 90.000000
_cell_angle_beta 128.042983
_cell_angle_gamma 90.000000
_cell_volume 1332.962368
_symmetry_space_group_name_H-M "P 2/C"
_symmetry_group_IT_number 13
_symmetry_cell_setting 'monoclinic'
loop_
_space_group_symop_operation_xyz
x,y,z
-x,y,1/2-z
-x,-y,-z
x,-y,1/2+z
loop_
_atom_site_type_symbol
_atom_site_label
_atom_site_fract_x
_atom_site_fract_y
_atom_site_fract_z
Si Si1 0.549297 0.855247 0.505634
Si Si2 0.500000 0.772039 0.750000
Si Si3 0.756453 0.434712 0.639254
Si Si4 0.500000 0.770931 0.250000
Si Si5 0.831492 0.952297 0.779599
Si Si6 0.500000 0.498661 0.750000
Si Si7 0.134526 0.916472 0.178895
Si Si8 0.242993 0.292780 0.869548
O O1 0.570378 0.816250 0.661109
O O2 0.640939 0.813808 0.428873
O O3 0.649203 0.917335 0.602416
O O4 0.320678 0.871823 0.319155
O O5 0.344055 0.730673 0.574187
O O6 0.655521 0.460235 0.732771
O O7 0.630006 0.461846 0.434703
O O8 0.739721 0.363635 0.630923
O O9 0.000000 0.450462 0.750000
O O10 0.637145 0.734544 0.206452
O O11 0.000000 0.965148 0.750000
O O12 0.773558 0.017401 0.807423
O O13 0.956484 0.910289 0.959360
O O14 0.000000 0.916245 0.250000
O O15 0.000000 0.275948 0.750000
#
# Coordination Sequence:
#
# PCOD9229874 Si02
#       8
#     4   2   4   2   4   2   4   4
#     4  11  21  36  56  78 108 140 181 241 287 336
#     4  10  23  36  55  83 106 147 204 238 282 342
#     4  10  20  36  60  88 122 161 195 231 287 336
#     4  10  23  38  57  85 108 145 202 236 278 338
#     4  10  21  35  53  77 105 137 175 222 287 358
#     4  10  20  34  60  96 128 152 190 246 276 330
#     4  10  21  36  54  78 105 138 177 221 287 361
#     4  10  22  42  61  81 118 160 194 239 284 330
#
# _framework density 19.505426
#
# number of rings (size 3 to 8) (size 9 to 14) (size 15 to 20)
#    0.000    1.846    0.000    3.692    0.000    6.154 
#    0.000    8.462    0.000   12.923    0.000    0.000 
#    0.000    0.000    0.000    0.000    0.000    0.000 
#
# Total GULP energy -144790.369223 kJ/mol
# GULP energy per Si atom -5568.860355 kJ/mol
# Density = 1.946103 g / cm^3
# Si number density = 19.505426 Si / 1000 Ang^3
#
#
#
# Elastic Constant Matrix: (Units=GPa)
#
#
# Indices 1 2 3 4 5 6 
#
# 1 107.6268 40.8217 73.7177 0.0000 -9.9043 0.0000
# 2 40.8217 63.1267 52.3194 0.0000 2.3518 0.0000
# 3 73.7177 52.3194 141.4967 0.0000 -12.6527 0.0000
# 4 0.0000 0.0000 0.0000 35.4272 0.0000 10.4573
# 5 -9.9043 2.3518 -12.6527 0.0000 34.2758 0.0000
# 6 0.0000 0.0000 0.0000 10.4573 0.0000 72.2324
#
#
#
# Elastic Compliance Matrix: (Units=1/GPa)
#
#
# Indices 1 2 3 4 5 6 
#
# 1 0.015606 -0.005265 -0.005945 0.000000 0.002676 0.000000
# 2 -0.005265 0.025422 -0.007186 0.000000 -0.005918 0.000000
# 3 -0.005945 -0.007186 0.013146 0.000000 0.003628 0.000000
# 4 0.000000 0.000000 0.000000 0.029487 0.000000 -0.004269
# 5 0.002676 -0.005918 0.003628 0.000000 0.031694 0.000000
# 6 0.000000 0.000000 0.000000 -0.004269 0.000000 0.014462
#
#
# Mechanical properties :
#
#
# Convention : Reuss Voigt Hill
#
# Bulk Modulus (GPa) = 57.52779 71.77420 64.65100
# Shear Modulus (GPa) = 29.00173 38.07983 33.54078
#
# Velocity S-wave (km/s) = 3.86016 4.42324 4.15126
# Velocity P-wave (km/s) = 7.03029 7.93497 7.49629
#
# Compressibility (1/GPa) = 0.01738290
#
# Stress axis : x y z
#
# Youngs Moduli (GPa) = 64.07698 39.33556 76.06868
#
# Poissons Ratio (x) = 0.20709 0.45220
# Poissons Ratio (y) = 0.33735 0.54666
# Poissons Ratio (z) = 0.38091 0.28268
#
# Static dielectric constant tensor:
#      x y z
#    x 1.702870 0.000000 -0.009790 
#    y 0.000000 1.734000 0.000000 
#    z -0.009790 0.000000 1.974910 
# 
# From -- ./inp_files/13693.got.cif
#   From: 2010.05.17/outbox.cif.g08.bks.cpg/sg13_7_cif.got.tgz:13693.got - 2010.06.03 16:44:36.
