data_PCOD9229779
_publ_section_title
;
Structure prediction by ZEFSAII (Michael W. Deem and Ramdas Pophale) SiO2 
 PCOD9229779
Probable space group: P 2/C
;
_chemical_formula_sum "Si O2"
_cell_formula_units_Z 24
_cell_length_a 9.194641
_cell_length_b 9.215618
_cell_length_c 11.760248
_cell_angle_alpha 90.000000
_cell_angle_beta 92.306361
_cell_angle_gamma 90.000000
_cell_volume 995.689143
_symmetry_space_group_name_H-M "P 2/C"
_symmetry_group_IT_number 13
_symmetry_cell_setting 'monoclinic'
loop_
_space_group_symop_operation_xyz
x,y,z
-x,y,1/2-z
-x,-y,-z
x,-y,1/2+z
loop_
_atom_site_type_symbol
_atom_site_label
_atom_site_fract_x
_atom_site_fract_y
_atom_site_fract_z
Si Si1 0.849714 0.283602 0.624341
Si Si2 0.651981 0.897381 0.294589
Si Si3 0.360218 0.314117 0.497161
Si Si4 0.943395 0.034773 0.872025
Si Si5 0.844787 0.621556 0.694271
Si Si6 0.336843 0.357252 0.089475
O O1 0.737901 0.187750 0.696894
O O2 0.855526 0.450028 0.664285
O O3 0.782519 0.286202 0.496653
O O4 0.006139 0.205185 0.631698
O O5 0.500000 0.962434 0.250000
O O6 0.619247 0.783358 0.392466
O O7 0.772978 0.997415 0.355685
O O8 0.214974 0.292582 0.417417
O O9 0.503100 0.293830 0.424639
O O10 0.350695 0.477719 0.543569
O O11 0.000000 0.978603 0.750000
O O12 0.000000 0.000000 0.000000
O O13 0.722796 0.638818 0.786245
O O14 0.000000 0.663562 0.750000
#
# Coordination Sequence:
#
# PCOD9229779 Si02
#       6
#     4   4   4   4   4   4
#     4  10  21  38  61  88 128 172 212 262 317 385
#     4  11  20  39  67  94 120 168 215 255 321 395
#     4  10  21  33  56  88 128 173 204 251 301 382
#     4  10  24  47  72  94 124 167 219 287 347 387
#     4  11  22  33  52  87 132 178 213 252 299 375
#     4  10  20  34  55  87 133 170 210 246 304 373
#
# _framework density 24.103909000000002
#
# number of rings (size 3 to 8) (size 9 to 14) (size 15 to 20)
#    0.000    1.667    3.333    2.000    2.333    1.333 
#    3.000    3.333    0.000    0.000    0.000    0.000 
#    0.000    0.000    0.000    0.000    0.000    0.000 
#
# Total GULP energy -134142.338225 kJ/mol
# GULP energy per Si atom -5589.264093 kJ/mol
# Density = 2.404905 g / cm^3
# Si number density = 24.103909 Si / 1000 Ang^3
#
#
#
# Elastic Constant Matrix: (Units=GPa)
#
#
# Indices 1 2 3 4 5 6 
#
# 1 120.3148 2.4566 25.3091 0.0000 24.5509 0.0000
# 2 2.4566 50.7431 21.5778 0.0000 -0.7521 0.0000
# 3 25.3091 21.5778 123.0474 0.0000 21.1075 0.0000
# 4 0.0000 0.0000 0.0000 21.6921 0.0000 17.5923
# 5 24.5509 -0.7521 21.1075 0.0000 46.3281 0.0000
# 6 0.0000 0.0000 0.0000 17.5923 0.0000 2.4465
#
#
#
# Elastic Compliance Matrix: (Units=1/GPa)
#
#
# Indices 1 2 3 4 5 6 
#
# 1 0.009475 -0.000026 -0.001175 0.000000 -0.004486 0.000000
# 2 -0.000026 0.021508 -0.004153 0.000000 0.002255 0.000000
# 3 -0.001175 -0.004153 0.009765 0.000000 -0.003894 0.000000
# 4 0.000000 0.000000 0.000000 -0.009541 0.000000 0.068608
# 5 -0.004486 0.002255 -0.003894 0.000000 0.025773 0.000000
# 6 0.000000 0.000000 0.000000 0.068608 0.000000 -0.084597
#
#
# Mechanical properties :
#
#
# Convention : Reuss Voigt Hill
#
# Bulk Modulus (GPa) = 33.28883 43.64361 38.46622
# Shear Modulus (GPa) = -724.97339 30.41078 -347.28130
#
# Velocity S-wave (km/s) = -17.36154 3.55583 -12.01622
# Velocity P-wave (km/s) = 19.69916 5.91644 13.28632
#
# Compressibility (1/GPa) = 0.03004011
#
# Stress axis : x y z
#
# Youngs Moduli (GPa) = 105.54551 46.49455 102.40823
#
# Poissons Ratio (x) = 0.00119 0.12030
# Poissons Ratio (y) = 0.00271 0.42532
# Poissons Ratio (z) = 0.12399 0.19310
#
# Static dielectric constant tensor:
#      x y z
#    x 1.934900 0.000000 0.005670 
#    y 0.000000 1.973270 0.000000 
#    z 0.005670 0.000000 1.900800 
# 
# From -- ./inp_files/29433.got.cif
#   From: 2010.05.17/outbox.cif.g08.bks.cpg/sg13_15_cif.got.tgz:29433.got - 2010.06.03 16:44:36.
