data_PCOD9229039
_publ_section_title
;
Structure prediction by ZEFSAII (Michael W. Deem and Ramdas Pophale) SiO2 
 PCOD9229039
Probable space group: P 2/C
;
_chemical_formula_sum "Si O2"
_cell_formula_units_Z 28
_cell_length_a 14.509463
_cell_length_b 10.013230
_cell_length_c 19.978057
_cell_angle_alpha 90.000000
_cell_angle_beta 28.158484
_cell_angle_gamma 90.000000
_cell_volume 1369.745404
_symmetry_space_group_name_H-M "P 2/C"
_symmetry_group_IT_number 13
_symmetry_cell_setting 'monoclinic'
loop_
_space_group_symop_operation_xyz
x,y,z
-x,y,1/2-z
-x,-y,-z
x,-y,1/2+z
loop_
_atom_site_type_symbol
_atom_site_label
_atom_site_fract_x
_atom_site_fract_y
_atom_site_fract_z
Si Si1 0.084560 0.127408 0.372740
Si Si2 0.500000 0.474532 0.750000
Si Si3 0.000000 0.628891 0.250000
Si Si4 0.286704 0.592443 0.176120
Si Si5 0.312812 0.715725 0.948824
Si Si6 0.402600 0.294058 0.115341
Si Si7 0.717764 0.032847 0.122974
Si Si8 0.127925 0.634341 0.414089
O O1 0.218397 0.196052 0.230468
O O2 0.213840 0.042612 0.343344
O O3 0.992867 0.250457 0.473058
O O4 0.895068 0.043635 0.472938
O O5 0.375656 0.573248 0.877940
O O6 0.662333 0.389778 0.685304
O O7 0.841683 0.553272 0.306672
O O8 0.878224 0.708771 0.382930
O O9 0.351750 0.449259 0.162839
O O10 0.168356 0.662808 0.310497
O O11 0.457677 0.687159 0.038309
O O12 0.478777 0.755518 0.895786
O O13 0.292130 0.819772 0.902555
O O14 0.500000 0.975261 0.250000
O O15 0.000000 0.500000 0.500000
#
# Coordination Sequence:
#
# PCOD9229039 Si02
#       8
#     4   2   2   4   4   4   4   4
#     4  11  23  38  62  92 124 165 212 269 308 370
#     4  12  22  34  62  90 126 168 200 260 330 382
#     4  10  22  32  62  92 120 162 208 250 314 384
#     4  10  20  35  58  91 129 162 197 251 316 397
#     4  11  19  38  61  87 119 163 212 254 300 383
#     4  10  19  37  58  88 125 163 201 249 318 370
#     4  11  22  39  66  87 119 169 225 259 307 367
#     4  12  22  38  60  97 132 162 205 262 326 388
#
# _framework density 20.441754
#
# number of rings (size 3 to 8) (size 9 to 14) (size 15 to 20)
#    0.000    1.143    5.000    2.571    1.000    0.000 
#    0.000    0.000    3.143    3.429    0.000    0.000 
#    0.000    0.000    0.000    0.000    0.000    0.000 
#
# Total GULP energy -156215.905347 kJ/mol
# GULP energy per Si atom -5579.139477 kJ/mol
# Density = 2.039523 g / cm^3
# Si number density = 20.441754 Si / 1000 Ang^3
#
#
#
# Elastic Constant Matrix: (Units=GPa)
#
#
# Indices 1 2 3 4 5 6 
#
# 1 82.4992 13.0859 35.0185 0.0000 -24.2617 0.0000
# 2 13.0859 32.0847 15.9723 0.0000 -13.7349 0.0000
# 3 35.0185 15.9723 127.5099 0.0000 -5.1084 0.0000
# 4 0.0000 0.0000 0.0000 25.5296 0.0000 -0.4052
# 5 -24.2617 -13.7349 -5.1084 0.0000 39.2112 0.0000
# 6 0.0000 0.0000 0.0000 -0.4052 0.0000 17.9648
#
#
#
# Elastic Compliance Matrix: (Units=1/GPa)
#
#
# Indices 1 2 3 4 5 6 
#
# 1 0.016822 -0.000672 -0.004150 0.000000 0.009633 0.000000
# 2 -0.000672 0.038956 -0.004187 0.000000 0.012684 0.000000
# 3 -0.004150 -0.004187 0.009394 0.000000 -0.002811 0.000000
# 4 0.000000 0.000000 0.000000 0.039184 0.000000 0.000884
# 5 0.009633 0.012684 -0.002811 0.000000 0.035540 0.000000
# 6 0.000000 0.000000 0.000000 0.000884 0.000000 0.055684
#
#
# Mechanical properties :
#
#
# Convention : Reuss Voigt Hill
#
# Bulk Modulus (GPa) = 21.20666 41.13857 31.17262
# Shear Modulus (GPa) = 21.80396 28.40893 25.10644
#
# Velocity S-wave (km/s) = 3.26949 3.73198 3.50836
# Velocity P-wave (km/s) = 4.96482 6.22404 5.62975
#
# Compressibility (1/GPa) = 0.04715500
#
# Stress axis : x y z
#
# Youngs Moduli (GPa) = 59.44519 25.67014 106.44947
#
# Poissons Ratio (x) = 0.01724 0.44176
# Poissons Ratio (y) = 0.03992 0.44572
# Poissons Ratio (z) = 0.24669 0.10748
#
# Static dielectric constant tensor:
#      x y z
#    x 2.114990 0.000000 -0.292600 
#    y 0.000000 1.714320 0.000000 
#    z -0.292600 0.000000 1.977150 
# 
# From -- ./inp_files/79981.got.cif
#   From: 2010.05.17/outbox.cif.g08.bks.cpg/sg13_40_cif.got.tgz:79981.got - 2010.06.03 16:44:36.
