data_PCOD9229395
_publ_section_title
;
Structure prediction by ZEFSAII (Michael W. Deem and Ramdas Pophale) SiO2 
 PCOD9229395
Probable space group: P 2/C
;
_chemical_formula_sum "Si O2"
_cell_formula_units_Z 28
_cell_length_a 14.672792
_cell_length_b 7.948867
_cell_length_c 19.080947
_cell_angle_alpha 90.000000
_cell_angle_beta 145.279059
_cell_angle_gamma 90.000000
_cell_volume 1267.571965
_symmetry_space_group_name_H-M "P 2/C"
_symmetry_group_IT_number 13
_symmetry_cell_setting 'monoclinic'
loop_
_space_group_symop_operation_xyz
x,y,z
-x,y,1/2-z
-x,-y,-z
x,-y,1/2+z
loop_
_atom_site_type_symbol
_atom_site_label
_atom_site_fract_x
_atom_site_fract_y
_atom_site_fract_z
Si Si1 0.373424 0.120791 0.731022
Si Si2 0.977586 0.585001 0.315448
Si Si3 0.856900 0.317074 0.994368
Si Si4 0.801510 0.163983 0.313273
Si Si5 0.674562 0.140916 0.009018
Si Si6 0.345253 0.400445 0.377267
Si Si7 0.877468 0.955160 0.224007
O O1 0.500000 0.087694 0.750000
O O2 0.272826 0.287291 0.648336
O O3 0.488242 0.139715 0.870237
O O4 0.255643 0.961865 0.662979
O O5 0.802065 0.526084 0.226247
O O6 0.966492 0.784768 0.301657
O O7 0.000000 0.521456 0.250000
O O8 0.106738 0.497810 0.447720
O O9 0.028196 0.256743 0.072088
O O10 0.781630 0.200930 0.009821
O O11 0.661752 0.289334 0.198131
O O12 0.834730 0.043820 0.268155
O O13 0.695923 0.275551 0.084498
O O14 0.723911 0.962004 0.075458
O O15 0.500000 0.500000 0.500000
O O16 0.000000 0.052514 0.250000
#
# Coordination Sequence:
#
# PCOD9229395 Si02
#       7
#     4   4   4   4   4   4   4
#     4  10  23  38  60  85 121 169 214 251 302 380
#     4  10  20  35  60  89 120 156 200 260 316 369
#     4  10  19  40  61  85 118 165 211 245 315 375
#     4  10  21  37  65  88 121 160 210 258 311 374
#     4  10  20  37  62  87 125 161 202 254 317 379
#     4  10  22  34  59  91 126 155 196 258 323 375
#     4  10  20  34  62  96 118 147 201 264 314 368
#
# _framework density 22.089475
#
# number of rings (size 3 to 8) (size 9 to 14) (size 15 to 20)
#    0.000    2.000    2.857    0.429    4.000    1.143 
#    0.000    0.714    3.143    0.857    0.000    0.000 
#    0.000    0.000    0.000    0.000    0.000    0.000 
#
# Total GULP energy -156012.906043 kJ/mol
# GULP energy per Si atom -5571.889502 kJ/mol
# Density = 2.203920 g / cm^3
# Si number density = 22.089475 Si / 1000 Ang^3
#
#
#
# Elastic Constant Matrix: (Units=GPa)
#
#
# Indices 1 2 3 4 5 6 
#
# 1 37.4227 16.1100 17.4068 0.0000 11.0775 0.0000
# 2 16.1100 67.2029 31.5540 0.0000 5.7735 0.0000
# 3 17.4068 31.5540 105.3844 0.0000 0.5809 0.0000
# 4 0.0000 0.0000 0.0000 34.8042 0.0000 3.8083
# 5 11.0775 5.7735 0.5809 0.0000 20.8862 0.0000
# 6 0.0000 0.0000 0.0000 3.8083 0.0000 17.8798
#
#
#
# Elastic Compliance Matrix: (Units=1/GPa)
#
#
# Indices 1 2 3 4 5 6 
#
# 1 0.036169 -0.005114 -0.004346 0.000000 -0.017648 0.000000
# 2 -0.005114 0.018500 -0.004682 0.000000 -0.002271 0.000000
# 3 -0.004346 -0.004682 0.011591 0.000000 0.003277 0.000000
# 4 0.000000 0.000000 0.000000 0.029418 0.000000 -0.006266
# 5 -0.017648 -0.002271 0.003277 0.000000 0.057775 0.000000
# 6 0.000000 0.000000 0.000000 -0.006266 0.000000 0.057263
#
#
# Mechanical properties :
#
#
# Convention : Reuss Voigt Hill
#
# Bulk Modulus (GPa) = 26.33235 37.79463 32.06349
# Shear Modulus (GPa) = 19.86831 24.37665 22.12248
#
# Velocity S-wave (km/s) = 3.00233 3.32556 3.16807
# Velocity P-wave (km/s) = 4.89544 5.64737 5.28479
#
# Compressibility (1/GPa) = 0.03797611
#
# Stress axis : x y z
#
# Youngs Moduli (GPa) = 27.64830 54.05506 86.27626
#
# Poissons Ratio (x) = 0.27642 0.37493
# Poissons Ratio (y) = 0.14139 0.40394
# Poissons Ratio (z) = 0.12015 0.25308
#
# Static dielectric constant tensor:
#      x y z
#    x 1.826510 0.000000 -0.009400 
#    y 0.000000 1.879110 0.000000 
#    z -0.009400 0.000000 1.901380 
# 
# From -- ./inp_files/79991.got.cif
#   From: 2010.05.17/outbox.cif.g08.bks.cpg/sg13_40_cif.got.tgz:79991.got - 2010.06.03 16:44:36.
