data_PCOD9229393
_publ_section_title
;
Structure prediction by ZEFSAII (Michael W. Deem and Ramdas Pophale) SiO2 
 PCOD9229393
Probable space group: P 2/C
;
_chemical_formula_sum "Si O2"
_cell_formula_units_Z 28
_cell_length_a 11.565314
_cell_length_b 8.756495
_cell_length_c 15.477707
_cell_angle_alpha 90.000000
_cell_angle_beta 109.368199
_cell_angle_gamma 90.000000
_cell_volume 1478.745341
_symmetry_space_group_name_H-M "P 2/C"
_symmetry_group_IT_number 13
_symmetry_cell_setting 'monoclinic'
loop_
_space_group_symop_operation_xyz
x,y,z
-x,y,1/2-z
-x,-y,-z
x,-y,1/2+z
loop_
_atom_site_type_symbol
_atom_site_label
_atom_site_fract_x
_atom_site_fract_y
_atom_site_fract_z
Si Si1 0.856770 0.630382 0.548035
Si Si2 0.739241 0.841019 0.962744
Si Si3 0.007847 0.677959 0.417892
Si Si4 0.500000 0.559604 0.750000
Si Si5 0.000000 0.133417 0.750000
Si Si6 0.400482 0.469971 0.048144
Si Si7 0.633588 0.859234 0.756207
Si Si8 0.219681 0.930451 0.876042
O O1 0.950720 0.494335 0.595541
O O2 0.723779 0.556025 0.505190
O O3 0.840561 0.771996 0.607714
O O4 0.906813 0.681749 0.467214
O O5 0.636244 0.709607 0.952556
O O6 0.724301 0.889029 0.859079
O O7 0.870519 0.761776 0.014039
O O8 0.728170 0.979317 0.027623
O O9 0.963955 0.762573 0.321922
O O10 0.547700 0.476156 0.846314
O O11 0.607611 0.676359 0.746860
O O12 0.887485 0.032299 0.690938
O O13 0.500000 0.500000 0.000000
O O14 0.500000 0.924276 0.750000
O O15 0.681924 0.908340 0.675532
#
# Coordination Sequence:
#
# PCOD9229393 Si02
#       8
#     4   4   4   2   2   4   4   4
#     4  10  22  38  65  89 118 159 205 250 307 370
#     4   9  21  39  62  80 128 160 190 264 306 357
#     4   9  21  44  57  89 123 157 199 257 308 356
#     4   8  18  38  56  82 114 158 194 252 296 350
#     4  10  24  40  60  88 126 158 200 252 306 368
#     4  10  19  40  60  86 118 163 200 251 309 363
#     4   9  20  38  58  88 118 158 201 246 301 362
#     4  11  23  38  62  95 115 165 205 245 315 372
#
# _framework density 18.93497
#
# number of rings (size 3 to 8) (size 9 to 14) (size 15 to 20)
#    0.429    2.000    0.000    0.857    4.000    2.286 
#   15.429    0.000    0.000    0.000    0.000    0.000 
#    0.000    0.000    0.000    0.000    0.000    0.000 
#
# Total GULP energy -156134.032941 kJ/mol
# GULP energy per Si atom -5576.215462 kJ/mol
# Density = 1.889187 g / cm^3
# Si number density = 18.934970 Si / 1000 Ang^3
#
#
#
# Elastic Constant Matrix: (Units=GPa)
#
#
# Indices 1 2 3 4 5 6 
#
# 1 97.9218 28.8935 27.9975 0.0000 -35.0947 0.0000
# 2 28.8935 66.6124 50.1707 0.0000 -21.5724 0.0000
# 3 27.9975 50.1707 88.9924 0.0000 -9.0091 0.0000
# 4 0.0000 0.0000 0.0000 19.7375 0.0000 -7.5968
# 5 -35.0947 -21.5724 -9.0091 0.0000 29.5233 0.0000
# 6 0.0000 0.0000 0.0000 -7.5968 0.0000 11.0145
#
#
#
# Elastic Compliance Matrix: (Units=1/GPa)
#
#
# Indices 1 2 3 4 5 6 
#
# 1 0.019345 0.003683 -0.005739 0.000000 0.023935 0.000000
# 2 0.003683 0.035399 -0.018629 0.000000 0.024559 0.000000
# 3 -0.005739 -0.018629 0.022161 0.000000 -0.013672 0.000000
# 4 0.000000 0.000000 0.000000 0.068975 0.000000 0.047573
# 5 0.023935 0.024559 -0.013672 0.000000 0.076097 0.000000
# 6 0.000000 0.000000 0.000000 0.047573 0.000000 0.123600
#
#
# Mechanical properties :
#
#
# Convention : Reuss Voigt Hill
#
# Bulk Modulus (GPa) = 28.14202 51.96111 40.05157
# Shear Modulus (GPa) = 12.53783 21.81938 17.17860
#
# Velocity S-wave (km/s) = 2.57602 3.39828 3.01531
# Velocity P-wave (km/s) = 4.87264 6.54975 5.77243
#
# Compressibility (1/GPa) = 0.03553405
#
# Stress axis : x y z
#
# Youngs Moduli (GPa) = 51.69393 28.24913 45.12428
#
# Poissons Ratio (x) = -0.10405 0.25898
# Poissons Ratio (y) = -0.19040 0.84064
# Poissons Ratio (z) = 0.29669 0.52626
#
# Static dielectric constant tensor:
#      x y z
#    x 1.666960 0.000000 -0.014260 
#    y 0.000000 1.680730 0.000000 
#    z -0.014260 0.000000 1.673800 
# 
# From -- ./inp_files/50115.got.cif
#   From: 2010.05.17/outbox.cif.g08.bks.cpg/sg13_26_cif.got.tgz:50115.got - 2010.06.03 16:44:36.
