data_PCOD9229962
_publ_section_title
;
Structure prediction by ZEFSAII (Michael W. Deem and Ramdas Pophale) SiO2 
 PCOD9229962
Probable space group: P 2/C
;
_chemical_formula_sum "Si O2"
_cell_formula_units_Z 30
_cell_length_a 12.349899
_cell_length_b 14.508132
_cell_length_c 11.640787
_cell_angle_alpha 90.000000
_cell_angle_beta 36.241109
_cell_angle_gamma 90.000000
_cell_volume 1233.048858
_symmetry_space_group_name_H-M "P 2/C"
_symmetry_group_IT_number 13
_symmetry_cell_setting 'monoclinic'
loop_
_space_group_symop_operation_xyz
x,y,z
-x,y,1/2-z
-x,-y,-z
x,-y,1/2+z
loop_
_atom_site_type_symbol
_atom_site_label
_atom_site_fract_x
_atom_site_fract_y
_atom_site_fract_z
Si Si1 0.982829 0.936913 0.631116
Si Si2 0.495939 0.694466 0.959754
Si Si3 0.150990 0.352490 0.879664
Si Si4 0.367499 0.919064 0.263507
Si Si5 0.612722 0.116299 0.341830
Si Si6 0.791852 0.428501 0.135249
Si Si7 0.000000 0.499812 0.750000
Si Si8 0.322849 0.632653 0.466086
O O1 0.000000 0.973174 0.750000
O O2 0.790195 0.888294 0.773228
O O3 0.167811 0.879829 0.457342
O O4 0.000000 0.000000 0.500000
O O5 0.570782 0.783363 0.829832
O O6 0.585683 0.605094 0.825078
O O7 0.280419 0.690125 0.171309
O O8 0.589746 0.692030 0.007204
O O9 0.188991 0.464340 0.841521
O O10 0.219654 0.322598 0.946494
O O11 0.932645 0.349876 0.061175
O O12 0.500000 0.886713 0.250000
O O13 0.365456 0.031867 0.264978
O O14 0.440865 0.899614 0.073940
O O15 0.881317 0.437285 0.933964
O O16 0.165982 0.565843 0.651537
O O17 0.500000 0.587304 0.250000
#
# Coordination Sequence:
#
# PCOD9229962 Si02
#       8
#     4   4   4   4   4   4   2   4
#     4  10  20  39  65  95 123 162 214 260 312 382
#     4  11  21  36  56  86 121 146 190 243 309 360
#     4   9  19  35  55  80 110 151 189 232 291 352
#     4  10  20  40  65  83 121 161 208 249 309 378
#     4  10  23  38  58  94 122 158 199 257 317 381
#     4  10  20  35  56  77 109 152 199 236 284 344
#     4  10  20  36  54  76 104 152 202 238 282 342
#     4   9  18  32  51  78 108 139 179 233 288 343
#
# _framework density 24.329937999999999
#
# number of rings (size 3 to 8) (size 9 to 14) (size 15 to 20)
#    0.000    2.133    1.333    2.800    0.000    4.800 
#    3.600    1.333    5.867    0.000    0.000    0.000 
#    0.000    0.000    0.000    0.000    0.000    0.000 
#
# Total GULP energy -167077.806009 kJ/mol
# GULP energy per Si atom -5569.260200 kJ/mol
# Density = 2.427456 g / cm^3
# Si number density = 24.329938 Si / 1000 Ang^3
#
#
#
# Elastic Constant Matrix: (Units=GPa)
#
#
# Indices 1 2 3 4 5 6 
#
# 1 64.8835 6.4200 16.9204 0.0000 -8.1933 0.0000
# 2 6.4200 68.2759 5.2406 0.0000 8.6066 0.0000
# 3 16.9204 5.2406 128.7673 0.0000 4.7995 0.0000
# 4 0.0000 0.0000 0.0000 10.8709 0.0000 2.2923
# 5 -8.1933 8.6066 4.7995 0.0000 31.9833 0.0000
# 6 0.0000 0.0000 0.0000 2.2923 0.0000 6.3286
#
#
#
# Elastic Compliance Matrix: (Units=1/GPa)
#
#
# Indices 1 2 3 4 5 6 
#
# 1 0.016885 -0.002068 -0.002330 0.000000 0.005232 0.000000
# 2 -0.002068 0.015442 -0.000183 0.000000 -0.004658 0.000000
# 3 -0.002330 -0.000183 0.008145 0.000000 -0.001770 0.000000
# 4 0.000000 0.000000 0.000000 0.099595 0.000000 -0.036075
# 5 0.005232 -0.004658 -0.001770 0.000000 0.034126 0.000000
# 6 0.000000 0.000000 0.000000 -0.036075 0.000000 0.171078
#
#
# Mechanical properties :
#
#
# Convention : Reuss Voigt Hill
#
# Bulk Modulus (GPa) = 31.93801 35.45429 33.69615
# Shear Modulus (GPa) = 13.70348 25.39295 19.54821
#
# Velocity S-wave (km/s) = 2.37583 3.23413 2.83762
# Velocity P-wave (km/s) = 4.54771 5.34322 4.96143
#
# Compressibility (1/GPa) = 0.03131066
#
# Stress axis : x y z
#
# Youngs Moduli (GPa) = 59.22398 64.75780 122.76754
#
# Poissons Ratio (x) = 0.13394 0.28599
# Poissons Ratio (y) = 0.12250 0.02248
# Poissons Ratio (z) = 0.13797 0.01186
#
# Static dielectric constant tensor:
#      x y z
#    x 2.141830 0.000000 -0.012670 
#    y 0.000000 2.018890 0.000000 
#    z -0.012670 0.000000 1.974350 
# 
# From -- ./inp_files/53845.got.cif
#   From: 2010.05.17/outbox.cif.g08.bks.cpg/sg13_27_cif.got.tgz:53845.got - 2010.06.03 16:44:36.
