data_PCOD9229360
_publ_section_title
;
Structure prediction by ZEFSAII (Michael W. Deem and Ramdas Pophale) SiO2 
 PCOD9229360
Probable space group: P 2/C
;
_chemical_formula_sum "Si O2"
_cell_formula_units_Z 26
_cell_length_a 5.043312
_cell_length_b 15.169992
_cell_length_c 16.632959
_cell_angle_alpha 90.000000
_cell_angle_beta 112.158801
_cell_angle_gamma 90.000000
_cell_volume 1178.550784
_symmetry_space_group_name_H-M "P 2/C"
_symmetry_group_IT_number 13
_symmetry_cell_setting 'monoclinic'
loop_
_space_group_symop_operation_xyz
x,y,z
-x,y,1/2-z
-x,-y,-z
x,-y,1/2+z
loop_
_atom_site_type_symbol
_atom_site_label
_atom_site_fract_x
_atom_site_fract_y
_atom_site_fract_z
Si Si1 0.500000 0.311090 0.250000
Si Si2 0.000000 0.119775 0.750000
Si Si3 0.417178 0.740596 0.334225
Si Si4 0.900057 0.152531 0.329464
Si Si5 0.476753 0.387220 0.076328
Si Si6 0.500000 0.009176 0.250000
Si Si7 0.318326 0.540083 0.311546
Si Si8 0.894844 0.724487 0.516511
O O1 0.758397 0.246225 0.295423
O O2 0.555838 0.364380 0.177481
O O3 0.822300 0.186598 0.672673
O O4 0.753262 0.055524 0.753455
O O5 0.500000 0.751074 0.250000
O O6 0.293953 0.642811 0.332573
O O7 0.704709 0.748114 0.418215
O O8 0.663754 0.079508 0.326945
O O9 0.000000 0.124720 0.250000
O O10 0.083191 0.185262 0.426693
O O11 0.518973 0.492088 0.094979
O O12 0.713848 0.345439 0.047385
O O13 0.185760 0.330445 0.028655
O O14 0.500000 0.537927 0.250000
O O15 0.000000 0.508131 0.250000
#
# Coordination Sequence:
#
# PCOD9229360 Si02
#       8
#     2   2   4   4   4   2   4   4
#     4   9  18  32  59  96 138 182 193 254 328 421
#     4  12  24  48  72  94 120 186 228 276 326 406
#     4  11  27  49  71  90 131 188 239 280 322 379
#     4  10  19  39  65 101 138 164 199 268 352 413
#     4  11  22  37  63 103 140 173 222 269 331 394
#     4  11  24  40  75 100 130 160 217 274 354 409
#     4  11  23  39  67  97 134 184 233 272 325 383
#     4  11  26  40  68 103 140 177 222 270 335 403
#
# _framework density 22.060994000000001
#
# number of rings (size 3 to 8) (size 9 to 14) (size 15 to 20)
#    0.000    1.231    4.615    0.923    4.308    1.231 
#    0.000    1.538    0.000    0.000    0.000    0.000 
#    0.000    0.000    0.000    0.000    0.000    0.000 
#
# Total GULP energy -144818.666513 kJ/mol
# GULP energy per Si atom -5569.948712 kJ/mol
# Density = 2.201078 g / cm^3
# Si number density = 22.060994 Si / 1000 Ang^3
#
#
#
# Elastic Constant Matrix: (Units=GPa)
#
#
# Indices 1 2 3 4 5 6 
#
# 1 114.1515 36.5585 19.8111 0.0000 22.8574 0.0000
# 2 36.5585 136.0214 37.7458 0.0000 18.8633 0.0000
# 3 19.8111 37.7458 133.1136 0.0000 22.1363 0.0000
# 4 0.0000 0.0000 0.0000 13.5327 0.0000 28.9325
# 5 22.8574 18.8633 22.1363 0.0000 28.9559 0.0000
# 6 0.0000 0.0000 0.0000 28.9325 0.0000 37.5758
#
#
#
# Elastic Compliance Matrix: (Units=1/GPa)
#
#
# Indices 1 2 3 4 5 6 
#
# 1 0.010836 -0.001930 0.000169 0.000000 -0.007426 0.000000
# 2 -0.001930 0.008743 -0.001716 0.000000 -0.002861 0.000000
# 3 0.000169 -0.001716 0.008948 0.000000 -0.005856 0.000000
# 4 0.000000 0.000000 0.000000 -0.114356 0.000000 0.088051
# 5 -0.007426 -0.002861 -0.005856 0.000000 0.046738 0.000000
# 6 0.000000 0.000000 0.000000 0.088051 0.000000 -0.041185
#
#
# Mechanical properties :
#
#
# Convention : Reuss Voigt Hill
#
# Bulk Modulus (GPa) = 46.35237 63.50193 54.92715
# Shear Modulus (GPa) = -75.60675 35.29094 -20.15790
#
# Velocity S-wave (km/s) = -5.86055 4.00396 -3.02608
# Velocity P-wave (km/s) = 4.97375 7.08681 3.56964
#
# Compressibility (1/GPa) = 0.02157387
#
# Stress axis : x y z
#
# Youngs Moduli (GPa) = 92.28637 114.37227 111.76061
#
# Poissons Ratio (x) = 0.22068 -0.01893
# Poissons Ratio (y) = 0.17807 0.19183
# Poissons Ratio (z) = -0.01563 0.19631
#
# Static dielectric constant tensor:
#      x y z
#    x 1.878350 0.000000 -0.042080 
#    y 0.000000 1.890840 0.000000 
#    z -0.042080 0.000000 1.902470 
# 
# From -- ./inp_files/61484.got.cif
#   From: 2010.05.17/outbox.cif.g08.bks.cpg/sg13_31_cif.got.tgz:61484.got - 2010.06.03 16:44:36.
