data_PCOD9229772
_publ_section_title
;
Structure prediction by ZEFSAII (Michael W. Deem and Ramdas Pophale) SiO2 
 PCOD9229772
Probable space group: P 2/C
;
_chemical_formula_sum "Si O2"
_cell_formula_units_Z 32
_cell_length_a 7.052563
_cell_length_b 20.790320
_cell_length_c 13.318786
_cell_angle_alpha 90.000000
_cell_angle_beta 44.493382
_cell_angle_gamma 90.000000
_cell_volume 1368.622063
_symmetry_space_group_name_H-M "P 2/C"
_symmetry_group_IT_number 13
_symmetry_cell_setting 'monoclinic'
loop_
_space_group_symop_operation_xyz
x,y,z
-x,y,1/2-z
-x,-y,-z
x,-y,1/2+z
loop_
_atom_site_type_symbol
_atom_site_label
_atom_site_fract_x
_atom_site_fract_y
_atom_site_fract_z
Si Si1 0.917786 0.250000 0.448175
Si Si2 0.558558 0.750000 0.877012
Si Si3 0.769183 0.357354 0.910447
Si Si4 0.685029 0.116250 0.584631
Si Si5 0.685029 0.616250 0.084631
Si Si6 0.230817 0.857354 0.089553
Si Si7 0.185450 0.499961 0.085293
Si Si8 0.185450 0.999961 0.585293
O O1 0.736021 0.250000 0.413950
O O2 0.841265 0.184142 0.534514
O O3 0.841265 0.315858 0.534514
O O4 0.225073 0.250000 0.293227
O O5 0.362434 0.688919 0.958634
O O6 0.362435 0.811081 0.958634
O O7 0.524620 0.372399 0.927190
O O8 0.876417 0.425041 0.913340
O O9 0.000000 0.328914 0.750000
O O10 0.500000 0.102775 0.750000
O O11 0.475380 0.127600 0.572811
O O12 0.848955 0.053585 0.486837
O O13 0.500000 0.602775 0.250000
O O14 0.848955 0.553585 0.986836
O O15 0.000000 0.828914 0.250000
O O16 0.123583 0.925041 0.086660
O O17 0.000000 0.481639 0.250000
O O18 0.500000 0.500000 0.000000
O O19 0.000000 0.981639 0.750000
O O20 0.500000 0.000000 0.500000
#
# Coordination Sequence:
#
# PCOD9229772 Si02
#       8
#     4   4   4   4   4   4   4   4
#     4   9  19  30  53  83 107 132 180 228 262 310
#     4   9  17  30  57  81 100 141 186 216 255 319
#     4   9  18  34  54  79 107 141 180 216 262 322
#     4  10  20  34  55  82 108 138 175 226 274 310
#     4  10  20  34  55  82 108 138 175 226 274 310
#     4   9  18  34  54  79 107 141 180 216 262 322
#     4   9  19  33  54  77 109 142 179 219 259 321
#     4   9  19  33  54  77 109 142 179 219 259 321
#
# _framework density 23.381181999999999
#
# number of rings (size 3 to 8) (size 9 to 14) (size 15 to 20)
#    0.000    2.750    0.000    0.750   10.500    0.000 
#    0.000   11.250    0.000    1.500    0.000    0.000 
#    0.000    0.000    0.000    0.000    0.000    0.000 
#
# Total GULP energy -178821.323476 kJ/mol
# GULP energy per Si atom -5588.166359 kJ/mol
# Density = 2.332797 g / cm^3
# Si number density = 23.381182 Si / 1000 Ang^3
#
#
#
# Elastic Constant Matrix: (Units=GPa)
#
#
# Indices 1 2 3 4 5 6 
#
# 1 73.8202 2.7013 8.5311 0.0000 -4.8936 0.0000
# 2 2.7013 194.6715 123.6279 0.0000 11.1630 0.0000
# 3 8.5311 123.6279 219.5948 0.0000 -3.7611 0.0000
# 4 0.0000 0.0000 0.0000 43.9245 0.0000 -9.4700
# 5 -4.8936 11.1630 -3.7611 0.0000 35.3127 0.0000
# 6 0.0000 0.0000 0.0000 -9.4700 0.0000 4.1423
#
#
#
# Elastic Compliance Matrix: (Units=1/GPa)
#
#
# Indices 1 2 3 4 5 6 
#
# 1 0.013727 0.000036 -0.000522 0.000000 0.001835 0.000000
# 2 0.000036 0.008329 -0.004744 0.000000 -0.003133 0.000000
# 3 -0.000522 -0.004744 0.007283 0.000000 0.002203 0.000000
# 4 0.000000 0.000000 0.000000 0.044895 0.000000 0.102638
# 5 0.001835 -0.003133 0.002203 0.000000 0.029798 0.000000
# 6 0.000000 0.000000 0.000000 0.102638 0.000000 0.476060
#
#
# Mechanical properties :
#
#
# Convention : Reuss Voigt Hill
#
# Bulk Modulus (GPa) = 52.97154 84.20080 68.58617
# Shear Modulus (GPa) = 8.37740 40.22431 24.30086
#
# Velocity S-wave (km/s) = 1.89493 4.15224 3.22737
# Velocity P-wave (km/s) = 5.24333 7.68625 6.57917
#
# Compressibility (1/GPa) = 0.01887806
#
# Stress axis : x y z
#
# Youngs Moduli (GPa) = 72.84858 120.06629 137.31316
#
# Poissons Ratio (x) = -0.00430 0.07168
# Poissons Ratio (y) = -0.00261 0.65141
# Poissons Ratio (z) = 0.03803 0.56959
#
# Static dielectric constant tensor:
#      x y z
#    x 1.921110 0.000000 0.013450 
#    y 0.000000 1.922350 0.000000 
#    z 0.013450 0.000000 1.788240 
# 
# From -- ./inp_files/48164.got.cif
#   From: 2010.05.17/outbox.cif.g08.bks.cpg/sg13_25_cif.got.tgz:48164.got - 2010.06.03 16:44:36.
