data_PCOD9229736
_publ_section_title
;
Structure prediction by ZEFSAII (Michael W. Deem and Ramdas Pophale) SiO2 
 PCOD9229736
Probable space group: P 2/C
;
_chemical_formula_sum "Si O2"
_cell_formula_units_Z 18
_cell_length_a 10.222403
_cell_length_b 9.613754
_cell_length_c 9.749134
_cell_angle_alpha 90.000000
_cell_angle_beta 105.390119
_cell_angle_gamma 90.000000
_cell_volume 923.746229
_symmetry_space_group_name_H-M "P 2/C"
_symmetry_group_IT_number 13
_symmetry_cell_setting 'monoclinic'
loop_
_space_group_symop_operation_xyz
x,y,z
-x,y,1/2-z
-x,-y,-z
x,-y,1/2+z
loop_
_atom_site_type_symbol
_atom_site_label
_atom_site_fract_x
_atom_site_fract_y
_atom_site_fract_z
Si Si1 0.371302 0.403961 0.002515
Si Si2 0.000000 0.018583 0.250000
Si Si3 0.664621 0.634321 0.304091
Si Si4 0.420584 0.911156 0.589639
Si Si5 0.171879 0.102434 0.549663
O O1 0.305824 0.492362 0.105962
O O2 0.419166 0.252290 0.060423
O O3 0.500000 0.500000 0.000000
O O4 0.288723 0.382513 0.839830
O O5 0.085096 0.925999 0.163991
O O6 0.088973 0.108508 0.383382
O O7 0.500000 0.658052 0.250000
O O8 0.735130 0.763308 0.397971
O O9 0.500000 0.938067 0.750000
O O10 0.500000 0.000000 0.500000
O O11 0.269169 0.969125 0.559047
#
# Coordination Sequence:
#
# PCOD9229736 Si02
#       5
#     4   2   4   4   4
#     4  10  20  34  53  87 127 153 176 222 295 363
#     4  10  24  40  60  82 112 158 204 248 286 330
#     4  10  20  36  59  87 118 149 184 234 296 351
#     4  12  22  35  61  95 122 148 187 239 298 352
#     4  11  22  40  61  84 115 153 200 244 287 343
#
# _framework density 19.485872000000001
#
# number of rings (size 3 to 8) (size 9 to 14) (size 15 to 20)
#    0.000    1.333    0.000    9.333    0.000    1.778 
#    0.000    0.000    0.000   22.667    0.000    0.000 
#    0.000    0.000    0.000    0.000    0.000    0.000 
#
# Total GULP energy -100452.096858 kJ/mol
# GULP energy per Si atom -5580.672048 kJ/mol
# Density = 1.944152 g / cm^3
# Si number density = 19.485872 Si / 1000 Ang^3
#
#
#
# Elastic Constant Matrix: (Units=GPa)
#
#
# Indices 1 2 3 4 5 6 
#
# 1 61.5125 37.8524 44.4898 0.0000 -1.1037 0.0000
# 2 37.8524 139.3402 60.0515 0.0000 10.3467 0.0000
# 3 44.4898 60.0515 200.9331 0.0000 13.0491 0.0000
# 4 0.0000 0.0000 0.0000 40.6270 0.0000 10.1459
# 5 -1.1037 10.3467 13.0491 0.0000 32.8471 0.0000
# 6 0.0000 0.0000 0.0000 10.1459 0.0000 27.4680
#
#
#
# Elastic Compliance Matrix: (Units=1/GPa)
#
#
# Indices 1 2 3 4 5 6 
#
# 1 0.021830 -0.004610 -0.003693 0.000000 0.003653 0.000000
# 2 -0.004610 0.009300 -0.001600 0.000000 -0.002449 0.000000
# 3 -0.003693 -0.001600 0.006413 0.000000 -0.002168 0.000000
# 4 0.000000 0.000000 0.000000 0.027115 0.000000 -0.010016
# 5 0.003653 -0.002449 -0.002168 0.000000 0.032199 0.000000
# 6 0.000000 0.000000 0.000000 -0.010016 0.000000 0.040105
#
#
# Mechanical properties :
#
#
# Convention : Reuss Voigt Hill
#
# Bulk Modulus (GPa) = 56.37477 76.28590 66.33033
# Shear Modulus (GPa) = 30.73472 37.48124 34.10798
#
# Velocity S-wave (km/s) = 3.97581 4.39054 4.18831
# Velocity P-wave (km/s) = 7.07602 8.05834 7.58310
#
# Compressibility (1/GPa) = 0.01773843
#
# Stress axis : x y z
#
# Youngs Moduli (GPa) = 45.80812 107.52378 155.92388
#
# Poissons Ratio (x) = 0.49567 0.57583
# Poissons Ratio (y) = 0.21117 0.24944
# Poissons Ratio (z) = 0.16917 0.17201
#
# Static dielectric constant tensor:
#      x y z
#    x 1.724070 0.000000 -0.010120 
#    y 0.000000 1.660600 0.000000 
#    z -0.010120 0.000000 1.727530 
# 
# From -- ./inp_files/14594.got.cif
#   From: 2010.05.17/outbox.cif.g08.bks.cpg/sg13_8_cif.got.tgz:14594.got - 2010.06.03 16:44:36.
