data_PCOD9229091
_publ_section_title
;
Structure prediction by ZEFSAII (Michael W. Deem and Ramdas Pophale) SiO2 
 PCOD9229091
Probable space group: P 2/C
;
_chemical_formula_sum "Si O2"
_cell_formula_units_Z 24
_cell_length_a 26.525417
_cell_length_b 5.217744
_cell_length_c 14.426208
_cell_angle_alpha 90.000000
_cell_angle_beta 147.296298
_cell_angle_gamma 90.000000
_cell_volume 1078.767558
_symmetry_space_group_name_H-M "P 2/C"
_symmetry_group_IT_number 13
_symmetry_cell_setting 'monoclinic'
loop_
_space_group_symop_operation_xyz
x,y,z
-x,y,1/2-z
-x,-y,-z
x,-y,1/2+z
loop_
_atom_site_type_symbol
_atom_site_label
_atom_site_fract_x
_atom_site_fract_y
_atom_site_fract_z
Si Si1 0.204859 0.419155 0.402264
Si Si2 0.636436 0.219982 0.377847
Si Si3 0.273827 0.078865 0.656711
Si Si4 0.776790 0.028099 0.231249
Si Si5 0.532913 0.251681 0.495564
Si Si6 0.065156 0.748657 0.103172
O O1 0.311330 0.508554 0.549741
O O2 0.200789 0.258929 0.490194
O O3 0.186612 0.241806 0.284018
O O4 0.136934 0.666047 0.296982
O O5 0.526531 0.243262 0.191037
O O6 0.677977 0.075074 0.351883
O O7 0.682007 0.077402 0.536060
O O8 0.238292 0.902809 0.685519
O O9 0.355565 0.247275 0.831131
O O10 0.856307 0.807063 0.353105
O O11 0.500000 0.500000 0.500000
O O12 0.500000 0.000000 0.500000
O O13 0.000000 0.500000 0.000000
O O14 0.000000 0.000000 0.000000
#
# Coordination Sequence:
#
# PCOD9229091 Si02
#       6
#     4   4   4   4   4   4
#     4  10  20  40  66  94 134 170 221 271 340 389
#     4   9  20  36  62  91 132 177 215 268 327 380
#     4  10  21  38  65  96 132 178 226 270 324 389
#     4  10  22  39  66  99 127 173 220 275 326 399
#     4  10  19  37  61  91 129 176 218 262 318 376
#     4  11  22  43  71  91 124 167 208 268 341 396
#
# _framework density 22.247610000000002
#
# number of rings (size 3 to 8) (size 9 to 14) (size 15 to 20)
#    0.000    2.000    3.333    0.000    0.000    3.333 
#    0.000    0.833    7.333    0.000    0.000    0.000 
#    0.000    0.000    0.000    0.000    0.000    0.000 
#
# Total GULP energy -133627.558495 kJ/mol
# GULP energy per Si atom -5567.814937 kJ/mol
# Density = 2.219697 g / cm^3
# Si number density = 22.247610 Si / 1000 Ang^3
#
#
#
# Elastic Constant Matrix: (Units=GPa)
#
#
# Indices 1 2 3 4 5 6 
#
# 1 64.1782 20.5645 46.3417 0.0000 -34.5256 0.0000
# 2 20.5645 112.0732 36.4375 0.0000 -6.3575 0.0000
# 3 46.3417 36.4375 96.0076 0.0000 -5.8604 0.0000
# 4 0.0000 0.0000 0.0000 43.0378 0.0000 10.5284
# 5 -34.5256 -6.3575 -5.8604 0.0000 34.7494 0.0000
# 6 0.0000 0.0000 0.0000 10.5284 0.0000 9.5014
#
#
#
# Elastic Compliance Matrix: (Units=1/GPa)
#
#
# Indices 1 2 3 4 5 6 
#
# 1 0.079433 0.000677 -0.034125 0.000000 0.073291 0.000000
# 2 0.000677 0.010236 -0.004098 0.000000 0.001854 0.000000
# 3 -0.034125 -0.004098 0.026601 0.000000 -0.030168 0.000000
# 4 0.000000 0.000000 0.000000 0.031876 0.000000 -0.035322
# 5 0.073291 0.001854 -0.030168 0.000000 0.096848 0.000000
# 6 0.000000 0.000000 0.000000 -0.035322 0.000000 0.144387
#
#
# Mechanical properties :
#
#
# Convention : Reuss Voigt Hill
#
# Bulk Modulus (GPa) = 24.28463 53.21627 38.75045
# Shear Modulus (GPa) = 10.45587 28.71873 19.58730
#
# Velocity S-wave (km/s) = 2.17025 3.59676 2.97041
# Velocity P-wave (km/s) = 4.14961 6.42035 5.40556
#
# Compressibility (1/GPa) = 0.04117832
#
# Stress axis : x y z
#
# Youngs Moduli (GPa) = 12.58920 97.69236 37.59207
#
# Poissons Ratio (x) = -0.06612 1.28281
# Poissons Ratio (y) = -0.00852 0.15407
# Poissons Ratio (z) = 0.42960 0.40039
#
# Static dielectric constant tensor:
#      x y z
#    x 1.856130 0.000000 0.058150 
#    y 0.000000 1.906420 0.000000 
#    z 0.058150 0.000000 1.996780 
# 
# From -- ./inp_files/59782.got.cif
#   From: 2010.05.17/outbox.cif.g08.bks.cpg/sg13_30_cif.got.tgz:59782.got - 2010.06.03 16:44:36.
