data_PCOD9229586
_publ_section_title
;
Structure prediction by ZEFSAII (Michael W. Deem and Ramdas Pophale) SiO2 
 PCOD9229586
Probable space group: P 2/C
;
_chemical_formula_sum "Si O2"
_cell_formula_units_Z 22
_cell_length_a 11.303923
_cell_length_b 11.688954
_cell_length_c 22.007577
_cell_angle_alpha 90.000000
_cell_angle_beta 159.581200
_cell_angle_gamma 90.000000
_cell_volume 1014.501305
_symmetry_space_group_name_H-M "P 2/C"
_symmetry_group_IT_number 13
_symmetry_cell_setting 'monoclinic'
loop_
_space_group_symop_operation_xyz
x,y,z
-x,y,1/2-z
-x,-y,-z
x,-y,1/2+z
loop_
_atom_site_type_symbol
_atom_site_label
_atom_site_fract_x
_atom_site_fract_y
_atom_site_fract_z
Si Si1 0.993917 0.827693 0.630750
Si Si2 0.080934 0.442014 0.897631
Si Si3 0.401460 0.025067 0.882263
Si Si4 0.550904 0.641102 0.480973
Si Si5 0.000000 0.209448 0.750000
Si Si6 0.666531 0.633421 0.765360
O O1 0.686070 0.917235 0.477562
O O2 0.839083 0.731488 0.601076
O O3 0.139916 0.754514 0.645837
O O4 0.277719 0.906235 0.796793
O O5 0.747985 0.377393 0.713119
O O6 0.932843 0.535407 0.874147
O O7 0.254030 0.519880 0.927348
O O8 0.369019 0.372749 0.071554
O O9 0.116353 0.123906 0.752715
O O10 0.500000 0.000000 0.000000
O O11 0.322339 0.709317 0.419959
O O12 0.500000 0.613557 0.750000
#
# Coordination Sequence:
#
# PCOD9229586 Si02
#       6
#     4   4   4   4   2   4
#     4  10  22  35  57  85 114 144 196 242 283 339
#     4   9  19  37  58  82 122 150 189 235 286 341
#     4  11  20  37  56  82 110 150 193 240 284 344
#     4   9  20  35  54  86 114 155 185 238 282 340
#     4  10  20  32  56  80 112 144 200 220 288 338
#     4  10  20  37  61  88 114 153 193 237 291 343
#
# _framework density 21.685531000000001
#
# number of rings (size 3 to 8) (size 9 to 14) (size 15 to 20)
#    0.000    2.182    1.818    0.545    2.545    0.727 
#    0.000    0.909    0.000    0.000    0.000    0.000 
#    0.000    0.000    0.000    0.000    0.000    0.000 
#
# Total GULP energy -122704.408262 kJ/mol
# GULP energy per Si atom -5577.473103 kJ/mol
# Density = 2.163617 g / cm^3
# Si number density = 21.685531 Si / 1000 Ang^3
#
#
#
# Elastic Constant Matrix: (Units=GPa)
#
#
# Indices 1 2 3 4 5 6 
#
# 1 90.5840 20.6450 22.8579 0.0000 23.6106 0.0000
# 2 20.6450 123.3802 30.1790 0.0000 8.2965 0.0000
# 3 22.8579 30.1790 74.8485 0.0000 14.8822 0.0000
# 4 0.0000 0.0000 0.0000 54.9535 0.0000 13.2317
# 5 23.6106 8.2965 14.8822 0.0000 29.1152 0.0000
# 6 0.0000 0.0000 0.0000 13.2317 0.0000 23.2040
#
#
#
# Elastic Compliance Matrix: (Units=1/GPa)
#
#
# Indices 1 2 3 4 5 6 
#
# 1 0.014525 -0.001276 -0.001838 0.000000 -0.010475 0.000000
# 2 -0.001276 0.009120 -0.003313 0.000000 0.000130 0.000000
# 3 -0.001838 -0.003313 0.016445 0.000000 -0.005971 0.000000
# 4 0.000000 0.000000 0.000000 0.021093 0.000000 -0.012028
# 5 -0.010475 0.000130 -0.005971 0.000000 0.045856 0.000000
# 6 0.000000 0.000000 0.000000 -0.012028 0.000000 0.049955
#
#
# Mechanical properties :
#
#
# Convention : Reuss Voigt Hill
#
# Bulk Modulus (GPa) = 36.71891 48.46404 42.59147
# Shear Modulus (GPa) = 27.94421 35.79659 31.87040
#
# Velocity S-wave (km/s) = 3.59362 4.06730 3.83778
# Velocity P-wave (km/s) = 5.84705 6.66741 6.27066
#
# Compressibility (1/GPa) = 0.02723392
#
# Stress axis : x y z
#
# Youngs Moduli (GPa) = 68.84888 109.64529 60.80931
#
# Poissons Ratio (x) = 0.13995 0.11178
# Poissons Ratio (y) = 0.08788 0.20148
# Poissons Ratio (z) = 0.12656 0.36329
#
# Static dielectric constant tensor:
#      x y z
#    x 1.803280 0.000000 0.039790 
#    y 0.000000 1.858990 0.000000 
#    z 0.039790 0.000000 1.850960 
# 
# From -- ./inp_files/86630.got.cif
#   From: 2010.05.17/outbox.cif.g08.bks.cpg/sg13_44_cif.got.tgz:86630.got - 2010.06.03 16:44:36.
