data_PCOD9229659
_publ_section_title
;
Structure prediction by ZEFSAII (Michael W. Deem and Ramdas Pophale) SiO2 
 PCOD9229659
Probable space group: P 2/C
;
_chemical_formula_sum "Si O2"
_cell_formula_units_Z 30
_cell_length_a 17.724030
_cell_length_b 4.972642
_cell_length_c 19.012297
_cell_angle_alpha 90.000000
_cell_angle_beta 59.935614
_cell_angle_gamma 90.000000
_cell_volume 1450.216218
_symmetry_space_group_name_H-M "P 2/C"
_symmetry_group_IT_number 13
_symmetry_cell_setting 'monoclinic'
loop_
_space_group_symop_operation_xyz
x,y,z
-x,y,1/2-z
-x,-y,-z
x,-y,1/2+z
loop_
_atom_site_type_symbol
_atom_site_label
_atom_site_fract_x
_atom_site_fract_y
_atom_site_fract_z
Si Si1 0.453133 0.786422 0.073717
Si Si2 0.843675 0.714838 0.385578
Si Si3 0.884472 0.168726 0.178645
Si Si4 0.197865 0.768803 0.512600
Si Si5 0.280262 0.956553 0.162981
Si Si6 0.084605 0.659704 0.429528
Si Si7 0.367587 0.355503 0.005949
Si Si8 0.000000 0.952108 0.750000
O O1 0.405102 0.582905 0.041760
O O2 0.370505 0.875292 0.157721
O O3 0.539454 0.703006 0.074844
O O4 0.500000 0.000000 0.000000
O O5 0.856343 0.415919 0.407177
O O6 0.930930 0.852382 0.319233
O O7 0.807406 0.919586 0.462421
O O8 0.774012 0.730135 0.354646
O O9 0.791030 0.079193 0.252390
O O10 0.874759 0.442663 0.141670
O O11 0.927406 0.935425 0.109225
O O12 0.947252 0.208959 0.215996
O O13 0.151551 0.728202 0.460375
O O14 0.293451 0.637777 0.480691
O O15 0.319105 0.150633 0.083229
O O16 0.000000 0.500000 0.500000
#
# Coordination Sequence:
#
# PCOD9229659 Si02
#       8
#     4   4   4   4   4   4   4   2
#     4   9  16  31  53  91 118 142 181 238 297 349
#     4  10  20  33  56  83 110 149 182 238 290 333
#     4  11  25  39  61  87 113 159 190 244 295 333
#     4  11  21  37  57  80 115 152 195 234 273 343
#     4   9  19  32  55  85 121 141 188 238 301 346
#     4  12  25  42  59  83 117 160 205 237 276 344
#     4   9  18  31  57  88 116 148 186 234 299 338
#     4  10  22  38  58  84 118 140 190 236 296 350
#
# _framework density 20.686572000000002
#
# number of rings (size 3 to 8) (size 9 to 14) (size 15 to 20)
#    0.000    1.867    1.333    2.800    1.867    4.267 
#    0.000    0.000    0.000    0.800    0.000    0.000 
#    0.000    0.000    0.000    0.000    0.000    0.000 
#
# Total GULP energy -167122.625079 kJ/mol
# GULP energy per Si atom -5570.754169 kJ/mol
# Density = 2.063949 g / cm^3
# Si number density = 20.686572 Si / 1000 Ang^3
#
#
#
# Elastic Constant Matrix: (Units=GPa)
#
#
# Indices 1 2 3 4 5 6 
#
# 1 148.7796 1.2414 47.0692 0.0000 -15.3045 0.0000
# 2 1.2414 62.9694 2.4137 0.0000 7.3428 0.0000
# 3 47.0692 2.4137 47.4851 0.0000 -8.0911 0.0000
# 4 0.0000 0.0000 0.0000 10.6276 0.0000 -2.6928
# 5 -15.3045 7.3428 -8.0911 0.0000 37.0264 0.0000
# 6 0.0000 0.0000 0.0000 -2.6928 0.0000 28.9482
#
#
#
# Elastic Compliance Matrix: (Units=1/GPa)
#
#
# Indices 1 2 3 4 5 6 
#
# 1 0.009937 -0.000070 -0.009498 0.000000 0.002046 0.000000
# 2 -0.000070 0.016351 -0.001370 0.000000 -0.003571 0.000000
# 3 -0.009498 -0.001370 0.031078 0.000000 0.003137 0.000000
# 4 0.000000 0.000000 0.000000 0.096366 0.000000 0.008964
# 5 0.002046 -0.003571 0.003137 0.000000 0.029247 0.000000
# 6 0.000000 0.000000 0.000000 0.008964 0.000000 0.035378
#
#
# Mechanical properties :
#
#
# Convention : Reuss Voigt Hill
#
# Bulk Modulus (GPa) = 28.17698 40.07586 34.12642
# Shear Modulus (GPa) = 19.83620 29.22110 24.52865
#
# Velocity S-wave (km/s) = 3.09996 3.76249 3.44718
# Velocity P-wave (km/s) = 5.14427 6.18789 5.69006
#
# Compressibility (1/GPa) = 0.03548996
#
# Stress axis : x y z
#
# Youngs Moduli (GPa) = 100.63116 61.15821 32.17685
#
# Poissons Ratio (x) = 0.00431 0.30562
# Poissons Ratio (y) = 0.00708 0.04408
# Poissons Ratio (z) = 0.95580 0.08378
#
# Static dielectric constant tensor:
#      x y z
#    x 1.867710 0.000000 -0.038530 
#    y 0.000000 1.886320 0.000000 
#    z -0.038530 0.000000 1.778870 
# 
# From -- ./inp_files/69170.got.cif
#   From: 2010.05.17/outbox.cif.g08.bks.cpg/sg13_35_cif.got.tgz:69170.got - 2010.06.03 16:44:36.
