data_PCOD9229152
_publ_section_title
;
Structure prediction by ZEFSAII (Michael W. Deem and Ramdas Pophale) SiO2 
 PCOD9229152
Probable space group: P 2/C
;
_chemical_formula_sum "Si O2"
_cell_formula_units_Z 26
_cell_length_a 12.634989
_cell_length_b 7.354361
_cell_length_c 14.953354
_cell_angle_alpha 90.000000
_cell_angle_beta 124.140843
_cell_angle_gamma 90.000000
_cell_volume 1150.033902
_symmetry_space_group_name_H-M "P 2/C"
_symmetry_group_IT_number 13
_symmetry_cell_setting 'monoclinic'
loop_
_space_group_symop_operation_xyz
x,y,z
-x,y,1/2-z
-x,-y,-z
x,-y,1/2+z
loop_
_atom_site_type_symbol
_atom_site_label
_atom_site_fract_x
_atom_site_fract_y
_atom_site_fract_z
Si Si1 0.500000 0.706256 0.250000
Si Si2 0.342471 0.974146 0.267117
Si Si3 0.000000 0.847055 0.750000
Si Si4 0.248461 0.670620 0.541150
Si Si5 0.598681 0.393244 0.983419
Si Si6 0.076101 0.161569 0.088895
Si Si7 0.500000 0.751560 0.750000
Si Si8 0.275903 0.000241 0.922788
O O1 0.481418 0.621540 0.145490
O O2 0.373860 0.827723 0.206882
O O3 0.210451 0.070058 0.181172
O O4 0.457469 0.119015 0.311621
O O5 0.337535 0.903755 0.365371
O O6 0.019648 0.765897 0.657404
O O7 0.129038 0.959522 0.827797
O O8 0.275790 0.515164 0.481168
O O9 0.118908 0.685656 0.536841
O O10 0.368317 0.652214 0.665946
O O11 0.269437 0.864204 0.502520
O O12 0.500000 0.500000 0.000000
O O13 0.650326 0.192350 0.032486
O O14 0.000000 0.000000 0.000000
#
# Coordination Sequence:
#
# PCOD9229152 Si02
#       8
#     2   4   2   4   4   4   2   4
#     4  11  23  40  62  99 141 176 223 275 350 417
#     4   9  19  34  62  91 121 175 213 270 331 396
#     4  10  22  38  68  94 126 178 224 282 322 398
#     4  11  22  39  65  92 133 177 215 274 341 396
#     4  12  26  41  67 102 139 174 225 282 340 420
#     4  10  19  37  64  94 127 170 230 274 327 399
#     4   9  17  32  54  87 121 164 207 257 324 393
#     4  11  22  41  64  94 130 172 226 271 339 396
#
# _framework density 22.608028999999998
#
# number of rings (size 3 to 8) (size 9 to 14) (size 15 to 20)
#    0.000    1.538    1.538    5.077    0.000    4.308 
#    0.000    1.538    3.385    0.000    0.000    0.000 
#    0.000    0.000    0.000    0.000    0.000    0.000 
#
# Total GULP energy -144788.089317 kJ/mol
# GULP energy per Si atom -5568.772666 kJ/mol
# Density = 2.255657 g / cm^3
# Si number density = 22.608029 Si / 1000 Ang^3
#
#
#
# Elastic Constant Matrix: (Units=GPa)
#
#
# Indices 1 2 3 4 5 6 
#
# 1 143.9922 32.5295 31.6921 0.0000 -37.1253 0.0000
# 2 32.5295 60.0525 20.1090 0.0000 -18.3289 0.0000
# 3 31.6921 20.1090 74.5698 0.0000 -11.0944 0.0000
# 4 0.0000 0.0000 0.0000 14.7940 0.0000 -1.9176
# 5 -37.1253 -18.3289 -11.0944 0.0000 58.3749 0.0000
# 6 0.0000 0.0000 0.0000 -1.9176 0.0000 -4.6266
#
#
#
# Elastic Compliance Matrix: (Units=1/GPa)
#
#
# Indices 1 2 3 4 5 6 
#
# 1 0.009310 -0.002807 -0.002521 0.000000 0.004560 0.000000
# 2 -0.002807 0.020655 -0.003785 0.000000 0.003981 0.000000
# 3 -0.002521 -0.003785 0.015526 0.000000 0.000159 0.000000
# 4 0.000000 0.000000 0.000000 0.064149 0.000000 -0.026587
# 5 0.004560 0.003981 0.000159 0.000000 0.021311 0.000000
# 6 0.000000 0.000000 0.000000 -0.026587 0.000000 -0.205122
#
#
# Mechanical properties :
#
#
# Convention : Reuss Voigt Hill
#
# Bulk Modulus (GPa) = 36.67702 49.69730 43.18716
# Shear Modulus (GPa) = -106.70527 26.66074 -40.02227
#
# Velocity S-wave (km/s) = -6.87753 3.43776 -4.21202
# Velocity P-wave (km/s) = 6.84171 6.14715 2.12386
#
# Compressibility (1/GPa) = 0.02726503
#
# Stress axis : x y z
#
# Youngs Moduli (GPa) = 107.41643 48.41465 64.40792
#
# Poissons Ratio (x) = 0.13589 0.16239
# Poissons Ratio (y) = 0.30149 0.24377
# Poissons Ratio (z) = 0.27082 0.18324
#
# Static dielectric constant tensor:
#      x y z
#    x 1.945240 0.000000 -0.077530 
#    y 0.000000 2.050470 0.000000 
#    z -0.077530 0.000000 1.855570 
# 
# From -- ./inp_files/50196.got.cif
#   From: 2010.05.17/outbox.cif.g08.bks.cpg/sg13_26_cif.got.tgz:50196.got - 2010.06.03 16:44:36.
