data_PCOD9229359
_publ_section_title
;
Structure prediction by ZEFSAII (Michael W. Deem and Ramdas Pophale) SiO2 
 PCOD9229359
Probable space group: P 2/C
;
_chemical_formula_sum "Si O2"
_cell_formula_units_Z 20
_cell_length_a 6.458935
_cell_length_b 21.910548
_cell_length_c 9.316641
_cell_angle_alpha 90.000000
_cell_angle_beta 131.171333
_cell_angle_gamma 90.000000
_cell_volume 992.478337
_symmetry_space_group_name_H-M "P 2/C"
_symmetry_group_IT_number 13
_symmetry_cell_setting 'monoclinic'
loop_
_space_group_symop_operation_xyz
x,y,z
-x,y,1/2-z
-x,-y,-z
x,-y,1/2+z
loop_
_atom_site_type_symbol
_atom_site_label
_atom_site_fract_x
_atom_site_fract_y
_atom_site_fract_z
Si Si1 0.500000 0.482441 0.750000
Si Si2 0.312607 0.940645 0.405855
Si Si3 0.500000 0.679194 0.750000
Si Si4 0.045102 0.227633 0.109466
Si Si5 0.500000 0.157288 0.750000
Si Si6 0.695536 0.583117 0.627477
Si Si7 0.500000 0.866089 0.750000
O O1 0.695047 0.528258 0.746317
O O2 0.387485 0.441687 0.567360
O O3 0.404546 0.889694 0.331541
O O4 0.335715 0.906765 0.566084
O O5 0.000000 0.960723 0.250000
O O6 0.500000 0.000000 0.500000
O O7 0.775663 0.720309 0.888441
O O8 0.514311 0.635661 0.617055
O O9 0.271106 0.173988 0.224265
O O10 0.000000 0.249738 0.250000
O O11 0.763099 0.200090 0.913749
O O12 0.000000 0.607202 0.750000
#
# Coordination Sequence:
#
# PCOD9229359 Si02
#       7
#     2   4   2   4   2   4   2
#     4   9  20  35  67 100 132 180 219 262 324 398
#     4  12  27  42  66 102 132 164 209 267 334 405
#     4  10  24  42  65  92 135 172 220 282 324 378
#     4  11  23  44  69  90 122 174 223 271 325 381
#     4  12  25  44  72  94 124 172 221 266 330 404
#     4  10  19  39  64  99 137 175 218 268 327 381
#     4  11  23  43  68  92 127 164 212 260 324 398
#
# _framework density 20.151572999999999
#
# number of rings (size 3 to 8) (size 9 to 14) (size 15 to 20)
#    0.000    1.200    4.000    1.800    2.800    1.600 
#    0.000    6.000    0.000    0.000    0.000    0.000 
#    0.000    0.000    0.000    0.000    0.000    0.000 
#
# Total GULP energy -111487.926817 kJ/mol
# GULP energy per Si atom -5574.396341 kJ/mol
# Density = 2.010571 g / cm^3
# Si number density = 20.151573 Si / 1000 Ang^3
#
#
#
# Elastic Constant Matrix: (Units=GPa)
#
#
# Indices 1 2 3 4 5 6 
#
# 1 123.3683 65.4317 69.6475 0.0000 7.8467 0.0000
# 2 65.4317 126.7862 64.3692 0.0000 8.8135 0.0000
# 3 69.6475 64.3692 112.0906 0.0000 10.8456 0.0000
# 4 0.0000 0.0000 0.0000 -16.8707 0.0000 18.6967
# 5 7.8467 8.8135 10.8456 0.0000 46.5764 0.0000
# 6 0.0000 0.0000 0.0000 18.6967 0.0000 -4.3004
#
#
#
# Elastic Compliance Matrix: (Units=1/GPa)
#
#
# Indices 1 2 3 4 5 6 
#
# 1 0.013720 -0.003882 -0.006285 0.000000 -0.000113 0.000000
# 2 -0.003882 0.012250 -0.004564 0.000000 -0.000601 0.000000
# 3 -0.006285 -0.004564 0.015613 0.000000 -0.001713 0.000000
# 4 0.000000 0.000000 0.000000 0.015524 0.000000 0.067493
# 5 -0.000113 -0.000601 -0.001713 0.000000 0.022002 0.000000
# 6 0.000000 0.000000 0.000000 0.067493 0.000000 0.060901
#
#
# Mechanical properties :
#
#
# Convention : Reuss Voigt Hill
#
# Bulk Modulus (GPa) = 82.50138 84.57131 83.53634
# Shear Modulus (GPa) = 28.81648 15.93418 22.37533
#
# Velocity S-wave (km/s) = 3.78562 2.81502 3.33581
# Velocity P-wave (km/s) = 7.75482 7.25427 7.50872
#
# Compressibility (1/GPa) = 0.01212101
#
# Stress axis : x y z
#
# Youngs Moduli (GPa) = 72.88667 81.63394 64.04843
#
# Poissons Ratio (x) = 0.31690 0.40252
# Poissons Ratio (y) = 0.28295 0.29234
# Poissons Ratio (z) = 0.45807 0.37260
#
# Static dielectric constant tensor:
#      x y z
#    x 1.746190 0.000000 -0.015320 
#    y 0.000000 1.748620 0.000000 
#    z -0.015320 0.000000 1.697740 
# 
# From -- ./inp_files/10264.got.cif
#   From: 2010.05.17/outbox.cif.g08.bks.cpg/sg13_6_cif.got.tgz:10264.got - 2010.06.03 16:44:36.
