data_PCOD9229710
_publ_section_title
;
Structure prediction by ZEFSAII (Michael W. Deem and Ramdas Pophale) SiO2 
 PCOD9229710
Probable space group: P 2/C
;
_chemical_formula_sum "Si O2"
_cell_formula_units_Z 30
_cell_length_a 11.160172
_cell_length_b 6.828364
_cell_length_c 15.534653
_cell_angle_alpha 90.000000
_cell_angle_beta 72.167024
_cell_angle_gamma 90.000000
_cell_volume 1126.950266
_symmetry_space_group_name_H-M "P 2/C"
_symmetry_group_IT_number 13
_symmetry_cell_setting 'monoclinic'
loop_
_space_group_symop_operation_xyz
x,y,z
-x,y,1/2-z
-x,-y,-z
x,-y,1/2+z
loop_
_atom_site_type_symbol
_atom_site_label
_atom_site_fract_x
_atom_site_fract_y
_atom_site_fract_z
Si Si1 0.480202 0.195469 0.935698
Si Si2 0.223051 0.141210 0.071920
Si Si3 0.291435 0.257743 0.723961
Si Si4 0.837406 0.679811 0.416299
Si Si5 0.013294 0.227164 0.466558
Si Si6 0.137698 0.116398 0.269727
Si Si7 0.413438 0.645532 0.931584
Si Si8 0.500000 0.452267 0.250000
O O1 0.594919 0.138601 0.849857
O O2 0.482492 0.434780 0.920075
O O3 0.335191 0.147349 0.977888
O O4 0.525360 0.187486 0.024323
O O5 0.115579 0.272962 0.053642
O O6 0.179361 0.916511 0.086181
O O7 0.227652 0.197362 0.172588
O O8 0.202470 0.370203 0.672851
O O9 0.198188 0.094117 0.782757
O O10 0.377397 0.404595 0.761053
O O11 0.958979 0.660597 0.450352
O O12 0.722688 0.613726 0.501377
O O13 0.113720 0.229609 0.364929
O O14 0.000000 0.000000 0.500000
O O15 0.000000 0.098082 0.250000
O O16 0.436882 0.698135 0.830137
#
# Coordination Sequence:
#
# PCOD9229710 Si02
#       8
#     4   4   4   4   4   4   4   2
#     4   9  18  35  54  75 105 144 175 212 271 318
#     4   9  18  33  56  81 109 140 177 221 266 319
#     4   9  19  34  53  75 105 141 183 218 253 321
#     4   9  18  34  53  77 106 139 176 217 264 315
#     4   9  18  32  52  78 109 143 175 215 267 317
#     4   9  18  33  53  81 109 138 176 223 269 314
#     4   9  19  33  50  72 105 141 178 218 262 317
#     4  10  20  34  52  76 104 146 186 224 272 314
#
# _framework density 26.620515999999999
#
# number of rings (size 3 to 8) (size 9 to 14) (size 15 to 20)
#    0.000    2.933    0.000    1.600    0.000   10.133 
#    0.000    0.667    0.000    4.800    0.000    8.400 
#    0.000    0.000    0.000    0.000    0.000    0.000 
#
# Total GULP energy -167020.464023 kJ/mol
# GULP energy per Si atom -5567.348801 kJ/mol
# Density = 2.655993 g / cm^3
# Si number density = 26.620516 Si / 1000 Ang^3
#
#
#
# Elastic Constant Matrix: (Units=GPa)
#
#
# Indices 1 2 3 4 5 6 
#
# 1 84.9104 4.9108 14.0308 0.0000 16.9637 0.0000
# 2 4.9108 67.8210 7.5733 0.0000 3.4182 0.0000
# 3 14.0308 7.5733 57.1290 0.0000 -0.1668 0.0000
# 4 0.0000 0.0000 0.0000 15.5606 0.0000 -13.4721
# 5 16.9637 3.4182 -0.1668 0.0000 38.7777 0.0000
# 6 0.0000 0.0000 0.0000 -13.4721 0.0000 28.6438
#
#
#
# Elastic Compliance Matrix: (Units=1/GPa)
#
#
# Indices 1 2 3 4 5 6 
#
# 1 0.013519 -0.000313 -0.003296 0.000000 -0.005900 0.000000
# 2 -0.000313 0.015042 -0.001921 0.000000 -0.001197 0.000000
# 3 -0.003296 -0.001921 0.018573 0.000000 0.001691 0.000000
# 4 0.000000 0.000000 0.000000 0.108410 0.000000 0.050989
# 5 -0.005900 -0.001197 0.001691 0.000000 0.028482 0.000000
# 6 0.000000 0.000000 0.000000 0.050989 0.000000 0.058893
#
#
# Mechanical properties :
#
#
# Convention : Reuss Voigt Hill
#
# Bulk Modulus (GPa) = 27.72051 29.21002 28.46526
# Shear Modulus (GPa) = 18.79671 28.81945 23.80808
#
# Velocity S-wave (km/s) = 2.66013 3.29386 2.99381
# Velocity P-wave (km/s) = 4.45768 5.04605 4.76096
#
# Compressibility (1/GPa) = 0.03607438
#
# Stress axis : x y z
#
# Youngs Moduli (GPa) = 73.97181 66.47964 53.84090
#
# Poissons Ratio (x) = 0.02084 0.17745
# Poissons Ratio (y) = 0.02319 0.10341
# Poissons Ratio (z) = 0.24380 0.12768
#
# Static dielectric constant tensor:
#      x y z
#    x 2.270170 0.000000 0.273720 
#    y 0.000000 2.275000 0.000000 
#    z 0.273720 0.000000 2.482120 
# 
# From -- ./inp_files/65984.got.cif
#   From: 2010.05.17/outbox.cif.g08.bks.cpg/sg13_33_cif.got.tgz:65984.got - 2010.06.03 16:44:36.
