data_PCOD9229339
_publ_section_title
;
Structure prediction by ZEFSAII (Michael W. Deem and Ramdas Pophale) SiO2 
 PCOD9229339
Probable space group: P 2/C
;
_chemical_formula_sum "Si O2"
_cell_formula_units_Z 28
_cell_length_a 11.827748
_cell_length_b 8.377037
_cell_length_c 14.173357
_cell_angle_alpha 90.000000
_cell_angle_beta 103.523662
_cell_angle_gamma 90.000000
_cell_volume 1365.380324
_symmetry_space_group_name_H-M "P 2/C"
_symmetry_group_IT_number 13
_symmetry_cell_setting 'monoclinic'
loop_
_space_group_symop_operation_xyz
x,y,z
-x,y,1/2-z
-x,-y,-z
x,-y,1/2+z
loop_
_atom_site_type_symbol
_atom_site_label
_atom_site_fract_x
_atom_site_fract_y
_atom_site_fract_z
Si Si1 0.000000 0.992589 0.250000
Si Si2 0.380303 0.426966 0.575772
Si Si3 0.169772 0.722778 0.956631
Si Si4 0.092711 0.244701 0.111618
Si Si5 0.500000 0.650276 0.750000
Si Si6 0.621083 0.324754 0.597693
Si Si7 0.724460 0.392109 0.219960
Si Si8 0.183496 0.099041 0.933570
O O1 0.911033 0.890665 0.169426
O O2 0.934337 0.106255 0.314492
O O3 0.254104 0.349859 0.551810
O O4 0.423699 0.543108 0.665368
O O5 0.484449 0.297358 0.589334
O O6 0.379064 0.543741 0.485444
O O7 0.211871 0.660038 0.863371
O O8 0.033868 0.685351 0.937514
O O9 0.188188 0.912243 0.957930
O O10 0.184212 0.360971 0.179357
O O11 0.144413 0.182141 0.023222
O O12 0.392498 0.718837 0.789343
O O13 0.681292 0.425987 0.693614
O O14 0.697726 0.176830 0.580453
#
# Coordination Sequence:
#
# PCOD9229339 Si02
#       8
#     2   4   4   4   2   4   4   4
#     4  10  20  40  58  88 130 156 194 248 310 350
#     4   9  19  39  57  82 120 158 198 248 298 356
#     4  10  20  38  62  84 122 162 192 249 308 348
#     4  11  20  39  64  88 121 166 200 235 304 372
#     4  10  20  36  60  88 114 160 204 252 300 352
#     4   9  20  38  60  84 118 158 200 248 303 344
#     4  10  19  39  63  83 121 162 201 246 296 364
#     4  11  22  39  62  93 118 164 200 249 302 362
#
# _framework density 20.507106
#
# number of rings (size 3 to 8) (size 9 to 14) (size 15 to 20)
#    0.000    2.000    2.857    3.429    0.000    0.571 
#   15.429    3.571    0.000    1.714    0.000    0.000 
#    0.000    0.000    0.000    0.000    0.000    0.000 
#
# Total GULP energy -156002.450466 kJ/mol
# GULP energy per Si atom -5571.516088 kJ/mol
# Density = 2.046043 g / cm^3
# Si number density = 20.507106 Si / 1000 Ang^3
#
#
#
# Elastic Constant Matrix: (Units=GPa)
#
#
# Indices 1 2 3 4 5 6 
#
# 1 97.2542 21.8064 29.1429 0.0000 27.7415 0.0000
# 2 21.8064 23.8659 24.6594 0.0000 22.3819 0.0000
# 3 29.1429 24.6594 114.0532 0.0000 31.2450 0.0000
# 4 0.0000 0.0000 0.0000 14.3485 0.0000 6.6466
# 5 27.7415 22.3819 31.2450 0.0000 42.4492 0.0000
# 6 0.0000 0.0000 0.0000 6.6466 0.0000 37.3801
#
#
#
# Elastic Compliance Matrix: (Units=1/GPa)
#
#
# Indices 1 2 3 4 5 6 
#
# 1 0.013391 -0.007559 -0.000603 0.000000 -0.004321 0.000000
# 2 -0.007559 0.092537 -0.007594 0.000000 -0.038262 0.000000
# 3 -0.000603 -0.007594 0.011723 0.000000 -0.004230 0.000000
# 4 0.000000 0.000000 0.000000 0.075950 0.000000 -0.013505
# 5 -0.004321 -0.038262 -0.004230 0.000000 0.049670 0.000000
# 6 0.000000 0.000000 0.000000 -0.013505 0.000000 0.029153
#
#
# Mechanical properties :
#
#
# Convention : Reuss Voigt Hill
#
# Bulk Modulus (GPa) = 11.60934 42.93228 27.27081
# Shear Modulus (GPa) = 15.03090 29.47318 22.25204
#
# Velocity S-wave (km/s) = 2.71026 3.79518 3.29764
# Velocity P-wave (km/s) = 3.93287 6.33919 5.27507
#
# Compressibility (1/GPa) = 0.08613757
#
# Stress axis : x y z
#
# Youngs Moduli (GPa) = 74.67870 10.80651 85.30385
#
# Poissons Ratio (x) = 0.08169 0.05147
# Poissons Ratio (y) = 0.56449 0.64780
# Poissons Ratio (z) = 0.04506 0.08206
#
# Static dielectric constant tensor:
#      x y z
#    x 1.836140 0.000000 -0.060330 
#    y 0.000000 1.723180 0.000000 
#    z -0.060330 0.000000 1.806320 
# 
# From -- ./inp_files/50117.got.cif
#   From: 2010.05.17/outbox.cif.g08.bks.cpg/sg13_26_cif.got.tgz:50117.got - 2010.06.03 16:44:36.
