data_PCOD9229100
_publ_section_title
;
Structure prediction by ZEFSAII (Michael W. Deem and Ramdas Pophale) SiO2 
 PCOD9229100
Probable space group: P 2/C
;
_chemical_formula_sum "Si O2"
_cell_formula_units_Z 22
_cell_length_a 9.122161
_cell_length_b 14.396894
_cell_length_c 9.132194
_cell_angle_alpha 90.000000
_cell_angle_beta 91.511901
_cell_angle_gamma 90.000000
_cell_volume 1198.920676
_symmetry_space_group_name_H-M "P 2/C"
_symmetry_group_IT_number 13
_symmetry_cell_setting 'monoclinic'
loop_
_space_group_symop_operation_xyz
x,y,z
-x,y,1/2-z
-x,-y,-z
x,-y,1/2+z
loop_
_atom_site_type_symbol
_atom_site_label
_atom_site_fract_x
_atom_site_fract_y
_atom_site_fract_z
Si Si1 0.590782 0.784546 0.618769
Si Si2 0.146785 0.735845 0.664278
Si Si3 0.102847 0.055897 0.112882
Si Si4 0.600401 0.941618 0.392307
Si Si5 0.500000 0.524770 0.250000
Si Si6 0.369529 0.379195 0.019011
O O1 0.500000 0.833655 0.750000
O O2 0.730760 0.744904 0.705613
O O3 0.637576 0.851022 0.488977
O O4 0.485185 0.703854 0.555841
O O5 0.137573 0.835981 0.582275
O O6 0.209754 0.661027 0.552409
O O7 0.000000 0.714420 0.750000
O O8 0.000000 0.061887 0.250000
O O9 0.253403 0.999517 0.141311
O O10 0.000000 0.000000 0.000000
O O11 0.500000 0.919241 0.250000
O O12 0.500000 0.000000 0.500000
O O13 0.407724 0.459756 0.137042
O O14 0.398433 0.584863 0.356114
#
# Coordination Sequence:
#
# PCOD9229100 Si02
#       6
#     4   4   4   4   2   4
#     4  10  20  37  57  85 114 151 198 241 301 349
#     4  10  19  37  62  82 118 160 200 235 297 357
#     4  11  23  39  56  80 119 166 198 235 297 358
#     4  12  22  34  56  85 114 148 201 257 287 340
#     4  10  20  38  66  88 118 148 194 244 310 370
#     4  10  20  38  63  89 116 152 193 246 307 358
#
# _framework density 18.349836
#
# number of rings (size 3 to 8) (size 9 to 14) (size 15 to 20)
#    0.000    1.455    2.727    7.091    1.273    0.000 
#    0.000    0.909    0.000    0.000    0.000    0.000 
#    0.000    0.000    0.000    0.000    0.000    0.000 
#
# Total GULP energy -122731.650064 kJ/mol
# GULP energy per Si atom -5578.711367 kJ/mol
# Density = 1.830807 g / cm^3
# Si number density = 18.349836 Si / 1000 Ang^3
#
#
#
# Elastic Constant Matrix: (Units=GPa)
#
#
# Indices 1 2 3 4 5 6 
#
# 1 97.9870 23.9722 19.3261 0.0000 -30.5414 0.0000
# 2 23.9722 83.8437 44.1432 0.0000 -23.6520 0.0000
# 3 19.3261 44.1432 102.2312 0.0000 -17.1197 0.0000
# 4 0.0000 0.0000 0.0000 37.4997 0.0000 -10.6861
# 5 -30.5414 -23.6520 -17.1197 0.0000 27.5735 0.0000
# 6 0.0000 0.0000 0.0000 -10.6861 0.0000 27.9269
#
#
#
# Elastic Compliance Matrix: (Units=1/GPa)
#
#
# Indices 1 2 3 4 5 6 
#
# 1 0.015612 0.000676 -0.000279 0.000000 0.017698 0.000000
# 2 0.000676 0.018520 -0.005958 0.000000 0.012935 0.000000
# 3 -0.000279 -0.005958 0.012834 0.000000 0.002548 0.000000
# 4 0.000000 0.000000 0.000000 0.029931 0.000000 0.011453
# 5 0.017698 0.012935 0.002548 0.000000 0.068548 0.000000
# 6 0.000000 0.000000 0.000000 0.011453 0.000000 0.040190
#
#
# Mechanical properties :
#
#
# Convention : Reuss Voigt Hill
#
# Bulk Modulus (GPa) = 27.90024 50.99386 39.44705
# Shear Modulus (GPa) = 23.95733 31.70805 27.83269
#
# Velocity S-wave (km/s) = 3.61721 4.16140 3.89881
# Velocity P-wave (km/s) = 5.71693 7.13721 6.46619
#
# Compressibility (1/GPa) = 0.03584198
#
# Stress axis : x y z
#
# Youngs Moduli (GPa) = 64.05532 53.99641 77.91753
#
# Poissons Ratio (x) = -0.03651 0.02177
# Poissons Ratio (y) = -0.04332 0.46427
# Poissons Ratio (z) = 0.01790 0.32174
#
# Static dielectric constant tensor:
#      x y z
#    x 1.631220 0.000000 -0.007990 
#    y 0.000000 1.708590 0.000000 
#    z -0.007990 0.000000 1.633340 
# 
# From -- ./inp_files/12320.got.cif
#   From: 2010.05.17/outbox.cif.g08.bks.cpg/sg13_7_cif.got.tgz:12320.got - 2010.06.03 16:44:36.
