data_PCOD9229241
_publ_section_title
;
Structure prediction by ZEFSAII (Michael W. Deem and Ramdas Pophale) SiO2 
 PCOD9229241
Probable space group: P 2/C
;
_chemical_formula_sum "Si O2"
_cell_formula_units_Z 20
_cell_length_a 13.504143
_cell_length_b 9.774474
_cell_length_c 16.123231
_cell_angle_alpha 90.000000
_cell_angle_beta 26.691380
_cell_angle_gamma 90.000000
_cell_volume 955.954775
_symmetry_space_group_name_H-M "P 2/C"
_symmetry_group_IT_number 13
_symmetry_cell_setting 'monoclinic'
loop_
_space_group_symop_operation_xyz
x,y,z
-x,y,1/2-z
-x,-y,-z
x,-y,1/2+z
loop_
_atom_site_type_symbol
_atom_site_label
_atom_site_fract_x
_atom_site_fract_y
_atom_site_fract_z
Si Si1 0.816388 0.863411 0.207928
Si Si2 0.220852 0.739875 0.534258
Si Si3 0.998155 0.363145 0.053340
Si Si4 0.719103 0.989161 0.617744
Si Si5 0.541224 0.662708 0.980999
O O1 0.710398 0.974573 0.223199
O O2 0.648736 0.776983 0.391226
O O3 0.906291 0.751307 0.077000
O O4 0.039344 0.925174 0.079842
O O5 0.284209 0.872932 0.435187
O O6 0.396555 0.689597 0.469241
O O7 0.000000 0.773672 0.750000
O O8 0.151006 0.625532 0.520165
O O9 0.758873 0.315103 0.263445
O O10 0.000000 0.500000 0.000000
O O11 0.500000 0.911027 0.750000
O O12 0.500000 0.500000 0.000000
#
# Coordination Sequence:
#
# PCOD9229241 Si02
#       5
#     4   4   4   4   4
#     4  10  21  37  61  93 122 168 219 266 326 386
#     4   9  20  37  60  89 120 169 213 255 334 389
#     4  10  20  37  60  89 126 164 209 265 327 389
#     4  10  19  38  62  87 129 168 219 269 321 400
#     4  11  20  37  64  93 127 168 215 271 324 394
#
# _framework density 20.921489999999999
#
# number of rings (size 3 to 8) (size 9 to 14) (size 15 to 20)
#    0.000    2.000    4.000    0.000    0.000    0.000 
#    3.600    6.000    0.000    0.000    0.000    0.000 
#    0.000    0.000    0.000    0.000    0.000    0.000 
#
# Total GULP energy -111495.009835 kJ/mol
# GULP energy per Si atom -5574.750492 kJ/mol
# Density = 2.087387 g / cm^3
# Si number density = 20.921490 Si / 1000 Ang^3
#
#
#
# Elastic Constant Matrix: (Units=GPa)
#
#
# Indices 1 2 3 4 5 6 
#
# 1 83.3805 35.3062 49.9128 0.0000 -24.9653 0.0000
# 2 35.3062 64.0679 39.5300 0.0000 -12.0502 0.0000
# 3 49.9128 39.5300 112.7958 0.0000 -14.9190 0.0000
# 4 0.0000 0.0000 0.0000 36.9459 0.0000 0.1774
# 5 -24.9653 -12.0502 -14.9190 0.0000 38.2663 0.0000
# 6 0.0000 0.0000 0.0000 0.1774 0.0000 20.8491
#
#
#
# Elastic Compliance Matrix: (Units=1/GPa)
#
#
# Indices 1 2 3 4 5 6 
#
# 1 0.020926 -0.006142 -0.005860 0.000000 0.009434 0.000000
# 2 -0.006142 0.022239 -0.004934 0.000000 0.001072 0.000000
# 3 -0.005860 -0.004934 0.013155 0.000000 -0.000248 0.000000
# 4 0.000000 0.000000 0.000000 0.027068 0.000000 -0.000230
# 5 0.009434 0.001072 -0.000248 0.000000 0.032528 0.000000
# 6 0.000000 0.000000 0.000000 -0.000230 0.000000 0.047966
#
#
# Mechanical properties :
#
#
# Convention : Reuss Voigt Hill
#
# Bulk Modulus (GPa) = 44.54628 56.63802 50.59215
# Shear Modulus (GPa) = 24.36206 28.24527 26.30366
#
# Velocity S-wave (km/s) = 3.41611 3.67830 3.54963
# Velocity P-wave (km/s) = 6.07438 6.72089 6.40579
#
# Compressibility (1/GPa) = 0.02244856
#
# Stress axis : x y z
#
# Youngs Moduli (GPa) = 47.78667 44.96546 76.01713
#
# Poissons Ratio (x) = 0.27619 0.44544
# Poissons Ratio (y) = 0.29352 0.37508
# Poissons Ratio (z) = 0.28002 0.22186
#
# Static dielectric constant tensor:
#      x y z
#    x 1.799330 0.000000 -0.051980 
#    y 0.000000 2.105390 0.000000 
#    z -0.051980 0.000000 1.705880 
# 
# From -- ./inp_files/51072.got.cif
#   From: 2010.05.17/outbox.cif.g08.bks.cpg/sg13_26_cif.got.tgz:51072.got - 2010.06.03 16:44:36.
