data_PCOD9229214
_publ_section_title
;
Structure prediction by ZEFSAII (Michael W. Deem and Ramdas Pophale) SiO2 
 PCOD9229214
Probable space group: P 2/C
;
_chemical_formula_sum "Si O2"
_cell_formula_units_Z 20
_cell_length_a 6.120704
_cell_length_b 11.508315
_cell_length_c 13.463522
_cell_angle_alpha 90.000000
_cell_angle_beta 70.601204
_cell_angle_gamma 90.000000
_cell_volume 894.518323
_symmetry_space_group_name_H-M "P 2/C"
_symmetry_group_IT_number 13
_symmetry_cell_setting 'monoclinic'
loop_
_space_group_symop_operation_xyz
x,y,z
-x,y,1/2-z
-x,-y,-z
x,-y,1/2+z
loop_
_atom_site_type_symbol
_atom_site_label
_atom_site_fract_x
_atom_site_fract_y
_atom_site_fract_z
Si Si1 0.844341 0.912195 0.460102
Si Si2 0.085876 0.681137 0.467255
Si Si3 0.400798 0.939794 0.664489
Si Si4 0.631734 0.470793 0.082403
Si Si5 0.768458 0.696060 0.829372
O O1 0.610226 0.897391 0.560986
O O2 0.992284 0.794885 0.426339
O O3 0.760381 0.973017 0.372069
O O4 0.000000 0.000000 0.500000
O O5 0.269935 0.592520 0.389754
O O6 0.194016 0.715727 0.558193
O O7 0.857049 0.606245 0.525816
O O8 0.500000 0.994059 0.750000
O O9 0.269148 0.821763 0.713296
O O10 0.442090 0.388957 0.160105
O O11 0.500000 0.500000 0.000000
O O12 0.000000 0.641776 0.750000
#
# Coordination Sequence:
#
# PCOD9229214 Si02
#       5
#     4   4   4   4   4
#     4  11  22  39  64  96 129 174 218 259 332 393
#     4  10  19  38  60  93 124 169 211 262 314 396
#     4  11  24  37  58 100 135 166 219 276 325 389
#     4   9  20  35  59  93 119 160 215 261 324 383
#     4  11  21  34  60  97 130 158 211 284 327 371
#
# _framework density 22.358401000000001
#
# number of rings (size 3 to 8) (size 9 to 14) (size 15 to 20)
#    0.000    1.600    4.000    1.200    0.000    0.000 
#    0.000    0.000    0.000    0.000   88.400    0.000 
#    0.000    0.000    0.000    0.000    0.000    0.000 
#
# Total GULP energy -111768.595635 kJ/mol
# GULP energy per Si atom -5588.429782 kJ/mol
# Density = 2.230751 g / cm^3
# Si number density = 22.358401 Si / 1000 Ang^3
#
#
#
# Elastic Constant Matrix: (Units=GPa)
#
#
# Indices 1 2 3 4 5 6 
#
# 1 150.9942 80.1256 40.0984 0.0000 12.6902 0.0000
# 2 80.1256 161.6699 29.7259 0.0000 11.7725 0.0000
# 3 40.0984 29.7259 59.4347 0.0000 26.3576 0.0000
# 4 0.0000 0.0000 0.0000 0.0456 0.0000 1.3720
# 5 12.6902 11.7725 26.3576 0.0000 56.0076 0.0000
# 6 0.0000 0.0000 0.0000 1.3720 0.0000 59.6909
#
#
#
# Elastic Compliance Matrix: (Units=1/GPa)
#
#
# Indices 1 2 3 4 5 6 
#
# 1 0.010111 -0.004128 -0.005214 0.000000 0.001030 0.000000
# 2 -0.004128 0.008499 -0.001376 0.000000 -0.000204 0.000000
# 3 -0.005214 -0.001376 0.025754 0.000000 -0.010649 0.000000
# 4 0.000000 0.000000 0.000000 70.867809 0.000000 -1.628958
# 5 0.001030 -0.000204 -0.010649 0.000000 0.022676 0.000000
# 6 0.000000 0.000000 0.000000 -1.628958 0.000000 0.054196
#
#
# Mechanical properties :
#
#
# Convention : Reuss Voigt Hill
#
# Bulk Modulus (GPa) = 43.61280 74.66652 59.13966
# Shear Modulus (GPa) = 0.07040 37.95876 19.01458
#
# Velocity S-wave (km/s) = 0.17764 4.12483 2.91940
# Velocity P-wave (km/s) = 4.42613 7.49356 6.15403
#
# Compressibility (1/GPa) = 0.02292905
#
# Stress axis : x y z
#
# Youngs Moduli (GPa) = 98.90061 117.66289 38.82933
#
# Poissons Ratio (x) = 0.48566 0.20247
# Poissons Ratio (y) = 0.40821 0.05341
# Poissons Ratio (z) = 0.51569 0.16185
#
# Static dielectric constant tensor:
#      x y z
#    x 1.848450 0.000000 -0.029000 
#    y 0.000000 1.842270 0.000000 
#    z -0.029000 0.000000 1.879890 
# 
# From -- ./inp_files/43584.got.cif
#   From: 2010.05.17/outbox.cif.g08.bks.cpg/sg13_22_cif.got.tgz:43584.got - 2010.06.03 16:44:36.
