data_PCOD9229210
_publ_section_title
;
Structure prediction by ZEFSAII (Michael W. Deem and Ramdas Pophale) SiO2 
 PCOD9229210
Probable space group: P 2/C
;
_chemical_formula_sum "Si O2"
_cell_formula_units_Z 32
_cell_length_a 5.458932
_cell_length_b 8.758205
_cell_length_c 33.536773
_cell_angle_alpha 90.000000
_cell_angle_beta 94.215975
_cell_angle_gamma 90.000000
_cell_volume 1599.069266
_symmetry_space_group_name_H-M "P 2/C"
_symmetry_group_IT_number 13
_symmetry_cell_setting 'monoclinic'
loop_
_space_group_symop_operation_xyz
x,y,z
-x,y,1/2-z
-x,-y,-z
x,-y,1/2+z
loop_
_atom_site_type_symbol
_atom_site_label
_atom_site_fract_x
_atom_site_fract_y
_atom_site_fract_z
Si Si1 0.867574 0.809366 0.876934
Si Si2 0.453288 0.149480 0.053521
Si Si3 0.397623 0.505281 0.646917
Si Si4 0.975504 0.691442 0.409242
Si Si5 0.167958 0.091967 0.972625
Si Si6 0.076980 0.901345 0.335544
Si Si7 0.438837 0.218741 0.702831
Si Si8 0.741943 0.588889 0.587969
O O1 0.693814 0.892968 0.907328
O O2 0.733225 0.671414 0.850825
O O3 0.049041 0.714330 0.907070
O O4 0.016495 0.929872 0.851941
O O5 0.526260 0.322950 0.064548
O O6 0.664433 0.020874 0.051776
O O7 0.343780 0.166960 0.007793
O O8 0.421519 0.389804 0.683906
O O9 0.661353 0.545849 0.631822
O O10 0.253262 0.404157 0.611307
O O11 0.975134 0.811364 0.444554
O O12 0.079080 0.784951 0.372866
O O13 0.162863 0.566120 0.428496
O O14 0.000000 0.000000 0.000000
O O15 0.336199 0.873388 0.316126
O O16 0.829848 0.855753 0.308014
O O17 0.500000 0.224583 0.750000
#
# Coordination Sequence:
#
# PCOD9229210 Si02
#       8
#     4   4   4   4   4   4   4   4
#     4  10  22  39  66  93 126 171 219 272 320 387
#     4  10  22  37  58  85 123 165 215 273 331 382
#     4   9  21  40  64  95 120 170 215 262 321 396
#     4  10  21  36  60  88 123 162 221 262 318 388
#     4  11  23  38  55  86 124 167 214 274 335 383
#     4  11  23  40  70 100 129 175 217 270 323 395
#     4  11  24  44  69 100 137 170 214 267 332 399
#     4  10  19  38  60  86 118 161 219 266 319 383
#
# _framework density 20.01164
#
# number of rings (size 3 to 8) (size 9 to 14) (size 15 to 20)
#    0.000    1.750    1.250    2.625    5.250    2.500 
#    0.000    9.375    2.750    0.000    0.000    0.000 
#    0.000    0.000    0.000    0.000    0.000    0.000 
#
# Total GULP energy -178154.456975 kJ/mol
# GULP energy per Si atom -5567.326780 kJ/mol
# Density = 1.996609 g / cm^3
# Si number density = 20.011640 Si / 1000 Ang^3
#
#
#
# Elastic Constant Matrix: (Units=GPa)
#
#
# Indices 1 2 3 4 5 6 
#
# 1 54.4631 20.9394 10.9857 0.0000 -12.3594 0.0000
# 2 20.9394 107.2934 39.9446 0.0000 -2.7072 0.0000
# 3 10.9857 39.9446 77.6534 0.0000 1.1694 0.0000
# 4 0.0000 0.0000 0.0000 27.5689 0.0000 -3.1693
# 5 -12.3594 -2.7072 1.1694 0.0000 26.0650 0.0000
# 6 0.0000 0.0000 0.0000 -3.1693 0.0000 21.4312
#
#
#
# Elastic Compliance Matrix: (Units=1/GPa)
#
#
# Indices 1 2 3 4 5 6 
#
# 1 0.022365 -0.003549 -0.001494 0.000000 0.010303 0.000000
# 2 -0.003549 0.012147 -0.005744 0.000000 -0.000163 0.000000
# 3 -0.001494 -0.005744 0.016074 0.000000 -0.002026 0.000000
# 4 0.000000 0.000000 0.000000 0.036900 0.000000 0.005457
# 5 0.010303 -0.000163 -0.002026 0.000000 0.043325 0.000000
# 6 0.000000 0.000000 0.000000 0.005457 0.000000 0.047468
#
#
# Mechanical properties :
#
#
# Convention : Reuss Voigt Hill
#
# Bulk Modulus (GPa) = 34.46668 42.57216 38.51942
# Shear Modulus (GPa) = 23.86372 26.18236 25.02304
#
# Velocity S-wave (km/s) = 3.45699 3.62105 3.53997
# Velocity P-wave (km/s) = 5.76152 6.22917 5.99990
#
# Compressibility (1/GPa) = 0.02901353
#
# Stress axis : x y z
#
# Youngs Moduli (GPa) = 44.71305 82.32419 62.21148
#
# Poissons Ratio (x) = 0.29214 0.09293
# Poissons Ratio (y) = 0.15867 0.35734
# Poissons Ratio (z) = 0.06679 0.47286
#
# Static dielectric constant tensor:
#      x y z
#    x 1.782770 0.000000 -0.002020 
#    y 0.000000 1.736340 0.000000 
#    z -0.002020 0.000000 1.661960 
# 
# From -- ./inp_files/95047.got.cif
#   From: 2010.05.17/outbox.cif.g08.bks.cpg/sg13_48_cif.got.tgz:95047.got - 2010.06.03 16:44:36.
