data_PCOD9229334
_publ_section_title
;
Structure prediction by ZEFSAII (Michael W. Deem and Ramdas Pophale) SiO2 
 PCOD9229334
Probable space group: P 2/C
;
_chemical_formula_sum "Si O2"
_cell_formula_units_Z 22
_cell_length_a 15.599498
_cell_length_b 8.611709
_cell_length_c 18.391811
_cell_angle_alpha 90.000000
_cell_angle_beta 152.874352
_cell_angle_gamma 90.000000
_cell_volume 1126.510795
_symmetry_space_group_name_H-M "P 2/C"
_symmetry_group_IT_number 13
_symmetry_cell_setting 'monoclinic'
loop_
_space_group_symop_operation_xyz
x,y,z
-x,y,1/2-z
-x,-y,-z
x,-y,1/2+z
loop_
_atom_site_type_symbol
_atom_site_label
_atom_site_fract_x
_atom_site_fract_y
_atom_site_fract_z
Si Si1 0.754106 0.132065 0.632285
Si Si2 0.000000 0.623482 0.250000
Si Si3 0.553475 0.081536 0.874005
Si Si4 0.382530 0.661218 0.857064
Si Si5 0.191831 0.043968 0.182323
Si Si6 0.350019 0.419692 0.497229
O O1 0.564966 0.228028 0.509536
O O2 0.917669 0.258337 0.747717
O O3 0.704482 0.041395 0.520195
O O4 0.802615 0.006268 0.729413
O O5 0.178545 0.515660 0.402606
O O6 0.500000 0.060115 0.750000
O O7 0.620303 0.255594 0.942109
O O8 0.364066 0.046974 0.775741
O O9 0.233049 0.773479 0.707517
O O10 0.461778 0.524919 0.865855
O O11 0.310084 0.604586 0.880632
O O12 0.000000 0.000000 0.000000
#
# Coordination Sequence:
#
# PCOD9229334 Si02
#       6
#     4   2   4   4   4   4
#     4  10  20  42  62  86 122 161 208 246 303 361
#     4  10  24  34  62  96 116 162 196 256 298 360
#     4  11  23  40  63  91 123 164 202 256 308 363
#     4   9  18  39  66  81 114 170 196 245 304 371
#     4  11  22  39  63  92 119 162 215 249 295 365
#     4  10  19  39  62  87 124 156 205 241 317 362
#
# _framework density 19.529328
#
# number of rings (size 3 to 8) (size 9 to 14) (size 15 to 20)
#    0.000    1.818    3.636    1.091    2.545    2.182 
#    3.273    2.727    0.000    0.000    0.000    0.000 
#    0.000    0.000    0.000    0.000    0.000    0.000 
#
# Total GULP energy -122741.864367 kJ/mol
# GULP energy per Si atom -5579.175653 kJ/mol
# Density = 1.948488 g / cm^3
# Si number density = 19.529328 Si / 1000 Ang^3
#
#
#
# Elastic Constant Matrix: (Units=GPa)
#
#
# Indices 1 2 3 4 5 6 
#
# 1 71.2796 32.7883 36.2082 0.0000 -5.7214 0.0000
# 2 32.7883 119.7328 39.1268 0.0000 2.4550 0.0000
# 3 36.2082 39.1268 67.7680 0.0000 1.5988 0.0000
# 4 0.0000 0.0000 0.0000 29.4185 0.0000 1.3175
# 5 -5.7214 2.4550 1.5988 0.0000 28.1751 0.0000
# 6 0.0000 0.0000 0.0000 1.3175 0.0000 16.3206
#
#
#
# Elastic Compliance Matrix: (Units=1/GPa)
#
#
# Indices 1 2 3 4 5 6 
#
# 1 0.020470 -0.002582 -0.009562 0.000000 0.004924 0.000000
# 2 -0.002582 0.010629 -0.004729 0.000000 -0.001182 0.000000
# 3 -0.009562 -0.004729 0.022662 0.000000 -0.002816 0.000000
# 4 0.000000 0.000000 0.000000 0.034116 0.000000 -0.002754
# 5 0.004924 -0.001182 -0.002816 0.000000 0.036755 0.000000
# 6 0.000000 0.000000 0.000000 -0.002754 0.000000 0.061495
#
#
# Mechanical properties :
#
#
# Convention : Reuss Voigt Hill
#
# Bulk Modulus (GPa) = 49.96571 52.78080 51.37325
# Shear Modulus (GPa) = 22.07079 24.82665 23.44872
#
# Velocity S-wave (km/s) = 3.36540 3.56933 3.46886
# Velocity P-wave (km/s) = 6.38292 6.63867 6.51205
#
# Compressibility (1/GPa) = 0.02001372
#
# Stress axis : x y z
#
# Youngs Moduli (GPa) = 48.85316 94.08577 44.12595
#
# Poissons Ratio (x) = 0.24289 0.42195
# Poissons Ratio (y) = 0.12612 0.20869
# Poissons Ratio (z) = 0.46716 0.44497
#
# Static dielectric constant tensor:
#      x y z
#    x 1.700550 0.000000 0.016420 
#    y 0.000000 1.701010 0.000000 
#    z 0.016420 0.000000 1.670150 
# 
# From -- ./inp_files/68016.got.cif
#   From: 2010.05.17/outbox.cif.g08.bks.cpg/sg13_35_cif.got.tgz:68016.got - 2010.06.03 16:44:36.
