data_PCOD9229498
_publ_section_title
;
Structure prediction by ZEFSAII (Michael W. Deem and Ramdas Pophale) SiO2 
 PCOD9229498
Probable space group: P 2/C
;
_chemical_formula_sum "Si O2"
_cell_formula_units_Z 30
_cell_length_a 33.107528
_cell_length_b 5.584243
_cell_length_c 19.452472
_cell_angle_alpha 90.000000
_cell_angle_beta 161.593887
_cell_angle_gamma 90.000000
_cell_volume 1135.558720
_symmetry_space_group_name_H-M "P 2/C"
_symmetry_group_IT_number 13
_symmetry_cell_setting 'monoclinic'
loop_
_space_group_symop_operation_xyz
x,y,z
-x,y,1/2-z
-x,-y,-z
x,-y,1/2+z
loop_
_atom_site_type_symbol
_atom_site_label
_atom_site_fract_x
_atom_site_fract_y
_atom_site_fract_z
Si Si1 0.494552 0.783073 0.596117
Si Si2 0.500000 0.545332 0.750000
Si Si3 0.112295 0.060825 0.986336
Si Si4 0.147744 0.285080 0.729918
Si Si5 0.155457 0.561039 0.009334
Si Si6 0.450083 0.302789 0.539709
Si Si7 0.711091 0.485665 0.412872
Si Si8 0.879668 0.213428 0.353352
O O1 0.534379 0.722527 0.740827
O O2 0.606665 0.333670 0.778189
O O3 0.428726 0.033874 0.484747
O O4 0.617882 0.742352 0.747323
O O5 0.574602 0.355329 0.919695
O O6 0.194337 0.295670 0.099104
O O7 0.000000 0.042697 0.750000
O O8 0.173699 0.797585 0.085108
O O9 0.063168 0.128973 0.982009
O O10 0.193518 0.379930 0.877107
O O11 0.176927 0.518931 0.731119
O O12 0.994685 0.247127 0.484728
O O13 0.201169 0.021059 0.798953
O O14 0.210844 0.595616 0.022659
O O15 0.000000 0.538841 0.750000
O O16 0.408826 0.552573 0.437561
#
# Coordination Sequence:
#
# PCOD9229498 Si02
#       8
#     4   2   4   4   4   4   4   4
#     4   8  16  25  42  64  93 119 147 178 214 283
#     4   6  14  24  44  60  92 124 148 162 218 262
#     4  10  20  33  47  61  81 110 155 203 234 276
#     4  10  20  32  49  61  92 112 151 205 233 295
#     4  10  20  30  47  62  85 120 157 201 225 265
#     4   8  16  25  42  64  93 119 147 178 214 283
#     4   9  21  29  47  68  93 123 159 187 242 262
#     4  10  21  33  45  66  79 118 158 198 252 264
#
# _framework density 26.418713
#
# number of rings (size 3 to 8) (size 9 to 14) (size 15 to 20)
#    1.600    1.067    0.000    2.800    3.733    5.333 
#    0.000    0.000    0.000    0.000    0.000    0.000 
#    0.000    0.000    0.000  115.200    0.000    0.000 
#
# Total GULP energy -167036.535962 kJ/mol
# GULP energy per Si atom -5567.884532 kJ/mol
# Density = 2.635858 g / cm^3
# Si number density = 26.418713 Si / 1000 Ang^3
#
#
#
# Elastic Constant Matrix: (Units=GPa)
#
#
# Indices 1 2 3 4 5 6 
#
# 1 118.6742 34.0070 22.6898 0.0000 11.0997 0.0000
# 2 34.0070 277.4395 43.0481 0.0000 3.7156 0.0000
# 3 22.6898 43.0481 47.9309 0.0000 13.7450 0.0000
# 4 0.0000 0.0000 0.0000 68.9673 0.0000 -13.0125
# 5 11.0997 3.7156 13.7450 0.0000 40.0377 0.0000
# 6 0.0000 0.0000 0.0000 -13.0125 0.0000 40.6171
#
#
#
# Elastic Compliance Matrix: (Units=1/GPa)
#
#
# Indices 1 2 3 4 5 6 
#
# 1 0.009396 -0.000585 -0.003540 0.000000 -0.001335 0.000000
# 2 -0.000585 0.004261 -0.003864 0.000000 0.001093 0.000000
# 3 -0.003540 -0.003864 0.028423 0.000000 -0.008418 0.000000
# 4 0.000000 0.000000 0.000000 0.015432 0.000000 0.004944
# 5 -0.001335 0.001093 -0.008418 0.000000 0.028135 0.000000
# 6 0.000000 0.000000 0.000000 0.004944 0.000000 0.026204
#
#
# Mechanical properties :
#
#
# Convention : Reuss Voigt Hill
#
# Bulk Modulus (GPa) = 38.30886 71.50383 54.90634
# Shear Modulus (GPa) = 36.62251 52.87774 44.75013
#
# Velocity S-wave (km/s) = 3.72726 4.47870 4.12014
# Velocity P-wave (km/s) = 5.74938 7.33957 6.59260
#
# Compressibility (1/GPa) = 0.02610362
#
# Stress axis : x y z
#
# Youngs Moduli (GPa) = 106.43255 234.69364 35.18281
#
# Poissons Ratio (x) = 0.13719 0.12454
# Poissons Ratio (y) = 0.06221 0.13593
# Poissons Ratio (z) = 0.37676 0.90675
#
# Static dielectric constant tensor:
#      x y z
#    x 2.040390 0.000000 0.062200 
#    y 0.000000 2.134430 0.000000 
#    z 0.062200 0.000000 2.189980 
# 
# From -- ./inp_files/82630.got.cif
#   From: 2010.05.17/outbox.cif.g08.bks.cpg/sg13_42_cif.got.tgz:82630.got - 2010.06.03 16:44:36.
