data_PCOD9229051
_publ_section_title
;
Structure prediction by ZEFSAII (Michael W. Deem and Ramdas Pophale) SiO2 
 PCOD9229051
Probable space group: P 2/C
;
_chemical_formula_sum "Si O2"
_cell_formula_units_Z 24
_cell_length_a 5.276873
_cell_length_b 18.707092
_cell_length_c 10.291188
_cell_angle_alpha 90.000000
_cell_angle_beta 80.587600
_cell_angle_gamma 90.000000
_cell_volume 1002.216901
_symmetry_space_group_name_H-M "P 2/C"
_symmetry_group_IT_number 13
_symmetry_cell_setting 'monoclinic'
loop_
_space_group_symop_operation_xyz
x,y,z
-x,y,1/2-z
-x,-y,-z
x,-y,1/2+z
loop_
_atom_site_type_symbol
_atom_site_label
_atom_site_fract_x
_atom_site_fract_y
_atom_site_fract_z
Si Si1 0.408643 0.149365 0.396496
Si Si2 0.480627 0.740119 0.109415
Si Si3 0.247562 0.600536 0.066143
Si Si4 0.914270 0.679979 0.882937
Si Si5 0.079753 0.944652 0.604811
Si Si6 0.667605 0.537993 0.859925
O O1 0.500000 0.180670 0.250000
O O2 0.735319 0.282549 0.506526
O O3 0.130394 0.116932 0.394735
O O4 0.632344 0.090178 0.415272
O O5 0.500000 0.773975 0.250000
O O6 0.312529 0.668015 0.149557
O O7 0.366512 0.794619 0.015069
O O8 0.131179 0.525497 0.123819
O O9 0.517002 0.565251 0.001535
O O10 0.115669 0.637243 0.955407
O O11 0.768071 0.616711 0.818540
O O12 0.000000 0.726303 0.750000
O O13 0.000000 0.978544 0.750000
O O14 0.000000 0.000000 0.500000
O O15 0.500000 0.514166 0.750000
#
# Coordination Sequence:
#
# PCOD9229051 Si02
#       6
#     4   4   4   4   4   4
#     4  10  24  43  71 103 144 189 236 277 331 408
#     4  11  27  44  62  94 134 175 223 285 347 401
#     4  10  22  38  60  86 124 163 215 281 349 415
#     4  11  23  39  66  92 117 169 228 277 348 427
#     4  10  22  43  72 110 144 184 229 279 332 393
#     4  10  19  37  59  88 120 156 214 284 349 418
#
# _framework density 23.946911
#
# number of rings (size 3 to 8) (size 9 to 14) (size 15 to 20)
#    0.000    1.667    1.667    1.500    4.667    2.667 
#    3.000    0.000    0.000    0.000    0.000    0.000 
#    0.000    0.000    0.000    0.000    0.000    0.000 
#
# Total GULP energy -133612.965143 kJ/mol
# GULP energy per Si atom -5567.206881 kJ/mol
# Density = 2.389241 g / cm^3
# Si number density = 23.946911 Si / 1000 Ang^3
#
#
#
# Elastic Constant Matrix: (Units=GPa)
#
#
# Indices 1 2 3 4 5 6 
#
# 1 47.5156 -4.2883 5.7567 0.0000 0.2649 0.0000
# 2 -4.2883 36.4470 33.5759 0.0000 -2.9418 0.0000
# 3 5.7567 33.5759 173.3652 0.0000 -2.8301 0.0000
# 4 0.0000 0.0000 0.0000 37.2747 0.0000 9.7066
# 5 0.2649 -2.9418 -2.8301 0.0000 41.0724 0.0000
# 6 0.0000 0.0000 0.0000 9.7066 0.0000 36.3439
#
#
#
# Elastic Compliance Matrix: (Units=1/GPa)
#
#
# Indices 1 2 3 4 5 6 
#
# 1 0.021575 0.003896 -0.001470 0.000000 0.000039 0.000000
# 2 0.003896 0.034255 -0.006732 0.000000 0.001965 0.000000
# 3 -0.001470 -0.006732 0.007121 0.000000 0.000018 0.000000
# 4 0.000000 0.000000 0.000000 0.028833 0.000000 -0.007701
# 5 0.000039 0.001965 0.000018 0.000000 0.024489 0.000000
# 6 0.000000 0.000000 0.000000 -0.007701 0.000000 0.029572
#
#
# Mechanical properties :
#
#
# Convention : Reuss Voigt Hill
#
# Bulk Modulus (GPa) = 18.40265 36.37962 27.39114
# Shear Modulus (GPa) = 28.97369 37.75709 33.36539
#
# Velocity S-wave (km/s) = 3.48215 3.97508 3.73675
# Velocity P-wave (km/s) = 4.88556 6.02437 5.48460
#
# Compressibility (1/GPa) = 0.05434001
#
# Stress axis : x y z
#
# Youngs Moduli (GPa) = 46.34940 29.19249 140.42958
#
# Poissons Ratio (x) = -0.11374 0.20648
# Poissons Ratio (y) = -0.18058 0.94532
# Poissons Ratio (z) = 0.06815 0.19651
#
# Static dielectric constant tensor:
#      x y z
#    x 2.479620 0.000000 -0.297930 
#    y 0.000000 2.134060 0.000000 
#    z -0.297930 0.000000 2.119110 
# 
# From -- ./inp_files/26561.got.cif
#   From: 2010.05.17/outbox.cif.g08.bks.cpg/sg13_14_cif.got.tgz:26561.got - 2010.06.03 16:44:36.
