data_PCOD9229456
_publ_section_title
;
Structure prediction by ZEFSAII (Michael W. Deem and Ramdas Pophale) SiO2 
 PCOD9229456
Probable space group: P 2/C
;
_chemical_formula_sum "Si O2"
_cell_formula_units_Z 16
_cell_length_a 8.090494
_cell_length_b 8.952622
_cell_length_c 17.721376
_cell_angle_alpha 90.000000
_cell_angle_beta 147.736907
_cell_angle_gamma 90.000000
_cell_volume 685.184634
_symmetry_space_group_name_H-M "P 2/C"
_symmetry_group_IT_number 13
_symmetry_cell_setting 'monoclinic'
loop_
_space_group_symop_operation_xyz
x,y,z
-x,y,1/2-z
-x,-y,-z
x,-y,1/2+z
loop_
_atom_site_type_symbol
_atom_site_label
_atom_site_fract_x
_atom_site_fract_y
_atom_site_fract_z
Si Si1 0.799703 0.591711 0.589676
Si Si2 0.576316 0.879862 0.593939
Si Si3 0.568621 0.573501 0.194251
Si Si4 0.918259 0.134623 0.805489
O O1 0.500000 0.500000 0.500000
O O2 0.737589 0.747713 0.608806
O O3 0.732027 0.586308 0.474128
O O4 0.141133 0.520438 0.729124
O O5 0.219573 0.843177 0.475069
O O6 0.500000 0.000000 0.500000
O O7 0.768874 0.969724 0.732369
O O8 0.500000 0.510939 0.250000
O O9 0.679556 0.744464 0.241988
O O10 0.000000 0.182759 0.750000
#
# Coordination Sequence:
#
# PCOD9229456 Si02
#       4
#     4   4   4   4
#     4  12  23  44  72 102 126 179 241 281 325 400
#     4  10  20  38  71  95 127 163 237 282 324 379
#     4  12  25  43  65 102 148 179 214 283 355 408
#     4  10  19  41  65  96 128 176 226 280 326 396
#
# _framework density 23.351371
#
# number of rings (size 3 to 8) (size 9 to 14) (size 15 to 20)
#    0.000    1.000    7.500    1.500    0.000    6.000 
#    0.000    1.250    0.000    0.000    0.000    0.000 
#    0.000    0.000    0.000    0.000    0.000    0.000 
#
# Total GULP energy -89106.959780 kJ/mol
# GULP energy per Si atom -5569.184986 kJ/mol
# Density = 2.329822 g / cm^3
# Si number density = 23.351371 Si / 1000 Ang^3
#
#
#
# Elastic Constant Matrix: (Units=GPa)
#
#
# Indices 1 2 3 4 5 6 
#
# 1 54.8338 24.8086 29.2474 0.0000 4.7431 0.0000
# 2 24.8086 138.3292 48.0309 0.0000 -0.0084 0.0000
# 3 29.2474 48.0309 184.6749 0.0000 -16.0560 0.0000
# 4 0.0000 0.0000 0.0000 35.8289 0.0000 -5.7475
# 5 4.7431 -0.0084 -16.0560 0.0000 18.5493 0.0000
# 6 0.0000 0.0000 0.0000 -5.7475 0.0000 4.5625
#
#
#
# Elastic Compliance Matrix: (Units=1/GPa)
#
#
# Indices 1 2 3 4 5 6 
#
# 1 0.022124 -0.002735 -0.003552 0.000000 -0.008733 0.000000
# 2 -0.002735 0.008349 -0.001814 0.000000 -0.000867 0.000000
# 3 -0.003552 -0.001814 0.007059 0.000000 0.007018 0.000000
# 4 0.000000 0.000000 0.000000 0.034979 0.000000 0.044064
# 5 -0.008733 -0.000867 0.007018 0.000000 0.062218 0.000000
# 6 0.000000 0.000000 0.000000 0.044064 0.000000 0.274684
#
#
# Mechanical properties :
#
#
# Convention : Reuss Voigt Hill
#
# Bulk Modulus (GPa) = 46.87870 64.66797 55.77333
# Shear Modulus (GPa) = 11.55466 30.17154 20.86310
#
# Velocity S-wave (km/s) = 2.22686 3.59843 2.99229
# Velocity P-wave (km/s) = 5.17019 6.70958 5.98955
#
# Compressibility (1/GPa) = 0.02133165
#
# Stress axis : x y z
#
# Youngs Moduli (GPa) = 45.19930 119.76945 141.65751
#
# Poissons Ratio (x) = 0.32759 0.50313
# Poissons Ratio (y) = 0.12363 0.25693
# Poissons Ratio (z) = 0.16054 0.21723
#
# Static dielectric constant tensor:
#      x y z
#    x 1.961730 0.000000 0.015830 
#    y 0.000000 2.068820 0.000000 
#    z 0.015830 0.000000 2.255200 
# 
# From -- ./inp_files/84918.got.cif
#   From: 2010.05.17/outbox.cif.g08.bks.cpg/sg13_43_cif.got.tgz:84918.got - 2010.06.03 16:44:36.
