data_PCOD9229669
_publ_section_title
;
Structure prediction by ZEFSAII (Michael W. Deem and Ramdas Pophale) SiO2 
 PCOD9229669
Probable space group: P 2/C
;
_chemical_formula_sum "Si O2"
_cell_formula_units_Z 22
_cell_length_a 11.005583
_cell_length_b 9.211274
_cell_length_c 11.348838
_cell_angle_alpha 90.000000
_cell_angle_beta 106.511359
_cell_angle_gamma 90.000000
_cell_volume 1103.051024
_symmetry_space_group_name_H-M "P 2/C"
_symmetry_group_IT_number 13
_symmetry_cell_setting 'monoclinic'
loop_
_space_group_symop_operation_xyz
x,y,z
-x,y,1/2-z
-x,-y,-z
x,-y,1/2+z
loop_
_atom_site_type_symbol
_atom_site_label
_atom_site_fract_x
_atom_site_fract_y
_atom_site_fract_z
Si Si1 0.663000 0.441284 0.579348
Si Si2 0.262349 0.723147 0.049193
Si Si3 0.500000 0.648612 0.250000
Si Si4 0.466277 0.804115 0.606504
Si Si5 0.295055 0.014124 0.424610
Si Si6 0.145203 0.230981 0.759062
O O1 0.707272 0.586439 0.526073
O O2 0.588392 0.442156 0.684421
O O3 0.570967 0.343345 0.472064
O O4 0.789335 0.349850 0.639347
O O5 0.400940 0.746500 0.149502
O O6 0.168440 0.710345 0.133555
O O7 0.214130 0.859493 0.961616
O O8 0.500000 0.774788 0.750000
O O9 0.586876 0.894231 0.593045
O O10 0.348514 0.908731 0.541763
O O11 0.225401 0.915425 0.309099
O O12 0.000000 0.208485 0.750000
#
# Coordination Sequence:
#
# PCOD9229669 Si02
#       6
#     4   4   2   4   4   4
#     4  10  22  38  62  93 124 164 200 256 317 371
#     4  11  22  37  61  91 124 161 207 256 311 371
#     4  10  20  36  58  92 134 154 190 254 322 382
#     4  10  20  33  57  92 128 159 196 247 315 388
#     4  10  21  37  58  89 122 165 205 254 314 363
#     4  10  24  44  61  84 125 171 216 261 299 356
#
# _framework density 19.944680999999999
#
# number of rings (size 3 to 8) (size 9 to 14) (size 15 to 20)
#    0.000    1.818    1.818    1.636    5.091    2.909 
#    0.000    0.909    0.000    0.000    0.000    0.000 
#    0.000    0.000    0.000    0.000    0.000    0.000 
#
# Total GULP energy -122666.352888 kJ/mol
# GULP energy per Si atom -5575.743313 kJ/mol
# Density = 1.989929 g / cm^3
# Si number density = 19.944681 Si / 1000 Ang^3
#
#
#
# Elastic Constant Matrix: (Units=GPa)
#
#
# Indices 1 2 3 4 5 6 
#
# 1 81.8018 29.8359 28.4292 0.0000 -6.4809 0.0000
# 2 29.8359 116.3606 49.6706 0.0000 -11.2016 0.0000
# 3 28.4292 49.6706 102.6709 0.0000 -23.0327 0.0000
# 4 0.0000 0.0000 0.0000 31.0390 0.0000 -1.4914
# 5 -6.4809 -11.2016 -23.0327 0.0000 25.0179 0.0000
# 6 0.0000 0.0000 0.0000 -1.4914 0.0000 8.6143
#
#
#
# Elastic Compliance Matrix: (Units=1/GPa)
#
#
# Indices 1 2 3 4 5 6 
#
# 1 0.014059 -0.002449 -0.002693 0.000000 0.000066 0.000000
# 2 -0.002449 0.011257 -0.004763 0.000000 0.000021 0.000000
# 3 -0.002693 -0.004763 0.015319 0.000000 0.011273 0.000000
# 4 0.000000 0.000000 0.000000 0.032488 0.000000 0.005625
# 5 0.000066 0.000021 0.011273 0.000000 0.050376 0.000000
# 6 0.000000 0.000000 0.000000 0.005625 0.000000 0.117059
#
#
# Mechanical properties :
#
#
# Convention : Reuss Voigt Hill
#
# Bulk Modulus (GPa) = 48.02132 57.41164 52.71648
# Shear Modulus (GPa) = 18.70480 25.79409 22.24944
#
# Velocity S-wave (km/s) = 3.06573 3.60012 3.34362
# Velocity P-wave (km/s) = 6.05484 6.79184 6.43390
#
# Compressibility (1/GPa) = 0.02082408
#
# Stress axis : x y z
#
# Youngs Moduli (GPa) = 71.12818 88.83216 65.27833
#
# Poissons Ratio (x) = 0.21753 0.17582
# Poissons Ratio (y) = 0.17418 0.31094
# Poissons Ratio (z) = 0.19158 0.42314
#
# Static dielectric constant tensor:
#      x y z
#    x 1.710720 0.000000 -0.032390 
#    y 0.000000 1.745400 0.000000 
#    z -0.032390 0.000000 1.734800 
# 
# From -- ./inp_files/32694.got.cif
#   From: 2010.05.17/outbox.cif.g08.bks.cpg/sg13_17_cif.got.tgz:32694.got - 2010.06.03 16:44:36.
