data_PCOD9229977
_publ_section_title
;
Structure prediction by ZEFSAII (Michael W. Deem and Ramdas Pophale) SiO2 
 PCOD9229977
Probable space group: P 2/C
;
_chemical_formula_sum "Si O2"
_cell_formula_units_Z 28
_cell_length_a 11.003528
_cell_length_b 14.222395
_cell_length_c 9.299099
_cell_angle_alpha 90.000000
_cell_angle_beta 119.613417
_cell_angle_gamma 90.000000
_cell_volume 1265.187304
_symmetry_space_group_name_H-M "P 2/C"
_symmetry_group_IT_number 13
_symmetry_cell_setting 'monoclinic'
loop_
_space_group_symop_operation_xyz
x,y,z
-x,y,1/2-z
-x,-y,-z
x,-y,1/2+z
loop_
_atom_site_type_symbol
_atom_site_label
_atom_site_fract_x
_atom_site_fract_y
_atom_site_fract_z
Si Si1 0.043200 0.627348 0.589886
Si Si2 0.392948 0.415071 0.920085
Si Si3 0.494918 0.788577 0.922235
Si Si4 0.000000 0.973792 0.750000
Si Si5 0.000000 0.290153 0.750000
Si Si6 0.218161 0.861058 0.408331
Si Si7 0.816957 0.181434 0.282418
Si Si8 0.226214 0.518079 0.067127
O O1 0.105196 0.720605 0.695092
O O2 0.158322 0.546681 0.651271
O O3 0.021368 0.650568 0.406311
O O4 0.898071 0.584900 0.560580
O O5 0.334612 0.419927 0.723202
O O6 0.500000 0.500000 0.000000
O O7 0.461951 0.314902 0.996910
O O8 0.284923 0.445888 0.983032
O O9 0.500000 0.784760 0.750000
O O10 0.338143 0.818209 0.878192
O O11 0.620469 0.858687 0.044274
O O12 0.073713 0.901831 0.683848
O O13 0.129909 0.043163 0.857814
O O14 0.126465 0.219728 0.778927
O O15 0.215394 0.825413 0.569031
#
# Coordination Sequence:
#
# PCOD9229977 Si02
#       8
#     4   4   4   2   2   4   4   4
#     4  10  20  35  56  85 115 150 196 243 288 343
#     4  12  23  38  57  85 119 157 199 244 293 349
#     4  10  20  38  61  82 111 154 197 238 286 351
#     4  11  22  36  57  86 114 142 179 244 306 353
#     4   9  16  34  59  82 112 152 197 240 284 341
#     4   9  19  36  59  82 108 146 194 236 283 352
#     4  10  21  36  57  83 113 148 188 239 296 351
#     4  11  23  36  58  84 117 157 200 244 288 343
#
# _framework density 22.131112000000002
#
# number of rings (size 3 to 8) (size 9 to 14) (size 15 to 20)
#    0.000    1.714    0.000    6.857    0.000    4.571 
#    0.000    0.000    0.000    0.000    0.000    0.000 
#    0.000    0.000    0.000    0.000    0.000    0.000 
#
# Total GULP energy -156199.957342 kJ/mol
# GULP energy per Si atom -5578.569905 kJ/mol
# Density = 2.208074 g / cm^3
# Si number density = 22.131112 Si / 1000 Ang^3
#
#
#
# Elastic Constant Matrix: (Units=GPa)
#
#
# Indices 1 2 3 4 5 6 
#
# 1 91.8639 36.8356 12.0415 0.0000 18.7937 0.0000
# 2 36.8356 101.8655 7.1763 0.0000 21.9918 0.0000
# 3 12.0415 7.1763 25.0067 0.0000 10.9461 0.0000
# 4 0.0000 0.0000 0.0000 -22.7913 0.0000 -16.4441
# 5 18.7937 21.9918 10.9461 0.0000 34.1610 0.0000
# 6 0.0000 0.0000 0.0000 -16.4441 0.0000 -5.1672
#
#
#
# Elastic Compliance Matrix: (Units=1/GPa)
#
#
# Indices 1 2 3 4 5 6 
#
# 1 0.013721 -0.003864 -0.003818 0.000000 -0.003837 0.000000
# 2 -0.003864 0.012490 0.001007 0.000000 -0.006237 0.000000
# 3 -0.003818 0.001007 0.047576 0.000000 -0.013792 0.000000
# 4 0.000000 0.000000 0.000000 0.033853 0.000000 -0.107732
# 5 -0.003837 -0.006237 -0.013792 0.000000 0.039819 0.000000
# 6 0.000000 0.000000 0.000000 -0.107732 0.000000 0.149315
#
#
# Mechanical properties :
#
#
# Convention : Reuss Voigt Hill
#
# Bulk Modulus (GPa) = 16.54667 36.76032 26.65350
# Shear Modulus (GPa) = 15.13916 12.08602 13.61259
#
# Velocity S-wave (km/s) = 2.61830 2.33943 2.48279
# Velocity P-wave (km/s) = 4.07843 4.89322 4.50428
#
# Compressibility (1/GPa) = 0.06043513
#
# Stress axis : x y z
#
# Youngs Moduli (GPa) = 72.88285 80.06535 21.01891
#
# Poissons Ratio (x) = 0.30938 0.08026
# Poissons Ratio (y) = 0.28162 -0.02116
# Poissons Ratio (z) = 0.27829 -0.08060
#
# Static dielectric constant tensor:
#      x y z
#    x 2.100060 0.000000 0.103230 
#    y 0.000000 1.795560 0.000000 
#    z 0.103230 0.000000 1.926060 
# 
# From -- ./inp_files/16910.got.cif
#   From: 2010.05.17/outbox.cif.g08.bks.cpg/sg13_9_cif.got.tgz:16910.got - 2010.06.03 16:44:36.
