data_PCOD9229141
_publ_section_title
;
Structure prediction by ZEFSAII (Michael W. Deem and Ramdas Pophale) SiO2 
 PCOD9229141
Probable space group: P 2/C
;
_chemical_formula_sum "Si O2"
_cell_formula_units_Z 28
_cell_length_a 11.594556
_cell_length_b 8.036121
_cell_length_c 16.836402
_cell_angle_alpha 90.000000
_cell_angle_beta 51.258330
_cell_angle_gamma 90.000000
_cell_volume 1223.575645
_symmetry_space_group_name_H-M "P 2/C"
_symmetry_group_IT_number 13
_symmetry_cell_setting 'monoclinic'
loop_
_space_group_symop_operation_xyz
x,y,z
-x,y,1/2-z
-x,-y,-z
x,-y,1/2+z
loop_
_atom_site_type_symbol
_atom_site_label
_atom_site_fract_x
_atom_site_fract_y
_atom_site_fract_z
Si Si1 0.988816 0.848975 0.565248
Si Si2 0.747122 0.291880 0.457753
Si Si3 0.446171 0.709193 0.892507
Si Si4 0.381140 0.613362 0.244770
Si Si5 0.406474 0.795991 0.088828
Si Si6 0.728583 0.130247 0.305260
Si Si7 0.176067 0.426072 0.451587
O O1 0.861182 0.879122 0.686193
O O2 0.959947 0.674722 0.528775
O O3 0.140369 0.832793 0.548547
O O4 0.000000 0.000000 0.500000
O O5 0.577319 0.232151 0.544106
O O6 0.762428 0.276032 0.355324
O O7 0.798736 0.466643 0.477439
O O8 0.521951 0.538152 0.832246
O O9 0.576994 0.837843 0.822794
O O10 0.294242 0.725084 0.912386
O O11 0.410994 0.713733 0.001017
O O12 0.500000 0.706216 0.250000
O O13 0.318186 0.710445 0.197716
O O14 0.249249 0.541977 0.353437
O O15 0.326872 0.973982 0.117986
#
# Coordination Sequence:
#
# PCOD9229141 Si02
#       7
#     4   4   4   4   4   4   4
#     4  12  29  46  69  97 145 189 228 287 352 424
#     4  11  24  47  68  96 141 183 231 282 352 420
#     4  10  20  40  67 102 131 170 229 285 343 406
#     4  10  19  37  64 102 137 165 224 293 338 405
#     4  11  23  39  72 104 134 178 229 291 350 413
#     4  11  26  44  69 102 140 182 227 290 355 415
#     4  11  24  43  70 103 133 182 231 287 347 416
#
# _framework density 22.883751
#
# number of rings (size 3 to 8) (size 9 to 14) (size 15 to 20)
#    0.000    1.143    4.286    3.000    8.000    0.000 
#    0.000    0.000    0.000    0.000    0.000    0.000 
#    0.000    0.000    0.000    0.000    0.000    0.000 
#
# Total GULP energy -156071.867779 kJ/mol
# GULP energy per Si atom -5573.995278 kJ/mol
# Density = 2.283167 g / cm^3
# Si number density = 22.883751 Si / 1000 Ang^3
#
#
#
# Elastic Constant Matrix: (Units=GPa)
#
#
# Indices 1 2 3 4 5 6 
#
# 1 101.8205 6.6918 39.4291 0.0000 -4.6587 0.0000
# 2 6.6918 39.2255 36.5871 0.0000 0.5830 0.0000
# 3 39.4291 36.5871 149.2610 0.0000 8.4551 0.0000
# 4 0.0000 0.0000 0.0000 30.1090 0.0000 6.0268
# 5 -4.6587 0.5830 8.4551 0.0000 16.0515 0.0000
# 6 0.0000 0.0000 0.0000 6.0268 0.0000 30.4004
#
#
#
# Elastic Compliance Matrix: (Units=1/GPa)
#
#
# Indices 1 2 3 4 5 6 
#
# 1 0.011374 0.001372 -0.003634 0.000000 0.005165 0.000000
# 2 0.001372 0.033372 -0.008758 0.000000 0.003799 0.000000
# 3 -0.003634 -0.008758 0.010151 0.000000 -0.006083 0.000000
# 4 0.000000 0.000000 0.000000 0.034585 0.000000 -0.006856
# 5 0.005165 0.003799 -0.006083 0.000000 0.066865 0.000000
# 6 0.000000 0.000000 0.000000 -0.006856 0.000000 0.034254
#
#
# Mechanical properties :
#
#
# Convention : Reuss Voigt Hill
#
# Bulk Modulus (GPa) = 30.43374 50.63588 40.53481
# Shear Modulus (GPa) = 22.36211 29.15212 25.75711
#
# Velocity S-wave (km/s) = 3.12942 3.57308 3.35858
# Velocity P-wave (km/s) = 5.13671 6.26083 5.72642
#
# Compressibility (1/GPa) = 0.03285827
#
# Stress axis : x y z
#
# Youngs Moduli (GPa) = 87.91630 29.96542 98.51388
#
# Poissons Ratio (x) = -0.04111 0.35796
# Poissons Ratio (y) = -0.12062 0.86276
# Poissons Ratio (z) = 0.31945 0.26243
#
# Static dielectric constant tensor:
#      x y z
#    x 1.877560 0.000000 -0.007430 
#    y 0.000000 1.980760 0.000000 
#    z -0.007430 0.000000 1.903910 
# 
# From -- ./inp_files/50239.got.cif
#   From: 2010.05.17/outbox.cif.g08.bks.cpg/sg13_26_cif.got.tgz:50239.got - 2010.06.03 16:44:36.
