data_PCOD9229599
_publ_section_title
;
Structure prediction by ZEFSAII (Michael W. Deem and Ramdas Pophale) SiO2 
 PCOD9229599
Probable space group: P 2/C
;
_chemical_formula_sum "Si O2"
_cell_formula_units_Z 26
_cell_length_a 19.430225
_cell_length_b 9.759819
_cell_length_c 13.475746
_cell_angle_alpha 90.000000
_cell_angle_beta 28.006112
_cell_angle_gamma 90.000000
_cell_volume 1199.965666
_symmetry_space_group_name_H-M "P 2/C"
_symmetry_group_IT_number 13
_symmetry_cell_setting 'monoclinic'
loop_
_space_group_symop_operation_xyz
x,y,z
-x,y,1/2-z
-x,-y,-z
x,-y,1/2+z
loop_
_atom_site_type_symbol
_atom_site_label
_atom_site_fract_x
_atom_site_fract_y
_atom_site_fract_z
Si Si1 0.000000 0.130642 0.250000
Si Si2 0.828519 0.250956 0.158525
Si Si3 0.236880 0.682820 0.550194
Si Si4 0.825956 0.181793 0.794630
Si Si5 0.634199 0.963749 0.142409
Si Si6 0.740853 0.965828 0.215671
Si Si7 0.176442 0.594766 0.037739
O O1 0.095377 0.232860 0.194806
O O2 0.893152 0.048057 0.459145
O O3 0.790010 0.346858 0.300133
O O4 0.741997 0.107890 0.273246
O O5 0.787374 0.325036 0.108783
O O6 0.999837 0.205113 0.942906
O O7 0.355576 0.801386 0.387952
O O8 0.251192 0.550199 0.464219
O O9 0.748555 0.156133 0.786517
O O10 0.786849 0.309304 0.914844
O O11 0.775982 0.048692 0.922250
O O12 0.500000 0.021493 0.250000
O O13 0.626957 0.975077 0.270401
O O14 0.000000 0.572711 0.250000
#
# Coordination Sequence:
#
# PCOD9229599 Si02
#       7
#     2   4   4   4   4   4   4
#     4  10  20  32  58  92 118 156 192 244 314 364
#     4  11  20  36  64  93 126 157 200 250 323 378
#     4  11  21  38  60  87 128 160 201 247 312 368
#     4  11  21  38  63  94 121 157 201 256 312 369
#     4  11  25  41  61  88 120 167 219 256 292 353
#     4  11  20  36  62  89 121 155 200 259 305 356
#     4  10  23  36  58  95 132 156 193 247 318 381
#
# _framework density 21.667287999999999
#
# number of rings (size 3 to 8) (size 9 to 14) (size 15 to 20)
#    0.000    1.231    5.385    2.308    1.077    5.538 
#    0.000    0.769    0.000    1.846    0.000    0.000 
#    0.000    0.000    0.000    0.000    0.000    0.000 
#
# Total GULP energy -145028.462315 kJ/mol
# GULP energy per Si atom -5578.017781 kJ/mol
# Density = 2.161797 g / cm^3
# Si number density = 21.667288 Si / 1000 Ang^3
#
#
#
# Elastic Constant Matrix: (Units=GPa)
#
#
# Indices 1 2 3 4 5 6 
#
# 1 129.9725 12.2767 20.9906 0.0000 9.8252 0.0000
# 2 12.2767 89.7728 5.9033 0.0000 1.9574 0.0000
# 3 20.9906 5.9033 30.5328 0.0000 8.4565 0.0000
# 4 0.0000 0.0000 0.0000 -8.7741 0.0000 10.5181
# 5 9.8252 1.9574 8.4565 0.0000 27.6924 0.0000
# 6 0.0000 0.0000 0.0000 10.5181 0.0000 31.0667
#
#
#
# Elastic Compliance Matrix: (Units=1/GPa)
#
#
# Indices 1 2 3 4 5 6 
#
# 1 0.008760 -0.000807 -0.005485 0.000000 -0.001376 0.000000
# 2 -0.000807 0.011358 -0.001636 0.000000 -0.000017 0.000000
# 3 -0.005485 -0.001636 0.039619 0.000000 -0.010037 0.000000
# 4 0.000000 0.000000 0.000000 -0.081069 0.000000 0.027447
# 5 -0.001376 -0.000017 -0.010037 0.000000 0.039665 0.000000
# 6 0.000000 0.000000 0.000000 0.027447 0.000000 0.022896
#
#
# Mechanical properties :
#
#
# Convention : Reuss Voigt Hill
#
# Bulk Modulus (GPa) = 22.78996 36.51327 29.65161
# Shear Modulus (GPa) = 69.72240 24.07083 46.89661
#
# Velocity S-wave (km/s) = 5.67878 3.33668 4.65736
# Velocity P-wave (km/s) = 7.31703 5.63320 6.52962
#
# Compressibility (1/GPa) = 0.04387897
#
# Stress axis : x y z
#
# Youngs Moduli (GPa) = 114.15455 88.04683 25.24052
#
# Poissons Ratio (x) = 0.07108 0.13845
# Poissons Ratio (y) = 0.09215 0.04130
# Poissons Ratio (z) = 0.62616 0.14407
#
# Static dielectric constant tensor:
#      x y z
#    x 1.842590 0.000000 -0.016070 
#    y 0.000000 1.747540 0.000000 
#    z -0.016070 0.000000 1.863370 
# 
# From -- ./inp_files/57197.got.cif
#   From: 2010.05.17/outbox.cif.g08.bks.cpg/sg13_29_cif.got.tgz:57197.got - 2010.06.03 16:44:36.
