data_PCOD9229252
_publ_section_title
;
Structure prediction by ZEFSAII (Michael W. Deem and Ramdas Pophale) SiO2 
 PCOD9229252
Probable space group: P 2/C
;
_chemical_formula_sum "Si O2"
_cell_formula_units_Z 28
_cell_length_a 20.973810
_cell_length_b 6.002766
_cell_length_c 15.069436
_cell_angle_alpha 90.000000
_cell_angle_beta 133.149861
_cell_angle_gamma 90.000000
_cell_volume 1384.175491
_symmetry_space_group_name_H-M "P 2/C"
_symmetry_group_IT_number 13
_symmetry_cell_setting 'monoclinic'
loop_
_space_group_symop_operation_xyz
x,y,z
-x,y,1/2-z
-x,-y,-z
x,-y,1/2+z
loop_
_atom_site_type_symbol
_atom_site_label
_atom_site_fract_x
_atom_site_fract_y
_atom_site_fract_z
Si Si1 0.000000 0.799070 0.750000
Si Si2 0.500000 0.570354 0.750000
Si Si3 0.766737 0.281129 0.852716
Si Si4 0.315740 0.326794 0.130114
Si Si5 0.515935 0.697915 0.444130
Si Si6 0.143241 0.095653 0.942712
Si Si7 0.357916 0.023298 0.338865
Si Si8 0.058856 0.516783 0.469072
O O1 0.021513 0.645783 0.855972
O O2 0.084065 0.960359 0.816891
O O3 0.591781 0.700908 0.830720
O O4 0.490799 0.416957 0.655924
O O5 0.700676 0.420091 0.852597
O O6 0.717147 0.162348 0.724673
O O7 0.844798 0.446410 0.905289
O O8 0.813306 0.091378 0.954389
O O9 0.327272 0.187183 0.231610
O O10 0.227402 0.245832 0.996346
O O11 0.500000 0.500000 0.500000
O O12 0.441415 0.883074 0.385273
O O13 0.607581 0.823013 0.549276
O O14 0.077404 0.248383 0.938034
O O15 0.000000 0.500000 0.500000
#
# Coordination Sequence:
#
# PCOD9229252 Si02
#       8
#     2   2   4   4   4   4   4   4
#     4  10  20  38  68  92 132 164 208 266 318 396
#     4  12  22  38  66  86 132 164 220 262 308 370
#     4   9  18  37  63  86 123 164 202 261 321 377
#     4  10  20  38  64  89 122 171 209 264 317 373
#     4  11  22  38  60  88 119 165 214 266 312 370
#     4   9  20  38  67  88 126 169 202 256 334 370
#     4  10  19  38  63  79 124 165 208 257 327 368
#     4  10  21  38  69  93 125 163 212 263 323 389
#
# _framework density 20.228646999999999
#
# number of rings (size 3 to 8) (size 9 to 14) (size 15 to 20)
#    0.000    2.000    2.857    0.429    0.000    2.857 
#    0.000    0.000   75.429    0.000    0.000    0.000 
#    0.000    0.000    0.000    0.000    0.000    0.000 
#
# Total GULP energy -155977.952543 kJ/mol
# GULP energy per Si atom -5570.641162 kJ/mol
# Density = 2.018261 g / cm^3
# Si number density = 20.228647 Si / 1000 Ang^3
#
#
#
# Elastic Constant Matrix: (Units=GPa)
#
#
# Indices 1 2 3 4 5 6 
#
# 1 80.3168 12.3569 26.4136 0.0000 9.3422 0.0000
# 2 12.3569 85.6542 31.6252 0.0000 4.1636 0.0000
# 3 26.4136 31.6252 107.5690 0.0000 10.9849 0.0000
# 4 0.0000 0.0000 0.0000 45.2855 0.0000 23.9507
# 5 9.3422 4.1636 10.9849 0.0000 31.5541 0.0000
# 6 0.0000 0.0000 0.0000 23.9507 0.0000 16.6695
#
#
#
# Elastic Compliance Matrix: (Units=1/GPa)
#
#
# Indices 1 2 3 4 5 6 
#
# 1 0.013864 -0.000797 -0.002863 0.000000 -0.003003 0.000000
# 2 -0.000797 0.013147 -0.003646 0.000000 -0.000229 0.000000
# 3 -0.002863 -0.003646 0.011339 0.000000 -0.002619 0.000000
# 4 0.000000 0.000000 0.000000 0.091971 0.000000 -0.132144
# 5 -0.003003 -0.000229 -0.002619 0.000000 0.033523 0.000000
# 6 0.000000 0.000000 0.000000 -0.132144 0.000000 0.249855
#
#
# Mechanical properties :
#
#
# Convention : Reuss Voigt Hill
#
# Bulk Modulus (GPa) = 42.12780 46.03683 44.08232
# Shear Modulus (GPa) = 11.46199 32.24476 21.85337
#
# Velocity S-wave (km/s) = 2.38296 3.99684 3.29039
# Velocity P-wave (km/s) = 5.33314 6.64133 6.02286
#
# Compressibility (1/GPa) = 0.02373729
#
# Stress axis : x y z
#
# Youngs Moduli (GPa) = 72.12784 76.06179 88.19246
#
# Poissons Ratio (x) = 0.06062 0.25253
# Poissons Ratio (y) = 0.05748 0.32156
# Poissons Ratio (z) = 0.20653 0.27733
#
# Static dielectric constant tensor:
#      x y z
#    x 1.739740 0.000000 0.062330 
#    y 0.000000 1.769330 0.000000 
#    z 0.062330 0.000000 1.740490 
# 
# From -- ./inp_files/54728.got.cif
#   From: 2010.05.17/outbox.cif.g08.bks.cpg/sg13_28_cif.got.tgz:54728.got - 2010.06.03 16:44:36.
