data_PCOD9229518
_publ_section_title
;
Structure prediction by ZEFSAII (Michael W. Deem and Ramdas Pophale) SiO2 
 PCOD9229518
Probable space group: P 2/C
;
_chemical_formula_sum "Si O2"
_cell_formula_units_Z 20
_cell_length_a 15.438435
_cell_length_b 7.148499
_cell_length_c 25.327692
_cell_angle_alpha 90.000000
_cell_angle_beta 162.403720
_cell_angle_gamma 90.000000
_cell_volume 845.013009
_symmetry_space_group_name_H-M "P 2/C"
_symmetry_group_IT_number 13
_symmetry_cell_setting 'monoclinic'
loop_
_space_group_symop_operation_xyz
x,y,z
-x,y,1/2-z
-x,-y,-z
x,-y,1/2+z
loop_
_atom_site_type_symbol
_atom_site_label
_atom_site_fract_x
_atom_site_fract_y
_atom_site_fract_z
Si Si1 0.299554 0.720993 0.017448
Si Si2 0.453166 0.209399 0.953170
Si Si3 0.171066 0.278976 0.953202
Si Si4 0.883180 0.618154 0.383209
Si Si5 0.292932 0.726410 0.792918
O O1 0.372921 0.766222 0.999788
O O2 0.590952 0.735280 0.221283
O O3 0.223461 0.499986 0.973480
O O4 0.014353 0.821965 0.873876
O O5 0.119608 0.233758 0.746487
O O6 0.571993 0.325133 0.072006
O O7 0.500000 0.000000 0.000000
O O8 0.112092 0.264679 0.981841
O O9 0.452402 0.178015 0.092905
O O10 0.787109 0.455144 0.287135
O O11 0.000000 0.500000 0.500000
#
# Coordination Sequence:
#
# PCOD9229518 Si02
#       5
#     4   4   4   4   4
#     4   9  20  35  56  84 116 154 199 249 298 356
#     4  11  23  38  56  84 126 165 195 237 307 381
#     4   9  20  35  56  84 116 154 199 249 298 356
#     4   9  19  36  56  82 117 155 200 252 304 357
#     4  10  20  31  52  83 112 146 195 246 295 346
#
# _framework density 23.668275000000001
#
# number of rings (size 3 to 8) (size 9 to 14) (size 15 to 20)
#    0.000    2.400    0.000    2.400    0.000   28.000 
#    0.000    0.000    0.000    4.800    0.000   22.400 
#    0.000    0.000    0.000    0.000    0.000    0.000 
#
# Total GULP energy -111610.394600 kJ/mol
# GULP energy per Si atom -5580.519730 kJ/mol
# Density = 2.361440 g / cm^3
# Si number density = 23.668275 Si / 1000 Ang^3
#
#
#
# Elastic Constant Matrix: (Units=GPa)
#
#
# Indices 1 2 3 4 5 6 
#
# 1 151.6971 12.5152 128.5655 0.0000 36.4127 0.0000
# 2 12.5152 36.6889 12.3443 0.0000 -7.2478 0.0000
# 3 128.5655 12.3443 153.6712 0.0000 37.6488 0.0000
# 4 0.0000 0.0000 0.0000 18.6296 0.0000 -10.9595
# 5 36.4127 -7.2478 37.6488 0.0000 60.5186 0.0000
# 6 0.0000 0.0000 0.0000 -10.9595 0.0000 18.9048
#
#
#
# Elastic Compliance Matrix: (Units=1/GPa)
#
#
# Indices 1 2 3 4 5 6 
#
# 1 0.023060 -0.002174 -0.018470 0.000000 -0.002645 0.000000
# 2 -0.002174 0.029931 -0.002105 0.000000 0.006202 0.000000
# 3 -0.018470 -0.002105 0.022969 0.000000 -0.003428 0.000000
# 4 0.000000 0.000000 0.000000 0.081458 0.000000 0.047223
# 5 -0.002645 0.006202 -0.003428 0.000000 0.020991 0.000000
# 6 0.000000 0.000000 0.000000 0.047223 0.000000 0.080273
#
#
# Mechanical properties :
#
#
# Convention : Reuss Voigt Hill
#
# Bulk Modulus (GPa) = 32.82782 72.10080 52.46431
# Shear Modulus (GPa) = 15.90670 32.18608 24.04639
#
# Velocity S-wave (km/s) = 2.59524 3.69166 3.19090
# Velocity P-wave (km/s) = 4.78335 6.97856 5.98251
#
# Compressibility (1/GPa) = 0.03046197
#
# Stress axis : x y z
#
# Youngs Moduli (GPa) = 43.36566 33.40982 43.53753
#
# Poissons Ratio (x) = 0.07264 0.80413
# Poissons Ratio (y) = 0.09428 0.09164
# Poissons Ratio (z) = 0.80095 0.07032
#
# Static dielectric constant tensor:
#      x y z
#    x 1.995480 0.000000 0.113420 
#    y 0.000000 2.053150 0.000000 
#    z 0.113420 0.000000 1.998390 
# 
# From -- ./inp_files/87339.got.cif
#   From: 2010.05.17/outbox.cif.g08.bks.cpg/sg13_44_cif.got.tgz:87339.got - 2010.06.03 16:44:36.
