data_PCOD9229520
_publ_section_title
;
Structure prediction by ZEFSAII (Michael W. Deem and Ramdas Pophale) SiO2 
 PCOD9229520
Probable space group: P 2/C
;
_chemical_formula_sum "Si O2"
_cell_formula_units_Z 18
_cell_length_a 12.422046
_cell_length_b 8.627715
_cell_length_c 7.486287
_cell_angle_alpha 90.000000
_cell_angle_beta 103.031834
_cell_angle_gamma 90.000000
_cell_volume 781.670191
_symmetry_space_group_name_H-M "P 2/C"
_symmetry_group_IT_number 13
_symmetry_cell_setting 'monoclinic'
loop_
_space_group_symop_operation_xyz
x,y,z
-x,y,1/2-z
-x,-y,-z
x,-y,1/2+z
loop_
_atom_site_type_symbol
_atom_site_label
_atom_site_fract_x
_atom_site_fract_y
_atom_site_fract_z
Si Si1 0.350023 0.361717 0.387436
Si Si2 0.500000 0.386304 0.750000
Si Si3 0.794224 0.843868 0.885513
Si Si4 0.116814 0.162862 0.705706
Si Si5 0.893539 0.630208 0.637676
O O1 0.423731 0.299830 0.578473
O O2 0.416821 0.498705 0.321111
O O3 0.317986 0.224319 0.239464
O O4 0.231689 0.432133 0.405706
O O5 0.883324 0.762001 0.787998
O O6 0.819638 0.024835 0.873320
O O7 0.810850 0.794927 0.094947
O O8 0.095921 0.294679 0.552289
O O9 0.000000 0.112253 0.750000
O O10 0.000000 0.537705 0.750000
#
# Coordination Sequence:
#
# PCOD9229520 Si02
#       5
#     4   2   4   4   4
#     4   9  22  38  65  86 103 152 200 257 279 353
#     4  10  20  46  66  72 106 152 216 246 308 316
#     4  10  20  31  53  92 119 153 192 217 281 342
#     4  12  18  30  58  87 134 168 170 215 277 374
#     4  10  20  36  55  93 129 145 192 222 290 354
#
# _framework density 23.027615000000001
#
# number of rings (size 3 to 8) (size 9 to 14) (size 15 to 20)
#    1.333    0.444    4.444    1.333    0.000    3.556 
#    0.000    1.111    0.000   16.000    0.000    0.000 
#    0.000    0.000    0.000    0.000    0.000    0.000 
#
# Total GULP energy -100430.581801 kJ/mol
# GULP energy per Si atom -5579.476767 kJ/mol
# Density = 2.297520 g / cm^3
# Si number density = 23.027615 Si / 1000 Ang^3
#
#
#
# Elastic Constant Matrix: (Units=GPa)
#
#
# Indices 1 2 3 4 5 6 
#
# 1 82.6636 25.5316 61.3644 0.0000 16.2716 0.0000
# 2 25.5316 56.0610 41.0073 0.0000 1.7625 0.0000
# 3 61.3644 41.0073 249.3399 0.0000 18.0455 0.0000
# 4 0.0000 0.0000 0.0000 18.7920 0.0000 9.2470
# 5 16.2716 1.7625 18.0455 0.0000 47.6793 0.0000
# 6 0.0000 0.0000 0.0000 9.2470 0.0000 17.4970
#
#
#
# Elastic Compliance Matrix: (Units=1/GPa)
#
#
# Indices 1 2 3 4 5 6 
#
# 1 0.016803 -0.005369 -0.002932 0.000000 -0.004426 0.000000
# 2 -0.005369 0.022005 -0.002438 0.000000 0.001942 0.000000
# 3 -0.002932 -0.002438 0.005197 0.000000 -0.000876 0.000000
# 4 0.000000 0.000000 0.000000 0.071917 0.000000 -0.038007
# 5 -0.004426 0.001942 -0.000876 0.000000 0.022744 0.000000
# 6 0.000000 0.000000 0.000000 -0.038007 0.000000 0.077239
#
#
# Mechanical properties :
#
#
# Convention : Reuss Voigt Hill
#
# Bulk Modulus (GPa) = 44.39129 71.54124 57.96627
# Shear Modulus (GPa) = 20.41717 34.13773 27.27745
#
# Velocity S-wave (km/s) = 2.98088 3.85446 3.44547
# Velocity P-wave (km/s) = 5.58272 7.13752 6.40746
#
# Compressibility (1/GPa) = 0.02252694
#
# Stress axis : x y z
#
# Youngs Moduli (GPa) = 59.51201 45.44359 192.43287
#
# Poissons Ratio (x) = 0.24397 0.56424
# Poissons Ratio (y) = 0.31950 0.46921
# Poissons Ratio (z) = 0.17450 0.11081
#
# Static dielectric constant tensor:
#      x y z
#    x 1.900860 0.000000 0.025270 
#    y 0.000000 1.868470 0.000000 
#    z 0.025270 0.000000 1.905390 
# 
# From -- ./inp_files/15680.got.cif
#   From: 2010.05.17/outbox.cif.g08.bks.cpg/sg13_8_cif.got.tgz:15680.got - 2010.06.03 16:44:36.
