data_PCOD9229233
_publ_section_title
;
Structure prediction by ZEFSAII (Michael W. Deem and Ramdas Pophale) SiO2 
 PCOD9229233
Probable space group: P 2/C
;
_chemical_formula_sum "Si O2"
_cell_formula_units_Z 20
_cell_length_a 8.188396
_cell_length_b 12.968204
_cell_length_c 10.092814
_cell_angle_alpha 90.000000
_cell_angle_beta 104.251621
_cell_angle_gamma 90.000000
_cell_volume 1038.759661
_symmetry_space_group_name_H-M "P 2/C"
_symmetry_group_IT_number 13
_symmetry_cell_setting 'monoclinic'
loop_
_space_group_symop_operation_xyz
x,y,z
-x,y,1/2-z
-x,-y,-z
x,-y,1/2+z
loop_
_atom_site_type_symbol
_atom_site_label
_atom_site_fract_x
_atom_site_fract_y
_atom_site_fract_z
Si Si1 0.735228 0.300133 0.695020
Si Si2 0.349511 0.333242 0.523238
Si Si3 0.638498 0.082810 0.658574
Si Si4 0.405120 0.141236 0.366587
Si Si5 0.888894 0.495813 0.608115
O O1 0.546899 0.322840 0.599699
O O2 0.766101 0.177866 0.693582
O O3 0.848225 0.378050 0.636007
O O4 0.737953 0.326078 0.850965
O O5 0.313876 0.236903 0.418377
O O6 0.281177 0.437691 0.444211
O O7 0.500000 0.096007 0.750000
O O8 0.545049 0.103904 0.500864
O O9 0.698178 0.964667 0.678810
O O10 0.500000 0.171463 0.250000
O O11 0.000000 0.540324 0.750000
O O12 0.000000 0.500000 0.500000
#
# Coordination Sequence:
#
# PCOD9229233 Si02
#       5
#     4   4   4   4   4
#     4  10  19  38  62  84 113 153 191 233 288 340
#     4  10  20  38  60  85 115 149 192 240 282 338
#     4   9  15  30  54  83 116 145 177 227 292 340
#     4   9  17  28  52  89 117 139 178 236 286 331
#     4  12  25  40  58  82 115 157 193 236 289 341
#
# _framework density 19.253731999999999
#
# number of rings (size 3 to 8) (size 9 to 14) (size 15 to 20)
#    0.000    2.000    6.000    0.600    0.000    3.200 
#    3.600    0.000    0.000    2.400    0.000    0.000 
#    0.000    0.000    0.000    0.000    0.000    0.000 
#
# Total GULP energy -111380.738710 kJ/mol
# GULP energy per Si atom -5569.036935 kJ/mol
# Density = 1.920991 g / cm^3
# Si number density = 19.253732 Si / 1000 Ang^3
#
#
#
# Elastic Constant Matrix: (Units=GPa)
#
#
# Indices 1 2 3 4 5 6 
#
# 1 45.6385 37.3605 25.2090 0.0000 -14.6854 0.0000
# 2 37.3605 149.9430 33.0832 0.0000 -19.3134 0.0000
# 3 25.2090 33.0832 116.6581 0.0000 -22.6965 0.0000
# 4 0.0000 0.0000 0.0000 30.0233 0.0000 -8.7875
# 5 -14.6854 -19.3134 -22.6965 0.0000 29.7486 0.0000
# 6 0.0000 0.0000 0.0000 -8.7875 0.0000 11.6673
#
#
#
# Elastic Compliance Matrix: (Units=1/GPa)
#
#
# Indices 1 2 3 4 5 6 
#
# 1 0.031584 -0.005948 -0.003354 0.000000 0.009171 0.000000
# 2 -0.005948 0.008582 -0.000747 0.000000 0.002066 0.000000
# 3 -0.003354 -0.000747 0.010677 0.000000 0.006006 0.000000
# 4 0.000000 0.000000 0.000000 0.042726 0.000000 0.032180
# 5 0.009171 0.002066 0.006006 0.000000 0.044065 0.000000
# 6 0.000000 0.000000 0.000000 0.032180 0.000000 0.109947
#
#
# Mechanical properties :
#
#
# Convention : Reuss Voigt Hill
#
# Bulk Modulus (GPa) = 32.52497 55.94944 44.23721
# Shear Modulus (GPa) = 17.99025 28.72697 23.35861
#
# Velocity S-wave (km/s) = 3.06007 3.86686 3.48688
# Velocity P-wave (km/s) = 5.42355 7.00421 6.26394
#
# Compressibility (1/GPa) = 0.03074561
#
# Stress axis : x y z
#
# Youngs Moduli (GPa) = 31.66118 116.52130 93.65972
#
# Poissons Ratio (x) = 0.69312 0.31413
# Poissons Ratio (y) = 0.18833 0.06992
# Poissons Ratio (z) = 0.10619 0.08698
#
# Static dielectric constant tensor:
#      x y z
#    x 1.684060 0.000000 0.023360 
#    y 0.000000 1.743710 0.000000 
#    z 0.023360 0.000000 1.668360 
# 
# From -- ./inp_files/12350.got.cif
#   From: 2010.05.17/outbox.cif.g08.bks.cpg/sg13_7_cif.got.tgz:12350.got - 2010.06.03 16:44:36.
