data_PCOD9229467
_publ_section_title
;
Structure prediction by ZEFSAII (Michael W. Deem and Ramdas Pophale) SiO2 
 PCOD9229467
Probable space group: P 2/C
;
_chemical_formula_sum "Si O2"
_cell_formula_units_Z 32
_cell_length_a 13.023045
_cell_length_b 8.897983
_cell_length_c 13.690674
_cell_angle_alpha 90.000000
_cell_angle_beta 114.038797
_cell_angle_gamma 90.000000
_cell_volume 1448.865443
_symmetry_space_group_name_H-M "P 2/C"
_symmetry_group_IT_number 13
_symmetry_cell_setting 'monoclinic'
loop_
_space_group_symop_operation_xyz
x,y,z
-x,y,1/2-z
-x,-y,-z
x,-y,1/2+z
loop_
_atom_site_type_symbol
_atom_site_label
_atom_site_fract_x
_atom_site_fract_y
_atom_site_fract_z
Si Si1 0.337862 0.476575 0.924653
Si Si2 0.037677 0.070858 0.614403
Si Si3 0.839745 0.061243 0.175491
Si Si4 0.848073 0.617782 0.765100
Si Si5 0.987733 0.374006 0.631020
Si Si6 0.751251 0.693336 0.933287
Si Si7 0.515496 0.754459 0.464583
Si Si8 0.632094 0.026466 0.464979
O O1 0.218463 0.497504 0.826531
O O2 0.414432 0.357447 0.895704
O O3 0.328574 0.412487 0.031453
O O4 0.395055 0.639265 0.954366
O O5 0.061926 0.246331 0.608550
O O6 0.931960 0.022516 0.643237
O O7 0.000000 0.000000 0.500000
O O8 0.144609 0.004456 0.710425
O O9 0.864594 0.237049 0.203301
O O10 0.719950 0.027233 0.082376
O O11 0.961036 0.540487 0.851445
O O12 0.771378 0.655207 0.828767
O O13 0.000000 0.332085 0.750000
O O14 0.869161 0.338080 0.535092
O O15 0.705018 0.863177 0.925101
O O16 0.461534 0.863864 0.525050
O O17 0.572571 0.870657 0.410964
#
# Coordination Sequence:
#
# PCOD9229467 Si02
#       8
#     4   4   4   4   4   4   4   4
#     4  10  21  41  67  95 131 171 218 272 341 397
#     4  11  24  41  64  94 136 174 222 274 322 400
#     4  11  23  40  64  97 129 177 218 265 331 396
#     4  12  26  40  67  98 140 176 219 272 336 403
#     4  12  22  42  63  96 134 181 215 265 324 400
#     4  11  23  41  67  98 132 176 218 268 327 405
#     4   9  20  39  70  91 121 175 213 280 342 386
#     4  10  19  41  70  92 126 169 223 274 338 389
#
# _framework density 22.086247
#
# number of rings (size 3 to 8) (size 9 to 14) (size 15 to 20)
#    0.000    1.250    5.000    1.125    3.500    1.000 
#    0.000    5.625    2.750    0.000    0.000    0.000 
#    0.000    0.000    0.000    0.000    0.000    0.000 
#
# Total GULP energy -178359.387084 kJ/mol
# GULP energy per Si atom -5573.730846 kJ/mol
# Density = 2.203598 g / cm^3
# Si number density = 22.086247 Si / 1000 Ang^3
#
#
#
# Elastic Constant Matrix: (Units=GPa)
#
#
# Indices 1 2 3 4 5 6 
#
# 1 58.7741 38.4843 7.6696 0.0000 -1.4757 0.0000
# 2 38.4843 144.6493 11.1627 0.0000 -3.6111 0.0000
# 3 7.6696 11.1627 32.8639 0.0000 -25.6704 0.0000
# 4 0.0000 0.0000 0.0000 26.2461 0.0000 9.5719
# 5 -1.4757 -3.6111 -25.6704 0.0000 28.3177 0.0000
# 6 0.0000 0.0000 0.0000 9.5719 0.0000 45.1753
#
#
#
# Elastic Compliance Matrix: (Units=1/GPa)
#
#
# Indices 1 2 3 4 5 6 
#
# 1 0.021475 -0.005160 -0.009930 0.000000 -0.008541 0.000000
# 2 -0.005160 0.008502 -0.003586 0.000000 -0.002435 0.000000
# 3 -0.009930 -0.003586 0.113744 0.000000 0.102136 0.000000
# 4 0.000000 0.000000 0.000000 0.041292 0.000000 -0.008749
# 5 -0.008541 -0.002435 0.102136 0.000000 0.127146 0.000000
# 6 0.000000 0.000000 0.000000 -0.008749 0.000000 0.023990
#
#
# Mechanical properties :
#
#
# Convention : Reuss Voigt Hill
#
# Bulk Modulus (GPa) = 9.40139 38.99117 24.19628
# Shear Modulus (GPa) = 12.22624 31.87920 22.05272
#
# Velocity S-wave (km/s) = 2.35535 3.80333 3.16330
# Velocity P-wave (km/s) = 3.41509 6.08107 4.93165
#
# Compressibility (1/GPa) = 0.10636730
#
# Stress axis : x y z
#
# Youngs Moduli (GPa) = 46.56680 117.61802 8.79168
#
# Poissons Ratio (x) = 0.60694 0.08731
# Poissons Ratio (y) = 0.24030 0.03153
# Poissons Ratio (z) = 0.46243 0.42177
#
# Static dielectric constant tensor:
#      x y z
#    x 1.927110 0.000000 0.018010 
#    y 0.000000 1.910720 0.000000 
#    z 0.018010 0.000000 1.811060 
# 
# From -- ./inp_files/53098.got.cif
#   From: 2010.05.17/outbox.cif.g08.bks.cpg/sg13_27_cif.got.tgz:53098.got - 2010.06.03 16:44:36.
