data_PCOD9229909
_publ_section_title
;
Structure prediction by ZEFSAII (Michael W. Deem and Ramdas Pophale) SiO2 
 PCOD9229909
Probable space group: P 2/C
;
_chemical_formula_sum "Si O2"
_cell_formula_units_Z 30
_cell_length_a 21.628870
_cell_length_b 14.079971
_cell_length_c 8.534559
_cell_angle_alpha 90.000000
_cell_angle_beta 140.823554
_cell_angle_gamma 90.000000
_cell_volume 1641.855343
_symmetry_space_group_name_H-M "P 2/C"
_symmetry_group_IT_number 13
_symmetry_cell_setting 'monoclinic'
loop_
_space_group_symop_operation_xyz
x,y,z
-x,y,1/2-z
-x,-y,-z
x,-y,1/2+z
loop_
_atom_site_type_symbol
_atom_site_label
_atom_site_fract_x
_atom_site_fract_y
_atom_site_fract_z
Si Si1 0.915157 0.621352 0.809178
Si Si2 0.888973 0.798093 0.972109
Si Si3 0.867156 0.427699 0.859728
Si Si4 0.632357 0.903238 0.751876
Si Si5 0.166756 0.022102 0.328953
Si Si6 0.233812 0.265841 0.968778
Si Si7 0.500000 0.003121 0.250000
Si Si8 0.103097 0.134694 0.509478
O O1 0.890816 0.723107 0.833176
O O2 0.874864 0.540023 0.846369
O O3 0.873809 0.597741 0.555911
O O4 0.032814 0.611333 0.025059
O O5 0.842961 0.895563 0.819197
O O6 0.825018 0.756501 0.987963
O O7 0.000000 0.811455 0.250000
O O8 0.776508 0.375931 0.596474
O O9 0.556768 0.930976 0.738932
O O10 0.579359 0.936624 0.490309
O O11 0.666401 0.793890 0.822928
O O12 0.729553 0.968022 0.964781
O O13 0.146387 0.072471 0.453408
O O14 0.091551 0.938656 0.131611
O O15 0.174523 0.215096 0.710549
O O16 0.000000 0.174002 0.250000
#
# Coordination Sequence:
#
# PCOD9229909 Si02
#       8
#     4   4   4   4   4   4   2   4
#     4  10  21  33  51  72 103 149 193 216 262 284
#     4  12  21  32  48  75 106 152 188 223 253 304
#     4  10  20  35  51  72 105 144 186 233 251 302
#     4  10  21  37  55  80 101 139 167 227 273 338
#     4  11  21  34  49  70 106 134 183 222 265 306
#     4  11  21  33  52  75 109 135 185 224 264 304
#     4  10  20  38  60  74 104 130 176 214 298 344
#     4  11  21  32  45  68 100 149 182 215 251 305
#
# _framework density 18.272010000000002
#
# number of rings (size 3 to 8) (size 9 to 14) (size 15 to 20)
#    0.000    1.333    1.333    7.200    3.733    0.000 
#    0.000    0.000    0.000    0.000    0.000    0.000 
#    0.000   36.267    0.000    0.000    0.000    0.000 
#
# Total GULP energy -167663.885629 kJ/mol
# GULP energy per Si atom -5588.796188 kJ/mol
# Density = 1.823042 g / cm^3
# Si number density = 18.272010 Si / 1000 Ang^3
#
#
#
# Elastic Constant Matrix: (Units=GPa)
#
#
# Indices 1 2 3 4 5 6 
#
# 1 41.3846 3.3337 11.6250 0.0000 -10.5083 0.0000
# 2 3.3337 74.9127 26.2472 0.0000 -2.4402 0.0000
# 3 11.6250 26.2472 74.2569 0.0000 -3.8720 0.0000
# 4 0.0000 0.0000 0.0000 11.8164 0.0000 0.8787
# 5 -10.5083 -2.4402 -3.8720 0.0000 25.8716 0.0000
# 6 0.0000 0.0000 0.0000 0.8787 0.0000 27.1825
#
#
#
# Elastic Compliance Matrix: (Units=1/GPa)
#
#
# Indices 1 2 3 4 5 6 
#
# 1 0.027993 0.000507 -0.003997 0.000000 0.010819 0.000000
# 2 0.000507 0.015255 -0.005428 0.000000 0.000832 0.000000
# 3 -0.003997 -0.005428 0.016025 0.000000 0.000263 0.000000
# 4 0.000000 0.000000 0.000000 0.084832 0.000000 -0.002742
# 5 0.010819 0.000832 0.000263 0.000000 0.043165 0.000000
# 6 0.000000 0.000000 0.000000 -0.002742 0.000000 0.036877
#
#
# Mechanical properties :
#
#
# Convention : Reuss Voigt Hill
#
# Bulk Modulus (GPa) = 24.13341 30.32957 27.23149
# Shear Modulus (GPa) = 19.54683 22.93065 21.23874
#
# Velocity S-wave (km/s) = 3.27428 3.54638 3.41305
# Velocity P-wave (km/s) = 5.24701 5.77963 5.51975
#
# Compressibility (1/GPa) = 0.04143632
#
# Stress axis : x y z
#
# Youngs Moduli (GPa) = 35.72342 65.55094 62.40269
#
# Poissons Ratio (x) = -0.03325 0.24945
# Poissons Ratio (y) = -0.01812 0.33874
# Poissons Ratio (z) = 0.14280 0.35583
#
# Static dielectric constant tensor:
#      x y z
#    x 1.642440 0.000000 -0.035880 
#    y 0.000000 1.661820 0.000000 
#    z -0.035880 0.000000 1.646730 
# 
# From -- ./inp_files/24199.got.cif
#   From: 2010.05.17/outbox.cif.g08.bks.cpg/sg13_13_cif.got.tgz:24199.got - 2010.06.03 16:44:36.
