data_PCOD9229739
_publ_section_title
;
Structure prediction by ZEFSAII (Michael W. Deem and Ramdas Pophale) SiO2 
 PCOD9229739
Probable space group: P 2/C
;
_chemical_formula_sum "Si O2"
_cell_formula_units_Z 28
_cell_length_a 23.366348
_cell_length_b 8.507557
_cell_length_c 12.191750
_cell_angle_alpha 90.000000
_cell_angle_beta 38.496330
_cell_angle_gamma 90.000000
_cell_volume 1508.607801
_symmetry_space_group_name_H-M "P 2/C"
_symmetry_group_IT_number 13
_symmetry_cell_setting 'monoclinic'
loop_
_space_group_symop_operation_xyz
x,y,z
-x,y,1/2-z
-x,-y,-z
x,-y,1/2+z
loop_
_atom_site_type_symbol
_atom_site_label
_atom_site_fract_x
_atom_site_fract_y
_atom_site_fract_z
Si Si1 0.613100 0.701288 0.455020
Si Si2 0.170389 0.328955 0.875445
Si Si3 0.613100 0.798712 0.205679
Si Si4 0.500000 0.048641 0.250000
Si Si5 0.500000 0.451359 0.750000
Si Si6 0.067789 0.376120 0.455859
Si Si7 0.067789 0.123880 0.840774
Si Si8 0.829611 0.828955 0.886611
O O1 0.720545 0.666507 0.309097
O O2 0.598753 0.750000 0.351870
O O3 0.579568 0.844173 0.580530
O O4 0.547633 0.558496 0.587101
O O5 0.132068 0.507635 0.929284
O O6 0.123467 0.221457 0.850772
O O7 0.153051 0.250000 0.020423
O O8 0.579568 0.655827 0.180766
O O9 0.547633 0.941504 0.270000
O O10 0.720545 0.833493 0.029269
O O11 0.123467 0.278543 0.278826
O O12 0.000000 0.500000 0.500000
O O13 0.000000 0.250000 0.614444
O O14 0.132068 0.007635 0.674513
O O15 0.000000 0.000000 0.000000
#
# Coordination Sequence:
#
# PCOD9229739 Si02
#       8
#     4   4   4   2   2   4   4   4
#     4  10  20  34  54  79 107 142 180 218 265 319
#     4  10  20  36  56  78 108 143 178 223 272 318
#     4  10  20  34  54  79 107 142 180 218 265 319
#     4  10  20  34  54  78 110 142 176 222 266 310
#     4  10  20  34  54  78 110 142 176 222 266 310
#     4   9  19  35  54  78 105 135 178 223 266 322
#     4   9  19  35  54  78 105 135 178 223 266 322
#     4  10  20  36  56  78 108 143 178 223 272 318
#
# _framework density 18.560158000000001
#
# number of rings (size 3 to 8) (size 9 to 14) (size 15 to 20)
#    0.000    2.286    0.000    2.571    0.000    5.143 
#    0.000   10.000    0.000   24.000    0.000    0.000 
#    0.000    0.000    0.000    0.000    0.000    0.000 
#
# Total GULP energy -156095.135416 kJ/mol
# GULP energy per Si atom -5574.826265 kJ/mol
# Density = 1.851791 g / cm^3
# Si number density = 18.560158 Si / 1000 Ang^3
#
#
#
# Elastic Constant Matrix: (Units=GPa)
#
#
# Indices 1 2 3 4 5 6 
#
# 1 82.6014 52.6018 55.4705 0.0000 -13.8738 0.0000
# 2 52.6018 138.9384 57.2920 0.0000 -15.6597 0.0000
# 3 55.4705 57.2920 91.1948 0.0000 -14.8186 0.0000
# 4 0.0000 0.0000 0.0000 17.9241 0.0000 -13.9243
# 5 -13.8738 -15.6597 -14.8186 0.0000 18.7980 0.0000
# 6 0.0000 0.0000 0.0000 -13.9243 0.0000 13.7542
#
#
#
# Elastic Compliance Matrix: (Units=1/GPa)
#
#
# Indices 1 2 3 4 5 6 
#
# 1 0.022265 -0.003516 -0.010483 0.000000 0.005240 0.000000
# 2 -0.003516 0.010507 -0.003970 0.000000 0.003028 0.000000
# 3 -0.010483 -0.003970 0.020692 0.000000 0.005268 0.000000
# 4 0.000000 0.000000 0.000000 0.261262 0.000000 0.264493
# 5 0.005240 0.003028 0.005268 0.000000 0.063740 0.000000
# 6 0.000000 0.000000 0.000000 0.264493 0.000000 0.340470
#
#
# Mechanical properties :
#
#
# Convention : Reuss Voigt Hill
#
# Bulk Modulus (GPa) = 57.05747 71.49591 64.27669
# Shear Modulus (GPa) = 6.57276 19.91993 13.24634
#
# Velocity S-wave (km/s) = 1.88388 3.27962 2.67441
# Velocity P-wave (km/s) = 5.96160 7.27640 6.65157
#
# Compressibility (1/GPa) = 0.01752619
#
# Stress axis : x y z
#
# Youngs Moduli (GPa) = 44.91297 95.17375 48.32853
#
# Poissons Ratio (x) = 0.33468 0.50660
# Poissons Ratio (y) = 0.15794 0.19186
# Poissons Ratio (z) = 0.47080 0.37784
#
# Static dielectric constant tensor:
#      x y z
#    x 1.630190 0.000000 -0.006950 
#    y 0.000000 1.654950 0.000000 
#    z -0.006950 0.000000 1.632280 
# 
# From -- ./inp_files/41516.got.cif
#   From: 2010.05.17/outbox.cif.g08.bks.cpg/sg13_21_cif.got.tgz:41516.got - 2010.06.03 16:44:36.
