data_PCOD9229197
_publ_section_title
;
Structure prediction by ZEFSAII (Michael W. Deem and Ramdas Pophale) SiO2 
 PCOD9229197
Probable space group: P 2/C
;
_chemical_formula_sum "Si O2"
_cell_formula_units_Z 32
_cell_length_a 16.764062
_cell_length_b 5.229628
_cell_length_c 31.678601
_cell_angle_alpha 90.000000
_cell_angle_beta 144.084979
_cell_angle_gamma 90.000000
_cell_volume 1629.096392
_symmetry_space_group_name_H-M "P 2/C"
_symmetry_group_IT_number 13
_symmetry_cell_setting 'monoclinic'
loop_
_space_group_symop_operation_xyz
x,y,z
-x,y,1/2-z
-x,-y,-z
x,-y,1/2+z
loop_
_atom_site_type_symbol
_atom_site_label
_atom_site_fract_x
_atom_site_fract_y
_atom_site_fract_z
Si Si1 0.589476 0.103880 0.746523
Si Si2 0.048788 0.512692 0.427894
Si Si3 0.367430 0.026628 0.091122
Si Si4 0.738514 0.581639 0.781496
Si Si5 0.442668 0.416664 0.373523
Si Si6 0.293077 0.701590 0.984159
Si Si7 0.910476 0.989912 0.502849
Si Si8 0.587704 0.751776 0.548413
O O1 0.500000 0.060876 0.750000
O O2 0.476680 0.151532 0.661220
O O3 0.682943 0.355128 0.787884
O O4 0.678184 0.853763 0.771762
O O5 0.172293 0.484769 0.447262
O O6 0.037671 0.797118 0.441791
O O7 0.900924 0.424491 0.349142
O O8 0.087087 0.302287 0.479926
O O9 0.289297 0.934432 0.015473
O O10 0.457458 0.257984 0.114044
O O11 0.245958 0.073564 0.071591
O O12 0.680375 0.514815 0.709906
O O13 0.551212 0.615327 0.439115
O O14 0.387524 0.262795 0.390819
O O15 0.289724 0.754160 0.932922
O O16 0.000000 0.000000 0.500000
O O17 0.500000 0.500000 0.500000
O O18 0.500000 0.000000 0.500000
#
# Coordination Sequence:
#
# PCOD9229197 Si02
#       8
#     4   4   4   4   4   4   4   4
#     4  11  24  40  59  84 116 157 206 250 294 354
#     4  11  24  40  60  84 121 160 194 243 307 362
#     4  10  20  35  62  82 118 152 203 247 299 340
#     4  11  24  40  60  84 121 160 194 243 307 363
#     4  10  19  38  58  89 117 152 196 244 298 352
#     4  10  19  38  58  90 115 154 195 243 299 350
#     4  11  24  40  59  84 116 157 206 250 294 355
#     4  10  20  32  61  90 117 146 193 246 289 352
#
# _framework density 19.642790000000002
#
# number of rings (size 3 to 8) (size 9 to 14) (size 15 to 20)
#    0.000    1.500    3.750    1.500    3.500    0.000 
#    0.000    0.625    0.000    0.000    0.000    5.250 
#    0.000    0.000    0.000    0.000    0.000    0.000 
#
# Total GULP energy -178209.677666 kJ/mol
# GULP energy per Si atom -5569.052427 kJ/mol
# Density = 1.959808 g / cm^3
# Si number density = 19.642790 Si / 1000 Ang^3
#
#
#
# Elastic Constant Matrix: (Units=GPa)
#
#
# Indices 1 2 3 4 5 6 
#
# 1 114.1681 23.8589 18.3819 0.0000 8.8848 0.0000
# 2 23.8589 74.1638 3.6532 0.0000 -2.1829 0.0000
# 3 18.3819 3.6532 62.3664 0.0000 14.2293 0.0000
# 4 0.0000 0.0000 0.0000 17.1784 0.0000 3.5299
# 5 8.8848 -2.1829 14.2293 0.0000 16.6964 0.0000
# 6 0.0000 0.0000 0.0000 3.5299 0.0000 23.7843
#
#
#
# Elastic Compliance Matrix: (Units=1/GPa)
#
#
# Indices 1 2 3 4 5 6 
#
# 1 0.010064 -0.003274 -0.001806 0.000000 -0.004244 0.000000
# 2 -0.003274 0.014712 -0.000910 0.000000 0.004441 0.000000
# 3 -0.001806 -0.000910 0.020393 0.000000 -0.016538 0.000000
# 4 0.000000 0.000000 0.000000 0.060044 0.000000 -0.008911
# 5 -0.004244 0.004441 -0.016538 0.000000 0.076826 0.000000
# 6 0.000000 0.000000 0.000000 -0.008911 0.000000 0.043367
#
#
# Mechanical properties :
#
#
# Convention : Reuss Voigt Hill
#
# Bulk Modulus (GPa) = 30.13001 38.05404 34.09203
# Shear Modulus (GPa) = 20.12476 25.18545 22.65511
#
# Velocity S-wave (km/s) = 3.20431 3.58463 3.39979
# Velocity P-wave (km/s) = 5.39096 6.04548 5.72758
#
# Compressibility (1/GPa) = 0.03318950
#
# Stress axis : x y z
#
# Youngs Moduli (GPa) = 99.36152 67.96994 49.03612
#
# Poissons Ratio (x) = 0.22251 0.08857
# Poissons Ratio (y) = 0.32528 0.04463
# Poissons Ratio (z) = 0.17947 0.06187
#
# Static dielectric constant tensor:
#      x y z
#    x 1.798420 0.000000 -0.028890 
#    y 0.000000 1.743440 0.000000 
#    z -0.028890 0.000000 1.754300 
# 
# From -- ./inp_files/96877.got.cif
#   From: 2010.05.17/outbox.cif.g08.bks.cpg/sg13_49_cif.got.tgz:96877.got - 2010.06.03 16:44:36.
