data_PCOD9229143
_publ_section_title
;
Structure prediction by ZEFSAII (Michael W. Deem and Ramdas Pophale) SiO2 
 PCOD9229143
Probable space group: P 2/C
;
_chemical_formula_sum "Si O2"
_cell_formula_units_Z 24
_cell_length_a 8.274645
_cell_length_b 7.948189
_cell_length_c 20.589250
_cell_angle_alpha 90.000000
_cell_angle_beta 118.920633
_cell_angle_gamma 90.000000
_cell_volume 1185.250822
_symmetry_space_group_name_H-M "P 2/C"
_symmetry_group_IT_number 13
_symmetry_cell_setting 'monoclinic'
loop_
_space_group_symop_operation_xyz
x,y,z
-x,y,1/2-z
-x,-y,-z
x,-y,1/2+z
loop_
_atom_site_type_symbol
_atom_site_label
_atom_site_fract_x
_atom_site_fract_y
_atom_site_fract_z
Si Si1 0.671015 0.517731 0.831737
Si Si2 0.914361 0.592798 0.614080
Si Si3 0.732229 0.727211 0.148569
Si Si4 0.048417 0.953551 0.835437
Si Si5 0.291630 0.153964 0.708503
Si Si6 0.387385 0.444309 0.541988
O O1 0.500000 0.548561 0.750000
O O2 0.710614 0.315796 0.838383
O O3 0.617693 0.561745 0.895258
O O4 0.864391 0.592373 0.846356
O O5 0.837640 0.442402 0.645298
O O6 0.862597 0.778646 0.627419
O O7 0.818459 0.574141 0.525152
O O8 0.752167 0.763171 0.229149
O O9 0.516856 0.708791 0.090289
O O10 0.818919 0.887106 0.130244
O O11 0.000000 0.937728 0.750000
O O12 0.858693 0.011228 0.833321
O O13 0.500000 0.086344 0.750000
O O14 0.500000 0.500000 0.500000
#
# Coordination Sequence:
#
# PCOD9229143 Si02
#       6
#     4   4   4   4   4   4
#     4  11  21  38  69  91 118 171 215 251 309 371
#     4  11  24  38  64  93 131 157 207 256 325 365
#     4  10  20  40  63  87 125 168 202 258 305 375
#     4  10  23  36  60  95 123 163 210 262 307 366
#     4  10  19  37  64  86 120 163 215 252 304 357
#     4  10  22  40  64  93 127 167 205 255 320 376
#
# _framework density 20.24888
#
# number of rings (size 3 to 8) (size 9 to 14) (size 15 to 20)
#    0.000    1.667    5.000    0.500    2.333    1.333 
#    0.000    4.167    0.000    0.000    0.000    0.000 
#    0.000    0.000    0.000    0.000    0.000    0.000 
#
# Total GULP energy -133738.762707 kJ/mol
# GULP energy per Si atom -5572.448446 kJ/mol
# Density = 2.020279 g / cm^3
# Si number density = 20.248880 Si / 1000 Ang^3
#
#
#
# Elastic Constant Matrix: (Units=GPa)
#
#
# Indices 1 2 3 4 5 6 
#
# 1 98.4287 29.5184 18.5115 0.0000 1.7536 0.0000
# 2 29.5184 102.5092 21.0277 0.0000 -2.3719 0.0000
# 3 18.5115 21.0277 72.0693 0.0000 -1.1745 0.0000
# 4 0.0000 0.0000 0.0000 4.7503 0.0000 -5.1393
# 5 1.7536 -2.3719 -1.1745 0.0000 34.2265 0.0000
# 6 0.0000 0.0000 0.0000 -5.1393 0.0000 2.0159
#
#
#
# Elastic Compliance Matrix: (Units=1/GPa)
#
#
# Indices 1 2 3 4 5 6 
#
# 1 0.011436 -0.002880 -0.002111 0.000000 -0.000858 0.000000
# 2 -0.002880 0.011114 -0.002490 0.000000 0.000832 0.000000
# 3 -0.002111 -0.002490 0.015152 0.000000 0.000456 0.000000
# 4 0.000000 0.000000 0.000000 -0.119736 0.000000 -0.305250
# 5 -0.000858 0.000832 0.000456 0.000000 0.029334 0.000000
# 6 0.000000 0.000000 0.000000 -0.305250 0.000000 -0.282143
#
#
# Mechanical properties :
#
#
# Convention : Reuss Voigt Hill
#
# Bulk Modulus (GPa) = 43.97400 45.68027 44.82714
# Shear Modulus (GPa) = -16.01015 21.79520 2.89253
#
# Velocity S-wave (km/s) = -2.81493 3.28436 1.19649
# Velocity P-wave (km/s) = 3.34646 6.08203 4.90866
#
# Compressibility (1/GPa) = 0.02274071
#
# Stress axis : x y z
#
# Youngs Moduli (GPa) = 87.44638 89.97309 65.99971
#
# Poissons Ratio (x) = 0.25910 0.13933
# Poissons Ratio (y) = 0.25183 0.16431
# Poissons Ratio (z) = 0.18460 0.22400
#
# Static dielectric constant tensor:
#      x y z
#    x 1.809960 0.000000 -0.014720 
#    y 0.000000 1.722330 0.000000 
#    z -0.014720 0.000000 1.756850 
# 
# From -- ./inp_files/75397.got.cif
#   From: 2010.05.17/outbox.cif.g08.bks.cpg/sg13_38_cif.got.tgz:75397.got - 2010.06.03 16:44:36.
