data_PCOD9229943
_publ_section_title
;
Structure prediction by ZEFSAII (Michael W. Deem and Ramdas Pophale) SiO2 
 PCOD9229943
Probable space group: P 2/C
;
_chemical_formula_sum "Si O2"
_cell_formula_units_Z 20
_cell_length_a 17.617483
_cell_length_b 5.035122
_cell_length_c 25.719993
_cell_angle_alpha 90.000000
_cell_angle_beta 23.486549
_cell_angle_gamma 90.000000
_cell_volume 909.263645
_symmetry_space_group_name_H-M "P 2/C"
_symmetry_group_IT_number 13
_symmetry_cell_setting 'monoclinic'
loop_
_space_group_symop_operation_xyz
x,y,z
-x,y,1/2-z
-x,-y,-z
x,-y,1/2+z
loop_
_atom_site_type_symbol
_atom_site_label
_atom_site_fract_x
_atom_site_fract_y
_atom_site_fract_z
Si Si1 0.987200 0.996488 0.069747
Si Si2 0.111243 0.512121 0.054177
Si Si3 0.593278 0.949508 0.873273
Si Si4 0.786967 0.219284 0.408179
Si Si5 0.728392 0.567381 0.347013
O O1 0.763784 0.961628 0.226524
O O2 0.126820 0.772270 0.007690
O O3 0.047333 0.278514 0.055796
O O4 0.000000 0.000000 0.000000
O O5 0.228089 0.353135 0.025204
O O6 0.945293 0.613805 0.196495
O O7 0.629863 0.157391 0.897158
O O8 0.650084 0.656700 0.856681
O O9 0.378707 0.996109 0.988149
O O10 0.726126 0.440198 0.404669
O O11 0.000000 0.138710 0.250000
#
# Coordination Sequence:
#
# PCOD9229943 Si02
#       5
#     4   4   4   4   4
#     4  10  20  38  59  77 104 146 192 235 275 324
#     4   9  20  34  55  84 107 138 186 231 279 329
#     4  10  20  35  55  81 110 149 190 219 268 341
#     4  10  20  35  55  84 120 148 178 231 283 332
#     4   9  19  34  54  80 113 149 181 216 271 340
#
# _framework density 21.995822
#
# number of rings (size 3 to 8) (size 9 to 14) (size 15 to 20)
#    0.000    2.400    0.000    1.800    0.000    3.200 
#    0.000   12.000    0.000    2.400    0.000    0.000 
#    0.000    0.000    0.000    0.000    0.000    0.000 
#
# Total GULP energy -111360.965214 kJ/mol
# GULP energy per Si atom -5568.048261 kJ/mol
# Density = 2.194576 g / cm^3
# Si number density = 21.995822 Si / 1000 Ang^3
#
#
#
# Elastic Constant Matrix: (Units=GPa)
#
#
# Indices 1 2 3 4 5 6 
#
# 1 116.3040 27.3355 33.2252 0.0000 25.1368 0.0000
# 2 27.3355 120.8757 14.9036 0.0000 -0.3908 0.0000
# 3 33.2252 14.9036 61.5136 0.0000 -0.9438 0.0000
# 4 0.0000 0.0000 0.0000 20.1020 0.0000 -2.9602
# 5 25.1368 -0.3908 -0.9438 0.0000 38.3226 0.0000
# 6 0.0000 0.0000 0.0000 -2.9602 0.0000 33.2346
#
#
#
# Elastic Compliance Matrix: (Units=1/GPa)
#
#
# Indices 1 2 3 4 5 6 
#
# 1 0.012824 -0.002121 -0.006544 0.000000 -0.008594 0.000000
# 2 -0.002121 0.008879 -0.000983 0.000000 0.001457 0.000000
# 3 -0.006544 -0.000983 0.020103 0.000000 0.004778 0.000000
# 4 0.000000 0.000000 0.000000 0.050407 0.000000 0.004490
# 5 -0.008594 0.001457 0.004778 0.000000 0.031864 0.000000
# 6 0.000000 0.000000 0.000000 0.004490 0.000000 0.030489
#
#
# Mechanical properties :
#
#
# Convention : Reuss Voigt Hill
#
# Bulk Modulus (GPa) = 44.42846 49.95798 47.19322
# Shear Modulus (GPa) = 27.56866 33.21376 30.39121
#
# Velocity S-wave (km/s) = 3.54412 3.89009 3.72113
# Velocity P-wave (km/s) = 6.08195 6.55278 6.32175
#
# Compressibility (1/GPa) = 0.02250810
#
# Stress axis : x y z
#
# Youngs Moduli (GPa) = 77.98062 112.63130 49.74404
#
# Poissons Ratio (x) = 0.23888 0.32555
# Poissons Ratio (y) = 0.16539 0.04891
# Poissons Ratio (z) = 0.51034 0.11074
#
# Static dielectric constant tensor:
#      x y z
#    x 1.861430 0.000000 -0.046980 
#    y 0.000000 1.848250 0.000000 
#    z -0.046980 0.000000 1.921410 
# 
# From -- ./inp_files/58003.got.cif
#   From: 2010.05.17/outbox.cif.g08.bks.cpg/sg13_30_cif.got.tgz:58003.got - 2010.06.03 16:44:36.
