data_PCOD9229832
_publ_section_title
;
Structure prediction by ZEFSAII (Michael W. Deem and Ramdas Pophale) SiO2 
 PCOD9229832
Probable space group: P 2/C
;
_chemical_formula_sum "Si O2"
_cell_formula_units_Z 20
_cell_length_a 9.690319
_cell_length_b 4.934575
_cell_length_c 22.535520
_cell_angle_alpha 90.000000
_cell_angle_beta 106.433776
_cell_angle_gamma 90.000000
_cell_volume 1033.572036
_symmetry_space_group_name_H-M "P 2/C"
_symmetry_group_IT_number 13
_symmetry_cell_setting 'monoclinic'
loop_
_space_group_symop_operation_xyz
x,y,z
-x,y,1/2-z
-x,-y,-z
x,-y,1/2+z
loop_
_atom_site_type_symbol
_atom_site_label
_atom_site_fract_x
_atom_site_fract_y
_atom_site_fract_z
Si Si1 0.662912 0.565042 0.784187
Si Si2 0.223328 0.072938 0.634735
Si Si3 0.898112 0.054920 0.125764
Si Si4 0.107501 0.755827 0.003042
Si Si5 0.137965 0.424619 0.801198
O O1 0.500000 0.637913 0.750000
O O2 0.680501 0.269170 0.814258
O O3 0.750756 0.538870 0.733478
O O4 0.728799 0.772004 0.840765
O O5 0.226006 0.191292 0.568167
O O6 0.053971 0.079138 0.631451
O O7 0.811085 0.815139 0.148328
O O8 0.915896 0.313503 0.169850
O O9 0.839525 0.189208 0.057522
O O10 0.000000 0.500000 0.000000
O O11 0.000000 0.000000 0.000000
O O12 0.000000 0.305027 0.750000
#
# Coordination Sequence:
#
# PCOD9229832 Si02
#       5
#     4   4   4   4   4
#     4  12  25  38  57  84 119 162 196 232 292 359
#     4  11  20  38  59  83 120 151 192 245 289 348
#     4  11  20  35  60  90 114 146 191 246 302 339
#     4  10  20  34  57  91 120 148 190 247 303 345
#     4  12  21  36  59  84 121 149 189 248 294 341
#
# _framework density 19.350370999999999
#
# number of rings (size 3 to 8) (size 9 to 14) (size 15 to 20)
#    0.000    0.800    4.000    7.200    0.000    0.000 
#    0.000    0.000    0.000    7.200    0.000    0.000 
#    0.000    0.000    0.000    0.000    0.000    0.000 
#
# Total GULP energy -111413.681303 kJ/mol
# GULP energy per Si atom -5570.684065 kJ/mol
# Density = 1.930633 g / cm^3
# Si number density = 19.350371 Si / 1000 Ang^3
#
#
#
# Elastic Constant Matrix: (Units=GPa)
#
#
# Indices 1 2 3 4 5 6 
#
# 1 49.5202 -0.9703 39.5719 0.0000 -1.7962 0.0000
# 2 -0.9703 115.8256 21.8749 0.0000 -12.6322 0.0000
# 3 39.5719 21.8749 122.0202 0.0000 -19.9762 0.0000
# 4 0.0000 0.0000 0.0000 34.3342 0.0000 -6.6112
# 5 -1.7962 -12.6322 -19.9762 0.0000 18.9831 0.0000
# 6 0.0000 0.0000 0.0000 -6.6112 0.0000 12.1992
#
#
#
# Elastic Compliance Matrix: (Units=1/GPa)
#
#
# Indices 1 2 3 4 5 6 
#
# 1 0.028554 0.001436 -0.010775 0.000000 -0.007681 0.000000
# 2 0.001436 0.009445 -0.001338 0.000000 0.005013 0.000000
# 3 -0.010775 -0.001338 0.014035 0.000000 0.012859 0.000000
# 4 0.000000 0.000000 0.000000 0.032519 0.000000 0.017623
# 5 -0.007681 0.005013 0.012859 0.000000 0.068819 0.000000
# 6 0.000000 0.000000 0.000000 0.017623 0.000000 0.091523
#
#
# Mechanical properties :
#
#
# Convention : Reuss Voigt Hill
#
# Bulk Modulus (GPa) = 32.59505 45.36879 38.98192
# Shear Modulus (GPa) = 18.08475 28.22925 23.15700
#
# Velocity S-wave (km/s) = 3.06043 3.82363 3.46312
# Velocity P-wave (km/s) = 5.41937 6.55671 6.01498
#
# Compressibility (1/GPa) = 0.03067950
#
# Stress axis : x y z
#
# Youngs Moduli (GPa) = 35.02149 105.87410 71.25055
#
# Poissons Ratio (x) = -0.15209 0.76774
# Poissons Ratio (y) = -0.05031 0.09537
# Poissons Ratio (z) = 0.37737 0.14171
#
# Static dielectric constant tensor:
#      x y z
#    x 1.652080 0.000000 -0.073500 
#    y 0.000000 1.658630 0.000000 
#    z -0.073500 0.000000 1.885710 
# 
# From -- ./inp_files/74259.got.cif
#   From: 2010.05.17/outbox.cif.g08.bks.cpg/sg13_38_cif.got.tgz:74259.got - 2010.06.03 16:44:36.
