data_PCOD9229416
_publ_section_title
;
Structure prediction by ZEFSAII (Michael W. Deem and Ramdas Pophale) SiO2 
 PCOD9229416
Probable space group: P 2/C
;
_chemical_formula_sum "Si O2"
_cell_formula_units_Z 26
_cell_length_a 14.972445
_cell_length_b 8.692557
_cell_length_c 13.548421
_cell_angle_alpha 90.000000
_cell_angle_beta 138.338158
_cell_angle_gamma 90.000000
_cell_volume 1172.131047
_symmetry_space_group_name_H-M "P 2/C"
_symmetry_group_IT_number 13
_symmetry_cell_setting 'monoclinic'
loop_
_space_group_symop_operation_xyz
x,y,z
-x,y,1/2-z
-x,-y,-z
x,-y,1/2+z
loop_
_atom_site_type_symbol
_atom_site_label
_atom_site_fract_x
_atom_site_fract_y
_atom_site_fract_z
Si Si1 0.000000 0.600497 0.250000
Si Si2 0.902063 0.592309 0.496800
Si Si3 0.395364 0.269965 0.753320
Si Si4 0.922738 0.893674 0.858206
Si Si5 0.184045 0.141664 0.865569
Si Si6 0.306171 0.092424 0.178288
Si Si7 0.528510 0.172894 0.486196
O O1 0.091946 0.502113 0.396828
O O2 0.088097 0.717949 0.259603
O O3 0.744015 0.633300 0.349211
O O4 0.000000 0.500000 0.500000
O O5 0.983874 0.749157 0.581935
O O6 0.500000 0.303110 0.750000
O O7 0.345817 0.089345 0.702006
O O8 0.481391 0.279039 0.925926
O O9 0.784377 0.865499 0.801818
O O10 0.884297 0.986652 0.728897
O O11 0.000000 0.000000 0.000000
O O12 0.223922 0.134870 0.012908
O O13 0.318294 0.171261 0.917596
O O14 0.439344 0.189127 0.314638
O O15 0.500000 0.000000 0.500000
#
# Coordination Sequence:
#
# PCOD9229416 Si02
#       7
#     2   4   4   4   4   4   4
#     4  12  30  44  66 100 148 194 226 294 360 428
#     4  12  27  48  68 103 150 192 236 295 366 433
#     4  11  23  41  72 104 144 181 237 297 362 434
#     4  12  23  42  73 103 133 183 245 298 348 420
#     4  12  23  44  69 100 141 182 244 295 349 427
#     4  11  22  38  71 112 135 176 233 310 357 409
#     4  10  19  40  65 105 137 168 223 302 363 402
#
# _framework density 22.181820999999999
#
# number of rings (size 3 to 8) (size 9 to 14) (size 15 to 20)
#    0.000    0.615    4.615    6.000    2.154    0.000 
#    0.000    3.077    0.000    6.462    0.000    0.000 
#    0.000    0.000    0.000    0.000    0.000    0.000 
#
# Total GULP energy -145170.297711 kJ/mol
# GULP energy per Si atom -5583.472989 kJ/mol
# Density = 2.213133 g / cm^3
# Si number density = 22.181821 Si / 1000 Ang^3
#
#
#
# Elastic Constant Matrix: (Units=GPa)
#
#
# Indices 1 2 3 4 5 6 
#
# 1 124.0173 23.6063 38.4068 0.0000 12.4596 0.0000
# 2 23.6063 66.3999 38.5681 0.0000 -0.6717 0.0000
# 3 38.4068 38.5681 139.6077 0.0000 -12.6824 0.0000
# 4 0.0000 0.0000 0.0000 27.1800 0.0000 -4.7720
# 5 12.4596 -0.6717 -12.6824 0.0000 48.1048 0.0000
# 6 0.0000 0.0000 0.0000 -4.7720 0.0000 17.1167
#
#
#
# Elastic Compliance Matrix: (Units=1/GPa)
#
#
# Indices 1 2 3 4 5 6 
#
# 1 0.009485 -0.002054 -0.002323 0.000000 -0.003098 0.000000
# 2 -0.002054 0.018439 -0.004566 0.000000 -0.000414 0.000000
# 3 -0.002323 -0.004566 0.009336 0.000000 0.002999 0.000000
# 4 0.000000 0.000000 0.000000 0.038685 0.000000 0.010785
# 5 -0.003098 -0.000414 0.002999 0.000000 0.022375 0.000000
# 6 0.000000 0.000000 0.000000 0.010785 0.000000 0.061429
#
#
# Mechanical properties :
#
#
# Convention : Reuss Voigt Hill
#
# Bulk Modulus (GPa) = 51.62009 59.02081 55.32045
# Shear Modulus (GPa) = 27.15986 33.77653 30.46819
#
# Velocity S-wave (km/s) = 3.50297 3.90643 3.71019
# Velocity P-wave (km/s) = 6.29944 6.85656 6.58389
#
# Compressibility (1/GPa) = 0.01937230
#
# Stress axis : x y z
#
# Youngs Moduli (GPa) = 105.42812 54.23373 107.11068
#
# Poissons Ratio (x) = 0.11139 0.24886
# Poissons Ratio (y) = 0.21654 0.48912
# Poissons Ratio (z) = 0.24495 0.24766
#
# Static dielectric constant tensor:
#      x y z
#    x 1.844600 0.000000 -0.232180 
#    y 0.000000 1.719620 0.000000 
#    z -0.232180 0.000000 1.514110 
# 
# From -- ./inp_files/53238.got.cif
#   From: 2010.05.17/outbox.cif.g08.bks.cpg/sg13_27_cif.got.tgz:53238.got - 2010.06.03 16:44:36.
