data_PCOD9229849
_publ_section_title
;
Structure prediction by ZEFSAII (Michael W. Deem and Ramdas Pophale) SiO2 
 PCOD9229849
Probable space group: P 2/C
;
_chemical_formula_sum "Si O2"
_cell_formula_units_Z 20
_cell_length_a 12.517689
_cell_length_b 7.973185
_cell_length_c 17.031810
_cell_angle_alpha 90.000000
_cell_angle_beta 30.785552
_cell_angle_gamma 90.000000
_cell_volume 870.040275
_symmetry_space_group_name_H-M "P 2/C"
_symmetry_group_IT_number 13
_symmetry_cell_setting 'monoclinic'
loop_
_space_group_symop_operation_xyz
x,y,z
-x,y,1/2-z
-x,-y,-z
x,-y,1/2+z
loop_
_atom_site_type_symbol
_atom_site_label
_atom_site_fract_x
_atom_site_fract_y
_atom_site_fract_z
Si Si1 0.460024 0.262281 0.971928
Si Si2 0.500000 0.707652 0.750000
Si Si3 0.307611 0.380217 0.821586
Si Si4 0.471258 0.876121 0.916616
Si Si5 0.034025 0.868427 0.906921
Si Si6 0.000000 0.785698 0.750000
O O1 0.618632 0.349326 0.813054
O O2 0.431897 0.066352 0.965226
O O3 0.570241 0.252027 0.986751
O O4 0.217605 0.319539 0.120979
O O5 0.329114 0.576061 0.825846
O O6 0.388045 0.820098 0.885570
O O7 0.500000 0.298893 0.750000
O O8 0.099898 0.292462 0.981789
O O9 0.718690 0.857743 0.750502
O O10 0.985521 0.887334 0.842817
O O11 0.000000 0.000000 0.000000
#
# Coordination Sequence:
#
# PCOD9229849 Si02
#       6
#     4   2   4   4   4   2
#     4  10  20  39  63  86 120 157 209 250 301 356
#     4  10  24  38  58  88 130 162 194 250 312 372
#     4  10  21  40  59  85 120 166 191 247 312 359
#     4  10  23  37  60  92 118 157 205 259 298 357
#     4  11  21  36  63  91 115 157 206 255 298 359
#     4  10  20  34  58  92 118 146 196 258 308 338
#
# _framework density 22.987442999999999
#
# number of rings (size 3 to 8) (size 9 to 14) (size 15 to 20)
#    0.600    1.200    4.000    0.000    4.200    1.600 
#    0.000    0.000    0.000    7.200    0.000    0.000 
#    0.000    0.000    0.000    0.000    0.000    0.000 
#
# Total GULP energy -111420.348532 kJ/mol
# GULP energy per Si atom -5571.017427 kJ/mol
# Density = 2.293512 g / cm^3
# Si number density = 22.987443 Si / 1000 Ang^3
#
#
#
# Elastic Constant Matrix: (Units=GPa)
#
#
# Indices 1 2 3 4 5 6 
#
# 1 70.1164 17.7655 26.9177 0.0000 37.1161 0.0000
# 2 17.7655 29.1089 9.4013 0.0000 12.4204 0.0000
# 3 26.9177 9.4013 91.8722 0.0000 19.0707 0.0000
# 4 0.0000 0.0000 0.0000 12.9827 0.0000 6.0946
# 5 37.1161 12.4204 19.0707 0.0000 63.9805 0.0000
# 6 0.0000 0.0000 0.0000 6.0946 0.0000 29.1547
#
#
#
# Elastic Compliance Matrix: (Units=1/GPa)
#
#
# Indices 1 2 3 4 5 6 
#
# 1 0.023679 -0.008557 -0.003790 0.000000 -0.010946 0.000000
# 2 -0.008557 0.041085 -0.001143 0.000000 -0.002671 0.000000
# 3 -0.003790 -0.001143 0.012375 0.000000 -0.001268 0.000000
# 4 0.000000 0.000000 0.000000 0.085407 0.000000 -0.017854
# 5 -0.010946 -0.002671 -0.001268 0.000000 0.022876 0.000000
# 6 0.000000 0.000000 0.000000 -0.017854 0.000000 0.038032
#
#
# Mechanical properties :
#
#
# Convention : Reuss Voigt Hill
#
# Bulk Modulus (GPa) = 19.93624 33.25181 26.59403
# Shear Modulus (GPa) = 18.71577 30.35779 24.53678
#
# Velocity S-wave (km/s) = 2.85647 3.63798 3.27065
# Velocity P-wave (km/s) = 4.42388 5.66949 5.08497
#
# Compressibility (1/GPa) = 0.05015991
#
# Stress axis : x y z
#
# Youngs Moduli (GPa) = 42.23092 24.33981 80.80600
#
# Poissons Ratio (x) = 0.20828 0.30626
# Poissons Ratio (y) = 0.36138 0.09233
# Poissons Ratio (z) = 0.16006 0.02781
#
# Static dielectric constant tensor:
#      x y z
#    x 2.206970 0.000000 0.063160 
#    y 0.000000 1.866070 0.000000 
#    z 0.063160 0.000000 1.926970 
# 
# From -- ./inp_files/63689.got.cif
#   From: 2010.05.17/outbox.cif.g08.bks.cpg/sg13_32_cif.got.tgz:63689.got - 2010.06.03 16:44:36.
