data_PCOD9229763
_publ_section_title
;
Structure prediction by ZEFSAII (Michael W. Deem and Ramdas Pophale) SiO2 
 PCOD9229763
Probable space group: P 2/C
;
_chemical_formula_sum "Si O2"
_cell_formula_units_Z 28
_cell_length_a 12.915155
_cell_length_b 19.328406
_cell_length_c 5.435239
_cell_angle_alpha 90.000000
_cell_angle_beta 78.478590
_cell_angle_gamma 90.000000
_cell_volume 1329.455992
_symmetry_space_group_name_H-M "P 2/C"
_symmetry_group_IT_number 13
_symmetry_cell_setting 'monoclinic'
loop_
_space_group_symop_operation_xyz
x,y,z
-x,y,1/2-z
-x,-y,-z
x,-y,1/2+z
loop_
_atom_site_type_symbol
_atom_site_label
_atom_site_fract_x
_atom_site_fract_y
_atom_site_fract_z
Si Si1 0.603093 0.830978 0.086885
Si Si2 0.876120 0.957539 0.301704
Si Si3 0.500000 0.724135 0.750000
Si Si4 0.118101 0.473544 0.013035
Si Si5 0.295047 0.726187 0.068866
Si Si6 0.214185 0.149626 0.330809
Si Si7 0.000000 0.201722 0.250000
Si Si8 0.911974 0.671462 0.096982
O O1 0.500000 0.868741 0.250000
O O2 0.662924 0.784305 0.260221
O O3 0.549952 0.775307 0.928408
O O4 0.689911 0.873334 0.890063
O O5 0.801345 0.894203 0.413802
O O6 0.000000 0.936807 0.250000
O O7 0.858648 0.009282 0.542795
O O8 0.600889 0.687484 0.580562
O O9 0.169123 0.487360 0.720065
O O10 0.107548 0.392116 0.077789
O O11 0.000000 0.500000 0.000000
O O12 0.201598 0.683661 0.230135
O O13 0.240756 0.770879 0.879297
O O14 0.098407 0.153156 0.268008
O O15 0.956283 0.255929 0.473179
O O16 0.000000 0.647610 0.250000
#
# Coordination Sequence:
#
# PCOD9229763 Si02
#       8
#     4   4   2   4   4   4   2   4
#     4   9  18  36  57  80 113 144 189 230 295 362
#     4  10  25  42  59  81 114 162 207 239 273 343
#     4   8  18  36  52  78 110 144 192 222 290 370
#     4  10  20  36  53  72 111 167 202 228 270 333
#     4  10  20  34  54  86 110 150 180 242 300 346
#     4  11  23  34  59  83 118 154 189 236 301 348
#     4  12  24  32  50  90 122 152 178 242 296 354
#     4  12  22  33  52  83 124 147 191 235 284 351
#
# _framework density 21.061247999999999
#
# number of rings (size 3 to 8) (size 9 to 14) (size 15 to 20)
#    0.000    1.714    4.286    0.857    7.000    0.000 
#    0.000    0.000    0.000    0.857    0.000    1.000 
#    0.000    0.000    0.000    0.000    0.000    0.000 
#
# Total GULP energy -156105.063765 kJ/mol
# GULP energy per Si atom -5575.180849 kJ/mol
# Density = 2.101331 g / cm^3
# Si number density = 21.061248 Si / 1000 Ang^3
#
#
#
# Elastic Constant Matrix: (Units=GPa)
#
#
# Indices 1 2 3 4 5 6 
#
# 1 107.2117 13.7362 43.8231 0.0000 -31.7521 0.0000
# 2 13.7362 49.5690 22.0730 0.0000 -21.1870 0.0000
# 3 43.8231 22.0730 113.6682 0.0000 -32.8262 0.0000
# 4 0.0000 0.0000 0.0000 30.0461 0.0000 2.5943
# 5 -31.7521 -21.1870 -32.8262 0.0000 56.8173 0.0000
# 6 0.0000 0.0000 0.0000 2.5943 0.0000 -8.6880
#
#
#
# Elastic Compliance Matrix: (Units=1/GPa)
#
#
# Indices 1 2 3 4 5 6 
#
# 1 0.012107 0.000223 -0.003280 0.000000 0.004954 0.000000
# 2 0.000223 0.024606 -0.002615 0.000000 0.007790 0.000000
# 3 -0.003280 -0.002615 0.011713 0.000000 0.003959 0.000000
# 4 0.000000 0.000000 0.000000 0.032446 0.000000 0.009688
# 5 0.004954 0.007790 0.003959 0.000000 0.025561 0.000000
# 6 0.000000 0.000000 0.000000 0.009688 0.000000 -0.112209
#
#
# Mechanical properties :
#
#
# Convention : Reuss Voigt Hill
#
# Bulk Modulus (GPa) = 26.96710 47.74597 37.35653
# Shear Modulus (GPa) = 278.89709 28.35620 153.62664
#
# Velocity S-wave (km/s) = 11.51996 3.67327 8.54992
# Velocity P-wave (km/s) = 13.77599 6.38042 10.73517
#
# Compressibility (1/GPa) = 0.03708223
#
# Stress axis : x y z
#
# Youngs Moduli (GPa) = 82.59882 40.64084 85.37300
#
# Poissons Ratio (x) = -0.00907 0.28005
# Poissons Ratio (y) = -0.01843 0.22322
# Poissons Ratio (z) = 0.27095 0.10626
#
# Static dielectric constant tensor:
#      x y z
#    x 1.761610 0.000000 0.061100 
#    y 0.000000 1.731100 0.000000 
#    z 0.061100 0.000000 1.633230 
# 
# From -- ./inp_files/4114.got.cif
#   From: 2010.05.17/outbox.cif.g08.bks.cpg/sg13_3_cif.got.tgz:4114.got - 2010.06.03 16:44:36.
