data_PCOD9229469
_publ_section_title
;
Structure prediction by ZEFSAII (Michael W. Deem and Ramdas Pophale) SiO2 
 PCOD9229469
Probable space group: P 2/C
;
_chemical_formula_sum "Si O2"
_cell_formula_units_Z 30
_cell_length_a 14.502727
_cell_length_b 8.013489
_cell_length_c 23.330815
_cell_angle_alpha 90.000000
_cell_angle_beta 30.639063
_cell_angle_gamma 90.000000
_cell_volume 1381.830012
_symmetry_space_group_name_H-M "P 2/C"
_symmetry_group_IT_number 13
_symmetry_cell_setting 'monoclinic'
loop_
_space_group_symop_operation_xyz
x,y,z
-x,y,1/2-z
-x,-y,-z
x,-y,1/2+z
loop_
_atom_site_type_symbol
_atom_site_label
_atom_site_fract_x
_atom_site_fract_y
_atom_site_fract_z
Si Si1 0.508209 0.249824 0.123153
Si Si2 0.000000 0.366385 0.250000
Si Si3 0.042732 0.136915 0.794286
Si Si4 0.701758 0.411175 0.170440
Si Si5 0.316937 0.129403 0.119359
Si Si6 0.783684 0.442593 0.473369
Si Si7 0.685463 0.924704 0.008775
Si Si8 0.023549 0.372578 0.916777
O O1 0.341828 0.297379 0.251693
O O2 0.452801 0.227590 0.087009
O O3 0.650384 0.400908 0.051346
O O4 0.582477 0.066690 0.098974
O O5 0.143566 0.250048 0.205093
O O6 0.120391 0.459980 0.139328
O O7 0.000000 0.190863 0.750000
O O8 0.048478 0.262524 0.845742
O O9 0.230552 0.037782 0.691499
O O10 0.883610 0.005535 0.894089
O O11 0.500000 0.435603 0.250000
O O12 0.797764 0.579935 0.143108
O O13 0.854457 0.324062 0.048550
O O14 0.384861 0.093938 0.019006
O O15 0.691437 0.262961 0.528184
O O16 0.941568 0.455384 0.435382
#
# Coordination Sequence:
#
# PCOD9229469 Si02
#       8
#     4   2   4   4   4   4   4   4
#     4  12  24  41  69  96 138 187 235 292 343 423
#     4  10  20  36  60  98 134 184 220 272 346 432
#     4  10  19  41  71 102 141 180 225 285 357 433
#     4  11  24  47  71  96 143 187 242 307 345 405
#     4  10  20  39  64  98 146 175 219 292 349 413
#     4  11  22  39  68 101 139 180 231 283 350 428
#     4  10  21  40  65 100 143 178 217 286 349 422
#     4  11  24  43  77 100 136 194 232 295 366 408
#
# _framework density 21.710342000000001
#
# number of rings (size 3 to 8) (size 9 to 14) (size 15 to 20)
#    0.000    1.333    6.000    1.200    0.933    3.200 
#    0.000    2.000   14.667    0.800    0.000    0.000 
#    0.000    0.000    0.000    0.000    0.000    0.000 
#
# Total GULP energy -167224.073260 kJ/mol
# GULP energy per Si atom -5574.135775 kJ/mol
# Density = 2.166093 g / cm^3
# Si number density = 21.710342 Si / 1000 Ang^3
#
#
#
# Elastic Constant Matrix: (Units=GPa)
#
#
# Indices 1 2 3 4 5 6 
#
# 1 75.0953 34.0947 17.3111 0.0000 -9.6835 0.0000
# 2 34.0947 104.3289 35.2271 0.0000 4.3583 0.0000
# 3 17.3111 35.2271 101.9781 0.0000 8.9618 0.0000
# 4 0.0000 0.0000 0.0000 17.5700 0.0000 0.8394
# 5 -9.6835 4.3583 8.9618 0.0000 41.4079 0.0000
# 6 0.0000 0.0000 0.0000 0.8394 0.0000 14.6083
#
#
#
# Elastic Compliance Matrix: (Units=1/GPa)
#
#
# Indices 1 2 3 4 5 6 
#
# 1 0.016592 -0.005126 -0.001462 0.000000 0.004736 0.000000
# 2 -0.005126 0.012439 -0.003269 0.000000 -0.001801 0.000000
# 3 -0.001462 -0.003269 0.011400 0.000000 -0.002465 0.000000
# 4 0.000000 0.000000 0.000000 0.057072 0.000000 -0.003279
# 5 0.004736 -0.001801 -0.002465 0.000000 0.025981 0.000000
# 6 0.000000 0.000000 0.000000 -0.003279 0.000000 0.068643
#
#
# Mechanical properties :
#
#
# Convention : Reuss Voigt Hill
#
# Bulk Modulus (GPa) = 48.26901 50.51870 49.39385
# Shear Modulus (GPa) = 22.85765 27.70186 25.27975
#
# Velocity S-wave (km/s) = 3.24828 3.57595 3.41605
# Velocity P-wave (km/s) = 6.02909 6.35373 6.19353
#
# Compressibility (1/GPa) = 0.02071723
#
# Stress axis : x y z
#
# Youngs Moduli (GPa) = 60.27158 80.39080 87.72024
#
# Poissons Ratio (x) = 0.41211 0.12823
# Poissons Ratio (y) = 0.30898 0.28672
# Poissons Ratio (z) = 0.08811 0.26276
#
# Static dielectric constant tensor:
#      x y z
#    x 1.839920 0.000000 -0.014710 
#    y 0.000000 1.812600 0.000000 
#    z -0.014710 0.000000 1.850900 
# 
# From -- ./inp_files/87295.got.cif
#   From: 2010.05.17/outbox.cif.g08.bks.cpg/sg13_44_cif.got.tgz:87295.got - 2010.06.03 16:44:36.
