data_PCOD9229132
_publ_section_title
;
Structure prediction by ZEFSAII (Michael W. Deem and Ramdas Pophale) SiO2 
 PCOD9229132
Probable space group: P 2/C
;
_chemical_formula_sum "Si O2"
_cell_formula_units_Z 32
_cell_length_a 25.672148
_cell_length_b 7.219046
_cell_length_c 18.236497
_cell_angle_alpha 90.000000
_cell_angle_beta 23.596032
_cell_angle_gamma 90.000000
_cell_volume 1352.861601
_symmetry_space_group_name_H-M "P 2/C"
_symmetry_group_IT_number 13
_symmetry_cell_setting 'monoclinic'
loop_
_space_group_symop_operation_xyz
x,y,z
-x,y,1/2-z
-x,-y,-z
x,-y,1/2+z
loop_
_atom_site_type_symbol
_atom_site_label
_atom_site_fract_x
_atom_site_fract_y
_atom_site_fract_z
Si Si1 0.195988 0.693700 0.643627
Si Si2 0.931883 0.420737 0.404722
Si Si3 0.224674 0.119613 0.345940
Si Si4 0.039778 0.796873 0.976388
Si Si5 0.399095 0.419226 0.435454
Si Si6 0.203184 0.279632 0.794331
Si Si7 0.481567 0.663742 0.463176
Si Si8 0.739685 0.872275 0.080220
O O1 0.166613 0.751553 0.764580
O O2 0.292236 0.521506 0.523093
O O3 0.257495 0.848367 0.510995
O O4 0.052811 0.645338 0.798165
O O5 0.819335 0.434532 0.613569
O O6 0.858989 0.259450 0.452006
O O7 0.000000 0.535513 0.250000
O O8 0.087774 0.212448 0.497735
O O9 0.356236 0.217399 0.149721
O O10 0.206976 0.918810 0.329189
O O11 0.235861 0.073746 0.417314
O O12 0.912844 0.686967 0.115002
O O13 0.000000 0.000000 0.000000
O O14 0.500000 0.330186 0.250000
O O15 0.331425 0.288152 0.581071
O O16 0.460677 0.573128 0.409918
O O17 0.500000 0.500000 0.500000
O O18 0.609017 0.791536 0.286671
#
# Coordination Sequence:
#
# PCOD9229132 Si02
#       8
#     4   4   4   4   4   4   4   4
#     4  10  19  37  63  92 122 172 215 273 330 394
#     4   8  16  32  59  92 120 158 215 269 321 394
#     4  10  20  40  63  93 127 171 223 269 328 394
#     4   9  18  36  63  97 124 158 218 271 330 400
#     4  12  24  42  63  94 138 175 222 277 328 393
#     4   9  20  38  63  95 127 171 218 270 329 390
#     4  12  24  40  63  91 133 177 225 268 328 393
#     4  10  20  37  61  91 125 170 218 267 330 393
#
# _framework density 23.653563999999999
#
# number of rings (size 3 to 8) (size 9 to 14) (size 15 to 20)
#    0.000    2.000    2.500    2.625    0.000    2.000 
#    2.250    5.625    0.000    0.000    3.250    0.000 
#    0.000    0.000    0.000    0.000    0.000    0.000 
#
# Total GULP energy -178284.815908 kJ/mol
# GULP energy per Si atom -5571.400497 kJ/mol
# Density = 2.359973 g / cm^3
# Si number density = 23.653564 Si / 1000 Ang^3
#
#
#
# Elastic Constant Matrix: (Units=GPa)
#
#
# Indices 1 2 3 4 5 6 
#
# 1 71.7350 1.2413 28.7054 0.0000 4.3804 0.0000
# 2 1.2413 37.0488 7.3477 0.0000 2.8107 0.0000
# 3 28.7054 7.3477 110.7112 0.0000 18.5837 0.0000
# 4 0.0000 0.0000 0.0000 25.9287 0.0000 6.7879
# 5 4.3804 2.8107 18.5837 0.0000 49.9764 0.0000
# 6 0.0000 0.0000 0.0000 6.7879 0.0000 24.4614
#
#
#
# Elastic Compliance Matrix: (Units=1/GPa)
#
#
# Indices 1 2 3 4 5 6 
#
# 1 0.015558 0.000277 -0.004075 0.000000 0.000136 0.000000
# 2 0.000277 0.027396 -0.001736 0.000000 -0.000920 0.000000
# 3 -0.004075 -0.001736 0.010802 0.000000 -0.003562 0.000000
# 4 0.000000 0.000000 0.000000 0.041589 0.000000 -0.011541
# 5 0.000136 -0.000920 -0.003562 0.000000 0.021374 0.000000
# 6 0.000000 0.000000 0.000000 -0.011541 0.000000 0.044083
#
#
# Mechanical properties :
#
#
# Convention : Reuss Voigt Hill
#
# Bulk Modulus (GPa) = 23.42578 32.67599 28.05088
# Shear Modulus (GPa) = 26.86744 32.22002 29.54373
#
# Velocity S-wave (km/s) = 3.37393 3.69475 3.53798
# Velocity P-wave (km/s) = 5.01029 5.66092 5.34551
#
# Compressibility (1/GPa) = 0.04268802
#
# Stress axis : x y z
#
# Youngs Moduli (GPa) = 64.27659 36.50154 92.57383
#
# Poissons Ratio (x) = -0.01010 0.37724
# Poissons Ratio (y) = -0.01778 0.16067
# Poissons Ratio (z) = 0.26193 0.06335
#
# Static dielectric constant tensor:
#      x y z
#    x 1.882210 0.000000 0.192090 
#    y 0.000000 1.980260 0.000000 
#    z 0.192090 0.000000 1.651500 
# 
# From -- ./inp_files/82772.got.cif
#   From: 2010.05.17/outbox.cif.g08.bks.cpg/sg13_42_cif.got.tgz:82772.got - 2010.06.03 16:44:36.
