data_PCOD9229034
_publ_section_title
;
Structure prediction by ZEFSAII (Michael W. Deem and Ramdas Pophale) SiO2 
 PCOD9229034
Probable space group: P 2/C
;
_chemical_formula_sum "Si O2"
_cell_formula_units_Z 32
_cell_length_a 23.764152
_cell_length_b 12.125616
_cell_length_c 11.975405
_cell_angle_alpha 90.000000
_cell_angle_beta 150.227643
_cell_angle_gamma 90.000000
_cell_volume 1713.499221
_symmetry_space_group_name_H-M "P 2/C"
_symmetry_group_IT_number 13
_symmetry_cell_setting 'monoclinic'
loop_
_space_group_symop_operation_xyz
x,y,z
-x,y,1/2-z
-x,-y,-z
x,-y,1/2+z
loop_
_atom_site_type_symbol
_atom_site_label
_atom_site_fract_x
_atom_site_fract_y
_atom_site_fract_z
Si Si1 0.298963 0.142015 0.446456
Si Si2 0.629021 0.679182 0.013248
Si Si3 0.259976 0.498306 0.443756
Si Si4 0.148090 0.678899 0.395736
Si Si5 0.365865 0.197885 0.311614
Si Si6 0.418929 0.679338 0.309737
Si Si7 0.104128 0.306444 0.082382
Si Si8 0.388766 0.910137 0.629958
O O1 0.348936 0.154982 0.407225
O O2 0.372704 0.217456 0.657519
O O3 0.174332 0.196205 0.231915
O O4 0.306694 0.014402 0.489994
O O5 0.707906 0.584222 0.098348
O O6 0.627414 0.683196 0.144021
O O7 0.500000 0.657909 0.750000
O O8 0.656911 0.799144 0.008743
O O9 0.207497 0.569779 0.452535
O O10 0.371883 0.430773 0.671743
O O11 0.167386 0.407050 0.251323
O O12 0.242458 0.773558 0.550577
O O13 0.122253 0.671714 0.482234
O O14 0.029942 0.699518 0.129219
O O15 0.445737 0.305810 0.454708
O O16 0.421183 0.120611 0.313067
O O17 0.500000 0.940705 0.750000
#
# Coordination Sequence:
#
# PCOD9229034 Si02
#       8
#     4   4   4   4   4   4   4   4
#     4  10  24  37  60  87 114 157 194 244 290 347
#     4  11  22  37  53  86 121 158 185 235 296 350
#     4  11  21  35  58  86 114 157 192 242 293 349
#     4  10  19  37  58  80 111 154 197 242 286 346
#     4  11  21  38  58  88 115 156 194 233 296 354
#     4  11  22  38  56  88 128 148 191 238 293 355
#     4   9  21  38  56  82 111 148 203 245 286 339
#     4  11  21  38  57  85 120 154 190 235 293 355
#
# _framework density 18.675236000000002
#
# number of rings (size 3 to 8) (size 9 to 14) (size 15 to 20)
#    0.000    1.500    3.750    2.250    1.750    6.000 
#    0.000    0.625    0.000    0.000    0.000    0.000 
#    0.000    0.000    0.000    0.000    0.000    0.000 
#
# Total GULP energy -178595.710755 kJ/mol
# GULP energy per Si atom -5581.115961 kJ/mol
# Density = 1.863273 g / cm^3
# Si number density = 18.675236 Si / 1000 Ang^3
#
#
#
# Elastic Constant Matrix: (Units=GPa)
#
#
# Indices 1 2 3 4 5 6 
#
# 1 52.3280 24.1549 29.2195 0.0000 -6.4376 0.0000
# 2 24.1549 85.6100 43.3813 0.0000 -3.1566 0.0000
# 3 29.2195 43.3813 89.0672 0.0000 8.5128 0.0000
# 4 0.0000 0.0000 0.0000 12.0219 0.0000 -4.0061
# 5 -6.4376 -3.1566 8.5128 0.0000 29.5018 0.0000
# 6 0.0000 0.0000 0.0000 -4.0061 0.0000 -10.5610
#
#
#
# Elastic Compliance Matrix: (Units=1/GPa)
#
#
# Indices 1 2 3 4 5 6 
#
# 1 0.025736 -0.003113 -0.007643 0.000000 0.007488 0.000000
# 2 -0.003113 0.016345 -0.007242 0.000000 0.003159 0.000000
# 3 -0.007643 -0.007242 0.017992 0.000000 -0.007634 0.000000
# 4 0.000000 0.000000 0.000000 0.073847 0.000000 -0.028012
# 5 0.007488 0.003159 -0.007634 0.000000 0.038071 0.000000
# 6 0.000000 0.000000 0.000000 -0.028012 0.000000 -0.084062
#
#
# Mechanical properties :
#
#
# Convention : Reuss Voigt Hill
#
# Bulk Modulus (GPa) = 41.53091 46.72404 44.12748
# Shear Modulus (GPa) = 37.89327 14.87583 26.38455
#
# Velocity S-wave (km/s) = 4.50940 2.82539 3.76281
# Velocity P-wave (km/s) = 7.02849 5.97640 6.52369
#
# Compressibility (1/GPa) = 0.02407845
#
# Stress axis : x y z
#
# Youngs Moduli (GPa) = 38.85642 61.17942 55.58115
#
# Poissons Ratio (x) = 0.19042 0.42478
# Poissons Ratio (y) = 0.12094 0.40252
# Poissons Ratio (z) = 0.29696 0.44307
#
# Static dielectric constant tensor:
#      x y z
#    x 1.651530 0.000000 0.002780 
#    y 0.000000 1.641850 0.000000 
#    z 0.002780 0.000000 1.674060 
# 
# From -- ./inp_files/41862.got.cif
#   From: 2010.05.17/outbox.cif.g08.bks.cpg/sg13_21_cif.got.tgz:41862.got - 2010.06.03 16:44:36.
