data_PCOD9229871
_publ_section_title
;
Structure prediction by ZEFSAII (Michael W. Deem and Ramdas Pophale) SiO2 
 PCOD9229871
Probable space group: P 2/C
;
_chemical_formula_sum "Si O2"
_cell_formula_units_Z 26
_cell_length_a 9.616128
_cell_length_b 10.091782
_cell_length_c 13.465985
_cell_angle_alpha 90.000000
_cell_angle_beta 110.146542
_cell_angle_gamma 90.000000
_cell_volume 1226.834957
_symmetry_space_group_name_H-M "P 2/C"
_symmetry_group_IT_number 13
_symmetry_cell_setting 'monoclinic'
loop_
_space_group_symop_operation_xyz
x,y,z
-x,y,1/2-z
-x,-y,-z
x,-y,1/2+z
loop_
_atom_site_type_symbol
_atom_site_label
_atom_site_fract_x
_atom_site_fract_y
_atom_site_fract_z
Si Si1 0.771331 0.374921 0.622848
Si Si2 0.671599 0.861976 0.586648
Si Si3 0.326756 0.599185 0.037303
Si Si4 0.500000 0.464852 0.250000
Si Si5 0.326829 0.871218 0.523907
Si Si6 0.095934 0.543935 0.143191
Si Si7 0.779419 0.269189 0.304319
O O1 0.679219 0.493795 0.552398
O O2 0.701007 0.240854 0.565949
O O3 0.798591 0.393986 0.745540
O O4 0.936800 0.391933 0.618863
O O5 0.660653 0.742098 0.506378
O O6 0.503839 0.882982 0.586976
O O7 0.775620 0.818074 0.703872
O O8 0.721032 0.990941 0.537650
O O9 0.450448 0.556065 0.146532
O O10 0.173634 0.579883 0.059886
O O11 0.635119 0.364644 0.263853
O O12 0.243156 0.820055 0.602584
O O13 0.094963 0.383620 0.157717
#
# Coordination Sequence:
#
# PCOD9229871 Si02
#       7
#     4   4   4   2   4   4   4
#     4  11  21  41  66  89 124 163 211 261 310 359
#     4  11  24  40  60  94 130 169 202 249 323 389
#     4  11  22  37  63  91 122 156 215 258 308 366
#     4  10  20  34  60  94 118 158 204 264 308 364
#     4  11  24  39  63  89 131 168 201 257 316 382
#     4  10  23  37  66  96 118 160 216 265 305 366
#     4  11  19  40  61  91 125 165 210 259 319 370
#
# _framework density 21.192744999999999
#
# number of rings (size 3 to 8) (size 9 to 14) (size 15 to 20)
#    0.000    1.231    6.154    0.462    4.308    2.462 
#    2.769    0.769    6.769    0.000    0.000    0.000 
#    0.000    0.000    0.000    0.000    0.000    0.000 
#
# Total GULP energy -145364.889779 kJ/mol
# GULP energy per Si atom -5590.957299 kJ/mol
# Density = 2.114451 g / cm^3
# Si number density = 21.192745 Si / 1000 Ang^3
#
#
#
# Elastic Constant Matrix: (Units=GPa)
#
#
# Indices 1 2 3 4 5 6 
#
# 1 20.7978 30.9974 50.9744 0.0000 10.5721 0.0000
# 2 30.9974 123.7798 -10.7452 0.0000 -31.1943 0.0000
# 3 50.9744 -10.7452 21.3674 0.0000 -42.5611 0.0000
# 4 0.0000 0.0000 0.0000 33.4592 0.0000 -14.8938
# 5 10.5721 -31.1943 -42.5611 0.0000 24.4241 0.0000
# 6 0.0000 0.0000 0.0000 -14.8938 0.0000 29.0049
#
#
#
# Elastic Compliance Matrix: (Units=1/GPa)
#
#
# Indices 1 2 3 4 5 6 
#
# 1 0.010292 0.002574 0.010353 0.000000 0.016874 0.000000
# 2 0.002574 0.006733 -0.004919 0.000000 -0.001087 0.000000
# 3 0.010353 -0.004919 0.000734 0.000000 -0.009485 0.000000
# 4 0.000000 0.000000 0.000000 0.038743 0.000000 0.019894
# 5 0.016874 -0.001087 -0.009485 0.000000 0.015723 0.000000
# 6 0.000000 0.000000 0.000000 0.019894 0.000000 0.044693
#
#
# Mechanical properties :
#
#
# Convention : Reuss Voigt Hill
#
# Bulk Modulus (GPa) = 29.60685 34.26647 31.93666
# Shear Modulus (GPa) = 44.57924 23.69220 34.13572
#
# Velocity S-wave (km/s) = 4.59138 3.34719 4.01774
# Velocity P-wave (km/s) = 6.48909 5.58053 6.05189
#
# Compressibility (1/GPa) = 0.03377597
#
# Stress axis : x y z
#
# Youngs Moduli (GPa) = 97.16321 148.51482 1361.79189
#
# Poissons Ratio (x) = -0.38228 -14.09929
# Poissons Ratio (y) = -0.25010 6.69912
# Poissons Ratio (z) = -1.00598 0.73059
#
# Static dielectric constant tensor:
#      x y z
#    x 1.847210 0.000000 0.004680 
#    y 0.000000 1.722130 0.000000 
#    z 0.004680 0.000000 1.812100 
# 
# From -- ./inp_files/50147.got.cif
#   From: 2010.05.17/outbox.cif.g08.bks.cpg/sg13_26_cif.got.tgz:50147.got - 2010.06.03 16:44:36.
