data_PCOD9229005
_publ_section_title
;
Structure prediction by ZEFSAII (Michael W. Deem and Ramdas Pophale) SiO2 
 PCOD9229005
Probable space group: P 2/C
;
_chemical_formula_sum "Si O2"
_cell_formula_units_Z 22
_cell_length_a 5.227502
_cell_length_b 17.128278
_cell_length_c 12.268469
_cell_angle_alpha 90.000000
_cell_angle_beta 108.414919
_cell_angle_gamma 90.000000
_cell_volume 1042.245704
_symmetry_space_group_name_H-M "P 2/C"
_symmetry_group_IT_number 13
_symmetry_cell_setting 'monoclinic'
loop_
_space_group_symop_operation_xyz
x,y,z
-x,y,1/2-z
-x,-y,-z
x,-y,1/2+z
loop_
_atom_site_type_symbol
_atom_site_label
_atom_site_fract_x
_atom_site_fract_y
_atom_site_fract_z
Si Si1 0.000000 0.594297 0.750000
Si Si2 0.801604 0.919355 0.101450
Si Si3 0.320187 0.021444 0.136482
Si Si4 0.272187 0.505966 0.605758
Si Si5 0.598039 0.631991 0.511928
Si Si6 0.290421 0.746926 0.323516
O O1 0.206402 0.535288 0.717410
O O2 0.858316 0.641005 0.629368
O O3 0.535254 0.962686 0.110246
O O4 0.788962 0.833686 0.147705
O O5 0.075775 0.970114 0.151914
O O6 0.784220 0.919952 0.968032
O O7 0.500000 0.063786 0.250000
O O8 0.425862 0.574380 0.563954
O O9 0.376852 0.419193 0.596493
O O10 0.000000 0.500000 0.500000
O O11 0.440123 0.706585 0.446475
O O12 0.500000 0.750106 0.250000
O O13 0.000000 0.709477 0.250000
#
# Coordination Sequence:
#
# PCOD9229005 Si02
#       6
#     2   4   4   4   4   4
#     4  10  20  40  68  88 124 166 222 288 332 390
#     4  10  21  38  62  94 126 166 208 257 316 381
#     4  10  19  36  66  93 124 161 213 259 309 375
#     4   9  20  39  62  90 119 160 222 273 329 389
#     4  10  23  41  62  93 124 172 219 272 338 396
#     4  12  27  43  65  94 137 176 217 270 335 402
#
# _framework density 21.108264999999999
#
# number of rings (size 3 to 8) (size 9 to 14) (size 15 to 20)
#    0.000    1.818    0.000    3.818    5.091    4.364 
#    6.545    1.818    8.000    0.000    0.000    0.000 
#    0.000    0.000    0.000    0.000    0.000    0.000 
#
# Total GULP energy -122494.216102 kJ/mol
# GULP energy per Si atom -5567.918914 kJ/mol
# Density = 2.106022 g / cm^3
# Si number density = 21.108265 Si / 1000 Ang^3
#
#
#
# Elastic Constant Matrix: (Units=GPa)
#
#
# Indices 1 2 3 4 5 6 
#
# 1 116.6472 22.9398 41.0232 0.0000 -0.1082 0.0000
# 2 22.9398 60.2168 39.6767 0.0000 2.9383 0.0000
# 3 41.0232 39.6767 164.5023 0.0000 16.9021 0.0000
# 4 0.0000 0.0000 0.0000 -1.4001 0.0000 -13.1157
# 5 -0.1082 2.9383 16.9021 0.0000 32.2143 0.0000
# 6 0.0000 0.0000 0.0000 -13.1157 0.0000 2.3908
#
#
#
# Elastic Compliance Matrix: (Units=1/GPa)
#
#
# Indices 1 2 3 4 5 6 
#
# 1 0.009754 -0.002483 -0.001966 0.000000 0.001291 0.000000
# 2 -0.002483 0.020393 -0.004341 0.000000 0.000409 0.000000
# 3 -0.001966 -0.004341 0.008008 0.000000 -0.003812 0.000000
# 4 0.000000 0.000000 0.000000 -0.013633 0.000000 -0.074789
# 5 0.001291 0.000409 -0.003812 0.000000 0.033009 0.000000
# 6 0.000000 0.000000 0.000000 -0.074789 0.000000 0.007984
#
#
# Mechanical properties :
#
#
# Convention : Reuss Voigt Hill
#
# Bulk Modulus (GPa) = 48.60628 60.96063 54.78345
# Shear Modulus (GPa) = 55.58318 22.48943 39.03631
#
# Velocity S-wave (km/s) = 5.13708 3.26764 4.30506
# Velocity P-wave (km/s) = 7.63304 6.57109 7.12189
#
# Compressibility (1/GPa) = 0.02057347
#
# Stress axis : x y z
#
# Youngs Moduli (GPa) = 102.52348 49.03571 124.87405
#
# Poissons Ratio (x) = 0.12177 0.24551
# Poissons Ratio (y) = 0.25460 0.54214
# Poissons Ratio (z) = 0.20157 0.21289
#
# Static dielectric constant tensor:
#      x y z
#    x 1.852540 0.000000 0.036660 
#    y 0.000000 1.757930 0.000000 
#    z 0.036660 0.000000 1.897680 
# 
# From -- ./inp_files/26552.got.cif
#   From: 2010.05.17/outbox.cif.g08.bks.cpg/sg13_14_cif.got.tgz:26552.got - 2010.06.03 16:44:36.
