data_PCOD9229670
_publ_section_title
;
Structure prediction by ZEFSAII (Michael W. Deem and Ramdas Pophale) SiO2 
 PCOD9229670
Probable space group: P 2/C
;
_chemical_formula_sum "Si O2"
_cell_formula_units_Z 20
_cell_length_a 13.297197
_cell_length_b 9.493508
_cell_length_c 18.323756
_cell_angle_alpha 90.000000
_cell_angle_beta 152.840618
_cell_angle_gamma 90.000000
_cell_volume 1055.871299
_symmetry_space_group_name_H-M "P 2/C"
_symmetry_group_IT_number 13
_symmetry_cell_setting 'monoclinic'
loop_
_space_group_symop_operation_xyz
x,y,z
-x,y,1/2-z
-x,-y,-z
x,-y,1/2+z
loop_
_atom_site_type_symbol
_atom_site_label
_atom_site_fract_x
_atom_site_fract_y
_atom_site_fract_z
Si Si1 0.936485 0.553502 0.790720
Si Si2 0.392943 0.646041 0.810332
Si Si3 0.275735 0.631334 0.138595
Si Si4 0.887893 0.250418 0.610028
Si Si5 0.061552 0.844737 0.515312
O O1 0.952182 0.384577 0.799551
O O2 0.000000 0.601783 0.750000
O O3 0.706893 0.609776 0.674752
O O4 0.115911 0.596662 0.967521
O O5 0.335707 0.511151 0.721780
O O6 0.258617 0.776524 0.689547
O O7 0.649189 0.683300 0.973549
O O8 0.500000 0.690210 0.250000
O O9 0.144748 0.740671 0.103709
O O10 0.874278 0.162469 0.527787
O O11 0.000000 0.171031 0.750000
O O12 0.000000 0.000000 0.500000
#
# Coordination Sequence:
#
# PCOD9229670 Si02
#       5
#     4   4   4   4   4
#     4  10  20  33  57  93 121 149 188 249 304 348
#     4  11  20  40  63  87 123 157 200 251 303 359
#     4  11  19  36  60  87 115 152 203 249 297 361
#     4  11  22  37  63  93 123 155 200 251 311 356
#     4  11  23  40  59  86 121 165 205 241 298 364
#
# _framework density 18.941701999999999
#
# number of rings (size 3 to 8) (size 9 to 14) (size 15 to 20)
#    0.000    1.200    6.000    1.800    0.000    6.400 
#    0.000    5.000    0.000    0.000    0.000    0.000 
#    0.000    0.000    0.000    0.000    0.000    0.000 
#
# Total GULP energy -111674.887289 kJ/mol
# GULP energy per Si atom -5583.744364 kJ/mol
# Density = 1.889859 g / cm^3
# Si number density = 18.941702 Si / 1000 Ang^3
#
#
#
# Elastic Constant Matrix: (Units=GPa)
#
#
# Indices 1 2 3 4 5 6 
#
# 1 164.5078 36.3378 51.8709 0.0000 -2.3352 0.0000
# 2 36.3378 76.3956 42.4345 0.0000 2.3951 0.0000
# 3 51.8709 42.4345 84.5192 0.0000 9.4585 0.0000
# 4 0.0000 0.0000 0.0000 4.5444 0.0000 6.1028
# 5 -2.3352 2.3951 9.4585 0.0000 25.4057 0.0000
# 6 0.0000 0.0000 0.0000 6.1028 0.0000 21.3807
#
#
#
# Elastic Compliance Matrix: (Units=1/GPa)
#
#
# Indices 1 2 3 4 5 6 
#
# 1 0.007794 -0.001351 -0.004382 0.000000 0.002475 0.000000
# 2 -0.001351 0.018461 -0.008589 0.000000 0.001333 0.000000
# 3 -0.004382 -0.008589 0.019605 0.000000 -0.006892 0.000000
# 4 0.000000 0.000000 0.000000 0.356825 0.000000 -0.101850
# 5 0.002475 0.001333 -0.006892 0.000000 0.042029 0.000000
# 6 0.000000 0.000000 0.000000 -0.101850 0.000000 0.075843
#
#
# Mechanical properties :
#
#
# Convention : Reuss Voigt Hill
#
# Bulk Modulus (GPa) = 58.08554 65.18988 61.63771
# Shear Modulus (GPa) = 9.01000 23.25147 16.13073
#
# Velocity S-wave (km/s) = 2.18335 3.50741 2.92138
# Velocity P-wave (km/s) = 6.08999 7.13396 6.63255
#
# Compressibility (1/GPa) = 0.01721599
#
# Stress axis : x y z
#
# Youngs Moduli (GPa) = 128.30446 54.16738 51.00848
#
# Poissons Ratio (x) = 0.07317 0.22353
# Poissons Ratio (y) = 0.17331 0.43812
# Poissons Ratio (z) = 0.56225 0.46525
#
# Static dielectric constant tensor:
#      x y z
#    x 1.728070 0.000000 -0.008800 
#    y 0.000000 1.624250 0.000000 
#    z -0.008800 0.000000 1.689840 
# 
# From -- ./inp_files/63564.got.cif
#   From: 2010.05.17/outbox.cif.g08.bks.cpg/sg13_32_cif.got.tgz:63564.got - 2010.06.03 16:44:36.
