data_PCOD9229003
_publ_section_title
;
Structure prediction by ZEFSAII (Michael W. Deem and Ramdas Pophale) SiO2 
 PCOD9229003
Probable space group: P 2/C
;
_chemical_formula_sum "Si O2"
_cell_formula_units_Z 28
_cell_length_a 14.736229
_cell_length_b 10.977034
_cell_length_c 14.029599
_cell_angle_alpha 90.000000
_cell_angle_beta 39.852394
_cell_angle_gamma 90.000000
_cell_volume 1454.277404
_symmetry_space_group_name_H-M "P 2/C"
_symmetry_group_IT_number 13
_symmetry_cell_setting 'monoclinic'
loop_
_space_group_symop_operation_xyz
x,y,z
-x,y,1/2-z
-x,-y,-z
x,-y,1/2+z
loop_
_atom_site_type_symbol
_atom_site_label
_atom_site_fract_x
_atom_site_fract_y
_atom_site_fract_z
Si Si1 0.906477 0.347708 0.421017
Si Si2 0.221563 0.863255 0.939151
Si Si3 0.269584 0.578143 0.927152
Si Si4 0.351536 0.770496 0.478581
Si Si5 0.000000 0.007386 0.750000
Si Si6 0.500000 0.016260 0.750000
Si Si7 0.523475 0.485098 0.592269
Si Si8 0.876843 0.830033 0.687429
O O1 0.855544 0.481887 0.489121
O O2 0.768668 0.267245 0.502594
O O3 0.000000 0.356178 0.250000
O O4 0.006906 0.277378 0.413300
O O5 0.235335 0.718589 0.942189
O O6 0.152339 0.885020 0.891729
O O7 0.372575 0.930523 0.818455
O O8 0.124112 0.915440 0.101764
O O9 0.392794 0.541788 0.754223
O O10 0.335719 0.548794 0.978273
O O11 0.431882 0.892438 0.383154
O O12 0.457875 0.657337 0.399040
O O13 0.267408 0.782315 0.646263
O O14 0.061914 0.923411 0.784101
O O15 0.500000 0.500000 0.500000
#
# Coordination Sequence:
#
# PCOD9229003 Si02
#       8
#     4   4   4   4   2   2   4   4
#     4   9  18  37  67  90 121 162 209 266 314 376
#     4  12  27  41  66  91 136 173 211 267 331 377
#     4  10  22  40  58  94 133 162 207 271 320 384
#     4  10  19  36  66  92 121 164 221 261 312 380
#     4  12  24  48  60  92 130 172 214 270 310 392
#     4  12  22  42  62  92 128 176 214 260 306 392
#     4  10  20  39  63  91 129 165 207 269 331 372
#     4  11  21  44  67  92 123 169 219 269 319 380
#
# _framework density 19.253549
#
# number of rings (size 3 to 8) (size 9 to 14) (size 15 to 20)
#    0.000    1.429    3.571    3.857    1.000    1.143 
#    5.143    0.000    0.000    0.000    0.000    0.000 
#    0.000    0.000    0.000    0.000    0.000    0.000 
#
# Total GULP energy -156408.566073 kJ/mol
# GULP energy per Si atom -5586.020217 kJ/mol
# Density = 1.920973 g / cm^3
# Si number density = 19.253549 Si / 1000 Ang^3
#
#
#
# Elastic Constant Matrix: (Units=GPa)
#
#
# Indices 1 2 3 4 5 6 
#
# 1 117.9521 57.9306 43.9609 0.0000 7.8321 0.0000
# 2 57.9306 141.1977 60.9512 0.0000 -16.0715 0.0000
# 3 43.9609 60.9512 79.6417 0.0000 -13.7000 0.0000
# 4 0.0000 0.0000 0.0000 31.6676 0.0000 -6.8253
# 5 7.8321 -16.0715 -13.7000 0.0000 24.9760 0.0000
# 6 0.0000 0.0000 0.0000 -6.8253 0.0000 13.9230
#
#
#
# Elastic Compliance Matrix: (Units=1/GPa)
#
#
# Indices 1 2 3 4 5 6 
#
# 1 0.013379 -0.004034 -0.006036 0.000000 -0.010102 0.000000
# 2 -0.004034 0.011949 -0.005938 0.000000 0.005696 0.000000
# 3 -0.006036 -0.005938 0.022195 0.000000 0.010246 0.000000
# 4 0.000000 0.000000 0.000000 0.035308 0.000000 0.017309
# 5 -0.010102 0.005696 0.010246 0.000000 0.052492 0.000000
# 6 0.000000 0.000000 0.000000 0.017309 0.000000 0.080308
#
#
# Mechanical properties :
#
#
# Convention : Reuss Voigt Hill
#
# Bulk Modulus (GPa) = 64.48372 73.83076 69.15724
# Shear Modulus (GPa) = 19.77707 25.84327 22.81017
#
# Velocity S-wave (km/s) = 3.20846 3.66766 3.44572
# Velocity P-wave (km/s) = 6.87679 7.50769 7.19915
#
# Compressibility (1/GPa) = 0.01550779
#
# Stress axis : x y z
#
# Youngs Moduli (GPa) = 74.74141 83.68906 45.05442
#
# Poissons Ratio (x) = 0.33757 0.27195
# Poissons Ratio (y) = 0.30147 0.26755
# Poissons Ratio (z) = 0.45114 0.49698
#
# Static dielectric constant tensor:
#      x y z
#    x 1.681900 0.000000 -0.011330 
#    y 0.000000 1.675980 0.000000 
#    z -0.011330 0.000000 1.672700 
# 
# From -- ./inp_files/53342.got.cif
#   From: 2010.05.17/outbox.cif.g08.bks.cpg/sg13_27_cif.got.tgz:53342.got - 2010.06.03 16:44:36.
