data_PCOD9229491
_publ_section_title
;
Structure prediction by ZEFSAII (Michael W. Deem and Ramdas Pophale) SiO2 
 PCOD9229491
Probable space group: P 2/C
;
_chemical_formula_sum "Si O2"
_cell_formula_units_Z 20
_cell_length_a 10.287623
_cell_length_b 10.888988
_cell_length_c 8.577525
_cell_angle_alpha 90.000000
_cell_angle_beta 97.643424
_cell_angle_gamma 90.000000
_cell_volume 952.332510
_symmetry_space_group_name_H-M "P 2/C"
_symmetry_group_IT_number 13
_symmetry_cell_setting 'monoclinic'
loop_
_space_group_symop_operation_xyz
x,y,z
-x,y,1/2-z
-x,-y,-z
x,-y,1/2+z
loop_
_atom_site_type_symbol
_atom_site_label
_atom_site_fract_x
_atom_site_fract_y
_atom_site_fract_z
Si Si1 0.140802 0.633850 0.075580
Si Si2 0.500000 0.522922 0.250000
Si Si3 0.623368 0.334470 0.059515
Si Si4 0.389901 0.838526 0.529238
Si Si5 0.160743 0.645274 0.451374
Si Si6 0.500000 0.955931 0.250000
O O1 0.172025 0.641649 0.264432
O O2 0.990616 0.675386 0.033597
O O3 0.235654 0.707589 0.974956
O O4 0.167891 0.493368 0.021418
O O5 0.610425 0.436292 0.191241
O O6 0.558277 0.603418 0.396588
O O7 0.526741 0.227734 0.090365
O O8 0.269782 0.742645 0.527248
O O9 0.398853 0.961173 0.633101
O O10 0.411445 0.876735 0.353040
#
# Coordination Sequence:
#
# PCOD9229491 Si02
#       6
#     4   2   4   4   4   2
#     4  10  20  34  56  90 124 154 184 218 286 381
#     4  10  20  28  50  90 120 148 186 218 278 374
#     4  11  19  32  54  81 116 148 181 231 288 342
#     4  11  22  39  60  81 109 149 197 253 293 323
#     4  10  21  36  57  86 125 158 184 227 290 354
#     4  10  24  40  60  82 104 148 218 260 280 318
#
# _framework density 21.001068
#
# number of rings (size 3 to 8) (size 9 to 14) (size 15 to 20)
#    0.000    1.600    0.000    7.200    0.000    1.600 
#    0.000    0.000    0.000   21.600    0.000    0.000 
#    0.000    0.000    0.000    0.000    0.000    0.000 
#
# Total GULP energy -111701.133077 kJ/mol
# GULP energy per Si atom -5585.056654 kJ/mol
# Density = 2.095327 g / cm^3
# Si number density = 21.001068 Si / 1000 Ang^3
#
#
#
# Elastic Constant Matrix: (Units=GPa)
#
#
# Indices 1 2 3 4 5 6 
#
# 1 158.0410 42.3559 27.5566 0.0000 -20.7726 0.0000
# 2 42.3559 59.9479 15.5282 0.0000 -6.9595 0.0000
# 3 27.5566 15.5282 71.5973 0.0000 -23.5308 0.0000
# 4 0.0000 0.0000 0.0000 38.6213 0.0000 1.1629
# 5 -20.7726 -6.9595 -23.5308 0.0000 30.8070 0.0000
# 6 0.0000 0.0000 0.0000 1.1629 0.0000 23.4700
#
#
#
# Elastic Compliance Matrix: (Units=1/GPa)
#
#
# Indices 1 2 3 4 5 6 
#
# 1 0.008387 -0.005267 -0.000825 0.000000 0.003835 0.000000
# 2 -0.005267 0.021028 -0.002857 0.000000 -0.000983 0.000000
# 3 -0.000825 -0.002857 0.019372 0.000000 0.013595 0.000000
# 4 0.000000 0.000000 0.000000 0.025931 0.000000 -0.001285
# 5 0.003835 -0.000983 0.013595 0.000000 0.045208 0.000000
# 6 0.000000 0.000000 0.000000 -0.001285 0.000000 0.042671
#
#
# Mechanical properties :
#
#
# Convention : Reuss Voigt Hill
#
# Bulk Modulus (GPa) = 32.37289 51.16307 41.76798
# Shear Modulus (GPa) = 26.20657 32.18936 29.19797
#
# Velocity S-wave (km/s) = 3.53635 3.91928 3.73273
# Velocity P-wave (km/s) = 5.66769 6.70045 6.20559
#
# Compressibility (1/GPa) = 0.03089004
#
# Stress axis : x y z
#
# Youngs Moduli (GPa) = 119.23251 47.55514 51.62027
#
# Poissons Ratio (x) = 0.25046 0.04260
# Poissons Ratio (y) = 0.62797 0.14746
# Poissons Ratio (z) = 0.09841 0.13584
#
# Static dielectric constant tensor:
#      x y z
#    x 1.814950 0.000000 0.002700 
#    y 0.000000 1.776110 0.000000 
#    z 0.002700 0.000000 1.803480 
# 
# From -- ./inp_files/15350.got.cif
#   From: 2010.05.17/outbox.cif.g08.bks.cpg/sg13_8_cif.got.tgz:15350.got - 2010.06.03 16:44:36.
