data_PCOD9229612
_publ_section_title
;
Structure prediction by ZEFSAII (Michael W. Deem and Ramdas Pophale) SiO2 
 PCOD9229612
Probable space group: P 2/C
;
_chemical_formula_sum "Si O2"
_cell_formula_units_Z 28
_cell_length_a 5.060237
_cell_length_b 12.824274
_cell_length_c 24.330352
_cell_angle_alpha 90.000000
_cell_angle_beta 98.896030
_cell_angle_gamma 90.000000
_cell_volume 1559.897464
_symmetry_space_group_name_H-M "P 2/C"
_symmetry_group_IT_number 13
_symmetry_cell_setting 'monoclinic'
loop_
_space_group_symop_operation_xyz
x,y,z
-x,y,1/2-z
-x,-y,-z
x,-y,1/2+z
loop_
_atom_site_type_symbol
_atom_site_label
_atom_site_fract_x
_atom_site_fract_y
_atom_site_fract_z
Si Si1 0.349548 0.422976 0.537243
Si Si2 0.270363 0.512939 0.787150
Si Si3 0.730170 0.727074 0.210637
Si Si4 0.892464 0.700954 0.555934
Si Si5 0.401317 0.795819 0.414812
Si Si6 0.411392 0.385463 0.108884
Si Si7 0.067750 0.114570 0.523443
O O1 0.500000 0.500000 0.500000
O O2 0.094001 0.378100 0.496337
O O3 0.510700 0.320024 0.561231
O O4 0.311710 0.498839 0.587464
O O5 0.500000 0.501817 0.750000
O O6 0.222409 0.394291 0.805961
O O7 0.390930 0.591035 0.835120
O O8 0.000000 0.550275 0.750000
O O9 0.500000 0.731958 0.250000
O O10 0.662110 0.786766 0.152067
O O11 0.000000 0.762301 0.250000
O O12 0.603934 0.674826 0.572211
O O13 0.910636 0.813423 0.530024
O O14 0.137063 0.677885 0.604275
O O15 0.651621 0.870945 0.435970
O O16 0.156053 0.837724 0.443204
O O17 0.000000 0.000000 0.500000
#
# Coordination Sequence:
#
# PCOD9229612 Si02
#       7
#     4   4   4   4   4   4   4
#     4   9  18  31  47  76 111 142 172 207 253 319
#     4  10  20  33  49  75 109 148 184 214 254 310
#     4  10  20  35  53  80 113 146 183 221 260 324
#     4  10  21  33  51  77 104 139 181 213 259 327
#     4  11  21  36  57  82 110 150 179 219 283 327
#     4  11  19  33  51  76 109 145 173 214 259 310
#     4  11  23  39  57  81 110 138 185 231 280 333
#
# _framework density 17.949897
#
# number of rings (size 3 to 8) (size 9 to 14) (size 15 to 20)
#    0.000    1.714    1.429    5.143    0.000    3.429 
#    0.000    0.000    0.000    0.000    0.000   20.000 
#    0.000    0.000    0.000    0.000    0.000    0.000 
#
# Total GULP energy -156100.562175 kJ/mol
# GULP energy per Si atom -5575.020078 kJ/mol
# Density = 1.790904 g / cm^3
# Si number density = 17.949897 Si / 1000 Ang^3
#
#
#
# Elastic Constant Matrix: (Units=GPa)
#
#
# Indices 1 2 3 4 5 6 
#
# 1 90.0220 13.3666 20.8122 0.0000 16.8004 0.0000
# 2 13.3666 88.7355 33.3998 0.0000 3.9627 0.0000
# 3 20.8122 33.3998 86.6106 0.0000 23.1057 0.0000
# 4 0.0000 0.0000 0.0000 19.4307 0.0000 2.7994
# 5 16.8004 3.9627 23.1057 0.0000 35.6751 0.0000
# 6 0.0000 0.0000 0.0000 2.7994 0.0000 19.3462
#
#
#
# Elastic Compliance Matrix: (Units=1/GPa)
#
#
# Indices 1 2 3 4 5 6 
#
# 1 0.012494 -0.001203 -0.001214 0.000000 -0.004964 0.000000
# 2 -0.001203 0.013445 -0.005619 0.000000 0.002713 0.000000
# 3 -0.001214 -0.005619 0.016544 0.000000 -0.009519 0.000000
# 4 0.000000 0.000000 0.000000 0.052561 0.000000 -0.007605
# 5 -0.004964 0.002713 -0.009519 0.000000 0.036232 0.000000
# 6 0.000000 0.000000 0.000000 -0.007605 0.000000 0.052790
#
#
# Mechanical properties :
#
#
# Convention : Reuss Voigt Hill
#
# Bulk Modulus (GPa) = 37.86487 44.50280 41.18384
# Shear Modulus (GPa) = 23.93002 28.07636 26.00319
#
# Velocity S-wave (km/s) = 3.65520 3.95923 3.81025
# Velocity P-wave (km/s) = 6.24136 6.76367 6.50776
#
# Compressibility (1/GPa) = 0.02640970
#
# Stress axis : x y z
#
# Youngs Moduli (GPa) = 80.03764 74.37920 60.44457
#
# Poissons Ratio (x) = 0.08951 0.07338
# Poissons Ratio (y) = 0.09632 0.33965
# Poissons Ratio (z) = 0.09716 0.41795
#
# Static dielectric constant tensor:
#      x y z
#    x 1.639950 0.000000 -0.003030 
#    y 0.000000 1.619450 0.000000 
#    z -0.003030 0.000000 1.663930 
# 
# From -- ./inp_files/83564.got.cif
#   From: 2010.05.17/outbox.cif.g08.bks.cpg/sg13_42_cif.got.tgz:83564.got - 2010.06.03 16:44:36.
