data_PCOD9229207
_publ_section_title
;
Structure prediction by ZEFSAII (Michael W. Deem and Ramdas Pophale) SiO2 
 PCOD9229207
Probable space group: P 2/C
;
_chemical_formula_sum "Si O2"
_cell_formula_units_Z 28
_cell_length_a 11.860626
_cell_length_b 10.335696
_cell_length_c 12.338848
_cell_angle_alpha 90.000000
_cell_angle_beta 74.842018
_cell_angle_gamma 90.000000
_cell_volume 1459.967191
_symmetry_space_group_name_H-M "P 2/C"
_symmetry_group_IT_number 13
_symmetry_cell_setting 'monoclinic'
loop_
_space_group_symop_operation_xyz
x,y,z
-x,y,1/2-z
-x,-y,-z
x,-y,1/2+z
loop_
_atom_site_type_symbol
_atom_site_label
_atom_site_fract_x
_atom_site_fract_y
_atom_site_fract_z
Si Si1 0.940995 0.167610 0.113847
Si Si2 0.178326 0.087737 0.130100
Si Si3 0.796380 0.190380 0.931005
Si Si4 0.000000 0.330191 0.750000
Si Si5 0.883093 0.447301 0.149819
Si Si6 0.500000 0.639528 0.750000
Si Si7 0.682214 0.443892 0.032348
Si Si8 0.690802 0.666124 0.863645
O O1 0.872270 0.113800 0.236091
O O2 0.965845 0.321744 0.120686
O O3 0.064268 0.095336 0.081601
O O4 0.857557 0.164478 0.031596
O O5 0.259579 0.210027 0.087512
O O6 0.239502 0.949705 0.103967
O O7 0.896373 0.245870 0.826325
O O8 0.700465 0.302424 0.973285
O O9 0.949194 0.425704 0.671061
O O10 0.806893 0.468246 0.060799
O O11 0.790995 0.401203 0.264905
O O12 0.415528 0.560341 0.850589
O O13 0.589149 0.711563 0.807393
O O14 0.652819 0.554200 0.954568
#
# Coordination Sequence:
#
# PCOD9229207 Si02
#       8
#     4   4   4   2   4   2   4   4
#     4   9  19  35  53  77 123 165 192 214 284 335
#     4  10  20  36  55  80 117 158 198 225 275 347
#     4  11  23  34  56  88 120 157 188 234 272 342
#     4  12  20  32  54  90 130 152 194 222 272 332
#     4   9  19  32  54  87 118 154 189 230 276 347
#     4  10  22  40  66  82 106 144 198 248 310 340
#     4  10  21  38  60  85 112 145 193 246 298 333
#     4  10  19  38  60  83 108 149 191 247 289 347
#
# _framework density 19.178515000000001
#
# number of rings (size 3 to 8) (size 9 to 14) (size 15 to 20)
#    0.000    2.000    1.429    4.286    2.000    1.143 
#    0.000    0.714    0.000    1.714    0.000    0.000 
#    0.000    0.000    0.000    0.000    0.000    0.000 
#
# Total GULP energy -156235.922307 kJ/mol
# GULP energy per Si atom -5579.854368 kJ/mol
# Density = 1.913486 g / cm^3
# Si number density = 19.178515 Si / 1000 Ang^3
#
#
#
# Elastic Constant Matrix: (Units=GPa)
#
#
# Indices 1 2 3 4 5 6 
#
# 1 41.4260 21.2952 7.0456 0.0000 -1.4944 0.0000
# 2 21.2952 111.7063 33.3577 0.0000 -3.4757 0.0000
# 3 7.0456 33.3577 56.3902 0.0000 -7.3304 0.0000
# 4 0.0000 0.0000 0.0000 -45.6006 0.0000 52.9340
# 5 -1.4944 -3.4757 -7.3304 0.0000 25.0066 0.0000
# 6 0.0000 0.0000 0.0000 52.9340 0.0000 -39.3770
#
#
#
# Elastic Compliance Matrix: (Units=1/GPa)
#
#
# Indices 1 2 3 4 5 6 
#
# 1 0.026786 -0.004996 -0.000284 0.000000 0.000823 0.000000
# 2 -0.004996 0.011808 -0.006431 0.000000 -0.000543 0.000000
# 3 -0.000284 -0.006431 0.022305 0.000000 0.005628 0.000000
# 4 0.000000 0.000000 0.000000 0.039127 0.000000 0.052598
# 5 0.000823 -0.000543 0.005628 0.000000 0.041613 0.000000
# 6 0.000000 0.000000 0.000000 0.052598 0.000000 0.045311
#
#
# Mechanical properties :
#
#
# Convention : Reuss Voigt Hill
#
# Bulk Modulus (GPa) = 26.68404 36.99105 31.83754
# Shear Modulus (GPa) = 22.43515 -2.13926 10.14794
#
# Velocity S-wave (km/s) = 3.42395 -1.05729 2.30278
# Velocity P-wave (km/s) = 5.43829 4.22364 4.86899
#
# Compressibility (1/GPa) = 0.03747558
#
# Stress axis : x y z
#
# Youngs Moduli (GPa) = 37.33349 84.68778 44.83259
#
# Poissons Ratio (x) = 0.42308 0.01275
# Poissons Ratio (y) = 0.18651 0.28834
# Poissons Ratio (z) = 0.01062 0.54466
#
# Static dielectric constant tensor:
#      x y z
#    x 1.694190 0.000000 0.007940 
#    y 0.000000 1.661760 0.000000 
#    z 0.007940 0.000000 1.692800 
# 
# From -- ./inp_files/50006.got.cif
#   From: 2010.05.17/outbox.cif.g08.bks.cpg/sg13_26_cif.got.tgz:50006.got - 2010.06.03 16:44:36.
