data_PCOD9229205
_publ_section_title
;
Structure prediction by ZEFSAII (Michael W. Deem and Ramdas Pophale) SiO2 
 PCOD9229205
Probable space group: P 2/C
;
_chemical_formula_sum "Si O2"
_cell_formula_units_Z 24
_cell_length_a 8.722721
_cell_length_b 7.656237
_cell_length_c 19.080098
_cell_angle_alpha 90.000000
_cell_angle_beta 52.987518
_cell_angle_gamma 90.000000
_cell_volume 1017.478536
_symmetry_space_group_name_H-M "P 2/C"
_symmetry_group_IT_number 13
_symmetry_cell_setting 'monoclinic'
loop_
_space_group_symop_operation_xyz
x,y,z
-x,y,1/2-z
-x,-y,-z
x,-y,1/2+z
loop_
_atom_site_type_symbol
_atom_site_label
_atom_site_fract_x
_atom_site_fract_y
_atom_site_fract_z
Si Si1 0.268839 0.029671 0.634206
Si Si2 0.303600 0.499078 0.759124
Si Si3 0.896129 0.869832 0.174396
Si Si4 0.287174 0.171765 0.341630
Si Si5 0.407492 0.416327 0.433275
Si Si6 0.387141 0.755325 0.499635
O O1 0.196817 0.029035 0.733161
O O2 0.487449 0.099567 0.575578
O O3 0.117920 0.146439 0.632759
O O4 0.258513 0.853056 0.591985
O O5 0.500000 0.482727 0.750000
O O6 0.190234 0.322665 0.802109
O O7 0.203827 0.673673 0.814998
O O8 0.388479 0.528966 0.658626
O O9 0.836676 0.995668 0.126838
O O10 0.500000 0.133358 0.250000
O O11 0.315013 0.271521 0.407937
O O12 0.302759 0.602528 0.474434
O O13 0.453921 0.334108 0.494635
#
# Coordination Sequence:
#
# PCOD9229205 Si02
#       6
#     4   4   4   4   4   4
#     4  10  22  35  57  86 116 154 192 241 299 349
#     4   9  18  34  59  84 108 149 195 242 290 338
#     4  11  20  38  56  89 117 146 195 250 293 340
#     4   9  19  35  58  87 112 149 199 242 294 341
#     4   9  18  36  61  82 107 157 197 237 284 357
#     4  10  19  38  60  80 118 154 201 230 293 370
#
# _framework density 23.587721999999999
#
# number of rings (size 3 to 8) (size 9 to 14) (size 15 to 20)
#    0.000    2.667    1.667    2.500    0.000    0.000 
#    9.000    3.333    0.000    0.000    0.000    0.000 
#    0.000    0.000    0.000    0.000    0.000    0.000 
#
# Total GULP energy -133853.981160 kJ/mol
# GULP energy per Si atom -5577.249215 kJ/mol
# Density = 2.353404 g / cm^3
# Si number density = 23.587722 Si / 1000 Ang^3
#
#
#
# Elastic Constant Matrix: (Units=GPa)
#
#
# Indices 1 2 3 4 5 6 
#
# 1 49.1428 29.4718 0.9798 0.0000 -1.1525 0.0000
# 2 29.4718 110.6824 13.5876 0.0000 -8.5638 0.0000
# 3 0.9798 13.5876 34.6293 0.0000 9.8424 0.0000
# 4 0.0000 0.0000 0.0000 11.6644 0.0000 8.5330
# 5 -1.1525 -8.5638 9.8424 0.0000 19.6806 0.0000
# 6 0.0000 0.0000 0.0000 8.5330 0.0000 11.8412
#
#
#
# Elastic Compliance Matrix: (Units=1/GPa)
#
#
# Indices 1 2 3 4 5 6 
#
# 1 0.024495 -0.007138 0.003011 0.000000 -0.003177 0.000000
# 2 -0.007138 0.012474 -0.007130 0.000000 0.008576 0.000000
# 3 0.003011 -0.007130 0.037793 0.000000 -0.021827 0.000000
# 4 0.000000 0.000000 0.000000 0.181314 0.000000 -0.130659
# 5 -0.003177 0.008576 -0.021827 0.000000 0.065273 0.000000
# 6 0.000000 0.000000 0.000000 -0.130659 0.000000 0.178607
#
#
# Mechanical properties :
#
#
# Convention : Reuss Voigt Hill
#
# Bulk Modulus (GPa) = 19.13938 31.39251 25.26595
# Shear Modulus (GPa) = 9.26121 18.66491 13.96306
#
# Velocity S-wave (km/s) = 1.98363 2.81605 2.43567
# Velocity P-wave (km/s) = 3.65762 4.88992 4.31795
#
# Compressibility (1/GPa) = 0.05224829
#
# Stress axis : x y z
#
# Youngs Moduli (GPa) = 40.82469 80.16489 26.45965
#
# Poissons Ratio (x) = 0.57220 -0.07966
# Poissons Ratio (y) = 0.29140 0.18866
# Poissons Ratio (z) = -0.12291 0.57158
#
# Static dielectric constant tensor:
#      x y z
#    x 1.907770 0.000000 0.007750 
#    y 0.000000 1.995800 0.000000 
#    z 0.007750 0.000000 1.939810 
# 
# From -- ./inp_files/75612.got.cif
#   From: 2010.05.17/outbox.cif.g08.bks.cpg/sg13_38_cif.got.tgz:75612.got - 2010.06.03 16:44:36.
