data_PCOD9229195
_publ_section_title
;
Structure prediction by ZEFSAII (Michael W. Deem and Ramdas Pophale) SiO2 
 PCOD9229195
Probable space group: P 2/C
;
_chemical_formula_sum "Si O2"
_cell_formula_units_Z 16
_cell_length_a 18.452851
_cell_length_b 5.136629
_cell_length_c 13.937143
_cell_angle_alpha 90.000000
_cell_angle_beta 25.984271
_cell_angle_gamma 90.000000
_cell_volume 578.779129
_symmetry_space_group_name_H-M "P 2/C"
_symmetry_group_IT_number 13
_symmetry_cell_setting 'monoclinic'
loop_
_space_group_symop_operation_xyz
x,y,z
-x,y,1/2-z
-x,-y,-z
x,-y,1/2+z
loop_
_atom_site_type_symbol
_atom_site_label
_atom_site_fract_x
_atom_site_fract_y
_atom_site_fract_z
Si Si1 0.097900 0.141810 0.273461
Si Si2 0.164971 0.451769 0.021622
Si Si3 0.378914 0.806883 0.983494
Si Si4 0.309405 0.705112 0.678820
O O1 0.216375 0.302273 0.056555
O O2 0.129187 0.246362 0.343503
O O3 0.917428 0.222638 0.449026
O O4 0.192920 0.868408 0.165648
O O5 0.000000 0.604317 0.250000
O O6 0.279788 0.637005 0.824213
O O7 0.500000 0.797234 0.750000
O O8 0.409595 0.051548 0.018056
O O9 0.377795 0.551380 0.047877
#
# Coordination Sequence:
#
# PCOD9229195 Si02
#       4
#     4   4   4   4
#     4   7  19  35  58  81 114 136 185 222 280 315
#     4   8  17  38  56  90 108 138 183 229 276 333
#     4  10  21  37  57  78 111 151 186 218 265 325
#     4  10  19  38  58  81 110 148 176 228 278 314
#
# _framework density 27.644397999999999
#
# number of rings (size 3 to 8) (size 9 to 14) (size 15 to 20)
#    3.000    0.000    0.000    1.500    0.000    1.000 
#    4.500    6.250    0.000    0.000    0.000    0.000 
#    0.000    0.000    0.000    0.000    0.000    0.000 
#
# Total GULP energy -89320.963328 kJ/mol
# GULP energy per Si atom -5582.560208 kJ/mol
# Density = 2.758148 g / cm^3
# Si number density = 27.644398 Si / 1000 Ang^3
#
#
#
# Elastic Constant Matrix: (Units=GPa)
#
#
# Indices 1 2 3 4 5 6 
#
# 1 76.6441 6.5928 25.8330 0.0000 9.8881 0.0000
# 2 6.5928 142.4980 39.3878 0.0000 -0.0051 0.0000
# 3 25.8330 39.3878 162.8043 0.0000 10.8748 0.0000
# 4 0.0000 0.0000 0.0000 32.4905 0.0000 6.9883
# 5 9.8881 -0.0051 10.8748 0.0000 41.4556 0.0000
# 6 0.0000 0.0000 0.0000 6.9883 0.0000 -20.1864
#
#
#
# Elastic Compliance Matrix: (Units=1/GPa)
#
#
# Indices 1 2 3 4 5 6 
#
# 1 0.014104 -0.000093 -0.002026 0.000000 -0.002833 0.000000
# 2 -0.000093 0.007531 -0.001841 0.000000 0.000506 0.000000
# 3 -0.002026 -0.001841 0.007000 0.000000 -0.001353 0.000000
# 4 0.000000 0.000000 0.000000 0.028645 0.000000 0.009917
# 5 -0.002833 0.000506 -0.001353 0.000000 0.025153 0.000000
# 6 0.000000 0.000000 0.000000 0.009917 0.000000 -0.046105
#
#
# Mechanical properties :
#
#
# Convention : Reuss Voigt Hill
#
# Bulk Modulus (GPa) = 48.27573 58.39706 53.33640
# Shear Modulus (GPa) = 97.74854 31.42746 64.58800
#
# Velocity S-wave (km/s) = 5.95282 3.37537 4.83886
# Velocity P-wave (km/s) = 8.04668 6.03002 7.11021
#
# Compressibility (1/GPa) = 0.02071434
#
# Stress axis : x y z
#
# Youngs Moduli (GPa) = 70.90352 132.78752 142.86394
#
# Poissons Ratio (x) = 0.01229 0.28949
# Poissons Ratio (y) = 0.00656 0.26302
# Poissons Ratio (z) = 0.14367 0.24447
#
# Static dielectric constant tensor:
#      x y z
#    x 2.264630 0.000000 -0.034020 
#    y 0.000000 2.173690 0.000000 
#    z -0.034020 0.000000 2.152480 
# 
# From -- ./inp_files/34983.got.cif
#   From: 2010.05.17/outbox.cif.g08.bks.cpg/sg13_18_cif.got.tgz:34983.got - 2010.06.03 16:44:36.
