data_PCOD9229435
_publ_section_title
;
Structure prediction by ZEFSAII (Michael W. Deem and Ramdas Pophale) SiO2 
 PCOD9229435
Probable space group: P 2/C
;
_chemical_formula_sum "Si O2"
_cell_formula_units_Z 28
_cell_length_a 16.849106
_cell_length_b 9.118887
_cell_length_c 19.692749
_cell_angle_alpha 90.000000
_cell_angle_beta 152.246484
_cell_angle_gamma 90.000000
_cell_volume 1408.971500
_symmetry_space_group_name_H-M "P 2/C"
_symmetry_group_IT_number 13
_symmetry_cell_setting 'monoclinic'
loop_
_space_group_symop_operation_xyz
x,y,z
-x,y,1/2-z
-x,-y,-z
x,-y,1/2+z
loop_
_atom_site_type_symbol
_atom_site_label
_atom_site_fract_x
_atom_site_fract_y
_atom_site_fract_z
Si Si1 0.408196 0.768746 0.093166
Si Si2 0.300416 0.716776 0.673710
Si Si3 0.125832 0.866643 0.660395
Si Si4 0.500000 0.479286 0.750000
Si Si5 0.776214 0.173216 0.811257
Si Si6 0.122189 0.319132 0.278689
Si Si7 0.959489 0.567558 0.393717
Si Si8 0.500000 0.027641 0.250000
O O1 0.372728 0.635656 0.118692
O O2 0.606910 0.789103 0.224181
O O3 0.382904 0.921777 0.114212
O O4 0.305585 0.720210 0.949344
O O5 0.246815 0.753337 0.710102
O O6 0.428769 0.584164 0.754941
O O7 0.129840 0.661041 0.506532
O O8 0.380214 0.864676 0.703221
O O9 0.084502 0.822755 0.704988
O O10 0.943848 0.853399 0.484732
O O11 0.221991 0.021265 0.728170
O O12 0.813164 0.313461 0.793226
O O13 0.091621 0.451319 0.202225
O O14 0.000000 0.338581 0.250000
O O15 0.000000 0.500000 0.500000
#
# Coordination Sequence:
#
# PCOD9229435 Si02
#       8
#     4   4   4   2   4   4   4   2
#     4  11  24  39  65  99 138 166 220 280 337 392
#     4  10  19  40  67  92 126 175 231 261 314 407
#     4  10  22  41  65  93 124 175 224 262 328 399
#     4  10  22  36  64  98 128 182 208 274 330 402
#     4  10  21  40  70  92 122 177 224 266 318 409
#     4  12  27  42  62  97 137 170 214 284 337 391
#     4  11  21  41  67  92 126 174 221 267 327 408
#     4  10  22  40  66 100 132 176 224 272 332 402
#
# _framework density 19.872651999999999
#
# number of rings (size 3 to 8) (size 9 to 14) (size 15 to 20)
#    0.000    1.429    4.286    1.714    4.000    1.143 
#    0.000    3.571    0.000    0.000    0.000    0.000 
#    0.000    0.000    0.000    0.000    0.000    0.000 
#
# Total GULP energy -155966.315224 kJ/mol
# GULP energy per Si atom -5570.225544 kJ/mol
# Density = 1.982742 g / cm^3
# Si number density = 19.872652 Si / 1000 Ang^3
#
#
#
# Elastic Constant Matrix: (Units=GPa)
#
#
# Indices 1 2 3 4 5 6 
#
# 1 103.1663 59.7515 31.2400 0.0000 -6.9333 0.0000
# 2 59.7515 140.7024 30.5658 0.0000 -9.9009 0.0000
# 3 31.2400 30.5658 53.4414 0.0000 -8.5234 0.0000
# 4 0.0000 0.0000 0.0000 18.9661 0.0000 -1.1589
# 5 -6.9333 -9.9009 -8.5234 0.0000 31.7451 0.0000
# 6 0.0000 0.0000 0.0000 -1.1589 0.0000 27.7635
#
#
#
# Elastic Compliance Matrix: (Units=1/GPa)
#
#
# Indices 1 2 3 4 5 6 
#
# 1 0.014151 -0.004805 -0.005506 0.000000 0.000114 0.000000
# 2 -0.004805 0.009803 -0.002588 0.000000 0.001313 0.000000
# 3 -0.005506 -0.002588 0.024123 0.000000 0.004467 0.000000
# 4 0.000000 0.000000 0.000000 0.052861 0.000000 0.002207
# 5 0.000114 0.001313 0.004467 0.000000 0.033135 0.000000
# 6 0.000000 0.000000 0.000000 0.002207 0.000000 0.036111
#
#
# Mechanical properties :
#
#
# Convention : Reuss Voigt Hill
#
# Bulk Modulus (GPa) = 44.88621 60.04720 52.46670
# Shear Modulus (GPa) = 24.58123 27.41179 25.99651
#
# Velocity S-wave (km/s) = 3.52083 3.71802 3.62077
# Velocity P-wave (km/s) = 6.25814 6.97948 6.62863
#
# Compressibility (1/GPa) = 0.02227856
#
# Stress axis : x y z
#
# Youngs Moduli (GPa) = 70.66577 102.01452 41.45382
#
# Poissons Ratio (x) = 0.49023 0.22823
# Poissons Ratio (y) = 0.33958 0.10728
# Poissons Ratio (z) = 0.38906 0.26402
#
# Static dielectric constant tensor:
#      x y z
#    x 1.757650 0.000000 0.005910 
#    y 0.000000 1.747420 0.000000 
#    z 0.005910 0.000000 1.751610 
# 
# From -- ./inp_files/80897.got.cif
#   From: 2010.05.17/outbox.cif.g08.bks.cpg/sg13_41_cif.got.tgz:80897.got - 2010.06.03 16:44:36.
