data_PCOD9229184
_publ_section_title
;
Structure prediction by ZEFSAII (Michael W. Deem and Ramdas Pophale) SiO2 
 PCOD9229184
Probable space group: P 2/C
;
_chemical_formula_sum "Si O2"
_cell_formula_units_Z 16
_cell_length_a 22.039891
_cell_length_b 7.364719
_cell_length_c 5.465792
_cell_angle_alpha 90.000000
_cell_angle_beta 119.714952
_cell_angle_gamma 90.000000
_cell_volume 770.530158
_symmetry_space_group_name_H-M "P 2/C"
_symmetry_group_IT_number 13
_symmetry_cell_setting 'monoclinic'
loop_
_space_group_symop_operation_xyz
x,y,z
-x,y,1/2-z
-x,-y,-z
x,-y,1/2+z
loop_
_atom_site_type_symbol
_atom_site_label
_atom_site_fract_x
_atom_site_fract_y
_atom_site_fract_z
Si Si1 0.128294 0.613672 0.007653
Si Si2 0.500000 0.120948 0.750000
Si Si3 0.000000 0.112949 0.250000
Si Si4 0.349328 0.713448 0.949111
Si Si5 0.708915 0.298153 0.667303
O O1 0.119536 0.499161 0.740830
O O2 0.069571 0.766067 0.889155
O O3 0.207936 0.683413 0.166286
O O4 0.431168 0.246193 0.612442
O O5 0.500000 0.000000 0.500000
O O6 0.000000 0.000000 0.500000
O O7 0.326228 0.500749 0.903036
O O8 0.316986 0.789552 0.634811
O O9 0.317098 0.789580 0.134507
#
# Coordination Sequence:
#
# PCOD9229184 Si02
#       5
#     4   2   2   4   4
#     4  12  21  43  74 101 129 175 232 280 321 389
#     4  12  26  42  56  84 132 180 204 240 328 418
#     4  12  28  46  62 102 148 182 212 264 346 410
#     4  10  20  38  61  91 122 149 211 266 314 368
#     4  10  19  37  68  94 115 146 213 285 315 348
#
# _framework density 20.764924000000001
#
# number of rings (size 3 to 8) (size 9 to 14) (size 15 to 20)
#    0.000    1.000    5.000    3.750    0.000    4.000 
#    0.000    7.500    0.000    0.000    0.000    0.000 
#    0.000    0.000    0.000    0.000    0.000    0.000 
#
# Total GULP energy -89400.757780 kJ/mol
# GULP energy per Si atom -5587.547361 kJ/mol
# Density = 2.071766 g / cm^3
# Si number density = 20.764924 Si / 1000 Ang^3
#
#
#
# Elastic Constant Matrix: (Units=GPa)
#
#
# Indices 1 2 3 4 5 6 
#
# 1 151.7805 81.8127 183.8433 0.0000 32.1958 0.0000
# 2 81.8127 71.1141 69.8488 0.0000 24.8645 0.0000
# 3 183.8433 69.8488 188.1412 0.0000 -35.6254 0.0000
# 4 0.0000 0.0000 0.0000 -4.0186 0.0000 -38.0449
# 5 32.1958 24.8645 -35.6254 0.0000 65.8057 0.0000
# 6 0.0000 0.0000 0.0000 -38.0449 0.0000 -32.5120
#
#
#
# Elastic Compliance Matrix: (Units=1/GPa)
#
#
# Indices 1 2 3 4 5 6 
#
# 1 -0.006824 -0.009816 0.012977 0.000000 0.014073 0.000000
# 2 -0.009816 0.034386 -0.005265 0.000000 -0.011040 0.000000
# 3 0.012977 -0.005265 -0.006948 0.000000 -0.008121 0.000000
# 4 0.000000 0.000000 0.000000 0.024691 0.000000 -0.028893
# 5 0.014073 -0.011040 -0.008121 0.000000 0.008086 0.000000
# 6 0.000000 0.000000 0.000000 -0.028893 0.000000 0.003052
#
#
# Mechanical properties :
#
#
# Convention : Reuss Voigt Hill
#
# Bulk Modulus (GPa) = 60.95398 120.22728 90.59063
# Shear Modulus (GPa) = 75.62176 10.89044 43.25610
#
# Velocity S-wave (km/s) = 6.04128 2.29260 4.56909
# Velocity P-wave (km/s) = 8.83633 8.06430 8.45913
#
# Compressibility (1/GPa) = 0.01640582
#
# Stress axis : x y z
#
# Youngs Moduli (GPa) = -146.55050 29.08181 -143.91628
#
# Poissons Ratio (x) = 0.28547 1.86757
# Poissons Ratio (y) = -1.43856 -0.75766
# Poissons Ratio (z) = 1.90175 0.15310
#
# Static dielectric constant tensor:
#      x y z
#    x 1.821560 0.000000 -0.078980 
#    y 0.000000 1.629190 0.000000 
#    z -0.078980 0.000000 1.862560 
# 
# From -- ./inp_files/5837.got.cif
#   From: 2010.05.17/outbox.cif.g08.bks.cpg/sg13_3_cif.got.tgz:5837.got - 2010.06.03 16:44:36.
