data_PCOD9229272
_publ_section_title
;
Structure prediction by ZEFSAII (Michael W. Deem and Ramdas Pophale) SiO2 
 PCOD9229272
Probable space group: P 2/C
;
_chemical_formula_sum "Si O2"
_cell_formula_units_Z 32
_cell_length_a 13.544320
_cell_length_b 8.440505
_cell_length_c 23.774312
_cell_angle_alpha 90.000000
_cell_angle_beta 31.592629
_cell_angle_gamma 90.000000
_cell_volume 1423.843872
_symmetry_space_group_name_H-M "P 2/C"
_symmetry_group_IT_number 13
_symmetry_cell_setting 'monoclinic'
loop_
_space_group_symop_operation_xyz
x,y,z
-x,y,1/2-z
-x,-y,-z
x,-y,1/2+z
loop_
_atom_site_type_symbol
_atom_site_label
_atom_site_fract_x
_atom_site_fract_y
_atom_site_fract_z
Si Si1 0.947795 0.622722 0.906153
Si Si2 0.798842 0.153349 0.378275
Si Si3 0.576679 0.864443 0.273812
Si Si4 0.273647 0.956660 0.988429
Si Si5 0.573684 0.678669 0.469527
Si Si6 0.927129 0.067286 0.094848
Si Si7 0.350082 0.381579 0.447308
Si Si8 0.712537 0.599807 0.285300
O O1 0.033844 0.749864 0.908020
O O2 0.103211 0.507388 0.804017
O O3 0.846566 0.718753 0.904444
O O4 0.797014 0.504212 0.006644
O O5 0.618819 0.218348 0.430913
O O6 0.000000 0.129472 0.250000
O O7 0.724024 0.996925 0.446476
O O8 0.500000 0.822537 0.250000
O O9 0.697505 0.723863 0.242071
O O10 0.399050 0.906228 0.398950
O O11 0.712400 0.016235 0.204550
O O12 0.348480 0.794731 0.924647
O O13 0.056499 0.975223 0.077095
O O14 0.500000 0.500000 0.500000
O O15 0.700840 0.665600 0.463200
O O16 0.677782 0.700030 0.359490
O O17 0.000000 0.000000 0.000000
O O18 0.545145 0.473406 0.356316
#
# Coordination Sequence:
#
# PCOD9229272 Si02
#       8
#     4   4   4   4   4   4   4   4
#     4  11  23  41  67  97 135 176 224 279 338 402
#     4  11  21  40  67  98 138 185 226 273 334 408
#     4  12  24  45  74  95 131 181 222 288 353 401
#     4  11  24  46  66  96 140 175 228 285 338 410
#     4  10  19  38  64  94 134 180 216 269 335 398
#     4  11  24  46  71  94 127 179 227 280 350 406
#     4  11  23  41  65  98 136 176 221 281 333 406
#     4  11  22  43  65 100 134 171 229 277 331 414
#
# _framework density 22.474374000000001
#
# number of rings (size 3 to 8) (size 9 to 14) (size 15 to 20)
#    0.000    1.000    5.000    3.750    0.000    1.500 
#    9.000    1.250    0.000    0.000    0.000    0.000 
#    0.000    0.000    0.000    0.000    0.000    0.000 
#
# Total GULP energy -178608.389261 kJ/mol
# GULP energy per Si atom -5581.512164 kJ/mol
# Density = 2.242322 g / cm^3
# Si number density = 22.474374 Si / 1000 Ang^3
#
#
#
# Elastic Constant Matrix: (Units=GPa)
#
#
# Indices 1 2 3 4 5 6 
#
# 1 65.8268 16.5163 14.2685 0.0000 -3.1377 0.0000
# 2 16.5163 100.9995 11.7950 0.0000 -4.3380 0.0000
# 3 14.2685 11.7950 90.7008 0.0000 -8.8700 0.0000
# 4 0.0000 0.0000 0.0000 28.7623 0.0000 -11.9470
# 5 -3.1377 -4.3380 -8.8700 0.0000 21.6951 0.0000
# 6 0.0000 0.0000 0.0000 -11.9470 0.0000 31.3005
#
#
#
# Elastic Compliance Matrix: (Units=1/GPa)
#
#
# Indices 1 2 3 4 5 6 
#
# 1 0.016302 -0.002371 -0.002158 0.000000 0.001001 0.000000
# 2 -0.002371 0.010448 -0.000849 0.000000 0.001399 0.000000
# 3 -0.002158 -0.000849 0.011904 0.000000 0.004385 0.000000
# 4 0.000000 0.000000 0.000000 0.041318 0.000000 0.015771
# 5 0.001001 0.001399 0.004385 0.000000 0.048311 0.000000
# 6 0.000000 0.000000 0.000000 0.015771 0.000000 0.037968
#
#
# Mechanical properties :
#
#
# Convention : Reuss Voigt Hill
#
# Bulk Modulus (GPa) = 35.84504 38.07630 36.96067
# Shear Modulus (GPa) = 26.83759 30.68140 28.75949
#
# Velocity S-wave (km/s) = 3.45938 3.69883 3.58111
# Velocity P-wave (km/s) = 5.65158 5.93470 5.79487
#
# Compressibility (1/GPa) = 0.02789786
#
# Stress axis : x y z
#
# Youngs Moduli (GPa) = 61.34303 95.71247 84.00524
#
# Poissons Ratio (x) = 0.22691 0.18131
# Poissons Ratio (y) = 0.14543 0.07131
# Poissons Ratio (z) = 0.13240 0.08125
#
# Static dielectric constant tensor:
#      x y z
#    x 1.879080 0.000000 0.044610 
#    y 0.000000 2.013720 0.000000 
#    z 0.044610 0.000000 1.831270 
# 
# From -- ./inp_files/92825.got.cif
#   From: 2010.05.17/outbox.cif.g08.bks.cpg/sg13_47_cif.got.tgz:92825.got - 2010.06.03 16:44:36.
