data_PCOD9229895
_publ_section_title
;
Structure prediction by ZEFSAII (Michael W. Deem and Ramdas Pophale) SiO2 
 PCOD9229895
Probable space group: P 2/C
;
_chemical_formula_sum "Si O2"
_cell_formula_units_Z 30
_cell_length_a 14.393394
_cell_length_b 19.619498
_cell_length_c 11.822382
_cell_angle_alpha 90.000000
_cell_angle_beta 28.145159
_cell_angle_gamma 90.000000
_cell_volume 1574.810919
_symmetry_space_group_name_H-M "P 2/C"
_symmetry_group_IT_number 13
_symmetry_cell_setting 'monoclinic'
loop_
_space_group_symop_operation_xyz
x,y,z
-x,y,1/2-z
-x,-y,-z
x,-y,1/2+z
loop_
_atom_site_type_symbol
_atom_site_label
_atom_site_fract_x
_atom_site_fract_y
_atom_site_fract_z
Si Si1 0.650153 0.004445 0.497334
Si Si2 0.317386 0.430092 0.530941
Si Si3 0.000000 0.067517 0.750000
Si Si4 0.210005 0.716500 0.067786
Si Si5 0.487125 0.247675 0.452617
Si Si6 0.201105 0.575956 0.593186
Si Si7 0.346387 0.898087 0.716374
Si Si8 0.515859 0.381536 0.914025
O O1 0.695209 0.056128 0.348223
O O2 0.521579 0.939810 0.591252
O O3 0.500000 0.036963 0.750000
O O4 0.851839 0.978679 0.335345
O O5 0.205255 0.360131 0.622663
O O6 0.190369 0.497155 0.643783
O O7 0.414977 0.423293 0.549851
O O8 0.500000 0.434601 0.250000
O O9 0.153680 0.106487 0.503200
O O10 0.000000 0.738268 0.250000
O O11 0.358219 0.718564 0.802201
O O12 0.297901 0.762052 0.074604
O O13 0.574674 0.176497 0.397165
O O14 0.447983 0.302916 0.591362
O O15 0.354060 0.589321 0.327385
O O16 0.292542 0.611725 0.606841
O O17 0.000000 0.598654 0.750000
#
# Coordination Sequence:
#
# PCOD9229895 Si02
#       8
#     4   4   2   4   4   4   4   4
#     4   9  20  38  59  88 122 153 195 242 280 341
#     4  11  19  39  61  87 114 149 190 250 306 349
#     4  10  20  34  64  90 124 142 194 252 284 336
#     4  10  21  35  56  87 120 145 187 241 299 349
#     4  10  22  37  57  83 119 158 189 231 294 352
#     4  11  24  38  62  84 111 157 203 244 295 349
#     4  10  21  37  59  90 117 159 192 235 297 342
#     4  10  22  41  57  82 122 150 192 249 288 354
#
# _framework density 19.049906
#
# number of rings (size 3 to 8) (size 9 to 14) (size 15 to 20)
#    0.000    1.867    4.000    1.200    6.533    2.667 
#    2.400    0.000    1.467    0.000    0.000    0.000 
#    0.000    0.000    0.000    0.000    0.000    0.000 
#
# Total GULP energy -167277.342539 kJ/mol
# GULP energy per Si atom -5575.911418 kJ/mol
# Density = 1.900655 g / cm^3
# Si number density = 19.049906 Si / 1000 Ang^3
#
#
#
# Elastic Constant Matrix: (Units=GPa)
#
#
# Indices 1 2 3 4 5 6 
#
# 1 129.1760 27.3030 36.3587 0.0000 -16.1377 0.0000
# 2 27.3030 85.4553 19.2127 0.0000 4.8279 0.0000
# 3 36.3587 19.2127 50.9525 0.0000 -10.3823 0.0000
# 4 0.0000 0.0000 0.0000 17.9634 0.0000 1.7314
# 5 -16.1377 4.8279 -10.3823 0.0000 38.7871 0.0000
# 6 0.0000 0.0000 0.0000 1.7314 0.0000 -6.5490
#
#
#
# Elastic Compliance Matrix: (Units=1/GPa)
#
#
# Indices 1 2 3 4 5 6 
#
# 1 0.010212 -0.002103 -0.005897 0.000000 0.002932 0.000000
# 2 -0.002103 0.013569 -0.004377 0.000000 -0.003735 0.000000
# 3 -0.005897 -0.004377 0.026543 0.000000 0.005196 0.000000
# 4 0.000000 0.000000 0.000000 0.054285 0.000000 0.014352
# 5 0.002932 -0.003735 0.005196 0.000000 0.028858 0.000000
# 6 0.000000 0.000000 0.000000 0.014352 0.000000 -0.148902
#
#
# Mechanical properties :
#
#
# Convention : Reuss Voigt Hill
#
# Bulk Modulus (GPa) = 39.10675 47.92582 43.51629
# Shear Modulus (GPa) = 280.23744 22.22094 151.22919
#
# Velocity S-wave (km/s) = 12.14193 3.41905 8.91954
# Velocity P-wave (km/s) = 14.73573 6.38743 11.35651
#
# Compressibility (1/GPa) = 0.02557103
#
# Stress axis : x y z
#
# Youngs Moduli (GPa) = 97.92605 73.69760 37.67435
#
# Poissons Ratio (x) = 0.15496 0.22215
# Poissons Ratio (y) = 0.20590 0.16491
# Poissons Ratio (z) = 0.57744 0.32259
#
# Static dielectric constant tensor:
#      x y z
#    x 1.703160 0.000000 -0.028980 
#    y 0.000000 1.662410 0.000000 
#    z -0.028980 0.000000 1.689100 
# 
# From -- ./inp_files/37655.got.cif
#   From: 2010.05.17/outbox.cif.g08.bks.cpg/sg13_19_cif.got.tgz:37655.got - 2010.06.03 16:44:36.
