data_PCOD9229147
_publ_section_title
;
Structure prediction by ZEFSAII (Michael W. Deem and Ramdas Pophale) SiO2 
 PCOD9229147
Probable space group: P 2/C
;
_chemical_formula_sum "Si O2"
_cell_formula_units_Z 24
_cell_length_a 12.952882
_cell_length_b 7.778208
_cell_length_c 16.320485
_cell_angle_alpha 90.000000
_cell_angle_beta 48.849321
_cell_angle_gamma 90.000000
_cell_volume 1238.121909
_symmetry_space_group_name_H-M "P 2/C"
_symmetry_group_IT_number 13
_symmetry_cell_setting 'monoclinic'
loop_
_space_group_symop_operation_xyz
x,y,z
-x,y,1/2-z
-x,-y,-z
x,-y,1/2+z
loop_
_atom_site_type_symbol
_atom_site_label
_atom_site_fract_x
_atom_site_fract_y
_atom_site_fract_z
Si Si1 0.915484 0.462208 0.461869
Si Si2 0.435820 0.024095 0.444738
Si Si3 0.358807 0.266210 0.859747
Si Si4 0.028746 0.886753 0.830302
Si Si5 0.825412 0.180635 0.981997
Si Si6 0.703482 0.930004 0.711239
O O1 0.762047 0.398083 0.562085
O O2 0.986423 0.305709 0.377472
O O3 0.900924 0.642726 0.423109
O O4 0.000000 0.500000 0.500000
O O5 0.393957 0.843795 0.423218
O O6 0.500000 0.000000 0.500000
O O7 0.298130 0.135970 0.514662
O O8 0.553101 0.106158 0.325342
O O9 0.500000 0.340257 0.750000
O O10 0.307637 0.120530 0.822289
O O11 0.000000 0.912570 0.750000
O O12 0.184097 0.919791 0.776457
O O13 0.932037 0.023224 0.927463
O O14 0.756578 0.186427 0.108409
#
# Coordination Sequence:
#
# PCOD9229147 Si02
#       6
#     4   4   4   4   4   4
#     4  12  23  40  66  95 126 168 215 258 313 384
#     4  10  20  38  64  93 126 168 209 262 322 367
#     4   9  20  38  62  92 127 160 218 259 305 381
#     4  12  24  41  64  92 132 163 207 275 320 366
#     4  11  22  40  67  90 124 169 217 251 311 387
#     4  10  19  37  64  90 118 171 214 249 312 375
#
# _framework density 19.384195999999999
#
# number of rings (size 3 to 8) (size 9 to 14) (size 15 to 20)
#    0.000    1.333    5.000    4.000    0.000    2.000 
#    0.000    4.167    0.000    0.000    0.000    0.000 
#    0.000    0.000    0.000    0.000    0.000    0.000 
#
# Total GULP energy -134039.071624 kJ/mol
# GULP energy per Si atom -5584.961318 kJ/mol
# Density = 1.934008 g / cm^3
# Si number density = 19.384196 Si / 1000 Ang^3
#
#
#
# Elastic Constant Matrix: (Units=GPa)
#
#
# Indices 1 2 3 4 5 6 
#
# 1 139.8386 23.1329 11.2225 0.0000 -4.5540 0.0000
# 2 23.1329 75.7256 12.0806 0.0000 -5.3364 0.0000
# 3 11.2225 12.0806 39.7828 0.0000 -7.5806 0.0000
# 4 0.0000 0.0000 0.0000 11.8075 0.0000 -6.2122
# 5 -4.5540 -5.3364 -7.5806 0.0000 35.5493 0.0000
# 6 0.0000 0.0000 0.0000 -6.2122 0.0000 14.8109
#
#
#
# Elastic Compliance Matrix: (Units=1/GPa)
#
#
# Indices 1 2 3 4 5 6 
#
# 1 0.007622 -0.002071 -0.001453 0.000000 0.000356 0.000000
# 2 -0.002071 0.014493 -0.003599 0.000000 0.001143 0.000000
# 3 -0.001453 -0.003599 0.027623 0.000000 0.005164 0.000000
# 4 0.000000 0.000000 0.000000 0.108674 0.000000 0.045582
# 5 0.000356 0.001143 0.005164 0.000000 0.029448 0.000000
# 6 0.000000 0.000000 0.000000 0.045582 0.000000 0.086636
#
#
# Mechanical properties :
#
#
# Convention : Reuss Voigt Hill
#
# Bulk Modulus (GPa) = 28.17623 38.69101 33.43362
# Shear Modulus (GPa) = 16.63480 26.36091 21.49786
#
# Velocity S-wave (km/s) = 2.93262 3.69171 3.33384
# Velocity P-wave (km/s) = 5.10238 6.17859 5.66609
#
# Compressibility (1/GPa) = 0.03549091
#
# Stress axis : x y z
#
# Youngs Moduli (GPa) = 131.19927 68.99862 36.20126
#
# Poissons Ratio (x) = 0.14293 0.05261
# Poissons Ratio (y) = 0.27178 0.13028
# Poissons Ratio (z) = 0.19068 0.24832
#
# Static dielectric constant tensor:
#      x y z
#    x 1.673030 0.000000 -0.009090 
#    y 0.000000 1.674640 0.000000 
#    z -0.009090 0.000000 1.703860 
# 
# From -- ./inp_files/65931.got.cif
#   From: 2010.05.17/outbox.cif.g08.bks.cpg/sg13_33_cif.got.tgz:65931.got - 2010.06.03 16:44:36.
