data_PCOD9229346
_publ_section_title
;
Structure prediction by ZEFSAII (Michael W. Deem and Ramdas Pophale) SiO2 
 PCOD9229346
Probable space group: P 2/C
;
_chemical_formula_sum "Si O2"
_cell_formula_units_Z 16
_cell_length_a 9.434547
_cell_length_b 9.406772
_cell_length_c 9.684423
_cell_angle_alpha 90.000000
_cell_angle_beta 123.944718
_cell_angle_gamma 90.000000
_cell_volume 713.004022
_symmetry_space_group_name_H-M "P 2/C"
_symmetry_group_IT_number 13
_symmetry_cell_setting 'monoclinic'
loop_
_space_group_symop_operation_xyz
x,y,z
-x,y,1/2-z
-x,-y,-z
x,-y,1/2+z
loop_
_atom_site_type_symbol
_atom_site_label
_atom_site_fract_x
_atom_site_fract_y
_atom_site_fract_z
Si Si1 0.183346 0.949694 0.549622
Si Si2 0.157238 0.624975 0.229072
Si Si3 0.915807 0.691775 0.844814
Si Si4 0.649705 0.104772 0.633557
O O1 0.206363 0.799538 0.640674
O O2 0.205213 0.937385 0.399615
O O3 0.311331 0.058696 0.689983
O O4 0.000000 0.000000 0.500000
O O5 0.179694 0.455269 0.242810
O O6 0.321580 0.723711 0.349626
O O7 0.000000 0.653663 0.250000
O O8 0.072849 0.660506 0.034764
O O9 0.000000 0.749111 0.750000
O O10 0.500000 0.000000 0.500000
#
# Coordination Sequence:
#
# PCOD9229346 Si02
#       4
#     4   4   4   4
#     4  12  22  41  66  95 124 174 226 269 315 391
#     4  10  19  39  63  95 131 169 220 275 324 390
#     4  10  20  34  66 100 125 162 227 280 318 375
#     4  12  25  41  61  93 137 170 210 271 335 390
#
# _framework density 22.440265
#
# number of rings (size 3 to 8) (size 9 to 14) (size 15 to 20)
#    0.000    1.000    5.000    3.000    0.000    0.000 
#    0.000    1.250    0.000    3.000    0.000    0.000 
#    0.000    0.000    0.000    0.000    0.000    0.000 
#
# Total GULP energy -89178.882849 kJ/mol
# GULP energy per Si atom -5573.680178 kJ/mol
# Density = 2.238919 g / cm^3
# Si number density = 22.440265 Si / 1000 Ang^3
#
#
#
# Elastic Constant Matrix: (Units=GPa)
#
#
# Indices 1 2 3 4 5 6 
#
# 1 63.7354 19.3444 9.6193 0.0000 -11.7955 0.0000
# 2 19.3444 149.2921 1.9514 0.0000 26.1011 0.0000
# 3 9.6193 1.9514 51.7985 0.0000 -12.6750 0.0000
# 4 0.0000 0.0000 0.0000 37.0233 0.0000 4.5388
# 5 -11.7955 26.1011 -12.6750 0.0000 46.6694 0.0000
# 6 0.0000 0.0000 0.0000 4.5388 0.0000 27.4874
#
#
#
# Elastic Compliance Matrix: (Units=1/GPa)
#
#
# Indices 1 2 3 4 5 6 
#
# 1 0.018083 -0.003364 -0.001770 0.000000 0.005971 0.000000
# 2 -0.003364 0.008144 -0.001076 0.000000 -0.005697 0.000000
# 3 -0.001770 -0.001076 0.021116 0.000000 0.005889 0.000000
# 4 0.000000 0.000000 0.000000 0.027568 0.000000 -0.004552
# 5 0.005971 -0.005697 0.005889 0.000000 0.027722 0.000000
# 6 0.000000 0.000000 0.000000 -0.004552 0.000000 0.037132
#
#
# Mechanical properties :
#
#
# Convention : Reuss Voigt Hill
#
# Bulk Modulus (GPa) = 28.63490 36.29514 32.46502
# Shear Modulus (GPa) = 30.51988 37.83008 34.17498
#
# Velocity S-wave (km/s) = 3.69189 4.11032 3.90671
# Velocity P-wave (km/s) = 5.56431 6.22379 5.90327
#
# Compressibility (1/GPa) = 0.03492242
#
# Stress axis : x y z
#
# Youngs Moduli (GPa) = 55.30036 122.78505 47.35742
#
# Poissons Ratio (x) = 0.41303 0.08384
# Poissons Ratio (y) = 0.18602 0.05097
# Poissons Ratio (z) = 0.09790 0.13215
#
# Static dielectric constant tensor:
#      x y z
#    x 1.842660 0.000000 0.028990 
#    y 0.000000 1.945540 0.000000 
#    z 0.028990 0.000000 1.842970 
# 
# From -- ./inp_files/11163.got.cif
#   From: 2010.05.17/outbox.cif.g08.bks.cpg/sg13_6_cif.got.tgz:11163.got - 2010.06.03 16:44:36.
