data_PCOD9229753
_publ_section_title
;
Structure prediction by ZEFSAII (Michael W. Deem and Ramdas Pophale) SiO2 
 PCOD9229753
Probable space group: P 2/C
;
_chemical_formula_sum "Si O2"
_cell_formula_units_Z 24
_cell_length_a 14.305662
_cell_length_b 6.489404
_cell_length_c 13.341755
_cell_angle_alpha 90.000000
_cell_angle_beta 116.972666
_cell_angle_gamma 90.000000
_cell_volume 1103.855238
_symmetry_space_group_name_H-M "P 2/C"
_symmetry_group_IT_number 13
_symmetry_cell_setting 'monoclinic'
loop_
_space_group_symop_operation_xyz
x,y,z
-x,y,1/2-z
-x,-y,-z
x,-y,1/2+z
loop_
_atom_site_type_symbol
_atom_site_label
_atom_site_fract_x
_atom_site_fract_y
_atom_site_fract_z
Si Si1 0.469063 0.270566 0.004039
Si Si2 0.157872 0.562105 0.052210
Si Si3 0.999876 0.809524 0.077341
Si Si4 0.676176 0.777202 0.881342
Si Si5 0.165653 0.056509 0.409910
Si Si6 0.664283 0.028158 0.159901
O O1 0.421714 0.247920 0.092436
O O2 0.578403 0.147796 0.050132
O O3 0.500000 0.500000 0.000000
O O4 0.379359 0.200176 0.881797
O O5 0.268256 0.443694 0.112765
O O6 0.113878 0.699686 0.124096
O O7 0.077382 0.373896 0.995241
O O8 0.154082 0.720136 0.956278
O O9 0.939329 0.920928 0.138027
O O10 0.000000 0.000000 0.000000
O O11 0.655453 0.891034 0.767292
O O12 0.754862 0.925219 0.981685
O O13 0.221001 0.067298 0.329255
#
# Coordination Sequence:
#
# PCOD9229753 Si02
#       6
#     4   4   4   4   4   4
#     4  10  21  38  57  80 112 153 195 234 290 353
#     4   9  16  30  54  77 103 141 182 226 283 341
#     4   8  15  29  53  77 101 140 184 227 279 338
#     4  10  20  34  54  82 111 143 188 236 284 344
#     4   9  18  33  54  78 107 144 183 229 288 344
#     4  10  21  36  55  81 114 145 186 242 290 341
#
# _framework density 21.741983000000001
#
# number of rings (size 3 to 8) (size 9 to 14) (size 15 to 20)
#    0.000    2.667    0.000    1.500    0.000    1.333 
#    0.000    5.000    0.000   46.000    0.000    0.000 
#    0.000    0.000    0.000    0.000    0.000    0.000 
#
# Total GULP energy -133748.485036 kJ/mol
# GULP energy per Si atom -5572.853543 kJ/mol
# Density = 2.169250 g / cm^3
# Si number density = 21.741983 Si / 1000 Ang^3
#
#
#
# Elastic Constant Matrix: (Units=GPa)
#
#
# Indices 1 2 3 4 5 6 
#
# 1 130.7726 52.4914 38.4614 0.0000 -38.1564 0.0000
# 2 52.4914 132.1537 29.6535 0.0000 -18.0009 0.0000
# 3 38.4614 29.6535 84.1609 0.0000 -19.1982 0.0000
# 4 0.0000 0.0000 0.0000 1.0612 0.0000 0.8574
# 5 -38.1564 -18.0009 -19.1982 0.0000 22.2876 0.0000
# 6 0.0000 0.0000 0.0000 0.8574 0.0000 52.6017
#
#
#
# Elastic Compliance Matrix: (Units=1/GPa)
#
#
# Indices 1 2 3 4 5 6 
#
# 1 0.016308 -0.002916 -0.000739 0.000000 0.024927 0.000000
# 2 -0.002916 0.009243 -0.001693 0.000000 0.001015 0.000000
# 3 -0.000739 -0.001693 0.015203 0.000000 0.010464 0.000000
# 4 0.000000 0.000000 0.000000 0.954865 0.000000 -0.015564
# 5 0.024927 0.001015 0.010464 0.000000 0.097377 0.000000
# 6 0.000000 0.000000 0.000000 -0.015564 0.000000 0.019264
#
#
# Mechanical properties :
#
#
# Convention : Reuss Voigt Hill
#
# Bulk Modulus (GPa) = 33.26828 65.36666 49.31747
# Shear Modulus (GPa) = 4.41316 30.28883 17.35099
#
# Velocity S-wave (km/s) = 1.42625 3.73648 2.82803
# Velocity P-wave (km/s) = 4.24816 6.98176 5.77892
#
# Compressibility (1/GPa) = 0.03005866
#
# Stress axis : x y z
#
# Youngs Moduli (GPa) = 61.31945 108.18614 65.77679
#
# Poissons Ratio (x) = 0.31551 0.04860
# Poissons Ratio (y) = 0.17883 0.11133
# Poissons Ratio (z) = 0.04531 0.18311
#
# Static dielectric constant tensor:
#      x y z
#    x 1.860460 0.000000 -0.009800 
#    y 0.000000 1.839330 0.000000 
#    z -0.009800 0.000000 1.756580 
# 
# From -- ./inp_files/52286.got.cif
#   From: 2010.05.17/outbox.cif.g08.bks.cpg/sg13_27_cif.got.tgz:52286.got - 2010.06.03 16:44:36.
