data_PCOD9229192
_publ_section_title
;
Structure prediction by ZEFSAII (Michael W. Deem and Ramdas Pophale) SiO2 
 PCOD9229192
Probable space group: P 2/C
;
_chemical_formula_sum "Si O2"
_cell_formula_units_Z 22
_cell_length_a 19.848324
_cell_length_b 9.242245
_cell_length_c 9.043931
_cell_angle_alpha 90.000000
_cell_angle_beta 139.565465
_cell_angle_gamma 90.000000
_cell_volume 1076.022386
_symmetry_space_group_name_H-M "P 2/C"
_symmetry_group_IT_number 13
_symmetry_cell_setting 'monoclinic'
loop_
_space_group_symop_operation_xyz
x,y,z
-x,y,1/2-z
-x,-y,-z
x,-y,1/2+z
loop_
_atom_site_type_symbol
_atom_site_label
_atom_site_fract_x
_atom_site_fract_y
_atom_site_fract_z
Si Si1 0.796356 0.197095 0.513160
Si Si2 0.500000 0.269819 0.750000
Si Si3 0.000000 0.077009 0.750000
Si Si4 0.205239 0.056250 0.679234
Si Si5 0.364857 0.571452 0.772522
Si Si6 0.357222 0.775858 0.260943
Si Si7 0.500000 0.272307 0.250000
O O1 0.764570 0.122610 0.614146
O O2 0.747334 0.353560 0.418267
O O3 0.920374 0.178103 0.707238
O O4 0.753300 0.099858 0.305340
O O5 0.430527 0.366087 0.520629
O O6 0.580389 0.182925 0.781493
O O7 0.918633 0.974409 0.528633
O O8 0.245446 0.159933 0.614264
O O9 0.355066 0.399376 0.757483
O O10 0.425558 0.630940 0.729902
O O11 0.429782 0.818119 0.520740
#
# Coordination Sequence:
#
# PCOD9229192 Si02
#       7
#     4   2   2   4   4   4   2
#     4  10  22  40  63  87 113 157 196 241 294 350
#     4  10  23  34  57  90 121 160 193 226 291 352
#     4   8  22  40  68  78 118 152 192 236 318 346
#     4  10  22  40  63  87 113 157 196 241 294 350
#     4  11  20  36  61  87 120 156 197 234 283 347
#     4  11  20  36  61  87 120 156 197 234 283 347
#     4  10  19  38  57  82 123 166 183 232 295 344
#
# _framework density 20.445671000000001
#
# number of rings (size 3 to 8) (size 9 to 14) (size 15 to 20)
#    1.091    0.727    1.818    4.909    2.545    0.000 
#    0.000    6.364    0.000    2.182    0.000    0.000 
#    0.000    0.000    0.000    0.000    0.000    0.000 
#
# Total GULP energy -122559.316496 kJ/mol
# GULP energy per Si atom -5570.878023 kJ/mol
# Density = 2.039914 g / cm^3
# Si number density = 20.445671 Si / 1000 Ang^3
#
#
#
# Elastic Constant Matrix: (Units=GPa)
#
#
# Indices 1 2 3 4 5 6 
#
# 1 155.8003 30.4025 37.0507 0.0000 6.4215 0.0000
# 2 30.4025 34.3714 18.4993 0.0000 16.6494 0.0000
# 3 37.0507 18.4993 74.8746 0.0000 -0.0580 0.0000
# 4 0.0000 0.0000 0.0000 25.7786 0.0000 10.6442
# 5 6.4215 16.6494 -0.0580 0.0000 35.4770 0.0000
# 6 0.0000 0.0000 0.0000 10.6442 0.0000 33.9355
#
#
#
# Elastic Compliance Matrix: (Units=1/GPa)
#
#
# Indices 1 2 3 4 5 6 
#
# 1 0.008252 -0.006842 -0.002392 0.000000 0.001713 0.000000
# 2 -0.006842 0.051181 -0.009278 0.000000 -0.022796 0.000000
# 3 -0.002392 -0.009278 0.016835 0.000000 0.004814 0.000000
# 4 0.000000 0.000000 0.000000 0.044563 0.000000 -0.013978
# 5 0.001713 -0.022796 0.004814 0.000000 0.038583 0.000000
# 6 0.000000 0.000000 0.000000 -0.013978 0.000000 0.033852
#
#
# Mechanical properties :
#
#
# Convention : Reuss Voigt Hill
#
# Bulk Modulus (GPa) = 25.47989 48.55014 37.01502
# Shear Modulus (GPa) = 20.54482 30.97781 25.76132
#
# Velocity S-wave (km/s) = 3.17337 3.89669 3.55348
# Velocity P-wave (km/s) = 5.09081 6.63649 5.91436
#
# Compressibility (1/GPa) = 0.03924663
#
# Stress axis : x y z
#
# Youngs Moduli (GPa) = 121.18826 19.53837 59.39993
#
# Poissons Ratio (x) = 0.13367 0.14206
# Poissons Ratio (y) = 0.82911 0.55109
# Poissons Ratio (z) = 0.28983 0.18127
#
# Static dielectric constant tensor:
#      x y z
#    x 1.774140 0.000000 -0.013470 
#    y 0.000000 1.733380 0.000000 
#    z -0.013470 0.000000 1.761410 
# 
# From -- ./inp_files/21280.got.cif
#   From: 2010.05.17/outbox.cif.g08.bks.cpg/sg13_11_cif.got.tgz:21280.got - 2010.06.03 16:44:36.
