data_PCOD9229124
_publ_section_title
;
Structure prediction by ZEFSAII (Michael W. Deem and Ramdas Pophale) SiO2 
 PCOD9229124
Probable space group: P 2/C
;
_chemical_formula_sum "Si O2"
_cell_formula_units_Z 28
_cell_length_a 14.746098
_cell_length_b 9.615264
_cell_length_c 16.347586
_cell_angle_alpha 90.000000
_cell_angle_beta 154.808580
_cell_angle_gamma 90.000000
_cell_volume 986.593524
_symmetry_space_group_name_H-M "P 2/C"
_symmetry_group_IT_number 13
_symmetry_cell_setting 'monoclinic'
loop_
_space_group_symop_operation_xyz
x,y,z
-x,y,1/2-z
-x,-y,-z
x,-y,1/2+z
loop_
_atom_site_type_symbol
_atom_site_label
_atom_site_fract_x
_atom_site_fract_y
_atom_site_fract_z
Si Si1 0.545849 0.189504 0.635895
Si Si2 0.912243 0.743595 0.820369
Si Si3 0.138422 0.453923 0.782145
Si Si4 0.000000 0.079487 0.250000
Si Si5 0.415763 0.521611 0.271650
Si Si6 0.279687 0.216572 0.172456
Si Si7 0.265278 0.850573 0.371259
Si Si8 0.500000 0.013360 0.250000
O O1 0.319469 0.232436 0.412002
O O2 0.663997 0.332915 0.756570
O O3 0.674039 0.109460 0.670984
O O4 0.506077 0.091901 0.679422
O O5 0.928414 0.576018 0.834190
O O6 0.888206 0.805293 0.891495
O O7 0.065903 0.816998 0.879129
O O8 0.129244 0.291154 0.754213
O O9 0.000000 0.478233 0.750000
O O10 0.384604 0.480378 0.007764
O O11 0.149887 0.972527 0.323833
O O12 0.500000 0.554723 0.250000
O O13 0.281567 0.380472 0.153589
O O14 0.514015 0.186828 0.403346
O O15 0.301358 0.117122 0.111120
#
# Coordination Sequence:
#
# PCOD9229124 Si02
#       8
#     4   4   4   2   4   4   4   2
#     4  10  21  37  59  85 112 149 198 243 284 342
#     4  10  21  37  59  85 112 149 198 243 284 342
#     4  10  19  37  63  88 114 150 197 247 293 340
#     4  12  20  32  56  82 120 148 180 238 298 334
#     4  10  19  37  63  88 114 150 197 247 293 340
#     4  10  21  37  59  85 112 149 198 243 284 342
#     4  10  21  37  59  85 112 149 198 243 284 342
#     4  12  20  32  56  82 120 148 180 238 298 334
#
# _framework density 28.380483999999999
#
# number of rings (size 3 to 8) (size 9 to 14) (size 15 to 20)
#    0.000    1.714    2.857    2.571    0.000    5.714 
#    0.000    0.000    0.000   24.000    0.000    0.000 
#    0.000    0.000    0.000    0.000    0.000    0.000 
#
# Total GULP energy -156989.599874 kJ/mol
# GULP energy per Si atom -5606.771424 kJ/mol
# Density = 2.831589 g / cm^3
# Si number density = 28.380484 Si / 1000 Ang^3
#
#
#
# Elastic Constant Matrix: (Units=GPa)
#
#
# Indices 1 2 3 4 5 6 
#
# 1 165.1614 40.9789 0.1599 0.0000 -16.9342 0.0000
# 2 40.9789 209.0993 31.5657 0.0000 0.0656 0.0000
# 3 0.1599 31.5657 95.3720 0.0000 2.9289 0.0000
# 4 0.0000 0.0000 0.0000 36.3764 0.0000 12.0410
# 5 -16.9342 0.0656 2.9289 0.0000 28.4324 0.0000
# 6 0.0000 0.0000 0.0000 12.0410 0.0000 28.6270
#
#
#
# Elastic Compliance Matrix: (Units=1/GPa)
#
#
# Indices 1 2 3 4 5 6 
#
# 1 0.006811 -0.001385 0.000323 0.000000 0.004026 0.000000
# 2 -0.001385 0.005316 -0.001737 0.000000 -0.000658 0.000000
# 3 0.000323 -0.001737 0.011089 0.000000 -0.000946 0.000000
# 4 0.000000 0.000000 0.000000 0.031937 0.000000 -0.013433
# 5 0.004026 -0.000658 -0.000946 0.000000 0.037668 0.000000
# 6 0.000000 0.000000 0.000000 -0.013433 0.000000 0.040582
#
#
# Mechanical properties :
#
#
# Convention : Reuss Voigt Hill
#
# Bulk Modulus (GPa) = 56.75827 68.33794 62.54811
# Shear Modulus (GPa) = 34.51300 45.14904 39.83102
#
# Velocity S-wave (km/s) = 3.49102 3.99287 3.75035
# Velocity P-wave (km/s) = 6.02429 6.73712 6.39065
#
# Compressibility (1/GPa) = 0.01761858
#
# Stress axis : x y z
#
# Youngs Moduli (GPa) = 146.82567 188.10285 90.18215
#
# Poissons Ratio (x) = 0.26049 -0.02915
# Poissons Ratio (y) = 0.20333 0.15665
# Poissons Ratio (z) = -0.04747 0.32674
#
# Static dielectric constant tensor:
#      x y z
#    x 2.128730 0.000000 0.045920 
#    y 0.000000 2.139350 0.000000 
#    z 0.045920 0.000000 2.422530 
# 
# From -- ./inp_files/63772.got.cif
#   From: 2010.05.17/outbox.cif.g08.bks.cpg/sg13_32_cif.got.tgz:63772.got - 2010.06.03 16:44:36.
