data_PCOD9229959
_publ_section_title
;
Structure prediction by ZEFSAII (Michael W. Deem and Ramdas Pophale) SiO2 
 PCOD9229959
Probable space group: P 2/C
;
_chemical_formula_sum "Si O2"
_cell_formula_units_Z 22
_cell_length_a 15.525566
_cell_length_b 11.800343
_cell_length_c 16.702208
_cell_angle_alpha 90.000000
_cell_angle_beta 19.000795
_cell_angle_gamma 90.000000
_cell_volume 996.266160
_symmetry_space_group_name_H-M "P 2/C"
_symmetry_group_IT_number 13
_symmetry_cell_setting 'monoclinic'
loop_
_space_group_symop_operation_xyz
x,y,z
-x,y,1/2-z
-x,-y,-z
x,-y,1/2+z
loop_
_atom_site_type_symbol
_atom_site_label
_atom_site_fract_x
_atom_site_fract_y
_atom_site_fract_z
Si Si1 0.156311 0.575579 0.967320
Si Si2 0.555570 0.886390 0.544017
Si Si3 0.121520 0.276222 0.345565
Si Si4 0.778467 0.094929 0.687986
Si Si5 0.500000 0.762221 0.750000
Si Si6 0.372246 0.457028 0.029116
O O1 0.065780 0.625252 0.959809
O O2 0.279681 0.679551 0.907368
O O3 0.402272 0.488752 0.733527
O O4 0.904289 0.525021 0.234615
O O5 0.318304 0.808809 0.718150
O O6 0.766355 0.862366 0.290034
O O7 0.614391 0.841183 0.579572
O O8 0.477808 0.019791 0.609697
O O9 0.271913 0.330190 0.137720
O O10 0.864464 0.199070 0.557086
O O11 0.000000 0.000000 0.500000
O O12 0.500000 0.500000 0.000000
#
# Coordination Sequence:
#
# PCOD9229959 Si02
#       6
#     4   4   4   4   2   4
#     4  10  22  35  54  90 121 159 201 250 311 387
#     4   9  19  35  56  86 121 151 205 259 316 383
#     4   9  18  30  56  81 111 153 193 253 303 352
#     4   9  18  34  54  87 114 151 207 262 304 368
#     4  10  22  40  58  90 124 172 190 264 340 390
#     4  10  20  35  55  87 121 153 205 253 304 367
#
# _framework density 22.082453000000001
#
# number of rings (size 3 to 8) (size 9 to 14) (size 15 to 20)
#    0.000    2.545    0.000    2.182   10.182    0.727 
#    6.545    0.000    0.000    1.091   14.182    0.000 
#    0.000    0.000    0.000    0.000    0.000    0.000 
#
# Total GULP energy -122630.668365 kJ/mol
# GULP energy per Si atom -5574.121289 kJ/mol
# Density = 2.203219 g / cm^3
# Si number density = 22.082453 Si / 1000 Ang^3
#
#
#
# Elastic Constant Matrix: (Units=GPa)
#
#
# Indices 1 2 3 4 5 6 
#
# 1 51.0399 23.6766 22.8614 0.0000 12.9070 0.0000
# 2 23.6766 111.8905 43.1491 0.0000 5.7333 0.0000
# 3 22.8614 43.1491 114.3420 0.0000 -2.2169 0.0000
# 4 0.0000 0.0000 0.0000 17.3243 0.0000 2.4996
# 5 12.9070 5.7333 -2.2169 0.0000 15.7816 0.0000
# 6 0.0000 0.0000 0.0000 2.4996 0.0000 22.0282
#
#
#
# Elastic Compliance Matrix: (Units=1/GPa)
#
#
# Indices 1 2 3 4 5 6 
#
# 1 0.029259 -0.002986 -0.005180 0.000000 -0.023572 0.000000
# 2 -0.002986 0.011073 -0.003622 0.000000 -0.002090 0.000000
# 3 -0.005180 -0.003622 0.011287 0.000000 0.007138 0.000000
# 4 0.000000 0.000000 0.000000 0.058683 0.000000 -0.006659
# 5 -0.023572 -0.002090 0.007138 0.000000 0.084405 0.000000
# 6 0.000000 0.000000 0.000000 -0.006659 0.000000 0.046152
#
#
# Mechanical properties :
#
#
# Convention : Reuss Voigt Hill
#
# Bulk Modulus (GPa) = 35.66054 50.73851 43.19953
# Shear Modulus (GPa) = 18.26265 23.53250 20.89757
#
# Velocity S-wave (km/s) = 2.87892 3.26799 3.07961
# Velocity P-wave (km/s) = 5.21869 6.10462 5.67896
#
# Compressibility (1/GPa) = 0.02804220
#
# Stress axis : x y z
#
# Youngs Moduli (GPa) = 34.17768 90.30953 88.59977
#
# Poissons Ratio (x) = 0.26964 0.45897
# Poissons Ratio (y) = 0.10205 0.32092
# Poissons Ratio (z) = 0.17705 0.32712
#
# Static dielectric constant tensor:
#      x y z
#    x 1.823320 0.000000 -0.040820 
#    y 0.000000 1.883940 0.000000 
#    z -0.040820 0.000000 1.929340 
# 
# From -- ./inp_files/69810.got.cif
#   From: 2010.05.17/outbox.cif.g08.bks.cpg/sg13_35_cif.got.tgz:69810.got - 2010.06.03 16:44:36.
