data_PCOD9229544
_publ_section_title
;
Structure prediction by ZEFSAII (Michael W. Deem and Ramdas Pophale) SiO2 
 PCOD9229544
Probable space group: P 2/C
;
_chemical_formula_sum "Si O2"
_cell_formula_units_Z 30
_cell_length_a 21.836066
_cell_length_b 9.646307
_cell_length_c 7.594847
_cell_angle_alpha 90.000000
_cell_angle_beta 128.561677
_cell_angle_gamma 90.000000
_cell_volume 1250.911534
_symmetry_space_group_name_H-M "P 2/C"
_symmetry_group_IT_number 13
_symmetry_cell_setting 'monoclinic'
loop_
_space_group_symop_operation_xyz
x,y,z
-x,y,1/2-z
-x,-y,-z
x,-y,1/2+z
loop_
_atom_site_type_symbol
_atom_site_label
_atom_site_fract_x
_atom_site_fract_y
_atom_site_fract_z
Si Si1 0.818567 0.141969 0.477165
Si Si2 0.968100 0.646971 0.877823
Si Si3 0.409030 0.782756 0.705784
Si Si4 0.339187 0.043183 0.404488
Si Si5 0.257519 0.662314 0.357664
Si Si6 0.207484 0.359162 0.387014
Si Si7 0.000000 0.855567 0.250000
Si Si8 0.541953 0.144987 0.637344
O O1 0.791704 0.225651 0.608533
O O2 0.909683 0.087921 0.629920
O O3 0.752663 0.028039 0.303835
O O4 0.802799 0.253475 0.293004
O O5 0.877917 0.623433 0.685964
O O6 0.000000 0.694514 0.750000
O O7 0.000000 0.500000 0.000000
O O8 0.985042 0.760107 0.054662
O O9 0.349858 0.660301 0.567427
O O10 0.387695 0.899453 0.517709
O O11 0.367886 0.858008 0.800249
O O12 0.498156 0.752464 0.922760
O O13 0.369119 0.122753 0.635136
O O14 0.229539 0.508378 0.351269
O O15 0.254085 0.688118 0.142573
O O16 0.500000 0.177354 0.750000
O O17 0.500000 0.000000 0.500000
#
# Coordination Sequence:
#
# PCOD9229544 Si02
#       8
#     4   4   4   4   4   4   2   4
#     4  10  21  35  53  80 103 147 177 223 266 313
#     4  11  19  28  47  73  99 129 170 229 276 302
#     4   9  19  32  55  83 107 139 169 220 272 317
#     4   9  18  33  55  81 108 134 177 217 272 319
#     4  11  21  35  52  78 111 142 178 216 267 320
#     4  11  21  33  51  76 108 141 180 219 267 317
#     4  10  20  32  48  72 104 132 182 216 262 312
#     4   8  14  29  51  80 106 128 162 221 268 310
#
# _framework density 23.982510000000001
#
# number of rings (size 3 to 8) (size 9 to 14) (size 15 to 20)
#    0.000    2.133    2.000    2.400    1.867    0.000 
#    0.000    0.000    0.000    4.000    8.667    0.000 
#    0.000    0.000    0.000    0.000    0.000    0.000 
#
# Total GULP energy -167019.482417 kJ/mol
# GULP energy per Si atom -5567.316081 kJ/mol
# Density = 2.392792 g / cm^3
# Si number density = 23.982510 Si / 1000 Ang^3
#
#
#
# Elastic Constant Matrix: (Units=GPa)
#
#
# Indices 1 2 3 4 5 6 
#
# 1 51.7504 16.3442 19.2549 0.0000 12.3791 0.0000
# 2 16.3442 25.2206 5.3325 0.0000 8.7016 0.0000
# 3 19.2549 5.3325 116.4289 0.0000 16.1080 0.0000
# 4 0.0000 0.0000 0.0000 25.6874 0.0000 9.4261
# 5 12.3791 8.7016 16.1080 0.0000 73.8074 0.0000
# 6 0.0000 0.0000 0.0000 9.4261 0.0000 33.3952
#
#
#
# Elastic Compliance Matrix: (Units=1/GPa)
#
#
# Indices 1 2 3 4 5 6 
#
# 1 0.025865 -0.015441 -0.003322 0.000000 -0.001793 0.000000
# 2 -0.015441 0.050728 0.000721 0.000000 -0.003548 0.000000
# 3 -0.003322 0.000721 0.009321 0.000000 -0.001562 0.000000
# 4 0.000000 0.000000 0.000000 0.043428 0.000000 -0.012258
# 5 -0.001793 -0.003548 -0.001562 0.000000 0.014609 0.000000
# 6 0.000000 0.000000 0.000000 -0.012258 0.000000 0.033404
#
#
# Mechanical properties :
#
#
# Convention : Reuss Voigt Hill
#
# Bulk Modulus (GPa) = 20.06792 30.58478 25.32635
# Shear Modulus (GPa) = 21.73439 36.74255 29.23847
#
# Velocity S-wave (km/s) = 3.01368 3.91840 3.49543
# Velocity P-wave (km/s) = 4.52721 5.76649 5.18401
#
# Compressibility (1/GPa) = 0.04983077
#
# Stress axis : x y z
#
# Youngs Moduli (GPa) = 38.66204 19.71282 107.27913
#
# Poissons Ratio (x) = 0.30438 0.35642
# Poissons Ratio (y) = 0.59698 -0.07736
# Poissons Ratio (z) = 0.12845 -0.01422
#
# Static dielectric constant tensor:
#      x y z
#    x 2.288850 0.000000 -0.004710 
#    y 0.000000 1.901890 0.000000 
#    z -0.004710 0.000000 1.904660 
# 
# From -- ./inp_files/24695.got.cif
#   From: 2010.05.17/outbox.cif.g08.bks.cpg/sg13_13_cif.got.tgz:24695.got - 2010.06.03 16:44:36.
