data_PCOD9229045
_publ_section_title
;
Structure prediction by ZEFSAII (Michael W. Deem and Ramdas Pophale) SiO2 
 PCOD9229045
Probable space group: P 2/C
;
_chemical_formula_sum "Si O2"
_cell_formula_units_Z 24
_cell_length_a 10.181801
_cell_length_b 7.849284
_cell_length_c 16.021554
_cell_angle_alpha 90.000000
_cell_angle_beta 116.749359
_cell_angle_gamma 90.000000
_cell_volume 1143.412545
_symmetry_space_group_name_H-M "P 2/C"
_symmetry_group_IT_number 13
_symmetry_cell_setting 'monoclinic'
loop_
_space_group_symop_operation_xyz
x,y,z
-x,y,1/2-z
-x,-y,-z
x,-y,1/2+z
loop_
_atom_site_type_symbol
_atom_site_label
_atom_site_fract_x
_atom_site_fract_y
_atom_site_fract_z
Si Si1 0.060798 0.719462 0.109670
Si Si2 0.868851 0.961093 0.611976
Si Si3 0.976223 0.642683 0.897528
Si Si4 0.416027 0.018184 0.562102
Si Si5 0.697379 0.914062 0.228970
Si Si6 0.350185 0.749010 0.672704
O O1 0.994307 0.545561 0.128670
O O2 0.216744 0.770688 0.194786
O O3 0.961647 0.883918 0.100249
O O4 0.052465 0.679118 0.008857
O O5 0.741152 0.912769 0.509554
O O6 0.971326 0.795523 0.646408
O O7 0.205800 0.029344 0.824198
O O8 0.800751 0.647578 0.865539
O O9 0.529911 0.122435 0.652103
O O10 0.500000 0.000000 0.500000
O O11 0.386885 0.832598 0.594014
O O12 0.681147 0.081948 0.280985
O O13 0.500000 0.665994 0.750000
#
# Coordination Sequence:
#
# PCOD9229045 Si02
#       6
#     4   4   4   4   4   4
#     4  11  22  38  59  93 124 160 209 256 307 373
#     4  11  20  40  63  89 125 162 206 261 310 371
#     4  11  23  38  63  90 122 169 205 253 323 368
#     4   9  19  35  65  88 116 162 205 250 310 368
#     4  10  21  37  61  92 121 163 207 254 312 367
#     4  10  19  37  59  85 120 159 204 251 305 374
#
# _framework density 20.989799999999999
#
# number of rings (size 3 to 8) (size 9 to 14) (size 15 to 20)
#    0.000    1.667    3.333    2.000    0.000    0.000 
#    6.000    5.833    0.000    3.000    0.000    0.000 
#    0.000    0.000    0.000    0.000    0.000    0.000 
#
# Total GULP energy -133858.908944 kJ/mol
# GULP energy per Si atom -5577.454539 kJ/mol
# Density = 2.094203 g / cm^3
# Si number density = 20.989800 Si / 1000 Ang^3
#
#
#
# Elastic Constant Matrix: (Units=GPa)
#
#
# Indices 1 2 3 4 5 6 
#
# 1 54.1282 27.6814 31.9281 0.0000 23.7984 0.0000
# 2 27.6814 104.1431 32.0965 0.0000 14.0300 0.0000
# 3 31.9281 32.0965 135.1812 0.0000 28.0561 0.0000
# 4 0.0000 0.0000 0.0000 15.6753 0.0000 4.4225
# 5 23.7984 14.0300 28.0561 0.0000 40.3347 0.0000
# 6 0.0000 0.0000 0.0000 4.4225 0.0000 3.5501
#
#
#
# Elastic Compliance Matrix: (Units=1/GPa)
#
#
# Indices 1 2 3 4 5 6 
#
# 1 0.028410 -0.004917 -0.002827 0.000000 -0.013086 0.000000
# 2 -0.004917 0.011383 -0.001545 0.000000 0.000016 0.000000
# 3 -0.002827 -0.001545 0.009320 0.000000 -0.004277 0.000000
# 4 0.000000 0.000000 0.000000 0.098366 0.000000 -0.122538
# 5 -0.013086 0.000016 -0.004277 0.000000 0.035483 0.000000
# 6 0.000000 0.000000 0.000000 -0.122538 0.000000 0.434332
#
#
# Mechanical properties :
#
#
# Convention : Reuss Voigt Hill
#
# Bulk Modulus (GPa) = 32.74876 52.98495 42.86685
# Shear Modulus (GPa) = 7.73933 25.36178 16.55056
#
# Velocity S-wave (km/s) = 1.92229 3.47982 2.81108
# Velocity P-wave (km/s) = 4.53465 6.43766 5.56806
#
# Compressibility (1/GPa) = 0.03053551
#
# Stress axis : x y z
#
# Youngs Moduli (GPa) = 35.19853 87.84963 107.30050
#
# Poissons Ratio (x) = 0.43199 0.30330
# Poissons Ratio (y) = 0.17309 0.16575
# Poissons Ratio (z) = 0.09949 0.13570
#
# Static dielectric constant tensor:
#      x y z
#    x 1.784780 0.000000 0.015940 
#    y 0.000000 1.680520 0.000000 
#    z 0.015940 0.000000 1.843690 
# 
# From -- ./inp_files/77864.got.cif
#   From: 2010.05.17/outbox.cif.g08.bks.cpg/sg13_39_cif.got.tgz:77864.got - 2010.06.03 16:44:36.
