data_PCOD9229588
_publ_section_title
;
Structure prediction by ZEFSAII (Michael W. Deem and Ramdas Pophale) SiO2 
 PCOD9229588
Probable space group: P 2/C
;
_chemical_formula_sum "Si O2"
_cell_formula_units_Z 22
_cell_length_a 10.864229
_cell_length_b 8.668649
_cell_length_c 12.190013
_cell_angle_alpha 90.000000
_cell_angle_beta 126.009493
_cell_angle_gamma 90.000000
_cell_volume 928.666662
_symmetry_space_group_name_H-M "P 2/C"
_symmetry_group_IT_number 13
_symmetry_cell_setting 'monoclinic'
loop_
_space_group_symop_operation_xyz
x,y,z
-x,y,1/2-z
-x,-y,-z
x,-y,1/2+z
loop_
_atom_site_type_symbol
_atom_site_label
_atom_site_fract_x
_atom_site_fract_y
_atom_site_fract_z
Si Si1 0.459248 0.739059 0.058045
Si Si2 0.780297 0.360578 0.641640
Si Si3 0.181790 0.837749 0.537170
Si Si4 0.500000 0.997691 0.250000
Si Si5 0.000000 0.891776 0.250000
Si Si6 0.242290 0.325443 0.263201
Si Si7 0.500000 0.510355 0.750000
O O1 0.603666 0.667116 0.071841
O O2 0.515183 0.887327 0.152752
O O3 0.413645 0.607726 0.122196
O O4 0.326613 0.769905 0.902477
O O5 0.808599 0.319197 0.530179
O O6 0.826665 0.523971 0.714573
O O7 0.876462 0.220934 0.744743
O O8 0.133306 0.778979 0.631672
O O9 0.091574 0.950343 0.405236
O O10 0.348017 0.907581 0.646571
O O11 0.379025 0.393260 0.257466
#
# Coordination Sequence:
#
# PCOD9229588 Si02
#       7
#     4   4   4   2   2   4   2
#     4  10  20  32  56  90 110 144 190 238 274 328
#     4   9  19  37  57  82 117 144 182 228 291 341
#     4  10  21  37  56  81 115 149 183 232 277 326
#     4  11  23  38  58  82 113 149 200 236 266 323
#     4   8  22  40  54  82 118 152 182 222 290 336
#     4  11  18  31  61  87 111 139 181 237 292 330
#     4   9  17  30  50  90 119 131 168 242 296 323
#
# _framework density 23.689876999999999
#
# number of rings (size 3 to 8) (size 9 to 14) (size 15 to 20)
#    1.091    1.091    0.000    6.000    0.000    3.636 
#    0.000    0.909    0.000    0.000    0.000    0.000 
#    0.000    0.000    0.000    0.000    0.000    0.000 
#
# Total GULP energy -122546.849505 kJ/mol
# GULP energy per Si atom -5570.311341 kJ/mol
# Density = 2.363596 g / cm^3
# Si number density = 23.689877 Si / 1000 Ang^3
#
#
#
# Elastic Constant Matrix: (Units=GPa)
#
#
# Indices 1 2 3 4 5 6 
#
# 1 26.8280 19.0245 11.2687 0.0000 -3.9466 0.0000
# 2 19.0245 59.0637 39.2871 0.0000 5.3451 0.0000
# 3 11.2687 39.2871 185.2794 0.0000 -10.1218 0.0000
# 4 0.0000 0.0000 0.0000 14.7576 0.0000 -1.1098
# 5 -3.9466 5.3451 -10.1218 0.0000 16.1199 0.0000
# 6 0.0000 0.0000 0.0000 -1.1098 0.0000 24.9327
#
#
#
# Elastic Compliance Matrix: (Units=1/GPa)
#
#
# Indices 1 2 3 4 5 6 
#
# 1 0.054431 -0.021064 0.002346 0.000000 0.021784 0.000000
# 2 -0.021064 0.029370 -0.005965 0.000000 -0.018641 0.000000
# 3 0.002346 -0.005965 0.006895 0.000000 0.006882 0.000000
# 4 0.000000 0.000000 0.000000 0.067989 0.000000 0.003026
# 5 0.021784 -0.018641 0.006882 0.000000 0.077871 0.000000
# 6 0.000000 0.000000 0.000000 0.003026 0.000000 0.040243
#
#
# Mechanical properties :
#
#
# Convention : Reuss Voigt Hill
#
# Bulk Modulus (GPa) = 24.19528 45.59241 34.89384
# Shear Modulus (GPa) = 14.70838 24.60143 19.65491
#
# Velocity S-wave (km/s) = 2.49443 3.22604 2.88353
# Velocity P-wave (km/s) = 4.30486 5.75880 5.08407
#
# Compressibility (1/GPa) = 0.04133038
#
# Stress axis : x y z
#
# Youngs Moduli (GPa) = 18.37194 34.04791 145.02487
#
# Poissons Ratio (x) = 0.71719 -0.34024
# Poissons Ratio (y) = 0.38699 0.86508
# Poissons Ratio (z) = -0.04310 0.20310
#
# Static dielectric constant tensor:
#      x y z
#    x 1.920670 0.000000 0.018600 
#    y 0.000000 1.976350 0.000000 
#    z 0.018600 0.000000 2.013960 
# 
# From -- ./inp_files/36072.got.cif
#   From: 2010.05.17/outbox.cif.g08.bks.cpg/sg13_19_cif.got.tgz:36072.got - 2010.06.03 16:44:36.
