data_PCOD9229407
_publ_section_title
;
Structure prediction by ZEFSAII (Michael W. Deem and Ramdas Pophale) SiO2 
 PCOD9229407
Probable space group: P 2/C
;
_chemical_formula_sum "Si O2"
_cell_formula_units_Z 30
_cell_length_a 8.755833
_cell_length_b 9.498405
_cell_length_c 31.742470
_cell_angle_alpha 90.000000
_cell_angle_beta 144.460854
_cell_angle_gamma 90.000000
_cell_volume 1534.470683
_symmetry_space_group_name_H-M "P 2/C"
_symmetry_group_IT_number 13
_symmetry_cell_setting 'monoclinic'
loop_
_space_group_symop_operation_xyz
x,y,z
-x,y,1/2-z
-x,-y,-z
x,-y,1/2+z
loop_
_atom_site_type_symbol
_atom_site_label
_atom_site_fract_x
_atom_site_fract_y
_atom_site_fract_z
Si Si1 0.768560 0.967593 0.761714
Si Si2 0.185550 0.045543 0.630748
Si Si3 0.966233 0.689693 0.450437
Si Si4 0.595300 0.534319 0.474604
Si Si5 0.604253 0.577577 0.158056
Si Si6 0.009669 0.227351 0.053533
Si Si7 0.000000 0.833872 0.250000
Si Si8 0.560855 0.658278 0.714642
O O1 0.745334 0.797935 0.754801
O O2 0.483286 0.020887 0.681346
O O3 0.798858 0.010256 0.816823
O O4 0.983752 0.056574 0.784913
O O5 0.092900 0.200755 0.599562
O O6 0.999473 0.930968 0.567548
O O7 0.701974 0.604718 0.401206
O O8 0.194653 0.584152 0.490386
O O9 0.032909 0.769533 0.508503
O O10 0.500000 0.500000 0.500000
O O11 0.385150 0.534545 0.388980
O O12 0.757049 0.680854 0.509716
O O13 0.677786 0.461389 0.209885
O O14 0.759009 0.723888 0.197414
O O15 0.275618 0.294910 0.132503
O O16 0.500000 0.617713 0.750000
#
# Coordination Sequence:
#
# PCOD9229407 Si02
#       8
#     4   4   4   4   4   4   2   4
#     4  10  22  40  61  91 133 160 209 267 313 378
#     4  10  20  39  66  92 117 171 214 252 318 384
#     4  11  20  40  69  90 125 165 210 266 316 386
#     4  11  24  41  62  93 131 158 208 276 319 375
#     4  11  24  42  63  94 127 169 214 255 324 387
#     4  10  19  40  63  92 122 162 213 257 318 379
#     4  12  26  42  58  94 136 166 202 264 326 380
#     4  11  20  40  69  93 120 168 221 264 306 386
#
# _framework density 19.550716000000001
#
# number of rings (size 3 to 8) (size 9 to 14) (size 15 to 20)
#    0.000    1.333    6.667    1.200    1.867    2.667 
#    2.400    0.667    0.000    0.000    0.000    0.000 
#    0.000    0.000    0.000    0.000    0.000    0.000 
#
# Total GULP energy -167366.500242 kJ/mol
# GULP energy per Si atom -5578.883341 kJ/mol
# Density = 1.950622 g / cm^3
# Si number density = 19.550716 Si / 1000 Ang^3
#
#
#
# Elastic Constant Matrix: (Units=GPa)
#
#
# Indices 1 2 3 4 5 6 
#
# 1 86.4011 41.4712 19.2301 0.0000 -23.5071 0.0000
# 2 41.4712 95.2943 27.1220 0.0000 -23.8433 0.0000
# 3 19.2301 27.1220 60.7731 0.0000 -23.7434 0.0000
# 4 0.0000 0.0000 0.0000 118.3232 0.0000 -15.4090
# 5 -23.5071 -23.8433 -23.7434 0.0000 23.2359 0.0000
# 6 0.0000 0.0000 0.0000 -15.4090 0.0000 31.6140
#
#
#
# Elastic Compliance Matrix: (Units=1/GPa)
#
#
# Indices 1 2 3 4 5 6 
#
# 1 0.017376 -0.004358 0.002609 0.000000 0.015773 0.000000
# 2 -0.004358 0.015253 -0.001724 0.000000 0.009482 0.000000
# 3 0.002609 -0.001724 0.027861 0.000000 0.029340 0.000000
# 4 0.000000 0.000000 0.000000 0.009024 0.000000 0.004399
# 5 0.015773 0.009482 0.029340 0.000000 0.098705 0.000000
# 6 0.000000 0.000000 0.000000 0.004399 0.000000 0.033775
#
#
# Mechanical properties :
#
#
# Convention : Reuss Voigt Hill
#
# Bulk Modulus (GPa) = 18.67573 46.45726 32.56649
# Shear Modulus (GPa) = 22.04677 44.94430 33.49553
#
# Velocity S-wave (km/s) = 3.36172 4.79984 4.14365
# Velocity P-wave (km/s) = 4.96401 7.38458 6.29180
#
# Compressibility (1/GPa) = 0.05354542
#
# Stress axis : x y z
#
# Youngs Moduli (GPa) = 57.54900 65.55906 35.89192
#
# Poissons Ratio (x) = 0.28571 -0.09364
# Poissons Ratio (y) = 0.25080 0.06188
# Poissons Ratio (z) = -0.15015 0.11302
#
# Static dielectric constant tensor:
#      x y z
#    x 1.710130 0.000000 -0.001240 
#    y 0.000000 1.684080 0.000000 
#    z -0.001240 0.000000 1.711250 
# 
# From -- ./inp_files/96007.got.cif
#   From: 2010.05.17/outbox.cif.g08.bks.cpg/sg13_49_cif.got.tgz:96007.got - 2010.06.03 16:44:36.
