data_PCOD9229381
_publ_section_title
;
Structure prediction by ZEFSAII (Michael W. Deem and Ramdas Pophale) SiO2 
 PCOD9229381
Probable space group: P 2/C
;
_chemical_formula_sum "Si O2"
_cell_formula_units_Z 24
_cell_length_a 17.067740
_cell_length_b 9.394456
_cell_length_c 23.829188
_cell_angle_alpha 90.000000
_cell_angle_beta 19.250568
_cell_angle_gamma 90.000000
_cell_volume 1259.725300
_symmetry_space_group_name_H-M "P 2/C"
_symmetry_group_IT_number 13
_symmetry_cell_setting 'monoclinic'
loop_
_space_group_symop_operation_xyz
x,y,z
-x,y,1/2-z
-x,-y,-z
x,-y,1/2+z
loop_
_atom_site_type_symbol
_atom_site_label
_atom_site_fract_x
_atom_site_fract_y
_atom_site_fract_z
Si Si1 0.009984 0.013947 0.175696
Si Si2 0.000000 0.641147 0.750000
Si Si3 0.744303 0.232373 0.791988
Si Si4 0.500000 0.372980 0.750000
Si Si5 0.742425 0.691446 0.824017
Si Si6 0.568739 0.179856 0.598080
Si Si7 0.993750 0.505711 0.571440
O O1 0.903497 0.876572 0.218710
O O2 0.000000 0.000684 0.250000
O O3 0.858985 0.152378 0.256669
O O4 0.286108 0.046088 0.976426
O O5 0.129317 0.582846 0.717887
O O6 0.222251 0.727692 0.573306
O O7 0.616931 0.152092 0.825624
O O8 0.889879 0.360147 0.666144
O O9 0.532242 0.292922 0.974764
O O10 0.473670 0.273748 0.713096
O O11 0.742393 0.462001 0.583752
O O12 0.819332 0.630608 0.712280
O O13 0.000000 0.500000 0.500000
#
# Coordination Sequence:
#
# PCOD9229381 Si02
#       7
#     4   2   4   2   4   4   4
#     4  11  20  40  66  99 128 166 214 273 330 383
#     4   8  14  32  62  88 108 156 218 244 290 388
#     4  11  23  40  67 103 128 160 226 283 321 377
#     4  12  22  44  66  86 132 184 216 258 318 412
#     4  10  19  40  67  94 124 169 219 258 326 397
#     4  10  19  39  68  90 124 177 211 250 331 403
#     4  12  25  43  64  95 134 175 221 267 322 390
#
# _framework density 19.051772
#
# number of rings (size 3 to 8) (size 9 to 14) (size 15 to 20)
#    0.000    1.333   10.000    1.000    0.000    0.000 
#    4.500    4.167    0.000    0.000    0.000    0.000 
#    0.000    0.000    0.000    0.000    0.000    0.000 
#
# Total GULP energy -133696.109476 kJ/mol
# GULP energy per Si atom -5570.671228 kJ/mol
# Density = 1.900841 g / cm^3
# Si number density = 19.051772 Si / 1000 Ang^3
#
#
#
# Elastic Constant Matrix: (Units=GPa)
#
#
# Indices 1 2 3 4 5 6 
#
# 1 110.1982 63.1632 48.6496 0.0000 8.2357 0.0000
# 2 63.1632 96.6738 59.4290 0.0000 -0.3868 0.0000
# 3 48.6496 59.4290 99.4242 0.0000 -0.4052 0.0000
# 4 0.0000 0.0000 0.0000 7.0399 0.0000 -5.6726
# 5 8.2357 -0.3868 -0.4052 0.0000 36.8253 0.0000
# 6 0.0000 0.0000 0.0000 -5.6726 0.0000 25.4187
#
#
#
# Elastic Compliance Matrix: (Units=1/GPa)
#
#
# Indices 1 2 3 4 5 6 
#
# 1 0.015284 -0.008527 -0.002396 0.000000 -0.003534 0.000000
# 2 -0.008527 0.021111 -0.008438 0.000000 0.002036 0.000000
# 3 -0.002396 -0.008438 0.016276 0.000000 0.000626 0.000000
# 4 0.000000 0.000000 0.000000 0.173191 0.000000 0.038651
# 5 -0.003534 0.002036 0.000626 0.000000 0.027974 0.000000
# 6 0.000000 0.000000 0.000000 0.038651 0.000000 0.047967
#
#
# Mechanical properties :
#
#
# Convention : Reuss Voigt Hill
#
# Bulk Modulus (GPa) = 71.68975 72.08667 71.88821
# Shear Modulus (GPa) = 14.48542 22.86041 18.67291
#
# Velocity S-wave (km/s) = 2.76038 3.46773 3.13407
# Velocity P-wave (km/s) = 6.91883 7.34527 7.13523
#
# Compressibility (1/GPa) = 0.01394900
#
# Stress axis : x y z
#
# Youngs Moduli (GPa) = 65.42726 47.36959 61.43875
#
# Poissons Ratio (x) = 0.40393 0.14721
# Poissons Ratio (y) = 0.55792 0.51840
# Poissons Ratio (z) = 0.15677 0.39969
#
# Static dielectric constant tensor:
#      x y z
#    x 1.718760 0.000000 -0.004640 
#    y 0.000000 1.674960 0.000000 
#    z -0.004640 0.000000 1.680800 
# 
# From -- ./inp_files/87876.got.cif
#   From: 2010.05.17/outbox.cif.g08.bks.cpg/sg13_44_cif.got.tgz:87876.got - 2010.06.03 16:44:36.
