data_PCOD9229322
_publ_section_title
;
Structure prediction by ZEFSAII (Michael W. Deem and Ramdas Pophale) SiO2 
 PCOD9229322
Probable space group: P 2/C
;
_chemical_formula_sum "Si O2"
_cell_formula_units_Z 28
_cell_length_a 19.032838
_cell_length_b 8.154639
_cell_length_c 15.493584
_cell_angle_alpha 90.000000
_cell_angle_beta 31.710599
_cell_angle_gamma 90.000000
_cell_volume 1263.978032
_symmetry_space_group_name_H-M "P 2/C"
_symmetry_group_IT_number 13
_symmetry_cell_setting 'monoclinic'
loop_
_space_group_symop_operation_xyz
x,y,z
-x,y,1/2-z
-x,-y,-z
x,-y,1/2+z
loop_
_atom_site_type_symbol
_atom_site_label
_atom_site_fract_x
_atom_site_fract_y
_atom_site_fract_z
Si Si1 0.698782 0.178955 0.372202
Si Si2 0.000000 0.322494 0.250000
Si Si3 0.296747 0.798744 0.439607
Si Si4 0.001754 0.810055 0.990175
Si Si5 0.299564 0.849110 0.243330
Si Si6 0.500000 0.506870 0.250000
Si Si7 0.362704 0.552922 0.059385
Si Si8 0.946569 0.444873 0.651358
O O1 0.665365 0.128706 0.506039
O O2 0.857312 0.225144 0.202595
O O3 0.631930 0.357552 0.421794
O O4 0.679133 0.020642 0.330948
O O5 0.996342 0.443811 0.335030
O O6 0.863397 0.221349 0.391482
O O7 0.334572 0.873537 0.307346
O O8 0.373093 0.624019 0.362850
O O9 0.855629 0.787135 0.100190
O O10 0.002429 0.737955 0.086504
O O11 0.000000 0.000000 0.000000
O O12 0.371244 0.693373 0.122946
O O13 0.463978 0.414296 0.375303
O O14 0.212029 0.566841 0.179318
O O15 0.000000 0.500000 0.500000
#
# Coordination Sequence:
#
# PCOD9229322 Si02
#       8
#     4   2   4   4   4   2   4   4
#     4  10  19  39  59  89 132 165 202 270 320 366
#     4  12  20  34  66  98 122 168 216 266 316 388
#     4  11  22  39  63  95 127 168 215 263 325 379
#     4   9  18  33  55  85 129 161 196 264 319 365
#     4  10  22  36  63  92 122 169 215 252 320 388
#     4  10  22  42  62  90 134 172 206 270 320 376
#     4  10  20  40  61  87 127 164 208 261 318 371
#     4  11  18  33  60  91 120 160 210 251 321 374
#
# _framework density 22.152283000000001
#
# number of rings (size 3 to 8) (size 9 to 14) (size 15 to 20)
#    0.000    1.714    4.286    2.571    0.000    0.571 
#    0.000   17.143    0.000    0.000    0.000    0.000 
#    0.000    0.000    0.000    0.000    0.000    0.000 
#
# Total GULP energy -155944.030426 kJ/mol
# GULP energy per Si atom -5569.429658 kJ/mol
# Density = 2.210186 g / cm^3
# Si number density = 22.152283 Si / 1000 Ang^3
#
#
#
# Elastic Constant Matrix: (Units=GPa)
#
#
# Indices 1 2 3 4 5 6 
#
# 1 68.7397 39.1379 50.3503 0.0000 20.4769 0.0000
# 2 39.1379 115.3883 41.1726 0.0000 34.6898 0.0000
# 3 50.3503 41.1726 130.6284 0.0000 23.5434 0.0000
# 4 0.0000 0.0000 0.0000 6.8797 0.0000 24.1544
# 5 20.4769 34.6898 23.5434 0.0000 53.1234 0.0000
# 6 0.0000 0.0000 0.0000 24.1544 0.0000 13.5186
#
#
#
# Elastic Compliance Matrix: (Units=1/GPa)
#
#
# Indices 1 2 3 4 5 6 
#
# 1 0.023044 -0.004468 -0.006955 0.000000 -0.002883 0.000000
# 2 -0.004468 0.012334 -0.001113 0.000000 -0.005839 0.000000
# 3 -0.006955 -0.001113 0.010947 0.000000 -0.001444 0.000000
# 4 0.000000 0.000000 0.000000 -0.027565 0.000000 0.049251
# 5 -0.002883 -0.005839 -0.001444 0.000000 0.024388 0.000000
# 6 0.000000 0.000000 0.000000 0.049251 0.000000 -0.014028
#
#
# Mechanical properties :
#
#
# Convention : Reuss Voigt Hill
#
# Bulk Modulus (GPa) = 47.04918 64.00866 55.52892
# Shear Modulus (GPa) = 81.59594 26.97740 54.28667
#
# Velocity S-wave (km/s) = 6.07569 3.49351 4.95574
# Velocity P-wave (km/s) = 8.39666 6.72535 7.60704
#
# Compressibility (1/GPa) = 0.02125436
#
# Stress axis : x y z
#
# Youngs Moduli (GPa) = 43.39442 81.07379 91.34933
#
# Poissons Ratio (x) = 0.36225 0.63529
# Poissons Ratio (y) = 0.19389 0.10168
# Poissons Ratio (z) = 0.30179 0.09024
#
# Static dielectric constant tensor:
#      x y z
#    x 1.832170 0.000000 -0.011340 
#    y 0.000000 2.121040 0.000000 
#    z -0.011340 0.000000 1.879360 
# 
# From -- ./inp_files/57499.got.cif
#   From: 2010.05.17/outbox.cif.g08.bks.cpg/sg13_29_cif.got.tgz:57499.got - 2010.06.03 16:44:36.
