data_PCOD9229644
_publ_section_title
;
Structure prediction by ZEFSAII (Michael W. Deem and Ramdas Pophale) SiO2 
 PCOD9229644
Probable space group: P 2/C
;
_chemical_formula_sum "Si O2"
_cell_formula_units_Z 30
_cell_length_a 6.763236
_cell_length_b 10.799020
_cell_length_c 21.141557
_cell_angle_alpha 90.000000
_cell_angle_beta 88.008810
_cell_angle_gamma 90.000000
_cell_volume 1543.169183
_symmetry_space_group_name_H-M "P 2/C"
_symmetry_group_IT_number 13
_symmetry_cell_setting 'monoclinic'
loop_
_space_group_symop_operation_xyz
x,y,z
-x,y,1/2-z
-x,-y,-z
x,-y,1/2+z
loop_
_atom_site_type_symbol
_atom_site_label
_atom_site_fract_x
_atom_site_fract_y
_atom_site_fract_z
Si Si1 0.338584 0.001348 0.828465
Si Si2 0.693697 0.606146 0.929773
Si Si3 0.410966 0.336421 0.533654
Si Si4 0.448716 0.286113 0.320974
Si Si5 0.000000 0.878793 0.250000
Si Si6 0.279900 0.142435 0.640825
Si Si7 0.112829 0.322304 0.418576
Si Si8 0.987276 0.963038 0.572624
O O1 0.414458 0.861716 0.819493
O O2 0.220800 0.009277 0.895998
O O3 0.169685 0.036887 0.780046
O O4 0.524295 0.091988 0.827192
O O5 0.592365 0.471857 0.935051
O O6 0.618901 0.677803 0.868750
O O7 0.927306 0.588368 0.925593
O O8 0.618096 0.677944 0.993633
O O9 0.350168 0.237192 0.586450
O O10 0.252022 0.331927 0.478301
O O11 0.500000 0.329257 0.250000
O O12 0.249038 0.339154 0.355395
O O13 0.880819 0.807470 0.306469
O O14 0.165131 0.028409 0.608426
O O15 0.020021 0.184336 0.418374
O O16 0.000000 0.000000 0.500000
#
# Coordination Sequence:
#
# PCOD9229644 Si02
#       8
#     4   4   4   4   2   4   4   4
#     4  10  22  37  59  84 118 155 179 232 290 341
#     4  10  22  39  58  83 111 151 197 234 284 337
#     4  10  22  38  58  84 114 149 193 237 282 341
#     4  10  21  38  57  84 113 147 194 232 278 342
#     4  10  22  38  54  86 114 146 200 222 280 364
#     4  11  21  36  58  82 119 154 185 234 291 331
#     4  10  20  37  58  84 116 151 183 238 288 330
#     4  10  20  33  53  92 119 141 191 228 278 356
#
# _framework density 19.440515000000001
#
# number of rings (size 3 to 8) (size 9 to 14) (size 15 to 20)
#    0.000    1.867    1.333    2.400    1.867    3.200 
#    0.000    2.667    0.000    0.000    0.000    0.933 
#    0.000    0.000    0.000    0.000    0.000    0.000 
#
# Total GULP energy -167403.943338 kJ/mol
# GULP energy per Si atom -5580.131445 kJ/mol
# Density = 1.939627 g / cm^3
# Si number density = 19.440515 Si / 1000 Ang^3
#
#
#
# Elastic Constant Matrix: (Units=GPa)
#
#
# Indices 1 2 3 4 5 6 
#
# 1 106.7332 16.3352 54.4994 0.0000 -5.4498 0.0000
# 2 16.3352 36.6805 22.3165 0.0000 -2.3372 0.0000
# 3 54.4994 22.3165 138.3178 0.0000 -23.0781 0.0000
# 4 0.0000 0.0000 0.0000 10.7051 0.0000 -6.0345
# 5 -5.4498 -2.3372 -23.0781 0.0000 26.5999 0.0000
# 6 0.0000 0.0000 0.0000 -6.0345 0.0000 21.2006
#
#
#
# Elastic Compliance Matrix: (Units=1/GPa)
#
#
# Indices 1 2 3 4 5 6 
#
# 1 0.012041 -0.002671 -0.004608 0.000000 -0.001766 0.000000
# 2 -0.002671 0.030900 -0.004176 0.000000 -0.001455 0.000000
# 3 -0.004608 -0.004176 0.011108 0.000000 0.008327 0.000000
# 4 0.000000 0.000000 0.000000 0.111266 0.000000 0.031670
# 5 -0.001766 -0.001455 0.008327 0.000000 0.044329 0.000000
# 6 0.000000 0.000000 0.000000 0.031670 0.000000 0.056183
#
#
# Mechanical properties :
#
#
# Convention : Reuss Voigt Hill
#
# Bulk Modulus (GPa) = 32.11384 52.00375 42.05879
# Shear Modulus (GPa) = 16.71596 24.27316 20.49456
#
# Velocity S-wave (km/s) = 2.93550 3.53737 3.25040
# Velocity P-wave (km/s) = 5.29570 6.59486 5.98066
#
# Compressibility (1/GPa) = 0.03113923
#
# Stress axis : x y z
#
# Youngs Moduli (GPa) = 83.05213 32.36262 90.02289
#
# Poissons Ratio (x) = 0.08645 0.41481
# Poissons Ratio (y) = 0.22185 0.37591
# Poissons Ratio (z) = 0.38269 0.13514
#
# Static dielectric constant tensor:
#      x y z
#    x 1.710960 0.000000 -0.038150 
#    y 0.000000 1.664790 0.000000 
#    z -0.038150 0.000000 1.703500 
# 
# From -- ./inp_files/73643.got.cif
#   From: 2010.05.17/outbox.cif.g08.bks.cpg/sg13_37_cif.got.tgz:73643.got - 2010.06.03 16:44:36.
