data_PCOD9229858
_publ_section_title
;
Structure prediction by ZEFSAII (Michael W. Deem and Ramdas Pophale) SiO2 
 PCOD9229858
Probable space group: P 2/C
;
_chemical_formula_sum "Si O2"
_cell_formula_units_Z 28
_cell_length_a 29.706187
_cell_length_b 7.718633
_cell_length_c 9.260702
_cell_angle_alpha 90.000000
_cell_angle_beta 38.793020
_cell_angle_gamma 90.000000
_cell_volume 1330.327081
_symmetry_space_group_name_H-M "P 2/C"
_symmetry_group_IT_number 13
_symmetry_cell_setting 'monoclinic'
loop_
_space_group_symop_operation_xyz
x,y,z
-x,y,1/2-z
-x,-y,-z
x,-y,1/2+z
loop_
_atom_site_type_symbol
_atom_site_label
_atom_site_fract_x
_atom_site_fract_y
_atom_site_fract_z
Si Si1 0.698106 0.533243 0.082951
Si Si2 0.500000 0.032348 0.750000
Si Si3 0.410243 0.165356 0.714317
Si Si4 0.903121 0.417683 0.744662
Si Si5 0.785928 0.332868 0.620044
Si Si6 0.737500 0.007367 0.395909
Si Si7 0.000000 0.439274 0.750000
Si Si8 0.242164 0.775038 0.907389
O O1 0.628169 0.647609 0.217291
O O2 0.744918 0.654629 0.070980
O O3 0.695974 0.354030 0.185460
O O4 0.742351 0.463539 0.834866
O O5 0.460915 0.151886 0.727694
O O6 0.550583 0.906336 0.526852
O O7 0.348040 0.024559 0.905339
O O8 0.945666 0.341909 0.776532
O O9 0.954013 0.451735 0.481324
O O10 0.866008 0.596389 0.893629
O O11 0.834320 0.309621 0.867363
O O12 0.776706 0.150485 0.718207
O O13 0.749937 0.955699 0.529228
O O14 0.760554 0.178694 0.253902
#
# Coordination Sequence:
#
# PCOD9229858 Si02
#       8
#     4   2   4   4   4   4   2   4
#     4  10  20  35  60  86 117 147 191 250 297 341
#     4  10  24  38  62  88 126 170 198 232 278 368
#     4  11  21  40  61  88 121 160 199 232 294 358
#     4  10  20  37  57  88 120 157 209 240 291 354
#     4  10  20  35  60  93 118 145 194 262 303 343
#     4  11  21  36  64  89 116 150 189 254 319 349
#     4  10  20  34  60  80 120 174 200 234 278 364
#     4  10  22  37  61  93 117 146 195 262 310 350
#
# _framework density 21.047454999999999
#
# number of rings (size 3 to 8) (size 9 to 14) (size 15 to 20)
#    0.000    1.714    0.000    6.857    0.000    2.286 
#    0.000    0.000    0.000   72.857    0.000    0.000 
#    0.000    0.000    0.000    0.000    0.000    0.000 
#
# Total GULP energy -155934.914292 kJ/mol
# GULP energy per Si atom -5569.104082 kJ/mol
# Density = 2.099955 g / cm^3
# Si number density = 21.047455 Si / 1000 Ang^3
#
#
#
# Elastic Constant Matrix: (Units=GPa)
#
#
# Indices 1 2 3 4 5 6 
#
# 1 125.1555 35.5552 20.0361 0.0000 12.3850 0.0000
# 2 35.5552 104.3371 25.0079 0.0000 1.0138 0.0000
# 3 20.0361 25.0079 102.0315 0.0000 5.4248 0.0000
# 4 0.0000 0.0000 0.0000 20.9805 0.0000 15.3580
# 5 12.3850 1.0138 5.4248 0.0000 36.4186 0.0000
# 6 0.0000 0.0000 0.0000 15.3580 0.0000 27.6273
#
#
#
# Elastic Compliance Matrix: (Units=1/GPa)
#
#
# Indices 1 2 3 4 5 6 
#
# 1 0.009255 -0.002897 -0.000952 0.000000 -0.002925 0.000000
# 2 -0.002897 0.011090 -0.002203 0.000000 0.001005 0.000000
# 3 -0.000952 -0.002203 0.010591 0.000000 -0.001193 0.000000
# 4 0.000000 0.000000 0.000000 0.080367 0.000000 -0.044676
# 5 -0.002925 0.001005 -0.001193 0.000000 0.028603 0.000000
# 6 0.000000 0.000000 0.000000 -0.044676 0.000000 0.061032
#
#
# Mechanical properties :
#
#
# Convention : Reuss Voigt Hill
#
# Bulk Modulus (GPa) = 53.09961 54.74694 53.92328
# Shear Modulus (GPa) = 22.79793 33.73359 28.26576
#
# Velocity S-wave (km/s) = 3.29472 4.00777 3.66861
# Velocity P-wave (km/s) = 6.30531 6.89086 6.60457
#
# Compressibility (1/GPa) = 0.01883253
#
# Stress axis : x y z
#
# Youngs Moduli (GPa) = 108.05020 90.17303 94.41934
#
# Poissons Ratio (x) = 0.26126 0.08987
# Poissons Ratio (y) = 0.31305 0.20797
# Poissons Ratio (z) = 0.10284 0.19861
#
# Static dielectric constant tensor:
#      x y z
#    x 1.818310 0.000000 0.036240 
#    y 0.000000 1.812620 0.000000 
#    z 0.036240 0.000000 1.822830 
# 
# From -- ./inp_files/24569.got.cif
#   From: 2010.05.17/outbox.cif.g08.bks.cpg/sg13_13_cif.got.tgz:24569.got - 2010.06.03 16:44:36.
