data_PCOD9229587
_publ_section_title
;
Structure prediction by ZEFSAII (Michael W. Deem and Ramdas Pophale) SiO2 
 PCOD9229587
Probable space group: P 2/C
;
_chemical_formula_sum "Si O2"
_cell_formula_units_Z 20
_cell_length_a 7.482924
_cell_length_b 7.637822
_cell_length_c 14.047942
_cell_angle_alpha 90.000000
_cell_angle_beta 77.461169
_cell_angle_gamma 90.000000
_cell_volume 783.735879
_symmetry_space_group_name_H-M "P 2/C"
_symmetry_group_IT_number 13
_symmetry_cell_setting 'monoclinic'
loop_
_space_group_symop_operation_xyz
x,y,z
-x,y,1/2-z
-x,-y,-z
x,-y,1/2+z
loop_
_atom_site_type_symbol
_atom_site_label
_atom_site_fract_x
_atom_site_fract_y
_atom_site_fract_z
Si Si1 0.192925 0.040018 0.206709
Si Si2 0.502226 0.209758 0.865330
Si Si3 0.961049 0.330870 0.407975
Si Si4 0.740972 0.093550 0.082199
Si Si5 0.310376 0.455951 0.433067
O O1 0.139315 0.217632 0.159606
O O2 0.271667 0.088222 0.300668
O O3 0.000000 0.946124 0.250000
O O4 0.320230 0.907865 0.134575
O O5 0.500000 0.212582 0.750000
O O6 0.470969 0.409237 0.896342
O O7 0.335529 0.097016 0.930550
O O8 0.818793 0.463147 0.470571
O O9 0.057709 0.175257 0.461283
O O10 0.152221 0.438096 0.367869
O O11 0.619397 0.258042 0.061922
#
# Coordination Sequence:
#
# PCOD9229587 Si02
#       5
#     4   4   4   4   4
#     4   9  17  34  58  77 113 155 183 240 291 325
#     4  10  20  32  56  81 106 149 196 227 282 343
#     4   8  17  35  56  77 114 148 184 232 288 333
#     4   8  17  34  56  75 110 149 184 229 284 335
#     4   9  18  34  57  79 111 149 188 231 281 347
#
# _framework density 25.518798
#
# number of rings (size 3 to 8) (size 9 to 14) (size 15 to 20)
#    1.200    2.000    0.000    0.000    0.000    4.000 
#    0.000    1.000   48.400    0.000    0.000    0.000 
#    0.000    0.000    0.000    0.000    0.000    0.000 
#
# Total GULP energy -111370.165850 kJ/mol
# GULP energy per Si atom -5568.508292 kJ/mol
# Density = 2.546072 g / cm^3
# Si number density = 25.518798 Si / 1000 Ang^3
#
#
#
# Elastic Constant Matrix: (Units=GPa)
#
#
# Indices 1 2 3 4 5 6 
#
# 1 82.5277 29.7320 31.0809 0.0000 -8.3084 0.0000
# 2 29.7320 149.8405 39.1301 0.0000 1.3771 0.0000
# 3 31.0809 39.1301 43.0278 0.0000 -10.2366 0.0000
# 4 0.0000 0.0000 0.0000 21.7566 0.0000 -0.4462
# 5 -8.3084 1.3771 -10.2366 0.0000 33.5218 0.0000
# 6 0.0000 0.0000 0.0000 -0.4462 0.0000 41.9046
#
#
#
# Elastic Compliance Matrix: (Units=1/GPa)
#
#
# Indices 1 2 3 4 5 6 
#
# 1 0.016661 -0.000268 -0.011652 0.000000 0.000582 0.000000
# 2 -0.000268 0.009047 -0.008776 0.000000 -0.003118 0.000000
# 3 -0.011652 -0.008776 0.042096 0.000000 0.010327 0.000000
# 4 0.000000 0.000000 0.000000 0.045973 0.000000 0.000490
# 5 0.000582 -0.003118 0.010327 0.000000 0.033257 0.000000
# 6 0.000000 0.000000 0.000000 0.000490 0.000000 0.023869
#
#
# Mechanical properties :
#
#
# Convention : Reuss Voigt Hill
#
# Bulk Modulus (GPa) = 37.86326 52.80913 45.33620
# Shear Modulus (GPa) = 22.61417 31.13346 26.87381
#
# Velocity S-wave (km/s) = 2.98010 3.49667 3.24867
# Velocity P-wave (km/s) = 5.16826 6.08616 5.64590
#
# Compressibility (1/GPa) = 0.02641083
#
# Stress axis : x y z
#
# Youngs Moduli (GPa) = 60.02100 110.52856 23.75536
#
# Poissons Ratio (x) = 0.02965 0.27681
# Poissons Ratio (y) = 0.01610 0.20847
# Poissons Ratio (z) = 0.69939 0.96999
#
# Static dielectric constant tensor:
#      x y z
#    x 2.165290 0.000000 0.136760 
#    y 0.000000 2.023000 0.000000 
#    z 0.136760 0.000000 2.235100 
# 
# From -- ./inp_files/74806.got.cif
#   From: 2010.05.17/outbox.cif.g08.bks.cpg/sg13_38_cif.got.tgz:74806.got - 2010.06.03 16:44:36.
