data_PCOD9229695
_publ_section_title
;
Structure prediction by ZEFSAII (Michael W. Deem and Ramdas Pophale) SiO2 
 PCOD9229695
Probable space group: P 2/C
;
_chemical_formula_sum "Si O2"
_cell_formula_units_Z 30
_cell_length_a 29.405989
_cell_length_b 11.200477
_cell_length_c 13.916994
_cell_angle_alpha 90.000000
_cell_angle_beta 19.415589
_cell_angle_gamma 90.000000
_cell_volume 1523.708730
_symmetry_space_group_name_H-M "P 2/C"
_symmetry_group_IT_number 13
_symmetry_cell_setting 'monoclinic'
loop_
_space_group_symop_operation_xyz
x,y,z
-x,y,1/2-z
-x,-y,-z
x,-y,1/2+z
loop_
_atom_site_type_symbol
_atom_site_label
_atom_site_fract_x
_atom_site_fract_y
_atom_site_fract_z
Si Si1 0.500000 0.048883 0.750000
Si Si2 0.803939 0.484076 0.312149
Si Si3 0.580120 0.686401 0.489107
Si Si4 0.426924 0.094659 0.213720
Si Si5 0.848448 0.625792 0.045314
Si Si6 0.508927 0.424058 0.848776
Si Si7 0.686767 0.793328 0.733432
Si Si8 0.100076 0.603448 0.182799
O O1 0.609240 0.126130 0.468941
O O2 0.584066 0.968321 0.659994
O O3 0.664130 0.413800 0.574992
O O4 0.834579 0.542782 0.352992
O O5 0.794069 0.597160 0.259317
O O6 0.936906 0.403652 0.022841
O O7 0.500000 0.692381 0.750000
O O8 0.526410 0.793691 0.533291
O O9 0.545667 0.555799 0.516573
O O10 0.739726 0.693719 0.197513
O O11 0.306088 0.142087 0.384922
O O12 0.500000 0.000000 0.000000
O O13 0.862948 0.492682 0.972306
O O14 0.000000 0.678422 0.750000
O O15 0.500000 0.417509 0.750000
O O16 0.413746 0.320216 0.076663
O O17 0.830590 0.731018 0.473887
#
# Coordination Sequence:
#
# PCOD9229695 Si02
#       8
#     2   4   4   4   4   4   4   4
#     4  10  22  42  56  84 118 148 210 270 288 344
#     4  10  20  34  50  80 139 154 182 227 284 383
#     4  11  19  33  59  85 119 152 189 245 293 359
#     4  10  23  38  56  86 112 156 202 253 302 334
#     4  10  20  34  51  84 129 161 186 223 299 376
#     4  11  19  32  56  96 122 148 185 241 310 357
#     4  11  21  35  62  86 119 152 197 250 300 364
#     4  10  21  34  53  86 121 166 187 224 297 372
#
# _framework density 19.688803
#
# number of rings (size 3 to 8) (size 9 to 14) (size 15 to 20)
#    0.000    1.600    5.333    0.800    1.867    1.067 
#    0.000    0.000    0.000    0.000    6.933    5.600 
#    0.000    0.000    0.000    0.000    0.000    0.000 
#
# Total GULP energy -167373.441424 kJ/mol
# GULP energy per Si atom -5579.114714 kJ/mol
# Density = 1.964399 g / cm^3
# Si number density = 19.688803 Si / 1000 Ang^3
#
#
#
# Elastic Constant Matrix: (Units=GPa)
#
#
# Indices 1 2 3 4 5 6 
#
# 1 113.0168 32.4914 24.0355 0.0000 -0.7340 0.0000
# 2 32.4914 81.4195 18.3647 0.0000 0.6706 0.0000
# 3 24.0355 18.3647 89.0079 0.0000 -19.4827 0.0000
# 4 0.0000 0.0000 0.0000 14.7812 0.0000 -3.6567
# 5 -0.7340 0.6706 -19.4827 0.0000 29.5754 0.0000
# 6 0.0000 0.0000 0.0000 -3.6567 0.0000 33.3720
#
#
#
# Elastic Compliance Matrix: (Units=1/GPa)
#
#
# Indices 1 2 3 4 5 6 
#
# 1 0.010370 -0.003606 -0.002316 0.000000 -0.001186 0.000000
# 2 -0.003606 0.014281 -0.002411 0.000000 -0.002002 0.000000
# 3 -0.002316 -0.002411 0.014439 0.000000 0.009509 0.000000
# 4 0.000000 0.000000 0.000000 0.069538 0.000000 0.007620
# 5 -0.001186 -0.002002 0.009509 0.000000 0.040092 0.000000
# 6 0.000000 0.000000 0.000000 0.007620 0.000000 0.030800
#
#
# Mechanical properties :
#
#
# Convention : Reuss Voigt Hill
#
# Bulk Modulus (GPa) = 44.59409 48.13637 46.36523
# Shear Modulus (GPa) = 24.55056 29.44924 26.99990
#
# Velocity S-wave (km/s) = 3.53502 3.87167 3.70717
# Velocity P-wave (km/s) = 6.27379 6.66994 6.47490
#
# Compressibility (1/GPa) = 0.02242450
#
# Stress axis : x y z
#
# Youngs Moduli (GPa) = 96.43418 70.02116 69.25604
#
# Poissons Ratio (x) = 0.25250 0.16039
# Poissons Ratio (y) = 0.34775 0.16697
# Poissons Ratio (z) = 0.22333 0.16882
#
# Static dielectric constant tensor:
#      x y z
#    x 1.793440 0.000000 0.019060 
#    y 0.000000 1.691530 0.000000 
#    z 0.019060 0.000000 1.736190 
# 
# From -- ./inp_files/59979.got.cif
#   From: 2010.05.17/outbox.cif.g08.bks.cpg/sg13_30_cif.got.tgz:59979.got - 2010.06.03 16:44:36.
