data_PCOD9229538
_publ_section_title
;
Structure prediction by ZEFSAII (Michael W. Deem and Ramdas Pophale) SiO2 
 PCOD9229538
Probable space group: P 2/C
;
_chemical_formula_sum "Si O2"
_cell_formula_units_Z 16
_cell_length_a 8.053315
_cell_length_b 19.364572
_cell_length_c 5.238405
_cell_angle_alpha 90.000000
_cell_angle_beta 58.472925
_cell_angle_gamma 90.000000
_cell_volume 696.340443
_symmetry_space_group_name_H-M "P 2/C"
_symmetry_group_IT_number 13
_symmetry_cell_setting 'monoclinic'
loop_
_space_group_symop_operation_xyz
x,y,z
-x,y,1/2-z
-x,-y,-z
x,-y,1/2+z
loop_
_atom_site_type_symbol
_atom_site_label
_atom_site_fract_x
_atom_site_fract_y
_atom_site_fract_z
Si Si1 0.134661 0.323962 0.389852
Si Si2 0.724114 0.530138 0.609213
Si Si3 0.136392 0.172387 0.390368
Si Si4 0.235199 0.033299 0.520723
O O1 0.267405 0.391066 0.307236
O O2 0.231428 0.248055 0.286564
O O3 0.000000 0.331514 0.250000
O O4 0.000000 0.324175 0.750000
O O5 0.500000 0.509033 0.750000
O O6 0.811231 0.518314 0.259182
O O7 0.267140 0.106624 0.355624
O O8 0.000000 0.159583 0.250000
O O9 0.000000 0.177854 0.750000
O O10 0.000000 0.027130 0.750000
O O11 0.303839 0.977960 0.254526
#
# Coordination Sequence:
#
# PCOD9229538 Si02
#       4
#     4   4   4   4
#     4  10  20  32  48  70  95 122 151 187 229 272
#     4  10  21  36  52  70  93 120 151 189 229 270
#     4   9  16  25  36  55  84 113 142 178 218 257
#     4   9  14  20  32  50  75 110 144 171 207 256
#
# _framework density 22.977267999999999
#
# number of rings (size 3 to 8) (size 9 to 14) (size 15 to 20)
#    0.000    2.500    0.000    5.250    0.000    3.000 
#    0.000    0.000    0.000    0.000    0.000    0.000 
#    0.000    2.000    0.000    0.000    0.000   81.000 
#
# Total GULP energy -89223.616865 kJ/mol
# GULP energy per Si atom -5576.476054 kJ/mol
# Density = 2.292497 g / cm^3
# Si number density = 22.977268 Si / 1000 Ang^3
#
#
#
# Elastic Constant Matrix: (Units=GPa)
#
#
# Indices 1 2 3 4 5 6 
#
# 1 78.1253 29.5439 50.5799 0.0000 33.5378 0.0000
# 2 29.5439 160.6024 18.8678 0.0000 39.8476 0.0000
# 3 50.5799 18.8678 96.4116 0.0000 46.6046 0.0000
# 4 0.0000 0.0000 0.0000 26.3911 0.0000 22.9342
# 5 33.5378 39.8476 46.6046 0.0000 50.8646 0.0000
# 6 0.0000 0.0000 0.0000 22.9342 0.0000 -19.0532
#
#
#
# Elastic Compliance Matrix: (Units=1/GPa)
#
#
# Indices 1 2 3 4 5 6 
#
# 1 0.020877 -0.001654 -0.008259 0.000000 -0.004902 0.000000
# 2 -0.001654 0.008222 0.003312 0.000000 -0.008386 0.000000
# 3 -0.008259 0.003312 0.022759 0.000000 -0.018002 0.000000
# 4 0.000000 0.000000 0.000000 0.018520 0.000000 0.022292
# 5 -0.004902 -0.008386 -0.018002 0.000000 0.045956 0.000000
# 6 0.000000 0.000000 0.000000 0.022292 0.000000 -0.025652
#
#
# Mechanical properties :
#
#
# Convention : Reuss Voigt Hill
#
# Bulk Modulus (GPa) = 25.86914 59.23583 42.55248
# Shear Modulus (GPa) = 42.81966 27.38370 35.10168
#
# Velocity S-wave (km/s) = 4.32159 3.45595 3.91278
# Velocity P-wave (km/s) = 6.01536 6.46227 6.24281
#
# Compressibility (1/GPa) = 0.03865610
#
# Stress axis : x y z
#
# Youngs Moduli (GPa) = 47.89960 121.62118 43.93883
#
# Poissons Ratio (x) = 0.20114 0.36290
# Poissons Ratio (y) = 0.07922 -0.14553
# Poissons Ratio (z) = 0.39561 -0.40282
#
# Static dielectric constant tensor:
#      x y z
#    x 1.872460 0.000000 -0.010630 
#    y 0.000000 1.931090 0.000000 
#    z -0.010630 0.000000 1.883540 
# 
# From -- ./inp_files/1287.got.cif
#   From: 2010.05.17/outbox.cif.g08.bks.cpg/sg13_1_cif.got.tgz:1287.got - 2010.06.03 16:44:36.
