data_PCOD9229269
_publ_section_title
;
Structure prediction by ZEFSAII (Michael W. Deem and Ramdas Pophale) SiO2 
 PCOD9229269
Probable space group: P 2/C
;
_chemical_formula_sum "Si O2"
_cell_formula_units_Z 24
_cell_length_a 15.224136
_cell_length_b 6.864219
_cell_length_c 16.396114
_cell_angle_alpha 90.000000
_cell_angle_beta 35.296591
_cell_angle_gamma 90.000000
_cell_volume 990.031621
_symmetry_space_group_name_H-M "P 2/C"
_symmetry_group_IT_number 13
_symmetry_cell_setting 'monoclinic'
loop_
_space_group_symop_operation_xyz
x,y,z
-x,y,1/2-z
-x,-y,-z
x,-y,1/2+z
loop_
_atom_site_type_symbol
_atom_site_label
_atom_site_fract_x
_atom_site_fract_y
_atom_site_fract_z
Si Si1 0.346875 0.761583 0.037438
Si Si2 0.618093 0.288340 0.229173
Si Si3 0.846324 0.104639 0.337356
Si Si4 0.880296 0.640730 0.164775
Si Si5 0.174677 0.502787 0.541232
Si Si6 0.882265 0.197087 0.119383
O O1 0.274045 0.721409 0.180204
O O2 0.308642 0.983027 0.042751
O O3 0.515082 0.693282 0.888326
O O4 0.236749 0.637642 0.063453
O O5 0.500000 0.212877 0.250000
O O6 0.694616 0.475625 0.126710
O O7 0.752088 0.140946 0.153477
O O8 0.839999 0.289764 0.402822
O O9 0.871667 0.140683 0.221510
O O10 0.000000 0.995326 0.250000
O O11 0.850211 0.432114 0.148179
O O12 0.017203 0.580836 0.123850
O O13 0.953240 0.800384 0.048437
#
# Coordination Sequence:
#
# PCOD9229269 Si02
#       6
#     4   4   4   4   4   4
#     4  11  22  38  63  93 131 171 205 260 321 380
#     4   9  22  42  63  85 126 172 210 252 315 379
#     4  12  22  37  68 103 127 161 220 269 318 375
#     4  10  19  38  64  91 127 163 213 265 313 374
#     4  10  19  42  64  88 128 168 210 261 311 373
#     4  10  21  37  67  92 123 171 212 257 320 378
#
# _framework density 24.241651999999998
#
# number of rings (size 3 to 8) (size 9 to 14) (size 15 to 20)
#    0.000    1.667    3.333    1.500    0.000    2.000 
#    0.000    7.500    0.000    0.000    0.000    0.000 
#    0.000    0.000    0.000    0.000    0.000    0.000 
#
# Total GULP energy -133840.927459 kJ/mol
# GULP energy per Si atom -5576.705311 kJ/mol
# Density = 2.418648 g / cm^3
# Si number density = 24.241652 Si / 1000 Ang^3
#
#
#
# Elastic Constant Matrix: (Units=GPa)
#
#
# Indices 1 2 3 4 5 6 
#
# 1 72.7141 -8.5086 6.6184 0.0000 -9.7690 0.0000
# 2 -8.5086 27.5935 22.0610 0.0000 5.8515 0.0000
# 3 6.6184 22.0610 214.6029 0.0000 8.4487 0.0000
# 4 0.0000 0.0000 0.0000 23.7569 0.0000 0.3176
# 5 -9.7690 5.8515 8.4487 0.0000 20.5371 0.0000
# 6 0.0000 0.0000 0.0000 0.3176 0.0000 20.4703
#
#
#
# Elastic Compliance Matrix: (Units=1/GPa)
#
#
# Indices 1 2 3 4 5 6 
#
# 1 0.015230 0.004244 -0.001162 0.000000 0.006513 0.000000
# 2 0.004244 0.042682 -0.004187 0.000000 -0.008420 0.000000
# 3 -0.001162 -0.004187 0.005185 0.000000 -0.001493 0.000000
# 4 0.000000 0.000000 0.000000 0.042102 0.000000 -0.000653
# 5 0.006513 -0.008420 -0.001493 0.000000 0.054804 0.000000
# 6 0.000000 0.000000 0.000000 -0.000653 0.000000 0.048861
#
#
# Mechanical properties :
#
#
# Convention : Reuss Voigt Hill
#
# Bulk Modulus (GPa) = 16.42391 39.47246 27.94818
# Shear Modulus (GPa) = 21.61039 32.60217 27.10628
#
# Velocity S-wave (km/s) = 2.98897 3.67124 3.34753
# Velocity P-wave (km/s) = 4.32454 5.85568 5.14736
#
# Compressibility (1/GPa) = 0.06088685
#
# Stress axis : x y z
#
# Youngs Moduli (GPa) = 65.65979 23.42888 192.87047
#
# Poissons Ratio (x) = -0.09944 0.22420
# Poissons Ratio (y) = -0.27869 0.80757
# Poissons Ratio (z) = 0.07633 0.09810
#
# Static dielectric constant tensor:
#      x y z
#    x 1.976740 0.000000 0.050770 
#    y 0.000000 1.995270 0.000000 
#    z 0.050770 0.000000 2.066010 
# 
# From -- ./inp_files/69424.got.cif
#   From: 2010.05.17/outbox.cif.g08.bks.cpg/sg13_35_cif.got.tgz:69424.got - 2010.06.03 16:44:36.
