data_PCOD9229175
_publ_section_title
;
Structure prediction by ZEFSAII (Michael W. Deem and Ramdas Pophale) SiO2 
 PCOD9229175
Probable space group: P 2/C
;
_chemical_formula_sum "Si O2"
_cell_formula_units_Z 28
_cell_length_a 8.803781
_cell_length_b 14.837595
_cell_length_c 20.715200
_cell_angle_alpha 90.000000
_cell_angle_beta 149.912224
_cell_angle_gamma 90.000000
_cell_volume 1356.570066
_symmetry_space_group_name_H-M "P 2/C"
_symmetry_group_IT_number 13
_symmetry_cell_setting 'monoclinic'
loop_
_space_group_symop_operation_xyz
x,y,z
-x,y,1/2-z
-x,-y,-z
x,-y,1/2+z
loop_
_atom_site_type_symbol
_atom_site_label
_atom_site_fract_x
_atom_site_fract_y
_atom_site_fract_z
Si Si1 0.080579 0.697000 0.964691
Si Si2 0.406498 0.918276 0.010205
Si Si3 0.733942 0.780955 0.202679
Si Si4 0.343747 0.781944 0.871224
Si Si5 0.861820 0.493205 0.377257
Si Si6 0.756430 0.875280 0.795658
Si Si7 0.946675 0.313945 0.567867
O O1 0.985454 0.602369 0.898208
O O2 0.869634 0.776664 0.860819
O O3 0.431321 0.721218 0.083682
O O4 0.024532 0.694276 0.021078
O O5 0.405764 0.833593 0.960524
O O6 0.064416 0.932315 0.908505
O O7 0.625728 0.883566 0.147790
O O8 0.500000 0.000000 0.000000
O O9 0.000000 0.758673 0.250000
O O10 0.867635 0.758512 0.321914
O O11 0.355574 0.856476 0.818188
O O12 0.000000 0.747526 0.750000
O O13 0.594845 0.707763 0.949388
O O14 0.500000 0.490476 0.250000
O O15 0.000000 0.500000 0.500000
O O16 0.961808 0.584563 0.378419
O O17 0.500000 0.907955 0.750000
#
# Coordination Sequence:
#
# PCOD9229175 Si02
#       7
#     4   4   4   4   4   4   4
#     4  10  21  37  64  91 122 169 217 257 311 375
#     4  10  23  43  67  88 121 168 210 255 324 402
#     4  11  22  39  62  91 128 168 212 257 336 388
#     4  10  21  38  61  91 122 164 205 253 325 388
#     4  10  21  36  59  94 128 169 216 267 315 377
#     4  10  19  37  66  91 118 158 211 263 308 376
#     4  11  20  38  62  90 130 161 215 261 314 383
#
# _framework density 20.64029
#
# number of rings (size 3 to 8) (size 9 to 14) (size 15 to 20)
#    0.000    1.714    2.857    2.571    2.000    1.714 
#    0.000    2.143    3.143    0.000    0.000    0.000 
#    0.000    0.000    0.000    0.000    0.000    0.000 
#
# Total GULP energy -156341.817246 kJ/mol
# GULP energy per Si atom -5583.636330 kJ/mol
# Density = 2.059331 g / cm^3
# Si number density = 20.640290 Si / 1000 Ang^3
#
#
#
# Elastic Constant Matrix: (Units=GPa)
#
#
# Indices 1 2 3 4 5 6 
#
# 1 117.4347 28.4204 41.1083 0.0000 30.5671 0.0000
# 2 28.4204 81.1495 32.5151 0.0000 20.4317 0.0000
# 3 41.1083 32.5151 97.5298 0.0000 20.1698 0.0000
# 4 0.0000 0.0000 0.0000 11.3388 0.0000 -7.9124
# 5 30.5671 20.4317 20.1698 0.0000 57.3082 0.0000
# 6 0.0000 0.0000 0.0000 -7.9124 0.0000 15.4086
#
#
#
# Elastic Compliance Matrix: (Units=1/GPa)
#
#
# Indices 1 2 3 4 5 6 
#
# 1 0.011145 -0.001506 -0.003319 0.000000 -0.004240 0.000000
# 2 -0.001506 0.015180 -0.003745 0.000000 -0.003290 0.000000
# 3 -0.003319 -0.003745 0.013221 0.000000 -0.001548 0.000000
# 4 0.000000 0.000000 0.000000 0.137442 0.000000 0.070576
# 5 -0.004240 -0.003290 -0.001548 0.000000 0.021429 0.000000
# 6 0.000000 0.000000 0.000000 0.070576 0.000000 0.101140
#
#
# Mechanical properties :
#
#
# Convention : Reuss Voigt Hill
#
# Bulk Modulus (GPa) = 44.63269 55.57796 50.10533
# Shear Modulus (GPa) = 15.42428 29.74914 22.58671
#
# Velocity S-wave (km/s) = 2.73663 3.80058 3.31161
# Velocity P-wave (km/s) = 5.62641 6.80034 6.24104
#
# Compressibility (1/GPa) = 0.02240510
#
# Stress axis : x y z
#
# Youngs Moduli (GPa) = 89.72548 65.87814 75.63829
#
# Poissons Ratio (x) = 0.09922 0.25102
# Poissons Ratio (y) = 0.13513 0.28329
# Poissons Ratio (z) = 0.29777 0.24674
#
# Static dielectric constant tensor:
#      x y z
#    x 1.734850 0.000000 -0.022320 
#    y 0.000000 1.779790 0.000000 
#    z -0.022320 0.000000 1.779340 
# 
# From -- ./inp_files/76741.got.cif
#   From: 2010.05.17/outbox.cif.g08.bks.cpg/sg13_39_cif.got.tgz:76741.got - 2010.06.03 16:44:36.
