data_PCOD9229643
_publ_section_title
;
Structure prediction by ZEFSAII (Michael W. Deem and Ramdas Pophale) SiO2 
 PCOD9229643
Probable space group: P 2/C
;
_chemical_formula_sum "Si O2"
_cell_formula_units_Z 32
_cell_length_a 10.687735
_cell_length_b 9.735539
_cell_length_c 27.486320
_cell_angle_alpha 90.000000
_cell_angle_beta 31.178521
_cell_angle_gamma 90.000000
_cell_volume 1480.627252
_symmetry_space_group_name_H-M "P 2/C"
_symmetry_group_IT_number 13
_symmetry_cell_setting 'monoclinic'
loop_
_space_group_symop_operation_xyz
x,y,z
-x,y,1/2-z
-x,-y,-z
x,-y,1/2+z
loop_
_atom_site_type_symbol
_atom_site_label
_atom_site_fract_x
_atom_site_fract_y
_atom_site_fract_z
Si Si1 0.955539 0.800742 0.966716
Si Si2 0.642740 0.912437 0.911158
Si Si3 0.557037 0.303256 0.174293
Si Si4 0.381339 0.361436 0.516905
Si Si5 0.726957 0.496371 0.536385
Si Si6 0.255671 0.340065 0.662565
Si Si7 0.124401 0.886090 0.805899
Si Si8 0.554037 0.083871 0.844439
O O1 0.224196 0.808471 0.899434
O O2 0.980936 0.858112 0.903556
O O3 0.892416 0.637817 0.984919
O O4 0.724437 0.870087 0.068987
O O5 0.924309 0.914545 0.831821
O O6 0.572382 0.976349 0.882890
O O7 0.566419 0.752645 0.936842
O O8 0.500000 0.000000 0.000000
O O9 0.500000 0.335754 0.250000
O O10 0.666703 0.425593 0.105934
O O11 0.305907 0.242397 0.237688
O O12 0.500000 0.500000 0.500000
O O13 0.205402 0.403760 0.531142
O O14 0.271114 0.291820 0.601645
O O15 0.468598 0.440370 0.605369
O O16 0.294532 0.213338 0.685690
O O17 0.000000 0.411813 0.750000
O O18 0.307027 0.014968 0.746504
#
# Coordination Sequence:
#
# PCOD9229643 Si02
#       8
#     4   4   4   4   4   4   4   4
#     4  10  22  43  63  87 130 168 221 285 332 385
#     4  12  20  36  61  90 132 169 214 257 329 402
#     4  10  23  41  65  90 122 172 230 280 333 399
#     4  10  21  36  57  90 129 166 203 252 330 402
#     4  10  21  39  63  91 122 171 218 266 344 398
#     4  10  20  33  53  89 130 161 197 264 330 392
#     4  11  22  38  62  91 124 171 219 264 331 399
#     4  11  22  36  61  91 125 171 217 263 331 400
#
# _framework density 21.612462000000001
#
# number of rings (size 3 to 8) (size 9 to 14) (size 15 to 20)
#    0.000    1.500    2.500    3.750    0.000    4.500 
#    0.000    0.000    0.000   10.500    0.000    0.000 
#    0.000    0.000    0.000    0.000    0.000    0.000 
#
# Total GULP energy -178471.093794 kJ/mol
# GULP energy per Si atom -5577.221681 kJ/mol
# Density = 2.156327 g / cm^3
# Si number density = 21.612462 Si / 1000 Ang^3
#
#
#
# Elastic Constant Matrix: (Units=GPa)
#
#
# Indices 1 2 3 4 5 6 
#
# 1 56.0431 21.5090 39.4056 0.0000 -7.1138 0.0000
# 2 21.5090 76.0340 15.3282 0.0000 5.1135 0.0000
# 3 39.4056 15.3282 73.5700 0.0000 -17.0811 0.0000
# 4 0.0000 0.0000 0.0000 22.0232 0.0000 20.3486
# 5 -7.1138 5.1135 -17.0811 0.0000 36.7058 0.0000
# 6 0.0000 0.0000 0.0000 20.3486 0.0000 2.0831
#
#
#
# Elastic Compliance Matrix: (Units=1/GPa)
#
#
# Indices 1 2 3 4 5 6 
#
# 1 0.030767 -0.005565 -0.015422 0.000000 -0.000438 0.000000
# 2 -0.005565 0.015182 -0.001036 0.000000 -0.003676 0.000000
# 3 -0.015422 -0.001036 0.024001 0.000000 0.008324 0.000000
# 4 0.000000 0.000000 0.000000 -0.005658 0.000000 0.055266
# 5 -0.000438 -0.003676 0.008324 0.000000 0.031545 0.000000
# 6 0.000000 0.000000 0.000000 0.055266 0.000000 -0.059815
#
#
# Mechanical properties :
#
#
# Convention : Reuss Voigt Hill
#
# Bulk Modulus (GPa) = 38.60224 39.79253 39.19738
# Shear Modulus (GPa) = 56.36744 20.78938 38.57841
#
# Velocity S-wave (km/s) = 5.11250 3.10484 4.22952
# Velocity P-wave (km/s) = 7.26292 5.59511 6.48287
#
# Compressibility (1/GPa) = 0.02590523
#
# Stress axis : x y z
#
# Youngs Moduli (GPa) = 32.50218 65.86612 41.66447
#
# Poissons Ratio (x) = 0.36655 0.64254
# Poissons Ratio (y) = 0.18088 0.04316
# Poissons Ratio (z) = 0.50124 0.06822
#
# Static dielectric constant tensor:
#      x y z
#    x 1.833840 0.000000 0.013450 
#    y 0.000000 1.833690 0.000000 
#    z 0.013450 0.000000 1.860140 
# 
# From -- ./inp_files/96675.got.cif
#   From: 2010.05.17/outbox.cif.g08.bks.cpg/sg13_49_cif.got.tgz:96675.got - 2010.06.03 16:44:36.
