data_PCOD9229047
_publ_section_title
;
Structure prediction by ZEFSAII (Michael W. Deem and Ramdas Pophale) SiO2 
 PCOD9229047
Probable space group: P 2/C
;
_chemical_formula_sum "Si O2"
_cell_formula_units_Z 20
_cell_length_a 10.499922
_cell_length_b 20.454091
_cell_length_c 5.224947
_cell_angle_alpha 90.000000
_cell_angle_beta 95.336239
_cell_angle_gamma 90.000000
_cell_volume 1117.279566
_symmetry_space_group_name_H-M "P 2/C"
_symmetry_group_IT_number 13
_symmetry_cell_setting 'monoclinic'
loop_
_space_group_symop_operation_xyz
x,y,z
-x,y,1/2-z
-x,-y,-z
x,-y,1/2+z
loop_
_atom_site_type_symbol
_atom_site_label
_atom_site_fract_x
_atom_site_fract_y
_atom_site_fract_z
Si Si1 0.000000 0.769801 0.750000
Si Si2 0.000000 0.454017 0.250000
Si Si3 0.274687 0.811286 0.692395
Si Si4 0.653897 0.962540 0.776921
Si Si5 0.647801 0.728986 0.289192
Si Si6 0.111187 0.349080 0.575876
O O1 0.120474 0.808766 0.668343
O O2 0.942771 0.720235 0.530905
O O3 0.112083 0.401598 0.344143
O O4 0.000000 0.500000 0.500000
O O5 0.316248 0.886051 0.718732
O O6 0.323389 0.776912 0.443202
O O7 0.326832 0.769187 0.943208
O O8 0.500000 0.968138 0.750000
O O9 0.702709 0.000316 0.536846
O O10 0.500000 0.708433 0.250000
O O11 0.749095 0.668989 0.294575
O O12 0.000000 0.371864 0.750000
#
# Coordination Sequence:
#
# PCOD9229047 Si02
#       6
#     2   2   4   4   4   4
#     4   9  20  34  56  84 110 147 178 234 288 341
#     4  11  22  36  60  90 114 151 196 226 254 317
#     4  11  21  36  56  80 112 144 188 231 291 342
#     4  10  20  34  50  70 101 143 187 232 279 334
#     4  11  22  35  58  88 115 144 184 235 289 336
#     4  10  19  37  59  86 117 147 181 231 279 323
#
# _framework density 17.900624000000001
#
# number of rings (size 3 to 8) (size 9 to 14) (size 15 to 20)
#    0.000    1.600    3.000    3.000    0.000    1.600 
#    0.000    1.000    0.000    1.200    0.000    0.000 
#    0.000    0.000    0.000    0.000    0.000    0.000 
#
# Total GULP energy -111431.726235 kJ/mol
# GULP energy per Si atom -5571.586312 kJ/mol
# Density = 1.785988 g / cm^3
# Si number density = 17.900624 Si / 1000 Ang^3
#
#
#
# Elastic Constant Matrix: (Units=GPa)
#
#
# Indices 1 2 3 4 5 6 
#
# 1 105.6444 22.4165 38.4960 0.0000 14.3327 0.0000
# 2 22.4165 90.9617 46.2959 0.0000 1.0406 0.0000
# 3 38.4960 46.2959 112.9966 0.0000 -6.8701 0.0000
# 4 0.0000 0.0000 0.0000 31.2694 0.0000 -3.3498
# 5 14.3327 1.0406 -6.8701 0.0000 21.2812 0.0000
# 6 0.0000 0.0000 0.0000 -3.3498 0.0000 -3.9745
#
#
#
# Elastic Compliance Matrix: (Units=1/GPa)
#
#
# Indices 1 2 3 4 5 6 
#
# 1 0.012654 -0.000633 -0.004660 0.000000 -0.009996 0.000000
# 2 -0.000633 0.014061 -0.005672 0.000000 -0.002093 0.000000
# 3 -0.004660 -0.005672 0.013229 0.000000 0.007686 0.000000
# 4 0.000000 0.000000 0.000000 0.029332 0.000000 -0.024721
# 5 -0.009996 -0.002093 0.007686 0.000000 0.056305 0.000000
# 6 0.000000 0.000000 0.000000 -0.024721 0.000000 -0.230766
#
#
# Mechanical properties :
#
#
# Convention : Reuss Voigt Hill
#
# Bulk Modulus (GPa) = 55.51256 58.22440 56.86848
# Shear Modulus (GPa) = -64.72294 23.20817 -20.75739
#
# Velocity S-wave (km/s) = -6.01958 3.60460 -3.40897
# Velocity P-wave (km/s) = 4.15149 7.06550 4.04267
#
# Compressibility (1/GPa) = 0.01801394
#
# Stress axis : x y z
#
# Youngs Moduli (GPa) = 79.02682 71.12108 75.59361
#
# Poissons Ratio (x) = 0.04499 0.35223
# Poissons Ratio (y) = 0.04999 0.42880
# Poissons Ratio (z) = 0.36823 0.40343
#
# Static dielectric constant tensor:
#      x y z
#    x 1.636650 0.000000 -0.004890 
#    y 0.000000 1.594090 0.000000 
#    z -0.004890 0.000000 1.665050 
# 
# From -- ./inp_files/3544.got.cif
#   From: 2010.05.17/outbox.cif.g08.bks.cpg/sg13_2_cif.got.tgz:3544.got - 2010.06.03 16:44:36.
