data_PCOD9229784
_publ_section_title
;
Structure prediction by ZEFSAII (Michael W. Deem and Ramdas Pophale) SiO2 
 PCOD9229784
Probable space group: P 2/C
;
_chemical_formula_sum "Si O2"
_cell_formula_units_Z 32
_cell_length_a 22.821957
_cell_length_b 14.252837
_cell_length_c 17.008678
_cell_angle_alpha 90.000000
_cell_angle_beta 18.135950
_cell_angle_gamma 90.000000
_cell_volume 1722.129812
_symmetry_space_group_name_H-M "P 2/C"
_symmetry_group_IT_number 13
_symmetry_cell_setting 'monoclinic'
loop_
_space_group_symop_operation_xyz
x,y,z
-x,y,1/2-z
-x,-y,-z
x,-y,1/2+z
loop_
_atom_site_type_symbol
_atom_site_label
_atom_site_fract_x
_atom_site_fract_y
_atom_site_fract_z
Si Si1 0.527366 0.351235 0.032627
Si Si2 0.667191 0.987404 0.478020
Si Si3 0.932285 0.070767 0.252144
Si Si4 0.553096 0.843725 0.302958
Si Si5 0.488594 0.376399 0.631380
Si Si6 0.690554 0.853825 0.298460
Si Si7 0.790821 0.485634 0.796155
Si Si8 0.205985 0.544094 0.025794
O O1 0.336070 0.373763 0.323605
O O2 0.487400 0.379124 0.993519
O O3 0.616071 0.247760 0.919998
O O4 0.681471 0.417362 0.876529
O O5 0.859904 0.994608 0.281546
O O6 0.610899 0.092935 0.523812
O O7 0.671095 0.924167 0.395878
O O8 0.500000 0.955625 0.750000
O O9 0.747228 0.128232 0.513039
O O10 0.000000 0.029954 0.250000
O O11 0.094967 0.134971 0.006770
O O12 0.532698 0.732593 0.321326
O O13 0.571363 0.873094 0.371268
O O14 0.666447 0.419980 0.449795
O O15 0.312680 0.445063 0.873049
O O16 0.796745 0.447046 0.876825
O O17 0.000000 0.500000 0.500000
O O18 0.000000 0.543935 0.250000
#
# Coordination Sequence:
#
# PCOD9229784 Si02
#       8
#     4   4   4   4   4   4   4   4
#     4  10  21  37  56  82 111 144 184 227 272 332
#     4  10  20  34  56  82 111 148 184 225 272 327
#     4   9  19  35  54  82 111 140 182 233 276 319
#     4   9  20  35  56  83 112 138 179 233 279 324
#     4  10  20  36  57  83 110 141 181 229 283 335
#     4  10  20  36  58  79 109 148 181 220 276 332
#     4  11  22  36  56  81 110 145 184 227 274 331
#     4  11  22  37  57  80 111 148 183 228 275 324
#
# _framework density 18.581641999999999
#
# number of rings (size 3 to 8) (size 9 to 14) (size 15 to 20)
#    0.000    2.000    0.000    5.250    0.000    8.500 
#    0.000    0.000    0.000   12.750    0.000    0.000 
#    0.000    0.000    0.000    0.000    0.000    0.000 
#
# Total GULP energy -178475.317559 kJ/mol
# GULP energy per Si atom -5577.353674 kJ/mol
# Density = 1.853935 g / cm^3
# Si number density = 18.581642 Si / 1000 Ang^3
#
#
#
# Elastic Constant Matrix: (Units=GPa)
#
#
# Indices 1 2 3 4 5 6 
#
# 1 111.2412 38.2305 37.0853 0.0000 -2.0182 0.0000
# 2 38.2305 65.0703 20.3093 0.0000 3.9630 0.0000
# 3 37.0853 20.3093 83.3337 0.0000 -3.7531 0.0000
# 4 0.0000 0.0000 0.0000 11.3989 0.0000 6.6492
# 5 -2.0182 3.9630 -3.7531 0.0000 39.0231 0.0000
# 6 0.0000 0.0000 0.0000 6.6492 0.0000 21.9701
#
#
#
# Elastic Compliance Matrix: (Units=1/GPa)
#
#
# Indices 1 2 3 4 5 6 
#
# 1 0.012442 -0.006113 -0.004008 0.000000 0.000879 0.000000
# 2 -0.006113 0.019808 -0.002221 0.000000 -0.002541 0.000000
# 3 -0.004008 -0.002221 0.014388 0.000000 0.001402 0.000000
# 4 0.000000 0.000000 0.000000 0.106535 0.000000 -0.032242
# 5 0.000879 -0.002541 0.001402 0.000000 0.026064 0.000000
# 6 0.000000 0.000000 0.000000 -0.032242 0.000000 0.055274
#
#
# Mechanical properties :
#
#
# Convention : Reuss Voigt Hill
#
# Bulk Modulus (GPa) = 45.55009 50.09951 47.82480
# Shear Modulus (GPa) = 18.76077 25.41310 22.08693
#
# Velocity S-wave (km/s) = 3.18093 3.70218 3.45141
# Velocity P-wave (km/s) = 6.16910 6.73017 6.45573
#
# Compressibility (1/GPa) = 0.02195385
#
# Stress axis : x y z
#
# Youngs Moduli (GPa) = 80.37083 50.48581 69.50225
#
# Poissons Ratio (x) = 0.30861 0.27855
# Poissons Ratio (y) = 0.49129 0.15439
# Poissons Ratio (z) = 0.32211 0.11215
#
# Static dielectric constant tensor:
#      x y z
#    x 1.682610 0.000000 0.008070 
#    y 0.000000 1.632650 0.000000 
#    z 0.008070 0.000000 1.637570 
# 
# From -- ./inp_files/57864.got.cif
#   From: 2010.05.17/outbox.cif.g08.bks.cpg/sg13_29_cif.got.tgz:57864.got - 2010.06.03 16:44:36.
