data_PCOD9229238
_publ_section_title
;
Structure prediction by ZEFSAII (Michael W. Deem and Ramdas Pophale) SiO2 
 PCOD9229238
Probable space group: P 2/C
;
_chemical_formula_sum "Si O2"
_cell_formula_units_Z 18
_cell_length_a 13.961884
_cell_length_b 8.826087
_cell_length_c 18.437301
_cell_angle_alpha 90.000000
_cell_angle_beta 154.820135
_cell_angle_gamma 90.000000
_cell_volume 966.650827
_symmetry_space_group_name_H-M "P 2/C"
_symmetry_group_IT_number 13
_symmetry_cell_setting 'monoclinic'
loop_
_space_group_symop_operation_xyz
x,y,z
-x,y,1/2-z
-x,-y,-z
x,-y,1/2+z
loop_
_atom_site_type_symbol
_atom_site_label
_atom_site_fract_x
_atom_site_fract_y
_atom_site_fract_z
Si Si1 0.030086 0.245245 0.012550
Si Si2 0.305096 0.512409 0.268189
Si Si3 0.000000 0.097644 0.250000
Si Si4 0.772948 0.030610 0.944785
Si Si5 0.768309 0.396262 0.120819
O O1 0.206902 0.376539 0.153419
O O2 0.149753 0.115339 0.048283
O O3 0.836903 0.334934 0.837650
O O4 0.905730 0.170413 0.997115
O O5 0.277749 0.453519 0.330872
O O6 0.562323 0.554355 0.429864
O O7 0.125017 0.017494 0.403361
O O8 0.188879 0.215725 0.349577
O O9 0.500000 0.048791 0.750000
O O10 0.000000 0.463068 0.250000
#
# Coordination Sequence:
#
# PCOD9229238 Si02
#       5
#     4   4   2   4   4
#     4  10  22  39  61  89 120 160 203 251 308 361
#     4  10  19  38  62  87 120 153 202 258 303 359
#     4  10  20  42  60  90 120 168 206 244 304 374
#     4  11  23  42  60  89 125 166 205 246 305 370
#     4   9  19  35  60  88 114 157 203 245 308 357
#
# _framework density 18.620995000000001
#
# number of rings (size 3 to 8) (size 9 to 14) (size 15 to 20)
#    0.667    1.333    2.222    1.333    0.000    1.778 
#   10.000    7.778    0.000    0.000    0.000    0.000 
#    0.000    0.000    0.000    0.000    0.000    0.000 
#
# Total GULP energy -100207.003974 kJ/mol
# GULP energy per Si atom -5567.055776 kJ/mol
# Density = 1.857861 g / cm^3
# Si number density = 18.620995 Si / 1000 Ang^3
#
#
#
# Elastic Constant Matrix: (Units=GPa)
#
#
# Indices 1 2 3 4 5 6 
#
# 1 52.4686 0.3282 31.6079 0.0000 -1.4301 0.0000
# 2 0.3282 42.9783 22.5712 0.0000 11.0510 0.0000
# 3 31.6079 22.5712 154.7769 0.0000 17.7252 0.0000
# 4 0.0000 0.0000 0.0000 111.6670 0.0000 -38.7079
# 5 -1.4301 11.0510 17.7252 0.0000 25.3075 0.0000
# 6 0.0000 0.0000 0.0000 -38.7079 0.0000 30.8846
#
#
#
# Elastic Compliance Matrix: (Units=1/GPa)
#
#
# Indices 1 2 3 4 5 6 
#
# 1 0.022344 0.001492 -0.005274 0.000000 0.004305 0.000000
# 2 0.001492 0.027416 -0.003198 0.000000 -0.009648 0.000000
# 3 -0.005274 -0.003198 0.008565 0.000000 -0.004901 0.000000
# 4 0.000000 0.000000 0.000000 0.015834 0.000000 0.019845
# 5 0.004305 -0.009648 -0.004901 0.000000 0.047403 0.000000
# 6 0.000000 0.000000 0.000000 0.019845 0.000000 0.057251
#
#
# Mechanical properties :
#
#
# Convention : Reuss Voigt Hill
#
# Bulk Modulus (GPa) = 22.53936 39.91537 31.22736
# Shear Modulus (GPa) = 24.08928 46.61958 35.35443
#
# Velocity S-wave (km/s) = 3.60065 5.00903 4.36206
# Velocity P-wave (km/s) = 5.42373 7.41189 6.49434
#
# Compressibility (1/GPa) = 0.04436684
#
# Stress axis : x y z
#
# Youngs Moduli (GPa) = 44.75498 36.47450 116.74805
#
# Poissons Ratio (x) = -0.05442 0.61568
# Poissons Ratio (y) = -0.06678 0.37336
# Poissons Ratio (z) = 0.23602 0.11664
#
# Static dielectric constant tensor:
#      x y z
#    x 1.638540 0.000000 -0.011970 
#    y 0.000000 1.628720 0.000000 
#    z -0.011970 0.000000 1.674970 
# 
# From -- ./inp_files/79907.got.cif
#   From: 2010.05.17/outbox.cif.g08.bks.cpg/sg13_40_cif.got.tgz:79907.got - 2010.06.03 16:44:36.
