data_PCOD9229166
_publ_section_title
;
Structure prediction by ZEFSAII (Michael W. Deem and Ramdas Pophale) SiO2 
 PCOD9229166
Probable space group: P 2/C
;
_chemical_formula_sum "Si O2"
_cell_formula_units_Z 28
_cell_length_a 8.071683
_cell_length_b 15.718386
_cell_length_c 10.551139
_cell_angle_alpha 90.000000
_cell_angle_beta 65.915316
_cell_angle_gamma 90.000000
_cell_volume 1222.123784
_symmetry_space_group_name_H-M "P 2/C"
_symmetry_group_IT_number 13
_symmetry_cell_setting 'monoclinic'
loop_
_space_group_symop_operation_xyz
x,y,z
-x,y,1/2-z
-x,-y,-z
x,-y,1/2+z
loop_
_atom_site_type_symbol
_atom_site_label
_atom_site_fract_x
_atom_site_fract_y
_atom_site_fract_z
Si Si1 0.432785 0.321534 0.552943
Si Si2 0.843854 0.399815 0.695026
Si Si3 0.110757 0.308873 0.442987
Si Si4 0.666291 0.582106 0.797432
Si Si5 0.424784 0.140522 0.047625
Si Si6 0.664448 0.996248 0.598937
Si Si7 0.876562 0.132892 0.166530
O O1 0.329773 0.344404 0.713260
O O2 0.273672 0.316316 0.495014
O O3 0.573419 0.393996 0.460320
O O4 0.524287 0.230015 0.526827
O O5 0.775991 0.495591 0.739319
O O6 0.000000 0.384596 0.750000
O O7 0.943151 0.368720 0.536986
O O8 0.196774 0.343464 0.286291
O O9 0.062217 0.210167 0.441560
O O10 0.500000 0.579708 0.750000
O O11 0.595346 0.079953 0.028238
O O12 0.320415 0.156649 0.211597
O O13 0.309131 0.081263 0.989301
O O14 0.500000 0.011920 0.750000
O O15 0.836527 0.957176 0.615270
O O16 0.000000 0.127427 0.250000
#
# Coordination Sequence:
#
# PCOD9229166 Si02
#       7
#     4   4   4   4   4   4   4
#     4  10  19  37  65  89 120 168 221 260 312 378
#     4  10  22  38  58  91 132 164 206 267 325 373
#     4  10  20  38  61  88 126 172 210 261 317 383
#     4  10  20  36  61  89 123 173 217 260 309 378
#     4  10  19  39  67  91 117 164 213 266 309 383
#     4   9  20  38  67  92 121 158 212 264 323 381
#     4  11  22  38  62  94 126 164 212 261 325 390
#
# _framework density 22.910937000000001
#
# number of rings (size 3 to 8) (size 9 to 14) (size 15 to 20)
#    0.000    2.000    2.857    0.857    0.000    1.143 
#    5.143    0.000    3.143    0.000    0.000    0.000 
#    0.000    0.000    0.000    0.000    0.000    0.000 
#
# Total GULP energy -156428.765567 kJ/mol
# GULP energy per Si atom -5586.741627 kJ/mol
# Density = 2.285879 g / cm^3
# Si number density = 22.910937 Si / 1000 Ang^3
#
#
#
# Elastic Constant Matrix: (Units=GPa)
#
#
# Indices 1 2 3 4 5 6 
#
# 1 67.6309 13.6779 14.2597 0.0000 -4.7131 0.0000
# 2 13.6779 121.8808 35.5134 0.0000 -23.9363 0.0000
# 3 14.2597 35.5134 73.1268 0.0000 -35.1658 0.0000
# 4 0.0000 0.0000 0.0000 32.4110 0.0000 1.8675
# 5 -4.7131 -23.9363 -35.1658 0.0000 22.9873 0.0000
# 6 0.0000 0.0000 0.0000 1.8675 0.0000 16.0896
#
#
#
# Elastic Compliance Matrix: (Units=1/GPa)
#
#
# Indices 1 2 3 4 5 6 
#
# 1 0.015816 -0.001497 -0.005854 0.000000 -0.007271 0.000000
# 2 -0.001497 0.010462 0.001144 0.000000 0.012337 0.000000
# 3 -0.005854 0.001144 0.053932 0.000000 0.082495 0.000000
# 4 0.000000 0.000000 0.000000 0.031061 0.000000 -0.003605
# 5 -0.007271 0.012337 0.082495 0.000000 0.181058 0.000000
# 6 0.000000 0.000000 0.000000 -0.003605 0.000000 0.062570
#
#
# Mechanical properties :
#
#
# Convention : Reuss Voigt Hill
#
# Bulk Modulus (GPa) = 14.75017 43.28227 29.01622
# Shear Modulus (GPa) = 12.82336 27.57674 20.20005
#
# Velocity S-wave (km/s) = 2.36837 3.47313 2.97253
# Velocity P-wave (km/s) = 3.73242 5.91744 4.94707
#
# Compressibility (1/GPa) = 0.06779583
#
# Stress axis : x y z
#
# Youngs Moduli (GPa) = 63.22521 95.58048 18.54196
#
# Poissons Ratio (x) = 0.14312 0.10854
# Poissons Ratio (y) = 0.09467 -0.02121
# Poissons Ratio (z) = 0.37010 -0.10931
#
# Static dielectric constant tensor:
#      x y z
#    x 1.907170 0.000000 -0.007580 
#    y 0.000000 1.835410 0.000000 
#    z -0.007580 0.000000 1.874190 
# 
# From -- ./inp_files/30293.got.cif
#   From: 2010.05.17/outbox.cif.g08.bks.cpg/sg13_16_cif.got.tgz:30293.got - 2010.06.03 16:44:36.
