data_PCOD9229918
_publ_section_title
;
Structure prediction by ZEFSAII (Michael W. Deem and Ramdas Pophale) SiO2 
 PCOD9229918
Probable space group: P 2/C
;
_chemical_formula_sum "Si O2"
_cell_formula_units_Z 30
_cell_length_a 14.465062
_cell_length_b 6.254898
_cell_length_c 26.533029
_cell_angle_alpha 90.000000
_cell_angle_beta 39.660527
_cell_angle_gamma 90.000000
_cell_volume 1532.179860
_symmetry_space_group_name_H-M "P 2/C"
_symmetry_group_IT_number 13
_symmetry_cell_setting 'monoclinic'
loop_
_space_group_symop_operation_xyz
x,y,z
-x,y,1/2-z
-x,-y,-z
x,-y,1/2+z
loop_
_atom_site_type_symbol
_atom_site_label
_atom_site_fract_x
_atom_site_fract_y
_atom_site_fract_z
Si Si1 0.531239 0.818187 0.028440
Si Si2 0.959627 0.955604 0.356895
Si Si3 0.532080 0.479451 0.861725
Si Si4 0.000000 0.368331 0.750000
Si Si5 0.774731 0.269124 0.362248
Si Si6 0.306781 0.138590 0.464999
Si Si7 0.522058 0.091476 0.681500
Si Si8 0.736301 0.150491 0.266768
O O1 0.432343 0.668738 0.104719
O O2 0.618350 0.954603 0.033033
O O3 0.637109 0.665611 0.952582
O O4 0.500000 0.000000 0.000000
O O5 0.855027 0.859791 0.444360
O O6 0.004040 0.772358 0.298710
O O7 0.870708 0.120821 0.358713
O O8 0.102404 0.080347 0.315888
O O9 0.404361 0.648148 0.929639
O O10 0.471594 0.331342 0.842587
O O11 0.673496 0.610740 0.785221
O O12 0.864848 0.526680 0.808850
O O13 0.733443 0.136961 0.329289
O O14 0.340086 0.048875 0.395048
O O15 0.500000 0.083317 0.750000
O O16 0.381279 0.992997 0.712329
#
# Coordination Sequence:
#
# PCOD9229918 Si02
#       8
#     4   4   4   2   4   4   4   4
#     4  10  20  35  53  83 124 157 200 246 287 350
#     4  11  22  39  57  90 129 164 199 236 289 355
#     4  10  21  37  58  87 113 158 203 250 304 357
#     4  12  20  32  58  84 130 172 198 228 282 342
#     4  11  21  35  54  88 123 165 201 231 283 357
#     4   9  21  39  61  83 118 157 196 247 304 361
#     4  10  23  43  66  88 113 149 202 265 320 363
#     4  11  22  38  60  89 122 158 202 245 300 357
#
# _framework density 19.579947000000001
#
# number of rings (size 3 to 8) (size 9 to 14) (size 15 to 20)
#    0.000    1.600    2.667    3.200    1.867    6.400 
#    0.000    0.667    0.000    1.600    0.000    0.000 
#    0.000    0.000    0.000    0.000    0.000    0.000 
#
# Total GULP energy -167232.254808 kJ/mol
# GULP energy per Si atom -5574.408494 kJ/mol
# Density = 1.953538 g / cm^3
# Si number density = 19.579947 Si / 1000 Ang^3
#
#
#
# Elastic Constant Matrix: (Units=GPa)
#
#
# Indices 1 2 3 4 5 6 
#
# 1 52.2283 29.5636 49.4228 0.0000 1.4218 0.0000
# 2 29.5636 102.1104 58.3075 0.0000 2.9548 0.0000
# 3 49.4228 58.3075 131.1534 0.0000 17.5102 0.0000
# 4 0.0000 0.0000 0.0000 24.3422 0.0000 -4.0938
# 5 1.4218 2.9548 17.5102 0.0000 22.8299 0.0000
# 6 0.0000 0.0000 0.0000 -4.0938 0.0000 19.8062
#
#
#
# Elastic Compliance Matrix: (Units=1/GPa)
#
#
# Indices 1 2 3 4 5 6 
#
# 1 0.031490 -0.002673 -0.011656 0.000000 0.007325 0.000000
# 2 -0.002673 0.013551 -0.005353 0.000000 0.002519 0.000000
# 3 -0.011656 -0.005353 0.015828 0.000000 -0.010721 0.000000
# 4 0.000000 0.000000 0.000000 0.042560 0.000000 0.008797
# 5 0.007325 0.002519 -0.010721 0.000000 0.051243 0.000000
# 6 0.000000 0.000000 0.000000 0.008797 0.000000 0.052308
#
#
# Mechanical properties :
#
#
# Convention : Reuss Voigt Hill
#
# Bulk Modulus (GPa) = 46.50171 62.23109 54.36640
# Shear Modulus (GPa) = 19.72267 23.27554 21.49911
#
# Velocity S-wave (km/s) = 3.17723 3.45156 3.31723
# Velocity P-wave (km/s) = 6.10417 6.90915 6.51910
#
# Compressibility (1/GPa) = 0.02150458
#
# Stress axis : x y z
#
# Youngs Moduli (GPa) = 31.75564 73.79309 63.17737
#
# Poissons Ratio (x) = 0.19728 0.73640
# Poissons Ratio (y) = 0.08489 0.33822
# Poissons Ratio (z) = 0.37014 0.39505
#
# Static dielectric constant tensor:
#      x y z
#    x 1.688510 0.000000 -0.021980 
#    y 0.000000 1.767310 0.000000 
#    z -0.021980 0.000000 1.772710 
# 
# From -- ./inp_files/92650.got.cif
#   From: 2010.05.17/outbox.cif.g08.bks.cpg/sg13_47_cif.got.tgz:92650.got - 2010.06.03 16:44:36.
