data_PCOD9229877
_publ_section_title
;
Structure prediction by ZEFSAII (Michael W. Deem and Ramdas Pophale) SiO2 
 PCOD9229877
Probable space group: P 2/C
;
_chemical_formula_sum "Si O2"
_cell_formula_units_Z 30
_cell_length_a 13.217242
_cell_length_b 4.946839
_cell_length_c 19.735210
_cell_angle_alpha 90.000000
_cell_angle_beta 82.041351
_cell_angle_gamma 90.000000
_cell_volume 1277.930044
_symmetry_space_group_name_H-M "P 2/C"
_symmetry_group_IT_number 13
_symmetry_cell_setting 'monoclinic'
loop_
_space_group_symop_operation_xyz
x,y,z
-x,y,1/2-z
-x,-y,-z
x,-y,1/2+z
loop_
_atom_site_type_symbol
_atom_site_label
_atom_site_fract_x
_atom_site_fract_y
_atom_site_fract_z
Si Si1 0.317929 0.852977 0.379455
Si Si2 0.775511 0.315981 0.278696
Si Si3 0.711251 0.615089 0.405403
Si Si4 0.610665 0.131237 0.477874
Si Si5 0.905255 0.344874 0.375466
Si Si6 0.604612 0.674456 0.704489
Si Si7 0.109577 0.102777 0.346762
Si Si8 0.000000 0.720863 0.250000
O O1 0.339835 0.788637 0.455036
O O2 0.395056 0.096889 0.352823
O O3 0.202365 0.967093 0.378782
O O4 0.344059 0.593302 0.331494
O O5 0.732861 0.575628 0.323364
O O6 0.833943 0.156724 0.333751
O O7 0.675314 0.187645 0.255782
O O8 0.843410 0.341286 0.204554
O O9 0.678172 0.898661 0.436857
O O10 0.820733 0.505994 0.426171
O O11 0.622156 0.400053 0.431839
O O12 0.500000 0.000000 0.500000
O O13 0.007026 0.206533 0.394289
O O14 0.943088 0.539754 0.311182
O O15 0.500000 0.605822 0.750000
O O16 0.069244 0.906072 0.291760
#
# Coordination Sequence:
#
# PCOD9229877 Si02
#       8
#     4   4   4   4   4   4   4   2
#     4  11  27  42  65  96 133 176 217 265 336 394
#     4   9  20  38  62 101 132 160 214 264 335 392
#     4  10  25  42  70  97 123 167 234 271 308 391
#     4  12  27  48  69  86 128 182 231 269 320 379
#     4  10  20  34  60  97 126 166 208 262 319 389
#     4  11  24  42  68  99 135 162 211 283 343 394
#     4  11  21  38  61 100 139 168 204 271 346 402
#     4  12  16  32  68  92 136 172 204 250 354 390
#
# _framework density 23.475465
#
# number of rings (size 3 to 8) (size 9 to 14) (size 15 to 20)
#    0.800    0.533    2.667    2.400    9.333    1.067 
#    0.000    1.333    0.000    0.000    0.000    0.000 
#    0.000    0.000    0.000    0.000    0.000    0.000 
#
# Total GULP energy -167165.291572 kJ/mol
# GULP energy per Si atom -5572.176386 kJ/mol
# Density = 2.342203 g / cm^3
# Si number density = 23.475465 Si / 1000 Ang^3
#
#
#
# Elastic Constant Matrix: (Units=GPa)
#
#
# Indices 1 2 3 4 5 6 
#
# 1 86.4004 -0.0131 26.1460 0.0000 -18.4524 0.0000
# 2 -0.0131 91.0333 15.0811 0.0000 -14.9034 0.0000
# 3 26.1460 15.0811 49.7653 0.0000 -7.7148 0.0000
# 4 0.0000 0.0000 0.0000 26.5551 0.0000 -11.3137
# 5 -18.4524 -14.9034 -7.7148 0.0000 34.0263 0.0000
# 6 0.0000 0.0000 0.0000 -11.3137 0.0000 23.7208
#
#
#
# Elastic Compliance Matrix: (Units=1/GPa)
#
#
# Indices 1 2 3 4 5 6 
#
# 1 0.015592 0.002568 -0.007758 0.000000 0.007822 0.000000
# 2 0.002568 0.012670 -0.004262 0.000000 0.005976 0.000000
# 3 -0.007758 -0.004262 0.025413 0.000000 -0.000312 0.000000
# 4 0.000000 0.000000 0.000000 0.047261 0.000000 0.022541
# 5 0.007822 0.005976 -0.000312 0.000000 0.036177 0.000000
# 6 0.000000 0.000000 0.000000 0.022541 0.000000 0.052908
#
#
# Mechanical properties :
#
#
# Convention : Reuss Voigt Hill
#
# Bulk Modulus (GPa) = 28.75924 34.40300 31.58112
# Shear Modulus (GPa) = 22.67396 29.25944 25.96670
#
# Velocity S-wave (km/s) = 3.11120 3.53425 3.32945
# Velocity P-wave (km/s) = 5.01831 5.59832 5.31623
#
# Compressibility (1/GPa) = 0.03477143
#
# Stress axis : x y z
#
# Youngs Moduli (GPa) = 64.13350 78.92820 39.34926
#
# Poissons Ratio (x) = -0.20268 0.30526
# Poissons Ratio (y) = -0.16469 0.16772
# Poissons Ratio (z) = 0.49753 0.33642
#
# Static dielectric constant tensor:
#      x y z
#    x 2.119530 0.000000 -0.000830 
#    y 0.000000 1.947580 0.000000 
#    z -0.000830 0.000000 1.905830 
# 
# From -- ./inp_files/79050.got.cif
#   From: 2010.05.17/outbox.cif.g08.bks.cpg/sg13_40_cif.got.tgz:79050.got - 2010.06.03 16:44:36.
