data_PCOD9229653
_publ_section_title
;
Structure prediction by ZEFSAII (Michael W. Deem and Ramdas Pophale) SiO2 
 PCOD9229653
Probable space group: P 2/C
;
_chemical_formula_sum "Si O2"
_cell_formula_units_Z 26
_cell_length_a 16.269154
_cell_length_b 5.617172
_cell_length_c 15.066699
_cell_angle_alpha 90.000000
_cell_angle_beta 54.331825
_cell_angle_gamma 90.000000
_cell_volume 1118.599819
_symmetry_space_group_name_H-M "P 2/C"
_symmetry_group_IT_number 13
_symmetry_cell_setting 'monoclinic'
loop_
_space_group_symop_operation_xyz
x,y,z
-x,y,1/2-z
-x,-y,-z
x,-y,1/2+z
loop_
_atom_site_type_symbol
_atom_site_label
_atom_site_fract_x
_atom_site_fract_y
_atom_site_fract_z
Si Si1 0.000000 0.998951 0.750000
Si Si2 0.863389 0.393342 0.784843
Si Si3 0.258613 0.401157 0.919247
Si Si4 0.950810 0.621834 0.902135
Si Si5 0.441317 0.897623 0.643338
Si Si6 0.343065 0.901259 0.901678
Si Si7 0.645572 0.601074 0.334597
O O1 0.995085 0.876000 0.850016
O O2 0.897344 0.148622 0.807485
O O3 0.890206 0.577170 0.846615
O O4 0.751846 0.402393 0.818953
O O5 0.953279 0.449008 0.657175
O O6 0.284849 0.650876 0.950797
O O7 0.324694 0.400056 0.788381
O O8 0.285402 0.151941 0.950596
O O9 0.139099 0.399925 0.972787
O O10 0.378563 0.898954 0.776046
O O11 0.557113 0.898842 0.601425
O O12 0.412345 0.648911 0.613947
O O13 0.411811 0.147315 0.615130
#
# Coordination Sequence:
#
# PCOD9229653 Si02
#       7
#     2   4   4   4   4   4   4
#     4   8  18  36  54  70  98 144 182 206 250 324
#     4   9  20  35  54  76 103 143 179 209 257 319
#     4  10  20  33  55  83 106 134 175 220 263 300
#     4   9  20  35  54  76 103 143 179 209 257 319
#     4   9  18  33  53  78 108 139 173 213 260 314
#     4   9  18  33  53  78 108 139 173 213 260 314
#     4  10  20  33  55  83 106 134 175 220 263 300
#
# _framework density 23.243341999999998
#
# number of rings (size 3 to 8) (size 9 to 14) (size 15 to 20)
#    0.000    3.077    0.000    0.923    8.615    4.308 
#    0.000    0.769    0.000    5.538    0.000    0.000 
#    0.000    0.000    0.000    0.000    0.000    0.000 
#
# Total GULP energy -144934.238795 kJ/mol
# GULP energy per Si atom -5574.393800 kJ/mol
# Density = 2.319044 g / cm^3
# Si number density = 23.243342 Si / 1000 Ang^3
#
#
#
# Elastic Constant Matrix: (Units=GPa)
#
#
# Indices 1 2 3 4 5 6 
#
# 1 91.5331 144.4285 -16.6021 0.0000 -103.7319 0.0000
# 2 144.4285 -72.9119 94.7699 0.0000 244.5726 0.0000
# 3 -16.6021 94.7699 52.8279 0.0000 -60.7145 0.0000
# 4 0.0000 0.0000 0.0000 28.3429 0.0000 -11.2919
# 5 -103.7319 244.5726 -60.7145 0.0000 -254.4300 0.0000
# 6 0.0000 0.0000 0.0000 -11.2919 0.0000 6.1715
#
#
#
# Elastic Compliance Matrix: (Units=1/GPa)
#
#
# Indices 1 2 3 4 5 6 
#
# 1 0.008235 -0.002329 0.000263 0.000000 -0.005659 0.000000
# 2 -0.002329 0.007677 -0.003870 0.000000 0.009252 0.000000
# 3 0.000263 -0.003870 0.016916 0.000000 -0.007864 0.000000
# 4 0.000000 0.000000 0.000000 0.130169 0.000000 0.238168
# 5 -0.005659 0.009252 -0.007864 0.000000 0.009147 0.000000
# 6 0.000000 0.000000 0.000000 0.238168 0.000000 0.597805
#
#
# Mechanical properties :
#
#
# Convention : Reuss Voigt Hill
#
# Bulk Modulus (GPa) = 47.72159 57.40463 52.56311
# Shear Modulus (GPa) = 6.33868 -54.05961 -23.86046
#
# Velocity S-wave (km/s) = 1.65318 -4.82790 -3.20746
# Velocity P-wave (km/s) = 4.92137 2.51541 2.99104
#
# Compressibility (1/GPa) = 0.02095488
#
# Stress axis : x y z
#
# Youngs Moduli (GPa) = 121.43635 130.26402 59.11394
#
# Poissons Ratio (x) = 0.30343 -0.01553
# Poissons Ratio (y) = 0.28287 0.22876
# Poissons Ratio (z) = -0.03190 0.50410
#
# Static dielectric constant tensor:
#      x y z
#    x 1.823080 0.000000 0.043140 
#    y 0.000000 1.939130 0.000000 
#    z 0.043140 0.000000 1.997540 
# 
# From -- ./inp_files/79281.got.cif
#   From: 2010.05.17/outbox.cif.g08.bks.cpg/sg13_40_cif.got.tgz:79281.got - 2010.06.03 16:44:36.
