data_PCOD9229010
_publ_section_title
;
Structure prediction by ZEFSAII (Michael W. Deem and Ramdas Pophale) SiO2 
 PCOD9229010
Probable space group: P 2/C
;
_chemical_formula_sum "Si O2"
_cell_formula_units_Z 16
_cell_length_a 9.115457
_cell_length_b 5.455403
_cell_length_c 27.196726
_cell_angle_alpha 90.000000
_cell_angle_beta 27.804111
_cell_angle_gamma 90.000000
_cell_volume 630.851455
_symmetry_space_group_name_H-M "P 2/C"
_symmetry_group_IT_number 13
_symmetry_cell_setting 'monoclinic'
loop_
_space_group_symop_operation_xyz
x,y,z
-x,y,1/2-z
-x,-y,-z
x,-y,1/2+z
loop_
_atom_site_type_symbol
_atom_site_label
_atom_site_fract_x
_atom_site_fract_y
_atom_site_fract_z
Si Si1 0.720889 0.504543 0.361960
Si Si2 0.217570 0.970050 0.386132
Si Si3 0.225302 0.831410 0.562103
Si Si4 0.636778 0.458603 0.123752
O O1 0.419081 0.659000 0.467614
O O2 0.854667 0.347147 0.367903
O O3 0.562563 0.363543 0.363733
O O4 0.000000 0.645163 0.250000
O O5 0.423423 0.725205 0.333740
O O6 0.393219 0.229349 0.331949
O O7 0.000000 0.000000 0.500000
O O8 0.006643 0.991359 0.399525
O O9 0.500000 0.000000 0.500000
O O10 0.000000 0.500000 0.000000
#
# Coordination Sequence:
#
# PCOD9229010 Si02
#       4
#     4   4   4   4
#     4  11  25  42  67 100 139 178 233 293 349 414
#     4  10  19  36  68  95 125 179 224 273 337 418
#     4  11  23  41  70  97 136 183 232 281 355 421
#     4  10  19  39  66  93 130 179 223 273 347 404
#
# _framework density 25.362549000000001
#
# number of rings (size 3 to 8) (size 9 to 14) (size 15 to 20)
#    0.000    1.500    5.000    3.000    3.500    1.000 
#    0.000    1.250    0.000    0.000    0.000    0.000 
#    0.000    0.000    0.000    0.000    0.000    0.000 
#
# Total GULP energy -89113.395910 kJ/mol
# GULP energy per Si atom -5569.587244 kJ/mol
# Density = 2.530482 g / cm^3
# Si number density = 25.362549 Si / 1000 Ang^3
#
#
#
# Elastic Constant Matrix: (Units=GPa)
#
#
# Indices 1 2 3 4 5 6 
#
# 1 146.3096 19.8701 13.9732 0.0000 8.2114 0.0000
# 2 19.8701 151.5348 -2.3330 0.0000 17.5828 0.0000
# 3 13.9732 -2.3330 103.0103 0.0000 38.5250 0.0000
# 4 0.0000 0.0000 0.0000 -3.1935 0.0000 -14.8344
# 5 8.2114 17.5828 38.5250 0.0000 27.3449 0.0000
# 6 0.0000 0.0000 0.0000 -14.8344 0.0000 42.9155
#
#
#
# Elastic Compliance Matrix: (Units=1/GPa)
#
#
# Indices 1 2 3 4 5 6 
#
# 1 0.007057 -0.000898 -0.000848 0.000000 -0.000347 0.000000
# 2 -0.000898 0.008104 0.004552 0.000000 -0.011354 0.000000
# 3 -0.000848 0.004552 0.023093 0.000000 -0.035207 0.000000
# 4 0.000000 0.000000 0.000000 -0.120175 0.000000 -0.041540
# 5 -0.000347 -0.011354 -0.035207 0.000000 0.093576 0.000000
# 6 0.000000 0.000000 0.000000 -0.041540 0.000000 0.008943
#
#
# Mechanical properties :
#
#
# Convention : Reuss Voigt Hill
#
# Bulk Modulus (GPa) = 22.79649 51.54172 37.16911
# Shear Modulus (GPa) = 168.86769 38.03634 103.45202
#
# Velocity S-wave (km/s) = 8.16860 3.87680 6.39358
# Velocity P-wave (km/s) = 9.89827 6.35654 8.31810
#
# Compressibility (1/GPa) = 0.04386640
#
# Stress axis : x y z
#
# Youngs Moduli (GPa) = 141.69819 123.38925 43.30341
#
# Poissons Ratio (x) = 0.11082 0.03671
# Poissons Ratio (y) = 0.12726 -0.19711
# Poissons Ratio (z) = 0.12012 -0.56164
#
# Static dielectric constant tensor:
#      x y z
#    x 2.251530 0.000000 -0.075890 
#    y 0.000000 2.116200 0.000000 
#    z -0.075890 0.000000 2.077480 
# 
# From -- ./inp_files/51968.got.cif
#   From: 2010.05.17/outbox.cif.g08.bks.cpg/sg13_26_cif.got.tgz:51968.got - 2010.06.03 16:44:36.
