data_PCOD9229002
_publ_section_title
;
Structure prediction by ZEFSAII (Michael W. Deem and Ramdas Pophale) SiO2 
 PCOD9229002
Probable space group: P 2/C
;
_chemical_formula_sum "Si O2"
_cell_formula_units_Z 20
_cell_length_a 19.748477
_cell_length_b 4.923577
_cell_length_c 14.293140
_cell_angle_alpha 90.000000
_cell_angle_beta 139.133729
_cell_angle_gamma 90.000000
_cell_volume 909.318622
_symmetry_space_group_name_H-M "P 2/C"
_symmetry_group_IT_number 13
_symmetry_cell_setting 'monoclinic'
loop_
_space_group_symop_operation_xyz
x,y,z
-x,y,1/2-z
-x,-y,-z
x,-y,1/2+z
loop_
_atom_site_type_symbol
_atom_site_label
_atom_site_fract_x
_atom_site_fract_y
_atom_site_fract_z
Si Si1 0.046164 0.459598 0.401160
Si Si2 0.119513 0.189723 0.132062
Si Si3 0.379389 0.864891 0.613314
Si Si4 0.746809 0.599375 0.466622
Si Si5 0.234476 0.337266 0.823480
O O1 0.969297 0.292501 0.388408
O O2 0.000000 0.485906 0.250000
O O3 0.070765 0.743265 0.480098
O O4 0.839176 0.333198 0.993673
O O5 0.164005 0.901908 0.209763
O O6 0.216533 0.398117 0.242890
O O7 0.500000 0.914995 0.750000
O O8 0.311407 0.130847 0.562120
O O9 0.347216 0.765975 0.474335
O O10 0.340774 0.627723 0.644295
O O11 0.800422 0.445705 0.610753
#
# Coordination Sequence:
#
# PCOD9229002 Si02
#       5
#     4   4   4   4   4
#     4  11  22  42  59  94 122 164 204 242 294 366
#     4  11  24  38  62  87 129 165 191 249 299 355
#     4  10  19  36  66  91 114 159 207 252 309 356
#     4  10  21  36  61  89 122 154 204 251 293 361
#     4  10  19  42  54  91 116 161 199 243 302 352
#
# _framework density 21.994488
#
# number of rings (size 3 to 8) (size 9 to 14) (size 15 to 20)
#    1.200    0.400    4.000    0.600    0.000    6.400 
#    3.600    0.000    0.000    7.200    0.000    0.000 
#    0.000    0.000    0.000    0.000    0.000    0.000 
#
# Total GULP energy -111349.777570 kJ/mol
# GULP energy per Si atom -5567.488879 kJ/mol
# Density = 2.194443 g / cm^3
# Si number density = 21.994488 Si / 1000 Ang^3
#
#
#
# Elastic Constant Matrix: (Units=GPa)
#
#
# Indices 1 2 3 4 5 6 
#
# 1 70.2217 12.0789 53.6515 0.0000 3.4405 0.0000
# 2 12.0789 129.7718 28.7603 0.0000 11.7807 0.0000
# 3 53.6515 28.7603 93.6190 0.0000 15.2834 0.0000
# 4 0.0000 0.0000 0.0000 19.5543 0.0000 8.4570
# 5 3.4405 11.7807 15.2834 0.0000 30.7491 0.0000
# 6 0.0000 0.0000 0.0000 8.4570 0.0000 17.6599
#
#
#
# Elastic Compliance Matrix: (Units=1/GPa)
#
#
# Indices 1 2 3 4 5 6 
#
# 1 0.026045 0.000671 -0.015905 0.000000 0.004734 0.000000
# 2 0.000671 0.008409 -0.002644 0.000000 -0.001983 0.000000
# 3 -0.015905 -0.002644 0.021933 0.000000 -0.008109 0.000000
# 4 0.000000 0.000000 0.000000 0.064498 0.000000 -0.030887
# 5 0.004734 -0.001983 -0.008109 0.000000 0.036781 0.000000
# 6 0.000000 0.000000 0.000000 -0.030887 0.000000 0.071417
#
#
# Mechanical properties :
#
#
# Convention : Reuss Voigt Hill
#
# Bulk Modulus (GPa) = 48.47208 53.62155 51.04681
# Shear Modulus (GPa) = 18.40155 26.86744 22.63450
#
# Velocity S-wave (km/s) = 2.89562 3.49886 3.21144
# Velocity P-wave (km/s) = 5.76763 6.38398 6.08362
#
# Compressibility (1/GPa) = 0.02063043
#
# Stress axis : x y z
#
# Youngs Moduli (GPa) = 38.39479 118.91463 45.59431
#
# Poissons Ratio (x) = -0.07978 0.72518
# Poissons Ratio (y) = -0.02576 0.12056
# Poissons Ratio (z) = 0.61067 0.31444
#
# Static dielectric constant tensor:
#      x y z
#    x 1.835160 0.000000 -0.016020 
#    y 0.000000 1.866590 0.000000 
#    z -0.016020 0.000000 1.920480 
# 
# From -- ./inp_files/58245.got.cif
#   From: 2010.05.17/outbox.cif.g08.bks.cpg/sg13_30_cif.got.tgz:58245.got - 2010.06.03 16:44:36.
