data_PCOD9229076
_publ_section_title
;
Structure prediction by ZEFSAII (Michael W. Deem and Ramdas Pophale) SiO2 
 PCOD9229076
Probable space group: P 2/C
;
_chemical_formula_sum "Si O2"
_cell_formula_units_Z 22
_cell_length_a 11.801405
_cell_length_b 7.355714
_cell_length_c 12.613580
_cell_angle_alpha 90.000000
_cell_angle_beta 122.475956
_cell_angle_gamma 90.000000
_cell_volume 923.723856
_symmetry_space_group_name_H-M "P 2/C"
_symmetry_group_IT_number 13
_symmetry_cell_setting 'monoclinic'
loop_
_space_group_symop_operation_xyz
x,y,z
-x,y,1/2-z
-x,-y,-z
x,-y,1/2+z
loop_
_atom_site_type_symbol
_atom_site_label
_atom_site_fract_x
_atom_site_fract_y
_atom_site_fract_z
Si Si1 0.861932 0.549459 0.721788
Si Si2 0.363035 0.122859 0.246334
Si Si3 0.666656 0.278020 0.680289
Si Si4 0.000000 0.900772 0.750000
Si Si5 0.371581 0.724278 0.987984
Si Si6 0.762983 0.092431 0.517616
O O1 0.779474 0.427375 0.763033
O O2 0.910761 0.755811 0.772186
O O3 0.754863 0.590571 0.573878
O O4 0.000000 0.459675 0.750000
O O5 0.500000 0.144618 0.250000
O O6 0.381112 0.223224 0.367672
O O7 0.332646 0.911833 0.258226
O O8 0.250128 0.177629 0.104277
O O9 0.513061 0.346261 0.602157
O O10 0.705306 0.218551 0.580617
O O11 0.907160 0.021179 0.628649
O O12 0.330859 0.911082 0.024489
#
# Coordination Sequence:
#
# PCOD9229076 Si02
#       6
#     4   4   4   2   4   4
#     4   9  21  39  58  79 123 161 193 233 293 352
#     4  11  19  35  60  94 117 142 195 254 288 341
#     4  11  20  34  64  90 110 154 202 236 297 352
#     4   8  20  38  60  74 118 166 182 238 294 332
#     4  10  19  37  61  87 118 153 190 245 300 343
#     4  10  19  37  61  84 117 148 194 246 292 334
#
# _framework density 23.816642999999999
#
# number of rings (size 3 to 8) (size 9 to 14) (size 15 to 20)
#    0.545    1.455    3.636    1.636    1.273    0.000 
#    0.000   13.636    0.000    0.000    0.000    0.000 
#    0.000    0.000    0.000    0.000    0.000    0.000 
#
# Total GULP energy -122721.969102 kJ/mol
# GULP energy per Si atom -5578.271323 kJ/mol
# Density = 2.376243 g / cm^3
# Si number density = 23.816643 Si / 1000 Ang^3
#
#
#
# Elastic Constant Matrix: (Units=GPa)
#
#
# Indices 1 2 3 4 5 6 
#
# 1 91.5703 11.2279 44.3071 0.0000 25.9808 0.0000
# 2 11.2279 58.6097 4.7062 0.0000 11.1444 0.0000
# 3 44.3071 4.7062 105.7861 0.0000 4.3776 0.0000
# 4 0.0000 0.0000 0.0000 1.0575 0.0000 7.0802
# 5 25.9808 11.1444 4.3776 0.0000 56.0808 0.0000
# 6 0.0000 0.0000 0.0000 7.0802 0.0000 26.7440
#
#
#
# Elastic Compliance Matrix: (Units=1/GPa)
#
#
# Indices 1 2 3 4 5 6 
#
# 1 0.016073 -0.001293 -0.006397 0.000000 -0.006690 0.000000
# 2 -0.001293 0.017880 -0.000132 0.000000 -0.002944 0.000000
# 3 -0.006397 -0.000132 0.012054 0.000000 0.002049 0.000000
# 4 0.000000 0.000000 0.000000 -1.224183 0.000000 0.324090
# 5 -0.006690 -0.002944 0.002049 0.000000 0.021356 0.000000
# 6 0.000000 0.000000 0.000000 0.324090 0.000000 -0.048408
#
#
# Mechanical properties :
#
#
# Convention : Reuss Voigt Hill
#
# Bulk Modulus (GPa) = 32.93709 41.82759 37.38234
# Shear Modulus (GPa) = -4.23922 29.82481 12.79280
#
# Velocity S-wave (km/s) = -1.33559 3.54258 2.32014
# Velocity P-wave (km/s) = 3.38837 5.85949 4.78616
#
# Compressibility (1/GPa) = 0.03036091
#
# Stress axis : x y z
#
# Youngs Moduli (GPa) = 62.21753 55.92811 82.96281
#
# Poissons Ratio (x) = 0.07233 0.53075
# Poissons Ratio (y) = 0.08047 0.01095
# Poissons Ratio (z) = 0.39803 0.00738
#
# Static dielectric constant tensor:
#      x y z
#    x 1.990970 0.000000 0.055950 
#    y 0.000000 2.029080 0.000000 
#    z 0.055950 0.000000 1.892510 
# 
# From -- ./inp_files/49390.got.cif
#   From: 2010.05.17/outbox.cif.g08.bks.cpg/sg13_25_cif.got.tgz:49390.got - 2010.06.03 16:44:36.
