data_PCOD9229868
_publ_section_title
;
Structure prediction by ZEFSAII (Michael W. Deem and Ramdas Pophale) SiO2 
 PCOD9229868
Probable space group: P 2/C
;
_chemical_formula_sum "Si O2"
_cell_formula_units_Z 22
_cell_length_a 6.500432
_cell_length_b 17.041055
_cell_length_c 10.518498
_cell_angle_alpha 90.000000
_cell_angle_beta 69.960942
_cell_angle_gamma 90.000000
_cell_volume 1094.637630
_symmetry_space_group_name_H-M "P 2/C"
_symmetry_group_IT_number 13
_symmetry_cell_setting 'monoclinic'
loop_
_space_group_symop_operation_xyz
x,y,z
-x,y,1/2-z
-x,-y,-z
x,-y,1/2+z
loop_
_atom_site_type_symbol
_atom_site_label
_atom_site_fract_x
_atom_site_fract_y
_atom_site_fract_z
Si Si1 0.829195 0.584119 0.018556
Si Si2 0.300974 0.421786 0.381815
Si Si3 0.563313 0.701460 0.452280
Si Si4 0.858765 0.987956 0.903218
Si Si5 0.478152 0.118286 0.600317
Si Si6 0.000000 0.634807 0.250000
O O1 0.723228 0.498740 0.023155
O O2 0.649505 0.651773 0.044983
O O3 0.922882 0.587290 0.142943
O O4 0.051059 0.592567 0.889463
O O5 0.500000 0.444760 0.250000
O O6 0.376196 0.340345 0.428379
O O7 0.524008 0.793216 0.450267
O O8 0.784639 0.684749 0.326837
O O9 0.738207 0.068772 0.889046
O O10 0.000000 0.962653 0.750000
O O11 0.673864 0.926577 0.986480
O O12 0.000000 0.000000 0.000000
O O13 0.500000 0.117893 0.750000
#
# Coordination Sequence:
#
# PCOD9229868 Si02
#       6
#     4   4   4   4   4   2
#     4  10  21  38  62  87 124 169 221 270 322 379
#     4  10  22  39  58  88 127 175 220 267 322 385
#     4  11  23  39  61  95 129 166 215 269 330 383
#     4  11  24  46  73 102 134 177 220 273 342 415
#     4  11  24  42  70 104 135 171 222 276 337 411
#     4  10  20  34  60  92 118 164 222 270 312 384
#
# _framework density 20.097975000000002
#
# number of rings (size 3 to 8) (size 9 to 14) (size 15 to 20)
#    0.000    1.455    1.818    3.273    1.273    6.545 
#    6.545    0.000    0.000    0.000    0.000    0.000 
#    0.000    0.000    0.000    0.000    0.000    0.000 
#
# Total GULP energy -122644.887458 kJ/mol
# GULP energy per Si atom -5574.767612 kJ/mol
# Density = 2.005223 g / cm^3
# Si number density = 20.097975 Si / 1000 Ang^3
#
#
#
# Elastic Constant Matrix: (Units=GPa)
#
#
# Indices 1 2 3 4 5 6 
#
# 1 138.7398 57.2804 58.3495 0.0000 -20.3116 0.0000
# 2 57.2804 150.1128 32.7998 0.0000 -4.6829 0.0000
# 3 58.3495 32.7998 98.7084 0.0000 -19.4859 0.0000
# 4 0.0000 0.0000 0.0000 11.9518 0.0000 1.2113
# 5 -20.3116 -4.6829 -19.4859 0.0000 46.6711 0.0000
# 6 0.0000 0.0000 0.0000 1.2113 0.0000 16.9527
#
#
#
# Elastic Compliance Matrix: (Units=1/GPa)
#
#
# Indices 1 2 3 4 5 6 
#
# 1 0.010879 -0.002991 -0.004971 0.000000 0.002359 0.000000
# 2 -0.002991 0.008010 -0.001081 0.000000 -0.000949 0.000000
# 3 -0.004971 -0.001081 0.014146 0.000000 0.003634 0.000000
# 4 0.000000 0.000000 0.000000 0.084280 0.000000 -0.006022
# 5 0.002359 -0.000949 0.003634 0.000000 0.023875 0.000000
# 6 0.000000 0.000000 0.000000 -0.006022 0.000000 0.059418
#
#
# Mechanical properties :
#
#
# Convention : Reuss Voigt Hill
#
# Bulk Modulus (GPa) = 66.89817 76.04672 71.47245
# Shear Modulus (GPa) = 22.35373 31.05721 26.70547
#
# Velocity S-wave (km/s) = 3.33864 3.93528 3.64918
# Velocity P-wave (km/s) = 6.94409 7.65302 7.30716
#
# Compressibility (1/GPa) = 0.01494809
#
# Stress axis : x y z
#
# Youngs Moduli (GPa) = 91.92203 124.84991 70.69166
#
# Poissons Ratio (x) = 0.37347 0.35142
# Poissons Ratio (y) = 0.27497 0.07639
# Poissons Ratio (z) = 0.45695 0.13492
#
# Static dielectric constant tensor:
#      x y z
#    x 1.765320 0.000000 -0.001860 
#    y 0.000000 1.676140 0.000000 
#    z -0.001860 0.000000 1.794070 
# 
# From -- ./inp_files/26486.got.cif
#   From: 2010.05.17/outbox.cif.g08.bks.cpg/sg13_14_cif.got.tgz:26486.got - 2010.06.03 16:44:36.
