data_PCOD9229318
_publ_section_title
;
Structure prediction by ZEFSAII (Michael W. Deem and Ramdas Pophale) SiO2 
 PCOD9229318
Probable space group: P 2/C
;
_chemical_formula_sum "Si O2"
_cell_formula_units_Z 18
_cell_length_a 7.856615
_cell_length_b 6.337175
_cell_length_c 17.892477
_cell_angle_alpha 90.000000
_cell_angle_beta 52.461737
_cell_angle_gamma 90.000000
_cell_volume 706.391710
_symmetry_space_group_name_H-M "P 2/C"
_symmetry_group_IT_number 13
_symmetry_cell_setting 'monoclinic'
loop_
_space_group_symop_operation_xyz
x,y,z
-x,y,1/2-z
-x,-y,-z
x,-y,1/2+z
loop_
_atom_site_type_symbol
_atom_site_label
_atom_site_fract_x
_atom_site_fract_y
_atom_site_fract_z
Si Si1 0.687645 0.927487 0.284352
Si Si2 0.113279 0.375760 0.889612
Si Si3 0.500000 0.688998 0.750000
Si Si4 0.721416 0.213983 0.936729
Si Si5 0.697059 0.204923 0.529479
O O1 0.601451 0.156965 0.285827
O O2 0.784394 0.899017 0.341282
O O3 0.472865 0.791221 0.356126
O O4 0.818199 0.821618 0.183061
O O5 0.292875 0.554100 0.829886
O O6 0.105721 0.305411 0.978590
O O7 0.874984 0.406157 0.917503
O O8 0.469541 0.269305 0.992225
O O9 0.745085 0.034907 0.993208
#
# Coordination Sequence:
#
# PCOD9229318 Si02
#       5
#     4   4   2   4   4
#     4  10  19  39  59  83 122 157 191 246 298 347
#     4  12  20  37  64  85 116 159 201 239 299 354
#     4  12  20  36  64  90 120 156 204 250 296 346
#     4   9  20  36  63  83 115 160 197 238 301 353
#     4   9  18  39  61  82 119 156 194 245 299 348
#
# _framework density 25.481614
#
# number of rings (size 3 to 8) (size 9 to 14) (size 15 to 20)
#    1.333    0.444    4.444    1.333    0.000    0.000 
#    0.000   11.111    0.000    0.000    0.000    0.000 
#    0.000    0.000    0.000    0.000    0.000    0.000 
#
# Total GULP energy -100202.871525 kJ/mol
# GULP energy per Si atom -5566.826196 kJ/mol
# Density = 2.542362 g / cm^3
# Si number density = 25.481614 Si / 1000 Ang^3
#
#
#
# Elastic Constant Matrix: (Units=GPa)
#
#
# Indices 1 2 3 4 5 6 
#
# 1 188.8671 62.3772 26.8968 0.0000 21.7476 0.0000
# 2 62.3772 74.8229 2.1622 0.0000 17.0368 0.0000
# 3 26.8968 2.1622 54.1864 0.0000 15.1031 0.0000
# 4 0.0000 0.0000 0.0000 -10.7128 0.0000 -5.7660
# 5 21.7476 17.0368 15.1031 0.0000 47.8836 0.0000
# 6 0.0000 0.0000 0.0000 -5.7660 0.0000 48.8119
#
#
#
# Elastic Compliance Matrix: (Units=1/GPa)
#
#
# Indices 1 2 3 4 5 6 
#
# 1 0.007986 -0.006517 -0.003661 0.000000 -0.000154 0.000000
# 2 -0.006517 0.019905 0.003936 0.000000 -0.005364 0.000000
# 3 -0.003661 0.003936 0.021974 0.000000 -0.006668 0.000000
# 4 0.000000 0.000000 0.000000 -0.087766 0.000000 -0.010368
# 5 -0.000154 -0.005364 -0.006668 0.000000 0.024965 0.000000
# 6 0.000000 0.000000 0.000000 -0.010368 0.000000 0.019262
#
#
# Mechanical properties :
#
#
# Convention : Reuss Voigt Hill
#
# Bulk Modulus (GPa) = 26.75230 55.63877 41.19553
# Shear Modulus (GPa) = 159.88794 32.29256 96.09025
#
# Velocity S-wave (km/s) = 7.92986 3.56376 6.14748
# Velocity P-wave (km/s) = 9.71416 6.23026 8.16030
#
# Compressibility (1/GPa) = 0.03737996
#
# Stress axis : x y z
#
# Youngs Moduli (GPa) = 125.21588 50.23746 45.50885
#
# Poissons Ratio (x) = 0.32740 0.16662
# Poissons Ratio (y) = 0.81604 -0.17910
# Poissons Ratio (z) = 0.45845 -0.19771
#
# Static dielectric constant tensor:
#      x y z
#    x 2.242900 0.000000 -0.096350 
#    y 0.000000 2.080040 0.000000 
#    z -0.096350 0.000000 2.015530 
# 
# From -- ./inp_files/69098.got.cif
#   From: 2010.05.17/outbox.cif.g08.bks.cpg/sg13_35_cif.got.tgz:69098.got - 2010.06.03 16:44:36.
