data_PCOD9229722
_publ_section_title
;
Structure prediction by ZEFSAII (Michael W. Deem and Ramdas Pophale) SiO2 
 PCOD9229722
Probable space group: P 2/C
;
_chemical_formula_sum "Si O2"
_cell_formula_units_Z 18
_cell_length_a 5.465827
_cell_length_b 17.819023
_cell_length_c 12.500257
_cell_angle_alpha 90.000000
_cell_angle_beta 130.663113
_cell_angle_gamma 90.000000
_cell_volume 923.517681
_symmetry_space_group_name_H-M "P 2/C"
_symmetry_group_IT_number 13
_symmetry_cell_setting 'monoclinic'
loop_
_space_group_symop_operation_xyz
x,y,z
-x,y,1/2-z
-x,-y,-z
x,-y,1/2+z
loop_
_atom_site_type_symbol
_atom_site_label
_atom_site_fract_x
_atom_site_fract_y
_atom_site_fract_z
Si Si1 0.510776 0.424128 0.572210
Si Si2 0.937336 0.632356 0.385965
Si Si3 0.500000 0.772348 0.250000
Si Si4 0.376862 0.108283 0.882178
Si Si5 0.383419 0.062667 0.333434
O O1 0.500000 0.500000 0.500000
O O2 0.174465 0.397544 0.529544
O O3 0.746060 0.420099 0.744197
O O4 0.690906 0.369206 0.540373
O O5 0.796675 0.714929 0.326635
O O6 0.457498 0.826427 0.137207
O O7 0.000000 0.113884 0.750000
O O8 0.485950 0.024982 0.876402
O O9 0.442515 0.110384 0.026022
O O10 0.500000 0.086174 0.250000
O O11 0.000000 0.065784 0.250000
#
# Coordination Sequence:
#
# PCOD9229722 Si02
#       5
#     4   4   2   4   4
#     4   9  16  31  49  73 104 131 161 212 270 316
#     4   9  20  30  49  84 104 130 183 221 273 336
#     4  10  20  34  52  86 116 144 192 248 306 330
#     4  10  22  33  61  84 114 154 203 255 297 351
#     4  10  22  39  54  85 118 150 203 254 309 352
#
# _framework density 19.490694000000001
#
# number of rings (size 3 to 8) (size 9 to 14) (size 15 to 20)
#    0.000    2.667    1.111    0.667    9.333    2.667 
#    0.000    0.000    0.000    0.000   69.333    0.000 
#    0.000    0.000    0.000    0.000    0.000    0.000 
#
# Total GULP energy -100221.234672 kJ/mol
# GULP energy per Si atom -5567.846371 kJ/mol
# Density = 1.944633 g / cm^3
# Si number density = 19.490694 Si / 1000 Ang^3
#
#
#
# Elastic Constant Matrix: (Units=GPa)
#
#
# Indices 1 2 3 4 5 6 
#
# 1 142.8275 39.8281 46.4506 0.0000 -42.7979 0.0000
# 2 39.8281 96.6693 49.7754 0.0000 -19.4860 0.0000
# 3 46.4506 49.7754 103.6098 0.0000 -35.1341 0.0000
# 4 0.0000 0.0000 0.0000 19.0190 0.0000 -2.3171
# 5 -42.7979 -19.4860 -35.1341 0.0000 33.5398 0.0000
# 6 0.0000 0.0000 0.0000 -2.3171 0.0000 16.5589
#
#
#
# Elastic Compliance Matrix: (Units=1/GPa)
#
#
# Indices 1 2 3 4 5 6 
#
# 1 0.011713 -0.002304 0.000729 0.000000 0.014372 0.000000
# 2 -0.002304 0.014257 -0.006211 0.000000 -0.001163 0.000000
# 3 0.000729 -0.006211 0.017681 0.000000 0.015843 0.000000
# 4 0.000000 0.000000 0.000000 0.053491 0.000000 0.007485
# 5 0.014372 -0.001163 0.015843 0.000000 0.064075 0.000000
# 6 0.000000 0.000000 0.000000 0.007485 0.000000 0.061438
#
#
# Mechanical properties :
#
#
# Convention : Reuss Voigt Hill
#
# Bulk Modulus (GPa) = 35.61312 68.35721 51.98517
# Shear Modulus (GPa) = 20.19492 27.62704 23.91098
#
# Velocity S-wave (km/s) = 3.22239 3.76899 3.50636
# Velocity P-wave (km/s) = 5.67068 7.35447 6.56676
#
# Compressibility (1/GPa) = 0.02807954
#
# Stress axis : x y z
#
# Youngs Moduli (GPa) = 85.37288 70.13869 56.55801
#
# Poissons Ratio (x) = 0.16163 -0.04124
# Poissons Ratio (y) = 0.19674 0.35127
# Poissons Ratio (z) = -0.06225 0.43562
#
# Static dielectric constant tensor:
#      x y z
#    x 1.799840 0.000000 0.032700 
#    y 0.000000 1.680260 0.000000 
#    z 0.032700 0.000000 2.155010 
# 
# From -- ./inp_files/26428.got.cif
#   From: 2010.05.17/outbox.cif.g08.bks.cpg/sg13_14_cif.got.tgz:26428.got - 2010.06.03 16:44:36.
