data_PCOD9229704
_publ_section_title
;
Structure prediction by ZEFSAII (Michael W. Deem and Ramdas Pophale) SiO2 
 PCOD9229704
Probable space group: P 2/C
;
_chemical_formula_sum "Si O2"
_cell_formula_units_Z 26
_cell_length_a 20.219055
_cell_length_b 9.564586
_cell_length_c 19.489393
_cell_angle_alpha 90.000000
_cell_angle_beta 159.862035
_cell_angle_gamma 90.000000
_cell_volume 1297.596019
_symmetry_space_group_name_H-M "P 2/C"
_symmetry_group_IT_number 13
_symmetry_cell_setting 'monoclinic'
loop_
_space_group_symop_operation_xyz
x,y,z
-x,y,1/2-z
-x,-y,-z
x,-y,1/2+z
loop_
_atom_site_type_symbol
_atom_site_label
_atom_site_fract_x
_atom_site_fract_y
_atom_site_fract_z
Si Si1 0.691596 0.088509 0.672023
Si Si2 0.876857 0.323026 0.389186
Si Si3 0.682770 0.821234 0.888608
Si Si4 0.915884 0.969206 0.003842
Si Si5 0.122481 0.491204 0.230411
Si Si6 0.000000 0.618507 0.250000
Si Si7 0.504742 0.353178 0.417786
O O1 0.618375 0.233366 0.570006
O O2 0.500000 0.000000 0.500000
O O3 0.806496 0.091354 0.856322
O O4 0.852762 0.027528 0.775867
O O5 0.865177 0.166630 0.406466
O O6 0.906627 0.345691 0.337522
O O7 0.033385 0.399650 0.588573
O O8 0.675160 0.397760 0.211265
O O9 0.500000 0.884145 0.750000
O O10 0.820194 0.930846 0.982881
O O11 0.588256 0.720316 0.739226
O O12 0.817293 0.722025 0.065880
O O13 0.019075 0.524250 0.200952
O O14 0.345975 0.527750 0.456923
#
# Coordination Sequence:
#
# PCOD9229704 Si02
#       7
#     4   4   4   4   4   2   4
#     4  11  19  33  59  80 110 136 181 237 267 327
#     4  10  20  34  51  80 111 142 178 229 274 324
#     4  11  21  32  53  78 118 140 175 227 283 335
#     4  10  21  35  53  88 108 144 184 223 286 328
#     4  11  21  33  52  78 116 142 178 226 280 325
#     4  12  20  34  50  78 112 150 180 224 276 350
#     4  11  19  35  54  86 104 142 185 227 277 324
#
# _framework density 20.037053
#
# number of rings (size 3 to 8) (size 9 to 14) (size 15 to 20)
#    0.000    1.231    9.231    0.462    0.000    0.000 
#    0.000    0.000    0.000    0.000   16.000    0.000 
#    0.000    0.000    0.000    0.000    0.000    0.000 
#
# Total GULP energy -144935.300926 kJ/mol
# GULP energy per Si atom -5574.434651 kJ/mol
# Density = 1.999145 g / cm^3
# Si number density = 20.037053 Si / 1000 Ang^3
#
#
#
# Elastic Constant Matrix: (Units=GPa)
#
#
# Indices 1 2 3 4 5 6 
#
# 1 99.8514 1.1137 29.0612 0.0000 20.2495 0.0000
# 2 1.1137 21.8272 12.7974 0.0000 -4.1760 0.0000
# 3 29.0612 12.7974 114.0775 0.0000 26.2003 0.0000
# 4 0.0000 0.0000 0.0000 16.6721 0.0000 2.9728
# 5 20.2495 -4.1760 26.2003 0.0000 43.1916 0.0000
# 6 0.0000 0.0000 0.0000 2.9728 0.0000 30.1596
#
#
#
# Elastic Compliance Matrix: (Units=1/GPa)
#
#
# Indices 1 2 3 4 5 6 
#
# 1 0.011431 -0.000271 -0.001911 0.000000 -0.004226 0.000000
# 2 -0.000271 0.052556 -0.008160 0.000000 0.010158 0.000000
# 3 -0.001911 -0.008160 0.011786 0.000000 -0.007042 0.000000
# 4 0.000000 0.000000 0.000000 0.061053 0.000000 -0.006018
# 5 -0.004226 0.010158 -0.007042 0.000000 0.030388 0.000000
# 6 0.000000 0.000000 0.000000 -0.006018 0.000000 0.033750
#
#
# Mechanical properties :
#
#
# Convention : Reuss Voigt Hill
#
# Bulk Modulus (GPa) = 18.15268 35.74452 26.94860
# Shear Modulus (GPa) = 20.83235 30.85692 25.84463
#
# Velocity S-wave (km/s) = 3.22792 3.92853 3.59533
# Velocity P-wave (km/s) = 4.79290 6.20127 5.54200
#
# Compressibility (1/GPa) = 0.05508828
#
# Stress axis : x y z
#
# Youngs Moduli (GPa) = 87.48013 19.02737 84.84963
#
# Poissons Ratio (x) = 0.00516 0.16215
# Poissons Ratio (y) = 0.02374 0.69235
# Poissons Ratio (z) = 0.16717 0.15526
#
# Static dielectric constant tensor:
#      x y z
#    x 1.763780 0.000000 0.039090 
#    y 0.000000 1.783420 0.000000 
#    z 0.039090 0.000000 1.761110 
# 
# From -- ./inp_files/81790.got.cif
#   From: 2010.05.17/outbox.cif.g08.bks.cpg/sg13_41_cif.got.tgz:81790.got - 2010.06.03 16:44:36.
