data_PCOD9229447
_publ_section_title
;
Structure prediction by ZEFSAII (Michael W. Deem and Ramdas Pophale) SiO2 
 PCOD9229447
Probable space group: P 2/C
;
_chemical_formula_sum "Si O2"
_cell_formula_units_Z 30
_cell_length_a 8.879909
_cell_length_b 18.744325
_cell_length_c 9.481613
_cell_angle_alpha 90.000000
_cell_angle_beta 89.751249
_cell_angle_gamma 90.000000
_cell_volume 1578.179701
_symmetry_space_group_name_H-M "P 2/C"
_symmetry_group_IT_number 13
_symmetry_cell_setting 'monoclinic'
loop_
_space_group_symop_operation_xyz
x,y,z
-x,y,1/2-z
-x,-y,-z
x,-y,1/2+z
loop_
_atom_site_type_symbol
_atom_site_label
_atom_site_fract_x
_atom_site_fract_y
_atom_site_fract_z
Si Si1 0.542179 0.823471 0.609566
Si Si2 0.700003 0.701081 0.929379
Si Si3 0.790802 0.715552 0.619507
Si Si4 0.938509 0.064729 0.906734
Si Si5 0.500000 0.488797 0.750000
Si Si6 0.565279 0.402116 0.011973
Si Si7 0.573899 0.940779 0.400623
Si Si8 0.961996 0.227498 0.584402
O O1 0.500000 0.867587 0.750000
O O2 0.429743 0.757091 0.611691
O O3 0.709162 0.792665 0.620252
O O4 0.523607 0.866148 0.468156
O O5 0.794776 0.691330 0.783455
O O6 0.604718 0.631220 0.975592
O O7 0.797963 0.740973 0.047555
O O8 0.681964 0.660452 0.540585
O O9 0.934798 0.727004 0.522643
O O10 0.756065 0.060949 0.903967
O O11 0.004781 0.143385 0.947884
O O12 0.000000 0.052876 0.750000
O O13 0.000000 0.000000 0.000000
O O14 0.412302 0.438449 0.639994
O O15 0.416409 0.540972 0.861003
O O16 0.500000 0.948764 0.250000
O O17 0.500000 0.000000 0.500000
O O18 0.000000 0.236918 0.750000
#
# Coordination Sequence:
#
# PCOD9229447 Si02
#       8
#     4   4   4   4   2   4   4   4
#     4   9  20  37  61  87 118 152 210 255 308 359
#     4  10  21  37  63  90 125 166 207 256 306 371
#     4  10  19  41  59  90 124 163 207 256 304 373
#     4  11  26  46  63  89 128 169 213 265 331 396
#     4  10  20  36  66  98 132 158 204 258 314 374
#     4  10  20  38  65  99 125 165 208 257 310 374
#     4  12  25  41  64  90 120 161 211 266 322 377
#     4  11  25  39  61  92 128 165 216 257 317 376
#
# _framework density 19.009243000000001
#
# number of rings (size 3 to 8) (size 9 to 14) (size 15 to 20)
#    0.000    1.600    2.667    2.400    7.467    1.067 
#    2.400    0.000    0.000    4.800    0.000    0.000 
#    0.000    0.000    0.000    0.000    0.000    0.000 
#
# Total GULP energy -167125.369463 kJ/mol
# GULP energy per Si atom -5570.845649 kJ/mol
# Density = 1.896598 g / cm^3
# Si number density = 19.009243 Si / 1000 Ang^3
#
#
#
# Elastic Constant Matrix: (Units=GPa)
#
#
# Indices 1 2 3 4 5 6 
#
# 1 82.4415 31.5980 37.0121 0.0000 4.9039 0.0000
# 2 31.5980 81.4584 48.4369 0.0000 6.7467 0.0000
# 3 37.0121 48.4369 118.2553 0.0000 10.5954 0.0000
# 4 0.0000 0.0000 0.0000 31.5633 0.0000 8.6165
# 5 4.9039 6.7467 10.5954 0.0000 30.8485 0.0000
# 6 0.0000 0.0000 0.0000 8.6165 0.0000 9.9651
#
#
#
# Elastic Compliance Matrix: (Units=1/GPa)
#
#
# Indices 1 2 3 4 5 6 
#
# 1 0.015051 -0.003996 -0.003031 0.000000 -0.000478 0.000000
# 2 -0.003996 0.017341 -0.005746 0.000000 -0.001184 0.000000
# 3 -0.003031 -0.005746 0.011971 0.000000 -0.002373 0.000000
# 4 0.000000 0.000000 0.000000 0.041472 0.000000 -0.035860
# 5 -0.000478 -0.001184 -0.002373 0.000000 0.033566 0.000000
# 6 0.000000 0.000000 0.000000 -0.035860 0.000000 0.131357
#
#
# Mechanical properties :
#
#
# Convention : Reuss Voigt Hill
#
# Bulk Modulus (GPa) = 53.14552 57.36102 55.25327
# Shear Modulus (GPa) = 17.69427 25.48258 21.58843
#
# Velocity S-wave (km/s) = 3.05425 3.66531 3.37364
# Velocity P-wave (km/s) = 6.36053 6.93927 6.65619
#
# Compressibility (1/GPa) = 0.01881626
#
# Stress axis : x y z
#
# Youngs Moduli (GPa) = 66.44210 57.66624 83.53453
#
# Poissons Ratio (x) = 0.23046 0.25319
# Poissons Ratio (y) = 0.26553 0.47999
# Poissons Ratio (z) = 0.20138 0.33135
#
# Static dielectric constant tensor:
#      x y z
#    x 1.846390 0.000000 0.067140 
#    y 0.000000 1.678330 0.000000 
#    z 0.067140 0.000000 1.772320 
# 
# From -- ./inp_files/13491.got.cif
#   From: 2010.05.17/outbox.cif.g08.bks.cpg/sg13_7_cif.got.tgz:13491.got - 2010.06.03 16:44:36.
