data_PCOD9229680
_publ_section_title
;
Structure prediction by ZEFSAII (Michael W. Deem and Ramdas Pophale) SiO2 
 PCOD9229680
Probable space group: P 2/C
;
_chemical_formula_sum "Si O2"
_cell_formula_units_Z 28
_cell_length_a 16.225595
_cell_length_b 8.719220
_cell_length_c 10.583819
_cell_angle_alpha 90.000000
_cell_angle_beta 63.983227
_cell_angle_gamma 90.000000
_cell_volume 1345.608824
_symmetry_space_group_name_H-M "P 2/C"
_symmetry_group_IT_number 13
_symmetry_cell_setting 'monoclinic'
loop_
_space_group_symop_operation_xyz
x,y,z
-x,y,1/2-z
-x,-y,-z
x,-y,1/2+z
loop_
_atom_site_type_symbol
_atom_site_label
_atom_site_fract_x
_atom_site_fract_y
_atom_site_fract_z
Si Si1 0.801119 0.585945 0.841999
Si Si2 0.300670 0.132979 0.199344
Si Si3 0.204209 0.763519 0.409358
Si Si4 0.900247 0.706961 0.265444
Si Si5 0.758056 0.073751 0.985080
Si Si6 0.473697 0.694279 0.630734
Si Si7 0.635374 0.392874 0.841615
O O1 0.778560 0.741889 0.781124
O O2 0.885639 0.475349 0.756776
O O3 0.713368 0.480312 0.869532
O O4 0.809717 0.627793 0.982215
O O5 0.300755 0.113034 0.350773
O O6 0.398888 0.207282 0.105512
O O7 0.285913 0.987371 0.117172
O O8 0.129562 0.771199 0.350088
O O9 0.305988 0.722651 0.285387
O O10 0.195518 0.919482 0.492802
O O11 0.825967 0.786938 0.408222
O O12 0.000000 0.742200 0.250000
O O13 0.500000 0.756037 0.750000
O O14 0.423970 0.527811 0.685247
O O15 0.563967 0.681962 0.485323
#
# Coordination Sequence:
#
# PCOD9229680 Si02
#       7
#     4   4   4   4   4   4   4
#     4   9  21  40  67  91 123 163 212 259 321 369
#     4  10  23  43  66  91 125 176 211 252 320 373
#     4  10  21  41  64  90 128 172 207 254 315 382
#     4  11  25  41  66  97 123 158 209 268 318 378
#     4  11  23  45  65  88 129 174 210 250 320 396
#     4  10  20  33  60  94 127 164 218 267 307 359
#     4   9  19  35  59  93 127 167 215 260 305 368
#
# _framework density 20.808423999999999
#
# number of rings (size 3 to 8) (size 9 to 14) (size 15 to 20)
#    0.000    2.000    1.429    0.857   10.000    2.286 
#    0.000    4.286    0.000    0.000    0.000    0.000 
#    0.000    0.000    0.000    0.000    0.000    0.000 
#
# Total GULP energy -156005.006904 kJ/mol
# GULP energy per Si atom -5571.607389 kJ/mol
# Density = 2.076106 g / cm^3
# Si number density = 20.808424 Si / 1000 Ang^3
#
#
#
# Elastic Constant Matrix: (Units=GPa)
#
#
# Indices 1 2 3 4 5 6 
#
# 1 66.2161 9.1803 17.2344 0.0000 12.0880 0.0000
# 2 9.1803 53.6369 11.7747 0.0000 4.0667 0.0000
# 3 17.2344 11.7747 38.0688 0.0000 23.4416 0.0000
# 4 0.0000 0.0000 0.0000 28.0242 0.0000 6.5747
# 5 12.0880 4.0667 23.4416 0.0000 17.1620 0.0000
# 6 0.0000 0.0000 0.0000 6.5747 0.0000 8.5118
#
#
#
# Elastic Compliance Matrix: (Units=1/GPa)
#
#
# Indices 1 2 3 4 5 6 
#
# 1 0.017561 -0.002114 0.000074 0.000000 -0.011969 0.000000
# 2 -0.002114 0.021863 -0.022224 0.000000 0.026665 0.000000
# 3 0.000074 -0.022224 0.188130 0.000000 -0.251752 0.000000
# 4 0.000000 0.000000 0.000000 0.043581 0.000000 -0.033663
# 5 -0.011969 0.026665 -0.251752 0.000000 0.404248 0.000000
# 6 0.000000 0.000000 0.000000 -0.033663 0.000000 0.143486
#
#
# Mechanical properties :
#
#
# Convention : Reuss Voigt Hill
#
# Bulk Modulus (GPa) = 5.58585 26.03342 15.80963
# Shear Modulus (GPa) = 5.39332 18.72176 12.05754
#
# Velocity S-wave (km/s) = 1.61168 3.00279 2.40980
# Velocity P-wave (km/s) = 2.48065 4.95585 3.91881
#
# Compressibility (1/GPa) = 0.17902391
#
# Stress axis : x y z
#
# Youngs Moduli (GPa) = 56.94461 45.73959 5.31547
#
# Poissons Ratio (x) = 0.09671 -0.00039
# Poissons Ratio (y) = 0.12040 0.11813
# Poissons Ratio (z) = -0.00420 1.01654
#
# Static dielectric constant tensor:
#      x y z
#    x 1.764250 0.000000 0.009970 
#    y 0.000000 1.828090 0.000000 
#    z 0.009970 0.000000 1.762570 
# 
# From -- ./inp_files/36156.got.cif
#   From: 2010.05.17/outbox.cif.g08.bks.cpg/sg13_19_cif.got.tgz:36156.got - 2010.06.03 16:44:36.
