data_PCOD9229774
_publ_section_title
;
Structure prediction by ZEFSAII (Michael W. Deem and Ramdas Pophale) SiO2 
 PCOD9229774
Probable space group: P 2/C
;
_chemical_formula_sum "Si O2"
_cell_formula_units_Z 32
_cell_length_a 15.002483
_cell_length_b 6.528983
_cell_length_c 18.329654
_cell_angle_alpha 90.000000
_cell_angle_beta 66.522988
_cell_angle_gamma 90.000000
_cell_volume 1646.783311
_symmetry_space_group_name_H-M "P 2/C"
_symmetry_group_IT_number 13
_symmetry_cell_setting 'monoclinic'
loop_
_space_group_symop_operation_xyz
x,y,z
-x,y,1/2-z
-x,-y,-z
x,-y,1/2+z
loop_
_atom_site_type_symbol
_atom_site_label
_atom_site_fract_x
_atom_site_fract_y
_atom_site_fract_z
Si Si1 0.765758 0.591581 0.615736
Si Si2 0.385836 0.309870 0.779870
Si Si3 0.595046 0.424321 0.886902
Si Si4 0.873209 0.127132 0.972719
Si Si5 0.758181 0.968586 0.720931
Si Si6 0.905993 0.786176 0.081634
Si Si7 0.570556 0.189238 0.494531
Si Si8 0.265503 0.925605 0.103196
O O1 0.668124 0.455913 0.644745
O O2 0.792038 0.733472 0.538829
O O3 0.761583 0.744576 0.685675
O O4 0.852618 0.429844 0.596392
O O5 0.500000 0.280365 0.750000
O O6 0.371006 0.421031 0.706775
O O7 0.328516 0.096424 0.790128
O O8 0.582340 0.646325 0.925851
O O9 0.671345 0.282944 0.907178
O O10 0.489766 0.312397 0.925371
O O11 0.836973 0.103583 0.902300
O O12 0.979138 0.227678 0.945011
O O13 0.883303 0.916698 0.015582
O O14 0.855881 0.084635 0.663157
O O15 0.743287 0.983624 0.812363
O O16 0.500000 0.000000 0.500000
O O17 0.674319 0.081694 0.468504
#
# Coordination Sequence:
#
# PCOD9229774 Si02
#       8
#     4   4   4   4   4   4   4   4
#     4  10  20  37  59  81 111 150 188 230 282 340
#     4  10  21  34  53  79 109 146 188 232 278 336
#     4   9  19  34  49  73 109 146 184 229 279 333
#     4  10  21  36  59  85 111 144 188 237 286 344
#     4   9  20  38  57  80 113 147 184 231 284 341
#     4   9  20  39  58  81 112 147 186 232 284 341
#     4   9  18  32  51  72 104 144 180 224 278 329
#     4  10  20  34  55  82 110 144 185 234 285 336
#
# _framework density 19.431823000000001
#
# number of rings (size 3 to 8) (size 9 to 14) (size 15 to 20)
#    0.000    2.500    0.000    1.125    0.000    8.000 
#    0.000    0.000    0.000   13.500    0.000    0.000 
#    0.000    0.000    0.000    0.000    0.000    0.000 
#
# Total GULP energy -178412.335129 kJ/mol
# GULP energy per Si atom -5575.385473 kJ/mol
# Density = 1.938760 g / cm^3
# Si number density = 19.431823 Si / 1000 Ang^3
#
#
#
# Elastic Constant Matrix: (Units=GPa)
#
#
# Indices 1 2 3 4 5 6 
#
# 1 97.0326 30.8826 33.8346 0.0000 -3.0863 0.0000
# 2 30.8826 104.6129 33.1625 0.0000 -3.5606 0.0000
# 3 33.8346 33.1625 42.7984 0.0000 -12.4497 0.0000
# 4 0.0000 0.0000 0.0000 31.0954 0.0000 -15.7516
# 5 -3.0863 -3.5606 -12.4497 0.0000 19.8602 0.0000
# 6 0.0000 0.0000 0.0000 -15.7516 0.0000 9.8227
#
#
#
# Elastic Compliance Matrix: (Units=1/GPa)
#
#
# Indices 1 2 3 4 5 6 
#
# 1 0.014834 -0.000413 -0.013157 0.000000 -0.006017 0.000000
# 2 -0.000413 0.013060 -0.011167 0.000000 -0.004723 0.000000
# 3 -0.013157 -0.011167 0.050440 0.000000 0.027573 0.000000
# 4 0.000000 0.000000 0.000000 0.171341 0.000000 0.274761
# 5 -0.006017 -0.004723 0.027573 0.000000 0.065855 0.000000
# 6 0.000000 0.000000 0.000000 0.274761 0.000000 0.542409
#
#
# Mechanical properties :
#
#
# Convention : Reuss Voigt Hill
#
# Bulk Modulus (GPa) = 34.65021 48.91147 41.78084
# Shear Modulus (GPa) = 5.45237 21.92660 13.68948
#
# Velocity S-wave (km/s) = 1.67690 3.36279 2.65710
# Velocity P-wave (km/s) = 4.64970 6.34848 5.56430
#
# Compressibility (1/GPa) = 0.02885985
#
# Stress axis : x y z
#
# Youngs Moduli (GPa) = 67.41431 76.56843 19.82544
#
# Poissons Ratio (x) = 0.03162 0.26084
# Poissons Ratio (y) = 0.02784 0.22139
# Poissons Ratio (z) = 0.88697 0.85505
#
# Static dielectric constant tensor:
#      x y z
#    x 1.662500 0.000000 -0.025060 
#    y 0.000000 1.690830 0.000000 
#    z -0.025060 0.000000 1.687370 
# 
# From -- ./inp_files/67557.got.cif
#   From: 2010.05.17/outbox.cif.g08.bks.cpg/sg13_34_cif.got.tgz:67557.got - 2010.06.03 16:44:36.
