data_PCOD9229930
_publ_section_title
;
Structure prediction by ZEFSAII (Michael W. Deem and Ramdas Pophale) SiO2 
 PCOD9229930
Probable space group: P 2/C
;
_chemical_formula_sum "Si O2"
_cell_formula_units_Z 30
_cell_length_a 16.904480
_cell_length_b 17.399310
_cell_length_c 14.087489
_cell_angle_alpha 90.000000
_cell_angle_beta 20.389622
_cell_angle_gamma 90.000000
_cell_volume 1443.605106
_symmetry_space_group_name_H-M "P 2/C"
_symmetry_group_IT_number 13
_symmetry_cell_setting 'monoclinic'
loop_
_space_group_symop_operation_xyz
x,y,z
-x,y,1/2-z
-x,-y,-z
x,-y,1/2+z
loop_
_atom_site_type_symbol
_atom_site_label
_atom_site_fract_x
_atom_site_fract_y
_atom_site_fract_z
Si Si1 0.113741 0.192347 0.529593
Si Si2 0.696097 0.035545 0.215225
Si Si3 0.870741 0.240494 0.613358
Si Si4 0.351697 0.529180 0.076658
Si Si5 0.957573 0.907285 0.686418
Si Si6 0.587662 0.326079 0.322659
Si Si7 0.500000 0.033724 0.750000
Si Si8 0.114024 0.386597 0.336565
O O1 0.264158 0.125357 0.314068
O O2 0.262333 0.263751 0.399795
O O3 0.000000 0.156512 0.750000
O O4 0.945839 0.224197 0.637849
O O5 0.500000 0.000000 0.500000
O O6 0.625217 0.018376 0.186514
O O7 0.925838 0.987519 0.973787
O O8 0.916667 0.160863 0.509461
O O9 0.034183 0.305889 0.382885
O O10 0.621095 0.277645 0.897413
O O11 0.270279 0.452584 0.113147
O O12 0.120547 0.570542 0.372248
O O13 0.500000 0.500000 0.000000
O O14 0.492726 0.599726 0.874401
O O15 0.000000 0.894906 0.750000
O O16 0.686464 0.915525 0.984537
O O17 0.746523 0.359906 0.227400
#
# Coordination Sequence:
#
# PCOD9229930 Si02
#       8
#     4   4   4   4   4   4   2   4
#     4  11  23  35  50  79 111 142 184 229 277 340
#     4  11  23  38  57  79 106 142 187 232 278 337
#     4  10  20  35  54  79 109 139 180 229 278 330
#     4   8  13  26  48  76 106 137 176 222 270 324
#     4  10  22  38  56  80 106 142 183 223 279 339
#     4   9  18  31  50  76 107 143 181 223 274 329
#     4  10  22  40  58  78 108 142 178 226 280 334
#     4   8  15  27  48  80 105 132 180 224 266 326
#
# _framework density 20.781306000000001
#
# number of rings (size 3 to 8) (size 9 to 14) (size 15 to 20)
#    0.000    2.400    0.000    2.800    0.000    9.067 
#    0.000    0.000    0.000    0.000    0.000  140.000 
#    0.000    0.000    0.000    0.000    0.000    0.000 
#
# Total GULP energy -167100.393420 kJ/mol
# GULP energy per Si atom -5570.013114 kJ/mol
# Density = 2.073401 g / cm^3
# Si number density = 20.781306 Si / 1000 Ang^3
#
#
#
# Elastic Constant Matrix: (Units=GPa)
#
#
# Indices 1 2 3 4 5 6 
#
# 1 51.4555 21.0809 26.8672 0.0000 -7.3309 0.0000
# 2 21.0809 103.5859 20.6196 0.0000 -10.6563 0.0000
# 3 26.8672 20.6196 81.6832 0.0000 -16.0424 0.0000
# 4 0.0000 0.0000 0.0000 26.7455 0.0000 -21.3238
# 5 -7.3309 -10.6563 -16.0424 0.0000 26.2219 0.0000
# 6 0.0000 0.0000 0.0000 -21.3238 0.0000 10.4752
#
#
#
# Elastic Compliance Matrix: (Units=1/GPa)
#
#
# Indices 1 2 3 4 5 6 
#
# 1 0.024699 -0.003510 -0.007004 0.000000 0.001194 0.000000
# 2 -0.003510 0.010863 -0.001038 0.000000 0.002798 0.000000
# 3 -0.007004 -0.001038 0.016299 0.000000 0.007592 0.000000
# 4 0.000000 0.000000 0.000000 -0.060015 0.000000 -0.122170
# 5 0.001194 0.002798 0.007592 0.000000 0.044252 0.000000
# 6 0.000000 0.000000 0.000000 -0.122170 0.000000 -0.153233
#
#
# Mechanical properties :
#
#
# Convention : Reuss Voigt Hill
#
# Bulk Modulus (GPa) = 34.77270 41.54000 38.15635
# Shear Modulus (GPa) = -59.20870 23.89899 -17.65485
#
# Velocity S-wave (km/s) = -5.34352 3.39488 -2.91787
# Velocity P-wave (km/s) = 4.61540 5.94974 2.65495
#
# Compressibility (1/GPa) = 0.02875819
#
# Stress axis : x y z
#
# Youngs Moduli (GPa) = 40.48730 92.05923 61.35313
#
# Poissons Ratio (x) = 0.32309 0.42969
# Poissons Ratio (y) = 0.14209 0.06369
# Poissons Ratio (z) = 0.28355 0.09557
#
# Static dielectric constant tensor:
#      x y z
#    x 1.751890 0.000000 -0.022330 
#    y 0.000000 1.782660 0.000000 
#    z -0.022330 0.000000 1.800310 
# 
# From -- ./inp_files/55956.got.cif
#   From: 2010.05.17/outbox.cif.g08.bks.cpg/sg13_28_cif.got.tgz:55956.got - 2010.06.03 16:44:36.
