data_PCOD9229629
_publ_section_title
;
Structure prediction by ZEFSAII (Michael W. Deem and Ramdas Pophale) SiO2 
 PCOD9229629
Probable space group: P 2/C
;
_chemical_formula_sum "Si O2"
_cell_formula_units_Z 24
_cell_length_a 17.499317
_cell_length_b 11.446995
_cell_length_c 8.926056
_cell_angle_alpha 90.000000
_cell_angle_beta 43.737086
_cell_angle_gamma 90.000000
_cell_volume 1236.147532
_symmetry_space_group_name_H-M "P 2/C"
_symmetry_group_IT_number 13
_symmetry_cell_setting 'monoclinic'
loop_
_space_group_symop_operation_xyz
x,y,z
-x,y,1/2-z
-x,-y,-z
x,-y,1/2+z
loop_
_atom_site_type_symbol
_atom_site_label
_atom_site_fract_x
_atom_site_fract_y
_atom_site_fract_z
Si Si1 0.083536 0.540448 0.505620
Si Si2 0.609811 0.411380 0.191817
Si Si3 0.152490 0.278121 0.399655
Si Si4 0.620916 0.644622 0.021408
Si Si5 0.978068 0.124286 0.457286
Si Si6 0.200876 0.253730 0.664124
O O1 0.141867 0.417171 0.458426
O O2 0.158882 0.636039 0.322465
O O3 0.000000 0.500000 0.500000
O O4 0.000000 0.586305 0.750000
O O5 0.500000 0.410034 0.250000
O O6 0.659703 0.537732 0.074235
O O7 0.597725 0.404249 0.387033
O O8 0.677298 0.296741 0.046657
O O9 0.056570 0.220696 0.433093
O O10 0.150647 0.227313 0.569926
O O11 0.272724 0.271014 0.149078
O O12 0.500000 0.688014 0.250000
O O13 0.000000 0.125762 0.250000
O O14 0.848057 0.150455 0.668376
O O15 0.000000 0.000000 0.500000
#
# Coordination Sequence:
#
# PCOD9229629 Si02
#       6
#     4   4   4   4   4   4
#     4  12  20  31  50  81 118 149 185 227 280 341
#     4  10  20  33  51  79 118 155 189 231 273 330
#     4  11  22  37  56  81 117 151 187 235 279 337
#     4  10  20  33  52  80 115 155 191 229 274 330
#     4  12  26  42  62  84 111 146 188 235 288 341
#     4  11  22  36  56  82 116 152 190 231 281 337
#
# _framework density 19.415158999999999
#
# number of rings (size 3 to 8) (size 9 to 14) (size 15 to 20)
#    0.000    1.000    5.000    4.000    0.000    2.667 
#    0.000    0.000    0.000    1.000    0.000    7.000 
#    0.000    0.000    0.000    0.000    0.000    0.000 
#
# Total GULP energy -133620.443121 kJ/mol
# GULP energy per Si atom -5567.518463 kJ/mol
# Density = 1.937097 g / cm^3
# Si number density = 19.415159 Si / 1000 Ang^3
#
#
#
# Elastic Constant Matrix: (Units=GPa)
#
#
# Indices 1 2 3 4 5 6 
#
# 1 42.7793 2.1169 26.1898 0.0000 15.1228 0.0000
# 2 2.1169 60.9667 18.0281 0.0000 0.4956 0.0000
# 3 26.1898 18.0281 140.7929 0.0000 11.8588 0.0000
# 4 0.0000 0.0000 0.0000 19.1639 0.0000 2.8807
# 5 15.1228 0.4956 11.8588 0.0000 36.6026 0.0000
# 6 0.0000 0.0000 0.0000 2.8807 0.0000 17.6026
#
#
#
# Elastic Compliance Matrix: (Units=1/GPa)
#
#
# Indices 1 2 3 4 5 6 
#
# 1 0.030113 0.000445 -0.004739 0.000000 -0.010912 0.000000
# 2 0.000445 0.017063 -0.002295 0.000000 0.000329 0.000000
# 3 -0.004739 -0.002295 0.008338 0.000000 -0.000712 0.000000
# 4 0.000000 0.000000 0.000000 0.053497 0.000000 -0.008755
# 5 -0.010912 0.000329 -0.000712 0.000000 0.032055 0.000000
# 6 0.000000 0.000000 0.000000 -0.008755 0.000000 0.058243
#
#
# Mechanical properties :
#
#
# Convention : Reuss Voigt Hill
#
# Bulk Modulus (GPa) = 23.62176 37.46762 30.54469
# Shear Modulus (GPa) = 22.06528 27.88742 24.97635
#
# Velocity S-wave (km/s) = 3.37485 3.79406 3.59058
# Velocity P-wave (km/s) = 5.23252 6.20751 5.74075
#
# Compressibility (1/GPa) = 0.04233386
#
# Stress axis : x y z
#
# Youngs Moduli (GPa) = 33.20855 58.60636 119.93129
#
# Poissons Ratio (x) = -0.02605 0.56839
# Poissons Ratio (y) = -0.01476 0.27527
# Poissons Ratio (z) = 0.15738 0.13452
#
# Static dielectric constant tensor:
#      x y z
#    x 1.642540 0.000000 -0.028590 
#    y 0.000000 1.854040 0.000000 
#    z -0.028590 0.000000 1.724070 
# 
# From -- ./inp_files/23167.got.cif
#   From: 2010.05.17/outbox.cif.g08.bks.cpg/sg13_12_cif.got.tgz:23167.got - 2010.06.03 16:44:36.
