data_PCOD9229983
_publ_section_title
;
Structure prediction by ZEFSAII (Michael W. Deem and Ramdas Pophale) SiO2 
 PCOD9229983
Probable space group: P 2/C
;
_chemical_formula_sum "Si O2"
_cell_formula_units_Z 28
_cell_length_a 15.737970
_cell_length_b 11.328447
_cell_length_c 9.332528
_cell_angle_alpha 90.000000
_cell_angle_beta 122.147400
_cell_angle_gamma 90.000000
_cell_volume 1408.765559
_symmetry_space_group_name_H-M "P 2/C"
_symmetry_group_IT_number 13
_symmetry_cell_setting 'monoclinic'
loop_
_space_group_symop_operation_xyz
x,y,z
-x,y,1/2-z
-x,-y,-z
x,-y,1/2+z
loop_
_atom_site_type_symbol
_atom_site_label
_atom_site_fract_x
_atom_site_fract_y
_atom_site_fract_z
Si Si1 0.275029 0.608111 0.418980
Si Si2 0.044992 0.684051 0.950059
Si Si3 0.694280 0.643393 0.606125
Si Si4 0.576598 0.039834 0.693716
Si Si5 0.121753 0.586616 0.512378
Si Si6 0.741990 0.237605 0.856448
Si Si7 0.607636 0.219441 0.275338
O O1 0.331471 0.483421 0.485202
O O2 0.164061 0.598912 0.388911
O O3 0.283010 0.649707 0.264068
O O4 0.321576 0.711783 0.553889
O O5 0.000000 0.705484 0.750000
O O6 0.962542 0.675298 0.002436
O O7 0.086055 0.548863 0.984754
O O8 0.137905 0.773019 0.059493
O O9 0.786245 0.609105 0.794701
O O10 0.727691 0.729021 0.509257
O O11 0.613664 0.711060 0.630613
O O12 0.500000 0.079866 0.750000
O O13 0.662637 0.136202 0.743793
O O14 0.500000 0.000000 0.500000
O O15 0.632802 0.917996 0.783449
O O16 0.500000 0.223325 0.250000
#
# Coordination Sequence:
#
# PCOD9229983 Si02
#       7
#     4   4   4   4   4   4   4
#     4  11  21  37  58  91 135 164 204 255 331 394
#     4  11  20  33  60  95 133 174 217 256 312 387
#     4  11  20  38  59  93 131 164 205 261 325 398
#     4  11  24  46  68  90 113 166 232 276 326 388
#     4  10  20  35  56  88 137 177 203 242 316 404
#     4  12  22  35  63  96 124 163 225 272 311 381
#     4  10  23  42  63  86 119 164 212 271 332 390
#
# _framework density 19.875556
#
# number of rings (size 3 to 8) (size 9 to 14) (size 15 to 20)
#    0.000    1.143    4.286    3.429    2.000    0.571 
#    0.000    2.857    0.000    3.429    0.000    0.000 
#    0.000    0.000    0.000    0.000    0.000    0.000 
#
# Total GULP energy -156133.211678 kJ/mol
# GULP energy per Si atom -5576.186131 kJ/mol
# Density = 1.983032 g / cm^3
# Si number density = 19.875556 Si / 1000 Ang^3
#
#
#
# Elastic Constant Matrix: (Units=GPa)
#
#
# Indices 1 2 3 4 5 6 
#
# 1 115.1537 61.2992 16.4241 0.0000 -20.1244 0.0000
# 2 61.2992 84.9830 11.4264 0.0000 12.4393 0.0000
# 3 16.4241 11.4264 52.9621 0.0000 -3.2244 0.0000
# 4 0.0000 0.0000 0.0000 30.5946 0.0000 5.8812
# 5 -20.1244 12.4393 -3.2244 0.0000 33.2547 0.0000
# 6 0.0000 0.0000 0.0000 5.8812 0.0000 37.5421
#
#
#
# Elastic Compliance Matrix: (Units=1/GPa)
#
#
# Indices 1 2 3 4 5 6 
#
# 1 0.022862 -0.019329 -0.001647 0.000000 0.020906 0.000000
# 2 -0.019329 0.029279 -0.001712 0.000000 -0.022815 0.000000
# 3 -0.001647 -0.001712 0.019857 0.000000 0.001569 0.000000
# 4 0.000000 0.000000 0.000000 0.033700 0.000000 -0.005279
# 5 0.020906 -0.022815 0.001569 0.000000 0.051409 0.000000
# 6 0.000000 0.000000 0.000000 -0.005279 0.000000 0.027464
#
#
# Mechanical properties :
#
#
# Convention : Reuss Voigt Hill
#
# Bulk Modulus (GPa) = 37.56199 47.93315 42.74757
# Shear Modulus (GPa) = 20.93629 31.20822 26.07226
#
# Velocity S-wave (km/s) = 3.24909 3.96685 3.62577
# Velocity P-wave (km/s) = 5.74587 6.71939 6.25161
#
# Compressibility (1/GPa) = 0.02662266
#
# Stress axis : x y z
#
# Youngs Moduli (GPa) = 43.74116 34.15414 50.36028
#
# Poissons Ratio (x) = 0.66017 0.08293
# Poissons Ratio (y) = 0.84548 0.08620
# Poissons Ratio (z) = 0.07203 0.05846
#
# Static dielectric constant tensor:
#      x y z
#    x 1.760380 0.000000 0.016350 
#    y 0.000000 1.699440 0.000000 
#    z 0.016350 0.000000 1.781050 
# 
# From -- ./inp_files/19110.got.cif
#   From: 2010.05.17/outbox.cif.g08.bks.cpg/sg13_10_cif.got.tgz:19110.got - 2010.06.03 16:44:36.
