data_PCOD9229006
_publ_section_title
;
Structure prediction by ZEFSAII (Michael W. Deem and Ramdas Pophale) SiO2 
 PCOD9229006
Probable space group: P 2/C
;
_chemical_formula_sum "Si O2"
_cell_formula_units_Z 16
_cell_length_a 9.874669
_cell_length_b 5.770864
_cell_length_c 18.363541
_cell_angle_alpha 90.000000
_cell_angle_beta 40.252333
_cell_angle_gamma 90.000000
_cell_volume 676.171035
_symmetry_space_group_name_H-M "P 2/C"
_symmetry_group_IT_number 13
_symmetry_cell_setting 'monoclinic'
loop_
_space_group_symop_operation_xyz
x,y,z
-x,y,1/2-z
-x,-y,-z
x,-y,1/2+z
loop_
_atom_site_type_symbol
_atom_site_label
_atom_site_fract_x
_atom_site_fract_y
_atom_site_fract_z
Si Si1 0.889015 0.310463 0.996656
Si Si2 0.293875 0.999725 0.309650
Si Si3 0.748637 0.121049 0.338021
Si Si4 0.230850 0.383952 0.616206
O O1 0.796838 0.400014 0.959206
O O2 0.728317 0.183820 0.116079
O O3 0.076749 0.137846 0.898163
O O4 0.000000 0.500000 0.000000
O O5 0.500000 0.857705 0.250000
O O6 0.303856 0.105393 0.225545
O O7 0.671256 0.372743 0.397199
O O8 0.000000 0.127149 0.250000
O O9 0.681812 0.871690 0.399063
O O10 0.000000 0.380869 0.750000
#
# Coordination Sequence:
#
# PCOD9229006 Si02
#       4
#     4   4   4   4
#     4  11  23  42  70  97 134 183 228 279 346 411
#     4  11  25  43  67 103 139 177 228 288 345 408
#     4  10  19  39  65  93 132 180 220 272 339 403
#     4  10  19  36  67  92 127 181 224 270 332 406
#
# _framework density 23.662652999999999
#
# number of rings (size 3 to 8) (size 9 to 14) (size 15 to 20)
#    0.000    1.500    5.000    3.000    3.500    1.000 
#    0.000    2.500    0.000    0.000    0.000    0.000 
#    0.000    0.000    0.000    0.000    0.000    0.000 
#
# Total GULP energy -89415.663756 kJ/mol
# GULP energy per Si atom -5588.478985 kJ/mol
# Density = 2.360880 g / cm^3
# Si number density = 23.662653 Si / 1000 Ang^3
#
#
#
# Elastic Constant Matrix: (Units=GPa)
#
#
# Indices 1 2 3 4 5 6 
#
# 1 182.3527 57.1384 78.9109 0.0000 43.5577 0.0000
# 2 57.1384 196.0419 69.7963 0.0000 29.6802 0.0000
# 3 78.9109 69.7963 55.6915 0.0000 32.1143 0.0000
# 4 0.0000 0.0000 0.0000 14.3901 0.0000 2.6376
# 5 43.5577 29.6802 32.1143 0.0000 60.5599 0.0000
# 6 0.0000 0.0000 0.0000 2.6376 0.0000 41.2414
#
#
#
# Elastic Compliance Matrix: (Units=1/GPa)
#
#
# Indices 1 2 3 4 5 6 
#
# 1 0.018657 0.007442 -0.037339 0.000000 0.002734 0.000000
# 2 0.007442 0.012410 -0.028096 0.000000 0.003464 0.000000
# 3 -0.037339 -0.028096 0.119052 0.000000 -0.022507 0.000000
# 4 0.000000 0.000000 0.000000 0.070316 0.000000 -0.004497
# 5 0.002734 0.003464 -0.022507 0.000000 0.024783 0.000000
# 6 0.000000 0.000000 0.000000 -0.004497 0.000000 0.024535
#
#
# Mechanical properties :
#
#
# Convention : Reuss Voigt Hill
#
# Bulk Modulus (GPa) = 29.29603 93.97527 61.63565
# Shear Modulus (GPa) = 12.59073 38.45430 25.52252
#
# Velocity S-wave (km/s) = 2.30922 4.03563 3.28777
# Velocity P-wave (km/s) = 4.41787 7.84321 6.36528
#
# Compressibility (1/GPa) = 0.03413432
#
# Stress axis : x y z
#
# Youngs Moduli (GPa) = 53.59964 80.57818 8.39968
#
# Poissons Ratio (x) = -0.59966 0.31363
# Poissons Ratio (y) = -0.39889 0.23599
# Poissons Ratio (z) = 2.00135 2.26390
#
# Static dielectric constant tensor:
#      x y z
#    x 1.841990 0.000000 -0.138740 
#    y 0.000000 1.913160 0.000000 
#    z -0.138740 0.000000 2.037500 
# 
# From -- ./inp_files/45123.got.cif
#   From: 2010.05.17/outbox.cif.g08.bks.cpg/sg13_23_cif.got.tgz:45123.got - 2010.06.03 16:44:36.
