data_PCOD9229577
_publ_section_title
;
Structure prediction by ZEFSAII (Michael W. Deem and Ramdas Pophale) SiO2 
 PCOD9229577
Probable space group: P 2/C
;
_chemical_formula_sum "Si O2"
_cell_formula_units_Z 28
_cell_length_a 11.403179
_cell_length_b 5.392522
_cell_length_c 25.001418
_cell_angle_alpha 90.000000
_cell_angle_beta 113.237576
_cell_angle_gamma 90.000000
_cell_volume 1412.666959
_symmetry_space_group_name_H-M "P 2/C"
_symmetry_group_IT_number 13
_symmetry_cell_setting 'monoclinic'
loop_
_space_group_symop_operation_xyz
x,y,z
-x,y,1/2-z
-x,-y,-z
x,-y,1/2+z
loop_
_atom_site_type_symbol
_atom_site_label
_atom_site_fract_x
_atom_site_fract_y
_atom_site_fract_z
Si Si1 0.352435 0.560053 0.245275
Si Si2 0.382800 0.934266 0.939165
Si Si3 0.421809 0.573624 0.379375
Si Si4 0.075709 0.687099 0.051831
Si Si5 0.172259 0.069316 0.980639
Si Si6 0.308556 0.626169 0.591057
Si Si7 0.355625 0.934800 0.700502
O O1 0.500000 0.545357 0.250000
O O2 0.357330 0.571348 0.309731
O O3 0.292415 0.299408 0.218094
O O4 0.297281 0.804473 0.207270
O O5 0.397254 0.674156 0.910361
O O6 0.382599 0.172032 0.900345
O O7 0.254308 0.932964 0.950999
O O8 0.500000 0.000000 0.000000
O O9 0.573409 0.557581 0.395184
O O10 0.189520 0.521099 0.094928
O O11 0.962063 0.817801 0.064193
O O12 0.000000 0.500000 0.000000
O O13 0.136939 0.892196 0.023946
O O14 0.261940 0.275303 0.025135
O O15 0.352316 0.851055 0.637923
O O16 0.500000 0.950524 0.750000
#
# Coordination Sequence:
#
# PCOD9229577 Si02
#       7
#     4   4   4   4   4   4   4
#     4  10  20  35  53  78 122 154 192 237 295 354
#     4  12  25  36  57  86 127 170 200 234 298 379
#     4  12  24  37  56  89 127 168 194 237 309 380
#     4   9  21  38  60  81 118 156 209 262 299 344
#     4  10  22  39  57  85 124 161 209 251 296 368
#     4  11  21  34  60  87 125 157 201 248 312 367
#     4  10  20  32  54  84 117 155 183 250 298 359
#
# _framework density 19.820667
#
# number of rings (size 3 to 8) (size 9 to 14) (size 15 to 20)
#    0.000    1.429    4.286    2.143    8.000    0.000 
#    0.000    0.000    0.000    0.000    0.000    1.000 
#    0.000    0.000    0.000    0.000    0.000    0.000 
#
# Total GULP energy -156185.563652 kJ/mol
# GULP energy per Si atom -5578.055845 kJ/mol
# Density = 1.977555 g / cm^3
# Si number density = 19.820667 Si / 1000 Ang^3
#
#
#
# Elastic Constant Matrix: (Units=GPa)
#
#
# Indices 1 2 3 4 5 6 
#
# 1 83.4197 5.6385 17.9474 0.0000 2.9588 0.0000
# 2 5.6385 98.1622 15.3825 0.0000 5.9788 0.0000
# 3 17.9474 15.3825 67.2186 0.0000 -8.8705 0.0000
# 4 0.0000 0.0000 0.0000 36.3028 0.0000 -3.9434
# 5 2.9588 5.9788 -8.8705 0.0000 16.0047 0.0000
# 6 0.0000 0.0000 0.0000 -3.9434 0.0000 27.1879
#
#
#
# Elastic Compliance Matrix: (Units=1/GPa)
#
#
# Indices 1 2 3 4 5 6 
#
# 1 0.013039 0.000194 -0.004158 0.000000 -0.004787 0.000000
# 2 0.000194 0.011075 -0.003384 0.000000 -0.006049 0.000000
# 3 -0.004158 -0.003384 0.018374 0.000000 0.012216 0.000000
# 4 0.000000 0.000000 0.000000 0.027987 0.000000 0.004059
# 5 -0.004787 -0.006049 0.012216 0.000000 0.072397 0.000000
# 6 0.000000 0.000000 0.000000 0.004059 0.000000 0.037370
#
#
# Mechanical properties :
#
#
# Convention : Reuss Voigt Hill
#
# Bulk Modulus (GPa) = 35.98240 36.30417 36.14329
# Shear Modulus (GPa) = 24.48569 29.88788 27.18679
#
# Velocity S-wave (km/s) = 3.51858 3.88740 3.70758
# Velocity P-wave (km/s) = 5.89072 6.20526 6.05004
#
# Compressibility (1/GPa) = 0.02779136
#
# Stress axis : x y z
#
# Youngs Moduli (GPa) = 76.69456 90.29459 54.42601
#
# Poissons Ratio (x) = -0.01753 0.22628
# Poissons Ratio (y) = -0.01489 0.18420
# Poissons Ratio (z) = 0.31886 0.30560
#
# Static dielectric constant tensor:
#      x y z
#    x 1.689870 0.000000 0.011410 
#    y 0.000000 1.815460 0.000000 
#    z 0.011410 0.000000 1.730020 
# 
# From -- ./inp_files/77535.got.cif
#   From: 2010.05.17/outbox.cif.g08.bks.cpg/sg13_39_cif.got.tgz:77535.got - 2010.06.03 16:44:36.
