data_PCOD9229282
_publ_section_title
;
Structure prediction by ZEFSAII (Michael W. Deem and Ramdas Pophale) SiO2 
 PCOD9229282
Probable space group: P 2/C
;
_chemical_formula_sum "Si O2"
_cell_formula_units_Z 32
_cell_length_a 9.349711
_cell_length_b 13.657413
_cell_length_c 23.784754
_cell_angle_alpha 90.000000
_cell_angle_beta 149.949947
_cell_angle_gamma 90.000000
_cell_volume 1520.868859
_symmetry_space_group_name_H-M "P 2/C"
_symmetry_group_IT_number 13
_symmetry_cell_setting 'monoclinic'
loop_
_space_group_symop_operation_xyz
x,y,z
-x,y,1/2-z
-x,-y,-z
x,-y,1/2+z
loop_
_atom_site_type_symbol
_atom_site_label
_atom_site_fract_x
_atom_site_fract_y
_atom_site_fract_z
Si Si1 0.848260 0.259360 0.480433
Si Si2 0.811456 0.418246 0.841768
Si Si3 0.299065 0.036291 0.233627
Si Si4 0.312208 0.375996 0.348063
Si Si5 0.790600 0.745384 0.832732
Si Si6 0.814345 0.963909 0.990547
Si Si7 0.730027 0.598786 0.194905
Si Si8 0.779481 0.407212 0.057234
O O1 0.552596 0.311581 0.400420
O O2 0.904046 0.235670 0.433921
O O3 0.846669 0.153086 0.508005
O O4 0.079326 0.340956 0.575990
O O5 0.500000 0.460501 0.750000
O O6 0.764190 0.359883 0.767938
O O7 0.056026 0.497921 0.911514
O O8 0.500000 0.001193 0.250000
O O9 0.287921 0.154413 0.224849
O O10 0.484786 0.014884 0.354526
O O11 0.976903 0.005714 0.102344
O O12 0.273969 0.479222 0.302381
O O13 0.370000 0.411170 0.432455
O O14 0.000000 0.328798 0.250000
O O15 0.500000 0.690032 0.750000
O O16 0.989827 0.678417 0.864361
O O17 0.000000 0.000000 0.000000
O O18 0.000000 0.625372 0.250000
O O19 0.450086 0.624598 0.066557
#
# Coordination Sequence:
#
# PCOD9229282 Si02
#       8
#     4   4   4   4   4   4   4   4
#     4  12  23  39  61  95 126 159 212 265 317 383
#     4  12  26  37  54  91 130 164 211 265 318 369
#     4   9  18  36  61  93 121 159 203 251 323 393
#     4  11  22  38  64  86 116 171 224 258 301 369
#     4  11  21  36  61  91 126 157 206 261 312 377
#     4  10  19  38  65  93 124 159 201 262 327 397
#     4  11  22  41  58  78 120 174 220 258 303 373
#     4  12  23  39  60  84 123 174 214 259 315 368
#
# _framework density 21.040604999999999
#
# number of rings (size 3 to 8) (size 9 to 14) (size 15 to 20)
#    0.000    1.000    7.500    3.000    1.750    2.500 
#    2.250    0.000    0.000    0.750    0.000    0.000 
#    0.000    0.000    0.000    0.000    0.000    0.000 
#
# Total GULP energy -178200.111216 kJ/mol
# GULP energy per Si atom -5568.753475 kJ/mol
# Density = 2.099272 g / cm^3
# Si number density = 21.040605 Si / 1000 Ang^3
#
#
#
# Elastic Constant Matrix: (Units=GPa)
#
#
# Indices 1 2 3 4 5 6 
#
# 1 57.6540 3.5927 16.7914 0.0000 7.4715 0.0000
# 2 3.5927 51.4601 17.4294 0.0000 5.5027 0.0000
# 3 16.7914 17.4294 132.7396 0.0000 -1.3489 0.0000
# 4 0.0000 0.0000 0.0000 58.4126 0.0000 -8.0652
# 5 7.4715 5.5027 -1.3489 0.0000 33.7296 0.0000
# 6 0.0000 0.0000 0.0000 -8.0652 0.0000 6.5837
#
#
#
# Elastic Compliance Matrix: (Units=1/GPa)
#
#
# Indices 1 2 3 4 5 6 
#
# 1 0.018588 -0.000039 -0.002389 0.000000 -0.004207 0.000000
# 2 -0.000039 0.020741 -0.002754 0.000000 -0.003485 0.000000
# 3 -0.002389 -0.002754 0.008211 0.000000 0.001307 0.000000
# 4 0.000000 0.000000 0.000000 0.020605 0.000000 0.025242
# 5 -0.004207 -0.003485 0.001307 0.000000 0.031200 0.000000
# 6 0.000000 0.000000 0.000000 0.025242 0.000000 0.182812
#
#
# Mechanical properties :
#
#
# Convention : Reuss Voigt Hill
#
# Bulk Modulus (GPa) = 26.89895 35.27562 31.08729
# Shear Modulus (GPa) = 16.39816 33.34784 24.87300
#
# Velocity S-wave (km/s) = 2.79473 3.98543 3.44196
# Velocity P-wave (km/s) = 4.81934 6.16280 5.53201
#
# Compressibility (1/GPa) = 0.03717617
#
# Stress axis : x y z
#
# Youngs Moduli (GPa) = 53.79748 48.21449 121.79323
#
# Poissons Ratio (x) = 0.00187 0.29097
# Poissons Ratio (y) = 0.00209 0.33540
# Poissons Ratio (z) = 0.12852 0.13278
#
# Static dielectric constant tensor:
#      x y z
#    x 1.629260 0.000000 0.146540 
#    y 0.000000 1.731860 0.000000 
#    z 0.146540 0.000000 1.645390 
# 
# From -- ./inp_files/85361.got.cif
#   From: 2010.05.17/outbox.cif.g08.bks.cpg/sg13_43_cif.got.tgz:85361.got - 2010.06.03 16:44:36.
