data_PCOD9229244
_publ_section_title
;
Structure prediction by ZEFSAII (Michael W. Deem and Ramdas Pophale) SiO2 
 PCOD9229244
Probable space group: P 2/C
;
_chemical_formula_sum "Si O2"
_cell_formula_units_Z 28
_cell_length_a 12.739234
_cell_length_b 15.000434
_cell_length_c 9.244025
_cell_angle_alpha 90.000000
_cell_angle_beta 124.261095
_cell_angle_gamma 90.000000
_cell_volume 1459.960121
_symmetry_space_group_name_H-M "P 2/C"
_symmetry_group_IT_number 13
_symmetry_cell_setting 'monoclinic'
loop_
_space_group_symop_operation_xyz
x,y,z
-x,y,1/2-z
-x,-y,-z
x,-y,1/2+z
loop_
_atom_site_type_symbol
_atom_site_label
_atom_site_fract_x
_atom_site_fract_y
_atom_site_fract_z
Si Si1 0.352248 0.397800 0.401734
Si Si2 0.500000 0.112713 0.250000
Si Si3 0.120602 0.057990 0.640870
Si Si4 0.945221 0.420122 0.366727
Si Si5 0.712834 0.018303 0.993676
Si Si6 0.317033 0.192676 0.342909
Si Si7 0.500000 0.485403 0.250000
Si Si8 0.022702 0.218708 0.092896
O O1 0.206421 0.422821 0.259599
O O2 0.350856 0.291189 0.426237
O O3 0.429121 0.425749 0.316390
O O4 0.407769 0.451471 0.582121
O O5 0.412574 0.169950 0.288084
O O6 0.595249 0.048141 0.409821
O O7 0.240631 0.035093 0.632672
O O8 0.074343 0.157841 0.571398
O O9 0.167791 0.028432 0.834054
O O10 0.000000 0.000000 0.500000
O O11 0.988596 0.322514 0.453572
O O12 0.000000 0.428205 0.250000
O O13 0.000000 0.500000 0.500000
O O14 0.678559 0.112602 0.038665
O O15 0.169410 0.193233 0.178536
O O16 0.000000 0.207017 0.250000
#
# Coordination Sequence:
#
# PCOD9229244 Si02
#       8
#     4   2   4   4   4   4   2   4
#     4  10  22  40  66  90 122 158 205 247 313 361
#     4  12  25  43  54  90 128 166 208 245 311 346
#     4  12  21  39  63  91 118 158 206 253 301 357
#     4  10  21  38  62  90 123 156 190 252 305 363
#     4  12  24  39  63  85 126 166 203 254 298 360
#     4  11  22  39  62  88 121 165 198 255 298 365
#     4  10  21  43  64  92 118 160 202 257 297 370
#     4  10  19  38  62  89 118 155 204 245 303 361
#
# _framework density 19.178608000000001
#
# number of rings (size 3 to 8) (size 9 to 14) (size 15 to 20)
#    0.000    1.143    4.286    2.143    0.000    0.571 
#    0.000    7.143    0.000    0.000    0.000    0.000 
#    0.000    0.000    0.000    0.000    0.000    0.000 
#
# Total GULP energy -156421.518322 kJ/mol
# GULP energy per Si atom -5586.482797 kJ/mol
# Density = 1.913496 g / cm^3
# Si number density = 19.178608 Si / 1000 Ang^3
#
#
#
# Elastic Constant Matrix: (Units=GPa)
#
#
# Indices 1 2 3 4 5 6 
#
# 1 98.6326 25.8413 2.6453 0.0000 4.8473 0.0000
# 2 25.8413 118.2672 40.1909 0.0000 15.9309 0.0000
# 3 2.6453 40.1909 56.6616 0.0000 14.3379 0.0000
# 4 0.0000 0.0000 0.0000 34.4372 0.0000 6.2779
# 5 4.8473 15.9309 14.3379 0.0000 27.0267 0.0000
# 6 0.0000 0.0000 0.0000 6.2779 0.0000 32.5317
#
#
#
# Elastic Compliance Matrix: (Units=1/GPa)
#
#
# Indices 1 2 3 4 5 6 
#
# 1 0.010892 -0.002828 0.001813 0.000000 -0.001249 0.000000
# 2 -0.002828 0.012054 -0.007795 0.000000 -0.002463 0.000000
# 3 0.001813 -0.007795 0.025426 0.000000 -0.009219 0.000000
# 4 0.000000 0.000000 0.000000 0.030097 0.000000 -0.005808
# 5 -0.001249 -0.002463 -0.009219 0.000000 0.043567 0.000000
# 6 0.000000 0.000000 0.000000 -0.005808 0.000000 0.031860
#
#
# Mechanical properties :
#
#
# Convention : Reuss Voigt Hill
#
# Bulk Modulus (GPa) = 32.51699 45.65737 39.08718
# Shear Modulus (GPa) = 27.50785 32.45806 29.98296
#
# Velocity S-wave (km/s) = 3.79132 4.11835 3.95822
# Velocity P-wave (km/s) = 6.01308 6.81708 6.42766
#
# Compressibility (1/GPa) = 0.03075315
#
# Stress axis : x y z
#
# Youngs Moduli (GPa) = 91.80806 82.95980 39.33011
#
# Poissons Ratio (x) = 0.23461 -0.07132
# Poissons Ratio (y) = 0.25963 0.30657
# Poissons Ratio (z) = -0.16648 0.64666
#
# Static dielectric constant tensor:
#      x y z
#    x 1.673500 0.000000 -0.016140 
#    y 0.000000 1.744060 0.000000 
#    z -0.016140 0.000000 1.659690 
# 
# From -- ./inp_files/16640.got.cif
#   From: 2010.05.17/outbox.cif.g08.bks.cpg/sg13_9_cif.got.tgz:16640.got - 2010.06.03 16:44:36.
