data_PCOD9229298
_publ_section_title
;
Structure prediction by ZEFSAII (Michael W. Deem and Ramdas Pophale) SiO2 
 PCOD9229298
Probable space group: P 2/C
;
_chemical_formula_sum "Si O2"
_cell_formula_units_Z 30
_cell_length_a 11.212438
_cell_length_b 9.487406
_cell_length_c 14.488349
_cell_angle_alpha 90.000000
_cell_angle_beta 66.641747
_cell_angle_gamma 90.000000
_cell_volume 1414.913268
_symmetry_space_group_name_H-M "P 2/C"
_symmetry_group_IT_number 13
_symmetry_cell_setting 'monoclinic'
loop_
_space_group_symop_operation_xyz
x,y,z
-x,y,1/2-z
-x,-y,-z
x,-y,1/2+z
loop_
_atom_site_type_symbol
_atom_site_label
_atom_site_fract_x
_atom_site_fract_y
_atom_site_fract_z
Si Si1 0.642803 0.931701 0.752765
Si Si2 0.391932 0.113112 0.567932
Si Si3 0.277707 0.343932 0.168764
Si Si4 0.437731 0.617767 0.453917
Si Si5 0.981586 0.376581 0.579482
Si Si6 0.293635 0.485677 0.831351
Si Si7 0.000000 0.447481 0.250000
Si Si8 0.785221 0.210356 0.049636
O O1 0.500000 0.948940 0.750000
O O2 0.647437 0.788973 0.812446
O O3 0.747889 0.902337 0.640199
O O4 0.671629 0.050653 0.819538
O O5 0.471949 0.248871 0.571482
O O6 0.294863 0.160531 0.515917
O O7 0.500000 0.000000 0.500000
O O8 0.305321 0.350666 0.052294
O O9 0.325701 0.473903 0.216732
O O10 0.123565 0.350656 0.234578
O O11 0.500000 0.500000 0.500000
O O12 0.401766 0.576282 0.362866
O O13 0.826231 0.375896 0.636387
O O14 0.000000 0.500000 0.500000
O O15 0.035699 0.447175 0.656276
O O16 0.065468 0.242085 0.523693
O O17 0.259575 0.636672 0.893484
#
# Coordination Sequence:
#
# PCOD9229298 Si02
#       8
#     4   4   4   4   4   4   2   4
#     4  11  22  39  61  87 124 179 222 254 327 408
#     4  12  23  41  61  91 132 178 214 269 334 406
#     4  10  21  37  62  90 130 165 219 267 330 396
#     4  12  23  38  62  97 131 167 217 276 332 389
#     4   9  18  36  63  97 131 166 212 279 340 386
#     4   9  20  37  61 100 126 166 212 275 326 389
#     4  10  20  36  64 102 130 168 222 284 338 392
#     4  10  19  38  67  90 126 171 221 266 333 396
#
# _framework density 21.202712999999999
#
# number of rings (size 3 to 8) (size 9 to 14) (size 15 to 20)
#    0.000    1.600    4.000    2.400    1.867    0.000 
#    2.400    0.000    0.000    3.200    0.000    0.000 
#    0.000    0.000    0.000    0.000    0.000    0.000 
#
# Total GULP energy -167370.162171 kJ/mol
# GULP energy per Si atom -5579.005406 kJ/mol
# Density = 2.115445 g / cm^3
# Si number density = 21.202713 Si / 1000 Ang^3
#
#
#
# Elastic Constant Matrix: (Units=GPa)
#
#
# Indices 1 2 3 4 5 6 
#
# 1 92.4902 37.3683 38.5398 0.0000 12.0808 0.0000
# 2 37.3683 75.8397 36.7704 0.0000 -2.0451 0.0000
# 3 38.5398 36.7704 131.4086 0.0000 12.4253 0.0000
# 4 0.0000 0.0000 0.0000 37.6801 0.0000 1.6524
# 5 12.0808 -2.0451 12.4253 0.0000 30.0264 0.0000
# 6 0.0000 0.0000 0.0000 1.6524 0.0000 25.6882
#
#
#
# Elastic Compliance Matrix: (Units=1/GPa)
#
#
# Indices 1 2 3 4 5 6 
#
# 1 0.015062 -0.006586 -0.002039 0.000000 -0.005665 0.000000
# 2 -0.006586 0.018385 -0.003728 0.000000 0.005445 0.000000
# 3 -0.002039 -0.003728 0.009572 0.000000 -0.003394 0.000000
# 4 0.000000 0.000000 0.000000 0.026614 0.000000 -0.001712
# 5 -0.005665 0.005445 -0.003394 0.000000 0.037359 0.000000
# 6 0.000000 0.000000 0.000000 -0.001712 0.000000 0.039038
#
#
# Mechanical properties :
#
#
# Convention : Reuss Voigt Hill
#
# Bulk Modulus (GPa) = 54.60291 58.34395 56.47343
# Shear Modulus (GPa) = 28.27406 31.14961 29.71184
#
# Velocity S-wave (km/s) = 3.65569 3.83709 3.74749
# Velocity P-wave (km/s) = 6.60511 6.87080 6.73926
#
# Compressibility (1/GPa) = 0.01831404
#
# Stress axis : x y z
#
# Youngs Moduli (GPa) = 66.39059 54.39249 104.47230
#
# Poissons Ratio (x) = 0.35822 0.21302
# Poissons Ratio (y) = 0.43723 0.38944
# Poissons Ratio (z) = 0.13537 0.20276
#
# Static dielectric constant tensor:
#      x y z
#    x 1.745100 0.000000 -0.052240 
#    y 0.000000 1.747580 0.000000 
#    z -0.052240 0.000000 1.827890 
# 
# From -- ./inp_files/50292.got.cif
#   From: 2010.05.17/outbox.cif.g08.bks.cpg/sg13_26_cif.got.tgz:50292.got - 2010.06.03 16:44:36.
