data_PCOD9229589
_publ_section_title
;
Structure prediction by ZEFSAII (Michael W. Deem and Ramdas Pophale) SiO2 
 PCOD9229589
Probable space group: P 2/C
;
_chemical_formula_sum "Si O2"
_cell_formula_units_Z 20
_cell_length_a 13.624031
_cell_length_b 9.337481
_cell_length_c 21.683975
_cell_angle_alpha 90.000000
_cell_angle_beta 160.012968
_cell_angle_gamma 90.000000
_cell_volume 942.878594
_symmetry_space_group_name_H-M "P 2/C"
_symmetry_group_IT_number 13
_symmetry_cell_setting 'monoclinic'
loop_
_space_group_symop_operation_xyz
x,y,z
-x,y,1/2-z
-x,-y,-z
x,-y,1/2+z
loop_
_atom_site_type_symbol
_atom_site_label
_atom_site_fract_x
_atom_site_fract_y
_atom_site_fract_z
Si Si1 0.927203 0.757506 0.787290
Si Si2 0.289794 0.353894 0.217112
Si Si3 0.324906 0.255751 0.884505
Si Si4 0.000000 0.996624 0.250000
Si Si5 0.939320 0.640765 0.049808
Si Si6 0.000000 0.488064 0.250000
O O1 0.792168 0.750777 0.775016
O O2 0.662928 0.748794 0.582900
O O3 0.075022 0.608397 0.854310
O O4 0.070728 0.905152 0.851400
O O5 0.628653 0.374663 0.401405
O O6 0.129431 0.500095 0.144468
O O7 0.146824 0.302330 0.068710
O O8 0.243398 0.113758 0.873461
O O9 0.143790 0.266492 0.715004
O O10 0.245521 0.400446 0.874833
#
# Coordination Sequence:
#
# PCOD9229589 Si02
#       6
#     4   4   4   2   4   2
#     4  11  22  36  60  84 120 153 197 245 292 347
#     4  10  21  38  57  87 120 154 190 240 296 350
#     4  11  21  36  59  85 118 152 196 242 292 343
#     4  10  24  38  54  86 120 156 198 244 292 344
#     4  10  22  36  59  87 120 152 192 240 295 352
#     4  10  20  32  56  90 112 146 192 244 296 342
#
# _framework density 21.211639999999999
#
# number of rings (size 3 to 8) (size 9 to 14) (size 15 to 20)
#    0.000    1.600    2.000    3.600    2.800    0.000 
#    0.000    1.000    0.000    2.400    0.000    0.000 
#    0.000    0.000    0.000    0.000    0.000    0.000 
#
# Total GULP energy -111348.090311 kJ/mol
# GULP energy per Si atom -5567.404516 kJ/mol
# Density = 2.116336 g / cm^3
# Si number density = 21.211640 Si / 1000 Ang^3
#
#
#
# Elastic Constant Matrix: (Units=GPa)
#
#
# Indices 1 2 3 4 5 6 
#
# 1 172.2624 51.7958 38.3922 0.0000 -11.9471 0.0000
# 2 51.7958 94.0199 7.8523 0.0000 -6.0674 0.0000
# 3 38.3922 7.8523 79.1276 0.0000 -26.6216 0.0000
# 4 0.0000 0.0000 0.0000 17.8493 0.0000 16.8983
# 5 -11.9471 -6.0674 -26.6216 0.0000 24.8665 0.0000
# 6 0.0000 0.0000 0.0000 16.8983 0.0000 97.0888
#
#
#
# Elastic Compliance Matrix: (Units=1/GPa)
#
#
# Indices 1 2 3 4 5 6 
#
# 1 0.007784 -0.004056 -0.003828 0.000000 -0.001348 0.000000
# 2 -0.004056 0.012923 0.001705 0.000000 0.003030 0.000000
# 3 -0.003828 0.001705 0.021642 0.000000 0.021747 0.000000
# 4 0.000000 0.000000 0.000000 0.067078 0.000000 -0.011675
# 5 -0.001348 0.003030 0.021747 0.000000 0.063588 0.000000
# 6 0.000000 0.000000 0.000000 -0.011675 0.000000 0.012332
#
#
# Mechanical properties :
#
#
# Convention : Reuss Voigt Hill
#
# Bulk Modulus (GPa) = 33.34174 60.16559 46.75367
# Shear Modulus (GPa) = 24.07288 44.45221 34.26255
#
# Velocity S-wave (km/s) = 3.37247 4.58280 4.02340
# Velocity P-wave (km/s) = 5.56035 7.51190 6.60856
#
# Compressibility (1/GPa) = 0.02999244
#
# Stress axis : x y z
#
# Youngs Moduli (GPa) = 128.46597 77.37874 46.20581
#
# Poissons Ratio (x) = 0.31382 0.17686
# Poissons Ratio (y) = 0.52101 -0.07876
# Poissons Ratio (z) = 0.49173 -0.13190
#
# Static dielectric constant tensor:
#      x y z
#    x 1.832170 0.000000 0.016810 
#    y 0.000000 1.816500 0.000000 
#    z 0.016810 0.000000 1.775670 
# 
# From -- ./inp_files/41444.got.cif
#   From: 2010.05.17/outbox.cif.g08.bks.cpg/sg13_21_cif.got.tgz:41444.got - 2010.06.03 16:44:36.
