data_PCOD9229807
_publ_section_title
;
Structure prediction by ZEFSAII (Michael W. Deem and Ramdas Pophale) SiO2 
 PCOD9229807
Probable space group: P 2/C
;
_chemical_formula_sum "Si O2"
_cell_formula_units_Z 18
_cell_length_a 9.109837
_cell_length_b 12.140445
_cell_length_c 7.381081
_cell_angle_alpha 90.000000
_cell_angle_beta 82.798110
_cell_angle_gamma 90.000000
_cell_volume 809.888549
_symmetry_space_group_name_H-M "P 2/C"
_symmetry_group_IT_number 13
_symmetry_cell_setting 'monoclinic'
loop_
_space_group_symop_operation_xyz
x,y,z
-x,y,1/2-z
-x,-y,-z
x,-y,1/2+z
loop_
_atom_site_type_symbol
_atom_site_label
_atom_site_fract_x
_atom_site_fract_y
_atom_site_fract_z
Si Si1 0.000000 0.800765 0.750000
Si Si2 0.348723 0.359483 0.097200
Si Si3 0.687226 0.125963 0.395668
Si Si4 0.032849 0.372246 0.955436
Si Si5 0.500000 0.067287 0.750000
Si Si6 0.500000 0.544297 0.250000
O O1 0.864431 0.873382 0.847378
O O2 0.950256 0.716650 0.596926
O O3 0.356400 0.241477 0.189703
O O4 0.362986 0.460994 0.233198
O O5 0.200742 0.357069 0.999623
O O6 0.476551 0.384670 0.931879
O O7 0.607783 0.135431 0.603166
O O8 0.613467 0.016126 0.331251
O O9 0.000000 0.350510 0.750000
O O10 0.000000 0.500000 0.000000
#
# Coordination Sequence:
#
# PCOD9229807 Si02
#       6
#     2   4   4   4   2   2
#     4  10  24  42  64 100 134 168 226 280 326 404
#     4  10  21  36  56  90 126 164 210 258 313 391
#     4  10  22  43  64  96 124 170 222 279 338 398
#     4  11  21  38  60  91 135 183 216 259 319 396
#     4  10  22  44  70  86 126 174 218 290 346 390
#     4  10  20  34  56  88 128 170 202 256 316 392
#
# _framework density 22.225282
#
# number of rings (size 3 to 8) (size 9 to 14) (size 15 to 20)
#    0.000    1.778    1.111    2.667    3.111    0.889 
#   20.000    0.000    0.000    0.000    0.000    0.000 
#    0.000    0.000    0.000    0.000    0.000    0.000 
#
# Total GULP energy -100336.916810 kJ/mol
# GULP energy per Si atom -5574.273156 kJ/mol
# Density = 2.217470 g / cm^3
# Si number density = 22.225282 Si / 1000 Ang^3
#
#
#
# Elastic Constant Matrix: (Units=GPa)
#
#
# Indices 1 2 3 4 5 6 
#
# 1 135.5486 36.7962 42.6751 0.0000 -15.3797 0.0000
# 2 36.7962 72.7778 6.7924 0.0000 -16.0298 0.0000
# 3 42.6751 6.7924 106.9440 0.0000 -6.0073 0.0000
# 4 0.0000 0.0000 0.0000 7.3652 0.0000 -5.4789
# 5 -15.3797 -16.0298 -6.0073 0.0000 46.8328 0.0000
# 6 0.0000 0.0000 0.0000 -5.4789 0.0000 33.6989
#
#
#
# Elastic Compliance Matrix: (Units=1/GPa)
#
#
# Indices 1 2 3 4 5 6 
#
# 1 0.009830 -0.004355 -0.003574 0.000000 0.001279 0.000000
# 2 -0.004355 0.016837 0.000918 0.000000 0.004451 0.000000
# 3 -0.003574 0.000918 0.010748 0.000000 0.000519 0.000000
# 4 0.000000 0.000000 0.000000 0.154453 0.000000 0.025112
# 5 0.001279 0.004451 0.000519 0.000000 0.023363 0.000000
# 6 0.000000 0.000000 0.000000 0.025112 0.000000 0.033757
#
#
# Mechanical properties :
#
#
# Convention : Reuss Voigt Hill
#
# Bulk Modulus (GPa) = 42.74693 54.19975 48.47334
# Shear Modulus (GPa) = 18.46338 32.84650 25.65494
#
# Velocity S-wave (km/s) = 2.88538 3.84850 3.40120
# Velocity P-wave (km/s) = 5.51142 6.64736 6.10587
#
# Compressibility (1/GPa) = 0.02339349
#
# Stress axis : x y z
#
# Youngs Moduli (GPa) = 101.73011 59.39401 93.04281
#
# Poissons Ratio (x) = 0.25864 0.33255
# Poissons Ratio (y) = 0.44300 -0.08544
# Poissons Ratio (z) = 0.36359 -0.05454
#
# Static dielectric constant tensor:
#      x y z
#    x 1.879910 0.000000 0.009250 
#    y 0.000000 1.824780 0.000000 
#    z 0.009250 0.000000 1.604180 
# 
# From -- ./inp_files/11275.got.cif
#   From: 2010.05.17/outbox.cif.g08.bks.cpg/sg13_6_cif.got.tgz:11275.got - 2010.06.03 16:44:36.
