data_PCOD9229466
_publ_section_title
;
Structure prediction by ZEFSAII (Michael W. Deem and Ramdas Pophale) SiO2 
 PCOD9229466
Probable space group: P 2/C
;
_chemical_formula_sum "Si O2"
_cell_formula_units_Z 32
_cell_length_a 11.368028
_cell_length_b 7.939829
_cell_length_c 15.793430
_cell_angle_alpha 90.000000
_cell_angle_beta 91.704161
_cell_angle_gamma 90.000000
_cell_volume 1424.887623
_symmetry_space_group_name_H-M "P 2/C"
_symmetry_group_IT_number 13
_symmetry_cell_setting 'monoclinic'
loop_
_space_group_symop_operation_xyz
x,y,z
-x,y,1/2-z
-x,-y,-z
x,-y,1/2+z
loop_
_atom_site_type_symbol
_atom_site_label
_atom_site_fract_x
_atom_site_fract_y
_atom_site_fract_z
Si Si1 0.247489 0.831606 0.162376
Si Si2 0.731484 0.185648 0.547422
Si Si3 0.050749 0.817249 0.535076
Si Si4 0.352909 0.715721 0.837755
Si Si5 0.616537 0.345426 0.709722
Si Si6 0.865948 0.139317 0.277384
Si Si7 0.440343 0.921626 0.583723
Si Si8 0.801655 0.209667 0.026554
O O1 0.287772 0.671819 0.214995
O O2 0.167003 0.941728 0.222911
O O3 0.357367 0.948557 0.132908
O O4 0.190268 0.780460 0.073472
O O5 0.861498 0.259612 0.532396
O O6 0.664254 0.246859 0.628871
O O7 0.646729 0.211088 0.464325
O O8 0.763349 0.983711 0.549940
O O9 0.127915 0.829732 0.621512
O O10 0.929332 0.733222 0.559497
O O11 0.000000 0.000000 0.500000
O O12 0.402666 0.538577 0.810907
O O13 0.242025 0.774523 0.776532
O O14 0.459487 0.846096 0.853814
O O15 0.298217 0.685695 0.930020
O O16 0.500000 0.271445 0.750000
O O17 0.000000 0.168928 0.250000
O O18 0.500000 0.000000 0.500000
#
# Coordination Sequence:
#
# PCOD9229466 Si02
#       8
#     4   4   4   4   4   4   4   4
#     4  11  24  42  71 105 131 175 237 302 338 410
#     4  10  21  44  70  99 133 179 235 293 341 415
#     4  10  19  41  70 106 130 165 238 297 345 395
#     4  12  27  44  65 100 150 187 221 285 366 422
#     4  12  30  45  61 103 154 185 228 286 360 427
#     4  12  24  41  76 105 137 177 236 298 341 411
#     4  11  21  42  72 101 125 181 243 289 339 408
#     4  10  20  44  75 100 132 176 239 290 347 409
#
# _framework density 22.457909999999998
#
# number of rings (size 3 to 8) (size 9 to 14) (size 15 to 20)
#    0.000    1.000    7.500    1.500    5.250    0.500 
#    2.250    2.500    0.000    0.000    0.000    0.000 
#    0.000    0.000    0.000    0.000    0.000    0.000 
#
# Total GULP energy -178400.119348 kJ/mol
# GULP energy per Si atom -5575.003730 kJ/mol
# Density = 2.240679 g / cm^3
# Si number density = 22.457910 Si / 1000 Ang^3
#
#
#
# Elastic Constant Matrix: (Units=GPa)
#
#
# Indices 1 2 3 4 5 6 
#
# 1 139.1105 12.1167 39.7871 0.0000 -1.6406 0.0000
# 2 12.1167 25.1808 27.2128 0.0000 2.8850 0.0000
# 3 39.7871 27.2128 98.6466 0.0000 6.6283 0.0000
# 4 0.0000 0.0000 0.0000 17.7181 0.0000 -3.9330
# 5 -1.6406 2.8850 6.6283 0.0000 47.7681 0.0000
# 6 0.0000 0.0000 0.0000 -3.9330 0.0000 11.1273
#
#
#
# Elastic Compliance Matrix: (Units=1/GPa)
#
#
# Indices 1 2 3 4 5 6 
#
# 1 0.008158 -0.000572 -0.003183 0.000000 0.000756 0.000000
# 2 -0.000572 0.056697 -0.015321 0.000000 -0.001318 0.000000
# 3 -0.003183 -0.015321 0.015740 0.000000 -0.001368 0.000000
# 4 0.000000 0.000000 0.000000 0.061245 0.000000 0.021647
# 5 0.000756 -0.001318 -0.001368 0.000000 0.021230 0.000000
# 6 0.000000 0.000000 0.000000 0.021647 0.000000 0.097520
#
#
# Mechanical properties :
#
#
# Convention : Reuss Voigt Hill
#
# Bulk Modulus (GPa) = 23.56206 46.79680 35.17943
# Shear Modulus (GPa) = 15.98013 27.57747 21.77880
#
# Velocity S-wave (km/s) = 2.67040 3.50803 3.11748
# Velocity P-wave (km/s) = 4.47465 6.10665 5.35321
#
# Compressibility (1/GPa) = 0.04244110
#
# Stress axis : x y z
#
# Youngs Moduli (GPa) = 122.58318 17.63774 63.53407
#
# Poissons Ratio (x) = 0.01009 0.20225
# Poissons Ratio (y) = 0.07010 0.97342
# Poissons Ratio (z) = 0.39022 0.27023
#
# Static dielectric constant tensor:
#      x y z
#    x 1.920220 0.000000 0.014380 
#    y 0.000000 1.864660 0.000000 
#    z 0.014380 0.000000 1.869040 
# 
# From -- ./inp_files/50340.got.cif
#   From: 2010.05.17/outbox.cif.g08.bks.cpg/sg13_26_cif.got.tgz:50340.got - 2010.06.03 16:44:36.
