data_PCOD9229001
_publ_section_title
;
Structure prediction by ZEFSAII (Michael W. Deem and Ramdas Pophale) SiO2 
 PCOD9229001
Probable space group: P 2/C
;
_chemical_formula_sum "Si O2"
_cell_formula_units_Z 26
_cell_length_a 5.375135
_cell_length_b 7.405635
_cell_length_c 28.415038
_cell_angle_alpha 90.000000
_cell_angle_beta 78.723896
_cell_angle_gamma 90.000000
_cell_volume 1109.262817
_symmetry_space_group_name_H-M "P 2/C"
_symmetry_group_IT_number 13
_symmetry_cell_setting 'monoclinic'
loop_
_space_group_symop_operation_xyz
x,y,z
-x,y,1/2-z
-x,-y,-z
x,-y,1/2+z
loop_
_atom_site_type_symbol
_atom_site_label
_atom_site_fract_x
_atom_site_fract_y
_atom_site_fract_z
Si Si1 0.397439 0.804636 0.413699
Si Si2 0.338326 0.048384 0.159817
Si Si3 0.993015 0.719364 0.606756
Si Si4 0.000000 0.060061 0.250000
Si Si5 0.843131 0.623108 0.442435
Si Si6 0.242142 0.883728 0.973071
Si Si7 0.658040 0.336414 0.202370
O O1 0.640040 0.679342 0.410863
O O2 0.126632 0.706622 0.426208
O O3 0.445541 0.912124 0.364122
O O4 0.433302 0.952051 0.454897
O O5 0.453748 0.226614 0.179355
O O6 0.163654 0.125315 0.124157
O O7 0.167219 0.955530 0.206160
O O8 0.798100 0.810496 0.578266
O O9 0.856336 0.604227 0.653821
O O10 0.141849 0.589953 0.565305
O O11 0.821802 0.189116 0.225140
O O12 0.740509 0.707597 0.494881
O O13 0.000000 0.000000 0.000000
O O14 0.500000 0.438850 0.250000
#
# Coordination Sequence:
#
# PCOD9229001 Si02
#       7
#     4   4   4   2   4   4   4
#     4  11  23  42  64  90 130 174 212 261 317 377
#     4  10  19  36  66  89 121 163 218 259 316 373
#     4  11  22  39  63  95 126 169 213 266 317 375
#     4   8  18  32  60  98 116 148 214 276 298 376
#     4  11  26  40  61  93 136 168 213 260 320 376
#     4  10  21  42  63  93 126 173 217 262 311 374
#     4   9  18  35  62  94 117 155 213 264 310 375
#
# _framework density 23.438987999999998
#
# number of rings (size 3 to 8) (size 9 to 14) (size 15 to 20)
#    0.000    1.846    1.538    2.769    4.308    1.231 
#    0.000    4.615    3.385    0.000    0.000    0.000 
#    0.000    0.000    0.000    0.000    0.000    0.000 
#
# Total GULP energy -144820.312379 kJ/mol
# GULP energy per Si atom -5570.012015 kJ/mol
# Density = 2.338564 g / cm^3
# Si number density = 23.438988 Si / 1000 Ang^3
#
#
#
# Elastic Constant Matrix: (Units=GPa)
#
#
# Indices 1 2 3 4 5 6 
#
# 1 72.4304 1.6109 16.9335 0.0000 -4.8982 0.0000
# 2 1.6109 18.6901 3.6874 0.0000 0.1981 0.0000
# 3 16.9335 3.6874 91.9994 0.0000 -6.7711 0.0000
# 4 0.0000 0.0000 0.0000 8.1107 0.0000 -5.0960
# 5 -4.8982 0.1981 -6.7711 0.0000 31.0905 0.0000
# 6 0.0000 0.0000 0.0000 -5.0960 0.0000 22.0677
#
#
#
# Elastic Compliance Matrix: (Units=1/GPa)
#
#
# Indices 1 2 3 4 5 6 
#
# 1 0.014530 -0.000775 -0.002515 0.000000 0.001746 0.000000
# 2 -0.000775 0.053993 -0.002089 0.000000 -0.000921 0.000000
# 3 -0.002515 -0.002089 0.011574 0.000000 0.002138 0.000000
# 4 0.000000 0.000000 0.000000 0.144218 0.000000 0.033303
# 5 0.001746 -0.000921 0.002138 0.000000 0.032911 0.000000
# 6 0.000000 0.000000 0.000000 0.033303 0.000000 0.053006
#
#
# Mechanical properties :
#
#
# Convention : Reuss Voigt Hill
#
# Bulk Modulus (GPa) = 14.42193 25.28705 19.85449
# Shear Modulus (GPa) = 14.53060 22.97964 18.75512
#
# Velocity S-wave (km/s) = 2.49255 3.13453 2.83179
# Velocity P-wave (km/s) = 3.80132 4.89002 4.37963
#
# Compressibility (1/GPa) = 0.06933885
#
# Stress axis : x y z
#
# Youngs Moduli (GPa) = 68.82498 18.52089 86.40367
#
# Poissons Ratio (x) = 0.01435 0.21728
# Poissons Ratio (y) = 0.05332 0.18052
# Poissons Ratio (z) = 0.17308 0.03869
#
# Static dielectric constant tensor:
#      x y z
#    x 2.066140 0.000000 -0.040460 
#    y 0.000000 1.970940 0.000000 
#    z -0.040460 0.000000 2.001100 
# 
# From -- ./inp_files/90160.got.cif
#   From: 2010.05.17/outbox.cif.g08.bks.cpg/sg13_46_cif.got.tgz:90160.got - 2010.06.03 16:44:36.
