data_PCOD9229203
_publ_section_title
;
Structure prediction by ZEFSAII (Michael W. Deem and Ramdas Pophale) SiO2 
 PCOD9229203
Probable space group: P 2/C
;
_chemical_formula_sum "Si O2"
_cell_formula_units_Z 20
_cell_length_a 10.994886
_cell_length_b 12.103326
_cell_length_c 14.388334
_cell_angle_alpha 90.000000
_cell_angle_beta 148.543481
_cell_angle_gamma 90.000000
_cell_volume 999.200838
_symmetry_space_group_name_H-M "P 2/C"
_symmetry_group_IT_number 13
_symmetry_cell_setting 'monoclinic'
loop_
_space_group_symop_operation_xyz
x,y,z
-x,y,1/2-z
-x,-y,-z
x,-y,1/2+z
loop_
_atom_site_type_symbol
_atom_site_label
_atom_site_fract_x
_atom_site_fract_y
_atom_site_fract_z
Si Si1 0.801626 0.294266 0.293684
Si Si2 0.447810 0.873241 0.484055
Si Si3 0.214504 0.291912 0.703323
Si Si4 0.000000 0.235604 0.750000
Si Si5 0.487961 0.494957 0.103984
Si Si6 0.000000 0.570370 0.750000
O O1 0.618859 0.383179 0.218739
O O2 0.890715 0.353684 0.258614
O O3 0.019499 0.268434 0.500580
O O4 0.662802 0.186762 0.172572
O O5 0.383550 0.807797 0.346101
O O6 0.224283 0.844542 0.403511
O O7 0.500000 0.000000 0.500000
O O8 0.364151 0.397770 0.770202
O O9 0.072678 0.307663 0.708177
O O10 0.500000 0.500000 0.000000
O O11 0.213043 0.506995 0.939947
#
# Coordination Sequence:
#
# PCOD9229203 Si02
#       6
#     4   4   4   2   4   2
#     4  11  23  38  66  88 127 162 201 251 304 366
#     4  10  22  42  62  89 124 156 212 258 293 357
#     4  10  21  41  62  92 120 158 209 241 305 366
#     4   8  20  42  62  84 126 155 201 254 300 346
#     4  10  19  38  59  93 126 159 199 250 300 372
#     4  10  20  38  62  90 132 161 191 252 316 348
#
# _framework density 20.015996000000001
#
# number of rings (size 3 to 8) (size 9 to 14) (size 15 to 20)
#    1.200    0.800    4.000    0.600    0.000   10.400 
#    0.000    4.000    4.400    0.000    0.000    0.000 
#    0.000    0.000    0.000    0.000    0.000    0.000 
#
# Total GULP energy -111430.641881 kJ/mol
# GULP energy per Si atom -5571.532094 kJ/mol
# Density = 1.997044 g / cm^3
# Si number density = 20.015996 Si / 1000 Ang^3
#
#
#
# Elastic Constant Matrix: (Units=GPa)
#
#
# Indices 1 2 3 4 5 6 
#
# 1 54.5797 16.8984 12.9547 0.0000 15.7309 0.0000
# 2 16.8984 163.6527 88.3656 0.0000 15.3008 0.0000
# 3 12.9547 88.3656 187.7781 0.0000 5.1287 0.0000
# 4 0.0000 0.0000 0.0000 -61.5166 0.0000 -14.5033
# 5 15.7309 15.3008 5.1287 0.0000 31.6429 0.0000
# 6 0.0000 0.0000 0.0000 -14.5033 0.0000 3.1690
#
#
#
# Elastic Compliance Matrix: (Units=1/GPa)
#
#
# Indices 1 2 3 4 5 6 
#
# 1 0.021736 -0.000840 -0.000824 0.000000 -0.010266 0.000000
# 2 -0.000840 0.008594 -0.003902 0.000000 -0.003106 0.000000
# 3 -0.000824 -0.003902 0.007187 0.000000 0.001131 0.000000
# 4 0.000000 0.000000 0.000000 -0.007819 0.000000 -0.035785
# 5 -0.010266 -0.003106 0.001131 0.000000 0.038025 0.000000
# 6 0.000000 0.000000 0.000000 -0.035785 0.000000 0.151783
#
#
# Mechanical properties :
#
#
# Convention : Reuss Voigt Hill
#
# Bulk Modulus (GPa) = 37.89669 71.38310 54.63990
# Shear Modulus (GPa) = 20.88268 13.84519 17.36393
#
# Velocity S-wave (km/s) = 3.23352 2.63288 2.94854
# Velocity P-wave (km/s) = 5.73717 6.70695 6.24093
#
# Compressibility (1/GPa) = 0.02638753
#
# Stress axis : x y z
#
# Youngs Moduli (GPa) = 46.00585 116.35634 139.13201
#
# Poissons Ratio (x) = 0.09770 0.11465
# Poissons Ratio (y) = 0.03863 0.54284
# Poissons Ratio (z) = 0.03791 0.45397
#
# Static dielectric constant tensor:
#      x y z
#    x 1.785900 0.000000 0.043730 
#    y 0.000000 1.704520 0.000000 
#    z 0.043730 0.000000 1.775620 
# 
# From -- ./inp_files/51008.got.cif
#   From: 2010.05.17/outbox.cif.g08.bks.cpg/sg13_26_cif.got.tgz:51008.got - 2010.06.03 16:44:36.
