data_PCOD9229668
_publ_section_title
;
Structure prediction by ZEFSAII (Michael W. Deem and Ramdas Pophale) SiO2 
 PCOD9229668
Probable space group: P 2/C
;
_chemical_formula_sum "Si O2"
_cell_formula_units_Z 32
_cell_length_a 14.033183
_cell_length_b 15.024750
_cell_length_c 20.572064
_cell_angle_alpha 90.000000
_cell_angle_beta 19.558443
_cell_angle_gamma 90.000000
_cell_volume 1452.063165
_symmetry_space_group_name_H-M "P 2/C"
_symmetry_group_IT_number 13
_symmetry_cell_setting 'monoclinic'
loop_
_space_group_symop_operation_xyz
x,y,z
-x,y,1/2-z
-x,-y,-z
x,-y,1/2+z
loop_
_atom_site_type_symbol
_atom_site_label
_atom_site_fract_x
_atom_site_fract_y
_atom_site_fract_z
Si Si1 0.243436 0.973091 0.040875
Si Si2 0.844041 0.145843 0.022776
Si Si3 0.199030 0.351093 0.308883
Si Si4 0.843886 0.348916 0.022274
Si Si5 0.203456 0.336276 0.056876
Si Si6 0.220878 0.146214 0.293321
Si Si7 0.252712 0.467288 0.536011
Si Si8 0.658343 0.154093 0.579634
O O1 0.000000 0.986707 0.250000
O O2 0.103523 0.925804 0.067071
O O3 0.495408 0.908142 0.901865
O O4 0.398835 0.064985 0.922754
O O5 0.500000 0.146865 0.250000
O O6 0.938880 0.247225 0.945842
O O7 0.928803 0.119434 0.041790
O O8 0.055593 0.375418 0.470115
O O9 0.299613 0.249271 0.253263
O O10 0.986053 0.349812 0.385932
O O11 0.475057 0.409843 0.119196
O O12 0.500000 0.345141 0.250000
O O13 0.880740 0.422624 0.943239
O O14 0.356245 0.430842 0.964484
O O15 0.000000 0.323763 0.250000
O O16 0.383275 0.246886 0.930737
O O17 0.992995 0.144190 0.382592
O O18 0.000000 0.465840 0.750000
O O19 0.500000 0.158131 0.750000
#
# Coordination Sequence:
#
# PCOD9229668 Si02
#       8
#     4   4   4   4   4   4   4   4
#     4  11  22  35  59  91 122 152 189 238 299 362
#     4   8  15  31  54  81 115 149 186 237 287 336
#     4   9  19  38  60  83 117 158 195 240 298 353
#     4   8  15  30  53  81 114 148 187 239 289 340
#     4  10  23  42  59  81 121 161 195 248 307 358
#     4   9  20  40  61  85 118 153 194 244 294 349
#     4  10  20  33  57  89 121 154 195 245 300 356
#     4  11  24  42  63  83 112 158 206 249 295 350
#
# _framework density 22.037609
#
# number of rings (size 3 to 8) (size 9 to 14) (size 15 to 20)
#    0.000    2.500    0.000    3.750    0.000    8.500 
#    0.000    8.750    0.000    1.500    0.000    0.000 
#    0.000    0.000    0.000    0.000    0.000    0.000 
#
# Total GULP energy -178727.972419 kJ/mol
# GULP energy per Si atom -5585.249138 kJ/mol
# Density = 2.198745 g / cm^3
# Si number density = 22.037609 Si / 1000 Ang^3
#
#
#
# Elastic Constant Matrix: (Units=GPa)
#
#
# Indices 1 2 3 4 5 6 
#
# 1 47.5085 1.0369 1.7015 0.0000 8.9149 0.0000
# 2 1.0369 132.5659 47.4851 0.0000 20.6334 0.0000
# 3 1.7015 47.4851 63.2654 0.0000 17.4656 0.0000
# 4 0.0000 0.0000 0.0000 30.1946 0.0000 7.1322
# 5 8.9149 20.6334 17.4656 0.0000 33.1193 0.0000
# 6 0.0000 0.0000 0.0000 7.1322 0.0000 13.0647
#
#
#
# Elastic Compliance Matrix: (Units=1/GPa)
#
#
# Indices 1 2 3 4 5 6 
#
# 1 0.022283 0.000584 0.000841 0.000000 -0.006805 0.000000
# 2 0.000584 0.010550 -0.007112 0.000000 -0.002979 0.000000
# 3 0.000841 -0.007112 0.023362 0.000000 -0.008116 0.000000
# 4 0.000000 0.000000 0.000000 0.038021 0.000000 -0.020756
# 5 -0.006805 -0.002979 -0.008116 0.000000 0.038162 0.000000
# 6 0.000000 0.000000 0.000000 -0.020756 0.000000 0.087874
#
#
# Mechanical properties :
#
#
# Convention : Reuss Voigt Hill
#
# Bulk Modulus (GPa) = 22.31055 38.19853 30.25454
# Shear Modulus (GPa) = 20.27855 28.15015 24.21435
#
# Velocity S-wave (km/s) = 3.03674 3.57791 3.31837
# Velocity P-wave (km/s) = 4.73725 5.86852 5.33297
#
# Compressibility (1/GPa) = 0.04482185
#
# Stress axis : x y z
#
# Youngs Moduli (GPa) = 44.87723 94.78690 42.80422
#
# Poissons Ratio (x) = -0.05531 -0.03602
# Poissons Ratio (y) = -0.02619 0.30441
# Poissons Ratio (z) = -0.03776 0.67409
#
# Static dielectric constant tensor:
#      x y z
#    x 1.887700 0.000000 -0.019590 
#    y 0.000000 1.829880 0.000000 
#    z -0.019590 0.000000 1.775840 
# 
# From -- ./inp_files/80372.got.cif
#   From: 2010.05.17/outbox.cif.g08.bks.cpg/sg13_41_cif.got.tgz:80372.got - 2010.06.03 16:44:36.
