data_PCOD9229553
_publ_section_title
;
Structure prediction by ZEFSAII (Michael W. Deem and Ramdas Pophale) SiO2 
 PCOD9229553
Probable space group: P 2/C
;
_chemical_formula_sum "Si O2"
_cell_formula_units_Z 16
_cell_length_a 6.108026
_cell_length_b 4.125566
_cell_length_c 25.268679
_cell_angle_alpha 90.000000
_cell_angle_beta 125.515495
_cell_angle_gamma 90.000000
_cell_volume 518.285654
_symmetry_space_group_name_H-M "P 2/C"
_symmetry_group_IT_number 13
_symmetry_cell_setting 'monoclinic'
loop_
_space_group_symop_operation_xyz
x,y,z
-x,y,1/2-z
-x,-y,-z
x,-y,1/2+z
loop_
_atom_site_type_symbol
_atom_site_label
_atom_site_fract_x
_atom_site_fract_y
_atom_site_fract_z
Si Si1 0.500000 0.396751 0.250000
Si Si2 0.982651 0.401186 0.126004
Si Si3 0.257199 0.178764 0.811518
Si Si4 0.769837 0.808791 0.436722
Si Si5 0.500000 0.500000 0.000000
O O1 0.620252 0.608782 0.218940
O O2 0.758021 0.223524 0.312834
O O3 0.869049 0.612886 0.158512
O O4 0.723351 0.246053 0.061332
O O5 0.088990 0.625367 0.092650
O O6 0.515417 0.009027 0.873913
O O7 0.000000 0.997525 0.750000
O O8 0.636606 0.582241 0.462328
O O9 0.000000 0.000000 0.500000
#
# Coordination Sequence:
#
# PCOD9229553 Si02
#       5
#     2   4   4   4   2
#     4   8  14  28  50  74  98 132 182 220 264 334
#     4   9  17  31  51  75 102 135 178 226 275 339
#     4   8  15  28  49  75  98 129 175 225 271 333
#     4  10  20  33  52  77 106 142 184 232 287 345
#     4  10  20  32  50  76 106 138 174 226 282 338
#
# _framework density 30.871003000000002
#
# number of rings (size 3 to 8) (size 9 to 14) (size 15 to 20)
#    0.000    3.000    0.000    0.750    0.000    4.000 
#    0.000    0.000    0.000   12.000    0.000   49.000 
#    0.000    0.000    0.000    0.000    0.000    0.000 
#
# Total GULP energy -89077.738952 kJ/mol
# GULP energy per Si atom -5567.358684 kJ/mol
# Density = 3.080074 g / cm^3
# Si number density = 30.871003 Si / 1000 Ang^3
#
#
#
# Elastic Constant Matrix: (Units=GPa)
#
#
# Indices 1 2 3 4 5 6 
#
# 1 245.6172 83.2657 102.6457 0.0000 -73.7573 0.0000
# 2 83.2657 53.4057 48.0329 0.0000 -19.6145 0.0000
# 3 102.6457 48.0329 281.1439 0.0000 54.2020 0.0000
# 4 0.0000 0.0000 0.0000 53.2536 0.0000 -27.8802
# 5 -73.7573 -19.6145 54.2020 0.0000 156.1255 0.0000
# 6 0.0000 0.0000 0.0000 -27.8802 0.0000 73.6566
#
#
#
# Elastic Compliance Matrix: (Units=1/GPa)
#
#
# Indices 1 2 3 4 5 6 
#
# 1 0.010909 -0.013040 -0.002607 0.000000 0.004421 0.000000
# 2 -0.013040 0.040919 -0.002179 0.000000 -0.000263 0.000000
# 3 -0.002607 -0.002179 0.005542 0.000000 -0.003430 0.000000
# 4 0.000000 0.000000 0.000000 0.023419 0.000000 0.008864
# 5 0.004421 -0.000263 -0.003430 0.000000 0.009651 0.000000
# 6 0.000000 0.000000 0.000000 0.008864 0.000000 0.016932
#
#
# Mechanical properties :
#
#
# Convention : Reuss Voigt Hill
#
# Bulk Modulus (GPa) = 46.04648 116.45058 81.24853
# Shear Modulus (GPa) = 33.27460 79.68865 56.48162
#
# Velocity S-wave (km/s) = 3.28664 5.08620 4.28202
# Velocity P-wave (km/s) = 5.41764 8.50272 7.12906
#
# Compressibility (1/GPa) = 0.02171719
#
# Stress axis : x y z
#
# Youngs Moduli (GPa) = 91.66617 24.43854 180.42791
#
# Poissons Ratio (x) = 0.31868 0.47044
# Poissons Ratio (y) = 1.19533 0.39321
# Poissons Ratio (z) = 0.23900 0.05326
#
# Static dielectric constant tensor:
#      x y z
#    x 2.390420 0.000000 0.177120 
#    y 0.000000 2.569370 0.000000 
#    z 0.177120 0.000000 2.394930 
# 
# From -- ./inp_files/60264.got.cif
#   From: 2010.05.17/outbox.cif.g08.bks.cpg/sg13_31_cif.got.tgz:60264.got - 2010.06.03 16:44:36.
