data_PCOD9229063
_publ_section_title
;
Structure prediction by ZEFSAII (Michael W. Deem and Ramdas Pophale) SiO2 
 PCOD9229063
Probable space group: P 2/C
;
_chemical_formula_sum "Si O2"
_cell_formula_units_Z 28
_cell_length_a 9.125310
_cell_length_b 7.947008
_cell_length_c 17.756932
_cell_angle_alpha 90.000000
_cell_angle_beta 72.407179
_cell_angle_gamma 90.000000
_cell_volume 1227.485155
_symmetry_space_group_name_H-M "P 2/C"
_symmetry_group_IT_number 13
_symmetry_cell_setting 'monoclinic'
loop_
_space_group_symop_operation_xyz
x,y,z
-x,y,1/2-z
-x,-y,-z
x,-y,1/2+z
loop_
_atom_site_type_symbol
_atom_site_label
_atom_site_fract_x
_atom_site_fract_y
_atom_site_fract_z
Si Si1 0.477282 0.373617 0.621129
Si Si2 0.845784 0.258049 0.823711
Si Si3 0.259746 0.921160 0.583098
Si Si4 0.874799 0.667177 0.530053
Si Si5 0.799656 0.280283 0.552917
Si Si6 0.455845 0.264134 0.447320
Si Si7 0.947286 0.384712 0.343956
O O1 0.322522 0.307286 0.685215
O O2 0.642852 0.304303 0.624607
O O3 0.466250 0.316312 0.534247
O O4 0.488177 0.576364 0.611396
O O5 0.880156 0.428529 0.864012
O O6 0.000000 0.230551 0.750000
O O7 0.811698 0.091148 0.875955
O O8 0.238349 0.865781 0.500138
O O9 0.436577 0.897008 0.578539
O O10 0.175206 0.762571 0.633552
O O11 0.822664 0.474112 0.518832
O O12 0.719490 0.768886 0.545629
O O13 0.018311 0.744920 0.460971
O O14 0.929771 0.654404 0.609165
O O15 0.000000 0.386374 0.250000
#
# Coordination Sequence:
#
# PCOD9229063 Si02
#       7
#     4   4   4   4   4   4   4
#     4   9  17  33  57  87 121 150 197 240 301 359
#     4  11  23  36  59  87 116 164 213 241 279 362
#     4  10  19  37  60  87 117 154 200 245 299 358
#     4   9  17  32  58  93 119 147 195 248 305 356
#     4   8  17  30  58  88 118 149 183 250 308 350
#     4   9  17  31  62  91 114 152 189 249 308 354
#     4  10  21  38  60  82 113 163 206 240 291 360
#
# _framework density 22.810866000000001
#
# number of rings (size 3 to 8) (size 9 to 14) (size 15 to 20)
#    0.000    2.571    1.429    1.286    6.000    2.286 
#    0.000    1.429   12.571    0.000    7.429    0.000 
#    0.000    0.000    0.000    0.000    0.000    0.000 
#
# Total GULP energy -155920.685613 kJ/mol
# GULP energy per Si atom -5568.595915 kJ/mol
# Density = 2.275895 g / cm^3
# Si number density = 22.810866 Si / 1000 Ang^3
#
#
#
# Elastic Constant Matrix: (Units=GPa)
#
#
# Indices 1 2 3 4 5 6 
#
# 1 194.3344 69.8107 47.3644 0.0000 -37.8695 0.0000
# 2 69.8107 130.0370 44.5497 0.0000 -25.0617 0.0000
# 3 47.3644 44.5497 57.4476 0.0000 -16.2559 0.0000
# 4 0.0000 0.0000 0.0000 32.0603 0.0000 -18.2181
# 5 -37.8695 -25.0617 -16.2559 0.0000 35.0993 0.0000
# 6 0.0000 0.0000 0.0000 -18.2181 0.0000 29.1581
#
#
#
# Elastic Compliance Matrix: (Units=1/GPa)
#
#
# Indices 1 2 3 4 5 6 
#
# 1 0.007707 -0.001968 -0.003306 0.000000 0.005378 0.000000
# 2 -0.001968 0.011564 -0.006456 0.000000 0.003144 0.000000
# 3 -0.003306 -0.006456 0.026268 0.000000 0.003990 0.000000
# 4 0.000000 0.000000 0.000000 0.048362 0.000000 0.030217
# 5 0.005378 0.003144 0.003990 0.000000 0.038386 0.000000
# 6 0.000000 0.000000 0.000000 0.030217 0.000000 0.053175
#
#
# Mechanical properties :
#
#
# Convention : Reuss Voigt Hill
#
# Bulk Modulus (GPa) = 45.29040 78.36318 61.82679
# Shear Modulus (GPa) = 23.11813 33.93649 28.52731
#
# Velocity S-wave (km/s) = 3.18696 3.86130 3.54022
# Velocity P-wave (km/s) = 5.78274 7.36936 6.62373
#
# Compressibility (1/GPa) = 0.02207974
#
# Stress axis : x y z
#
# Youngs Moduli (GPa) = 129.75937 86.47318 38.06950
#
# Poissons Ratio (x) = 0.17020 0.12584
# Poissons Ratio (y) = 0.25540 0.24576
# Poissons Ratio (z) = 0.42894 0.55823
#
# Static dielectric constant tensor:
#      x y z
#    x 1.968850 0.000000 -0.037410 
#    y 0.000000 1.854130 0.000000 
#    z -0.037410 0.000000 1.967170 
# 
# From -- ./inp_files/75262.got.cif
#   From: 2010.05.17/outbox.cif.g08.bks.cpg/sg13_38_cif.got.tgz:75262.got - 2010.06.03 16:44:36.
