data_PCOD9229332
_publ_section_title
;
Structure prediction by ZEFSAII (Michael W. Deem and Ramdas Pophale) SiO2 
 PCOD9229332
Probable space group: P 2/C
;
_chemical_formula_sum "Si O2"
_cell_formula_units_Z 26
_cell_length_a 22.028310
_cell_length_b 7.996707
_cell_length_c 14.959921
_cell_angle_alpha 90.000000
_cell_angle_beta 28.852508
_cell_angle_gamma 90.000000
_cell_volume 1271.656689
_symmetry_space_group_name_H-M "P 2/C"
_symmetry_group_IT_number 13
_symmetry_cell_setting 'monoclinic'
loop_
_space_group_symop_operation_xyz
x,y,z
-x,y,1/2-z
-x,-y,-z
x,-y,1/2+z
loop_
_atom_site_type_symbol
_atom_site_label
_atom_site_fract_x
_atom_site_fract_y
_atom_site_fract_z
Si Si1 0.610664 0.408572 0.473043
Si Si2 0.808924 0.840717 0.391408
Si Si3 0.630780 0.618894 0.741360
Si Si4 0.368335 0.091035 0.926583
Si Si5 0.208882 0.701650 0.506415
Si Si6 0.000000 0.072987 0.250000
Si Si7 0.872167 0.500167 0.219104
O O1 0.497734 0.541604 0.635233
O O2 0.601744 0.348107 0.382306
O O3 0.605620 0.246420 0.542462
O O4 0.747332 0.484434 0.319233
O O5 0.702196 0.769460 0.598391
O O6 0.865690 0.676184 0.276734
O O7 0.738131 0.958699 0.411624
O O8 0.919758 0.951907 0.290242
O O9 0.727780 0.462206 0.614948
O O10 0.500000 0.998580 0.750000
O O11 0.316910 0.171679 0.900683
O O12 0.141195 0.641090 0.686137
O O13 0.108956 0.800459 0.575445
O O14 0.000000 0.500000 0.000000
#
# Coordination Sequence:
#
# PCOD9229332 Si02
#       7
#     4   4   4   4   4   2   4
#     4  10  22  39  63  92 127 150 213 254 303 364
#     4  10  24  39  65  90 122 165 208 246 316 361
#     4  10  21  40  65  93 115 166 208 260 296 365
#     4  10  19  39  61  89 124 161 190 257 313 365
#     4   9  20  38  64  82 119 167 204 238 312 363
#     4  10  22  40  58  92 120 160 200 254 304 368
#     4  10  23  39  61  93 118 164 206 251 297 375
#
# _framework density 20.445771000000001
#
# number of rings (size 3 to 8) (size 9 to 14) (size 15 to 20)
#    0.000    2.154    1.538    0.000    6.462    1.231 
#    2.769    3.077    0.000    0.000    0.000    0.000 
#    0.000    0.000    0.000    0.000    0.000    0.000 
#
# Total GULP energy -144908.850415 kJ/mol
# GULP energy per Si atom -5573.417324 kJ/mol
# Density = 2.039924 g / cm^3
# Si number density = 20.445771 Si / 1000 Ang^3
#
#
#
# Elastic Constant Matrix: (Units=GPa)
#
#
# Indices 1 2 3 4 5 6 
#
# 1 79.9839 32.7821 50.2268 0.0000 -27.7982 0.0000
# 2 32.7821 81.4089 30.5776 0.0000 -25.0643 0.0000
# 3 50.2268 30.5776 109.8657 0.0000 -31.4079 0.0000
# 4 0.0000 0.0000 0.0000 15.7870 0.0000 -12.4250
# 5 -27.7982 -25.0643 -31.4079 0.0000 38.2206 0.0000
# 6 0.0000 0.0000 0.0000 -12.4250 0.0000 20.7509
#
#
#
# Elastic Compliance Matrix: (Units=1/GPa)
#
#
# Indices 1 2 3 4 5 6 
#
# 1 0.020474 -0.003627 -0.006239 0.000000 0.007385 0.000000
# 2 -0.003627 0.016320 -0.000756 0.000000 0.007443 0.000000
# 3 -0.006239 -0.000756 0.014019 0.000000 0.006487 0.000000
# 4 0.000000 0.000000 0.000000 0.119800 0.000000 0.071732
# 5 0.007385 0.007443 0.006487 0.000000 0.041746 0.000000
# 6 0.000000 0.000000 0.000000 0.071732 0.000000 0.091142
#
#
# Mechanical properties :
#
#
# Convention : Reuss Voigt Hill
#
# Bulk Modulus (GPa) = 33.82089 55.38128 44.60108
# Shear Modulus (GPa) = 14.94314 25.46317 20.20315
#
# Velocity S-wave (km/s) = 2.70639 3.53285 3.14687
# Velocity P-wave (km/s) = 5.13261 6.61718 5.92160
#
# Compressibility (1/GPa) = 0.02956753
#
# Stress axis : x y z
#
# Youngs Moduli (GPa) = 48.84296 61.27529 71.33091
#
# Poissons Ratio (x) = 0.22226 0.44505
# Poissons Ratio (y) = 0.17717 0.05394
# Poissons Ratio (z) = 0.30474 0.04633
#
# Static dielectric constant tensor:
#      x y z
#    x 1.736400 0.000000 -0.016880 
#    y 0.000000 1.751630 0.000000 
#    z -0.016880 0.000000 1.767940 
# 
# From -- ./inp_files/57205.got.cif
#   From: 2010.05.17/outbox.cif.g08.bks.cpg/sg13_29_cif.got.tgz:57205.got - 2010.06.03 16:44:36.
