data_PCOD9229631
_publ_section_title
;
Structure prediction by ZEFSAII (Michael W. Deem and Ramdas Pophale) SiO2 
 PCOD9229631
Probable space group: P 2/C
;
_chemical_formula_sum "Si O2"
_cell_formula_units_Z 30
_cell_length_a 17.224105
_cell_length_b 5.470014
_cell_length_c 13.754957
_cell_angle_alpha 90.000000
_cell_angle_beta 112.249744
_cell_angle_gamma 90.000000
_cell_volume 1199.445619
_symmetry_space_group_name_H-M "P 2/C"
_symmetry_group_IT_number 13
_symmetry_cell_setting 'monoclinic'
loop_
_space_group_symop_operation_xyz
x,y,z
-x,y,1/2-z
-x,-y,-z
x,-y,1/2+z
loop_
_atom_site_type_symbol
_atom_site_label
_atom_site_fract_x
_atom_site_fract_y
_atom_site_fract_z
Si Si1 0.664230 0.874610 0.484123
Si Si2 0.707600 0.126536 0.772510
Si Si3 0.111241 0.218452 0.583218
Si Si4 0.383678 0.378066 0.290196
Si Si5 0.846361 0.993778 0.108111
Si Si6 0.059071 0.373334 0.930392
Si Si7 0.000000 0.256561 0.250000
Si Si8 0.575909 0.373805 0.422457
O O1 0.685903 0.871915 0.378390
O O2 0.752847 0.923995 0.577159
O O3 0.622161 0.614191 0.485918
O O4 0.606628 0.111093 0.475025
O O5 0.808401 0.156511 0.813307
O O6 0.666369 0.373344 0.711400
O O7 0.666128 0.874704 0.715520
O O8 0.128836 0.070795 0.491745
O O9 0.017637 0.190477 0.581365
O O10 0.106164 0.500873 0.542829
O O11 0.475845 0.388747 0.380345
O O12 0.400607 0.377398 0.181426
O O13 0.915047 0.105153 0.210711
O O14 0.868687 0.710123 0.109798
O O15 0.008826 0.579952 0.848761
#
# Coordination Sequence:
#
# PCOD9229631 Si02
#       8
#     4   4   4   4   4   4   2   4
#     4   9  18  26  46  66  98 131 179 209 260 310
#     4   9  17  27  43  69  99 137 168 217 251 324
#     4   9  20  32  52  79 102 140 189 214 271 319
#     4   9  16  26  42  62 102 134 169 204 270 306
#     4  10  20  33  52  74 104 143 176 227 267 321
#     4  10  20  36  54  72 107 144 178 229 267 322
#     4  10  22  36  50  76 100 142 180 220 278 316
#     4   9  16  27  40  67  94 137 169 212 249 329
#
# _framework density 25.011557
#
# number of rings (size 3 to 8) (size 9 to 14) (size 15 to 20)
#    0.000    2.667    0.000    1.600   11.200    3.200 
#    0.000    0.000    0.000    0.000    0.000    0.000 
#    0.000    6.400    0.000    0.800    0.000    0.000 
#
# Total GULP energy -167700.844253 kJ/mol
# GULP energy per Si atom -5590.028142 kJ/mol
# Density = 2.495463 g / cm^3
# Si number density = 25.011557 Si / 1000 Ang^3
#
#
#
# Elastic Constant Matrix: (Units=GPa)
#
#
# Indices 1 2 3 4 5 6 
#
# 1 115.5539 57.5723 49.9574 0.0000 30.6089 0.0000
# 2 57.5723 168.5408 90.2584 0.0000 48.2890 0.0000
# 3 49.9574 90.2584 139.1712 0.0000 60.9702 0.0000
# 4 0.0000 0.0000 0.0000 -10.4591 0.0000 -14.7011
# 5 30.6089 48.2890 60.9702 0.0000 57.0060 0.0000
# 6 0.0000 0.0000 0.0000 -14.7011 0.0000 16.3196
#
#
#
# Elastic Compliance Matrix: (Units=1/GPa)
#
#
# Indices 1 2 3 4 5 6 
#
# 1 0.011070 -0.002333 -0.001359 0.000000 -0.002514 0.000000
# 2 -0.002333 0.009796 -0.004571 0.000000 -0.002157 0.000000
# 3 -0.001359 -0.004571 0.016223 0.000000 -0.012750 0.000000
# 4 0.000000 0.000000 0.000000 -0.042190 0.000000 -0.038006
# 5 -0.002514 -0.002157 -0.012750 0.000000 0.034355 0.000000
# 6 0.000000 0.000000 0.000000 -0.038006 0.000000 0.027039
#
#
# Mechanical properties :
#
#
# Convention : Reuss Voigt Hill
#
# Bulk Modulus (GPa) = 48.63202 90.98243 69.80723
# Shear Modulus (GPa) = 62.75571 27.60515 45.18043
#
# Velocity S-wave (km/s) = 5.01449 3.32580 4.25477
# Velocity P-wave (km/s) = 7.28100 7.15563 7.21858
#
# Compressibility (1/GPa) = 0.02056258
#
# Stress axis : x y z
#
# Youngs Moduli (GPa) = 90.33442 102.08271 61.63998
#
# Poissons Ratio (x) = 0.23819 0.08378
# Poissons Ratio (y) = 0.21078 0.28174
# Poissons Ratio (z) = 0.12279 0.46659
#
# Static dielectric constant tensor:
#      x y z
#    x 2.017390 0.000000 -0.086710 
#    y 0.000000 2.076850 0.000000 
#    z -0.086710 0.000000 1.979200 
# 
# From -- ./inp_files/81285.got.cif
#   From: 2010.05.17/outbox.cif.g08.bks.cpg/sg13_41_cif.got.tgz:81285.got - 2010.06.03 16:44:36.
