data_PCOD9229194
_publ_section_title
;
Structure prediction by ZEFSAII (Michael W. Deem and Ramdas Pophale) SiO2 
 PCOD9229194
Probable space group: P 2/C
;
_chemical_formula_sum "Si O2"
_cell_formula_units_Z 32
_cell_length_a 14.598653
_cell_length_b 14.939464
_cell_length_c 11.733859
_cell_angle_alpha 90.000000
_cell_angle_beta 31.260433
_cell_angle_gamma 90.000000
_cell_volume 1327.995313
_symmetry_space_group_name_H-M "P 2/C"
_symmetry_group_IT_number 13
_symmetry_cell_setting 'monoclinic'
loop_
_space_group_symop_operation_xyz
x,y,z
-x,y,1/2-z
-x,-y,-z
x,-y,1/2+z
loop_
_atom_site_type_symbol
_atom_site_label
_atom_site_fract_x
_atom_site_fract_y
_atom_site_fract_z
Si Si1 0.754353 0.859390 0.940200
Si Si2 0.587575 0.156397 0.855506
Si Si3 0.084072 0.684686 0.036194
Si Si4 0.252033 0.339831 0.768725
Si Si5 0.086046 0.883029 0.034979
Si Si6 0.206493 0.530449 0.773694
Si Si7 0.222830 0.021934 0.733965
Si Si8 0.715831 0.334388 0.506772
O O1 0.822335 0.954764 0.822496
O O2 0.581457 0.858064 0.043004
O O3 0.733153 0.859182 0.099406
O O4 0.811324 0.756276 0.860159
O O5 0.614674 0.255946 0.874536
O O6 0.605823 0.083033 0.934985
O O7 0.165028 0.784043 0.942351
O O8 0.000000 0.671601 0.250000
O O9 0.917887 0.683604 0.126205
O O10 0.215907 0.605152 0.862638
O O11 0.315023 0.438589 0.665066
O O12 0.210592 0.352452 0.946278
O O13 0.000000 0.889088 0.250000
O O14 0.212532 0.960768 0.857352
O O15 0.925233 0.900869 0.118478
O O16 0.250557 0.584410 0.613023
O O17 0.000000 0.500000 0.000000
O O18 0.500000 0.319305 0.750000
#
# Coordination Sequence:
#
# PCOD9229194 Si02
#       8
#     4   4   4   4   4   4   4   4
#     4  10  20  37  60  88 116 159 204 252 305 369
#     4  10  19  38  57  85 119 156 199 256 303 363
#     4  10  21  39  61  87 128 163 202 264 323 382
#     4  10  21  39  64  87 125 161 209 262 318 378
#     4  10  21  35  51  82 117 154 194 248 309 366
#     4  10  24  38  66  96 120 162 216 262 321 378
#     4  11  20  33  59  82 117 155 205 244 304 372
#     4  11  22  43  66  92 129 165 209 268 320 380
#
# _framework density 24.096468999999999
#
# number of rings (size 3 to 8) (size 9 to 14) (size 15 to 20)
#    0.000    1.750    3.750    1.875    3.500    2.000 
#    0.000    0.000    0.000    0.000    3.250    0.000 
#    0.000    0.000    0.000    0.000    0.000    0.000 
#
# Total GULP energy -178416.799904 kJ/mol
# GULP energy per Si atom -5575.524997 kJ/mol
# Density = 2.404162 g / cm^3
# Si number density = 24.096469 Si / 1000 Ang^3
#
#
#
# Elastic Constant Matrix: (Units=GPa)
#
#
# Indices 1 2 3 4 5 6 
#
# 1 92.7048 26.3966 22.0951 0.0000 14.5653 0.0000
# 2 26.3966 193.0037 23.0815 0.0000 10.2095 0.0000
# 3 22.0951 23.0815 48.0151 0.0000 14.1634 0.0000
# 4 0.0000 0.0000 0.0000 21.9964 0.0000 7.4630
# 5 14.5653 10.2095 14.1634 0.0000 36.2483 0.0000
# 6 0.0000 0.0000 0.0000 7.4630 0.0000 34.4260
#
#
#
# Elastic Compliance Matrix: (Units=1/GPa)
#
#
# Indices 1 2 3 4 5 6 
#
# 1 0.012612 -0.001037 -0.004404 0.000000 -0.003055 0.000000
# 2 -0.001037 0.005593 -0.002114 0.000000 -0.000333 0.000000
# 3 -0.004404 -0.002114 0.026191 0.000000 -0.007869 0.000000
# 4 0.000000 0.000000 0.000000 0.049071 0.000000 -0.010638
# 5 -0.003055 -0.000333 -0.007869 0.000000 0.031983 0.000000
# 6 0.000000 0.000000 0.000000 -0.010638 0.000000 0.031354
#
#
# Mechanical properties :
#
#
# Convention : Reuss Voigt Hill
#
# Bulk Modulus (GPa) = 34.14476 52.98557 43.56516
# Shear Modulus (GPa) = 27.52167 36.01083 31.76625
#
# Velocity S-wave (km/s) = 3.38323 3.87000 3.63477
# Velocity P-wave (km/s) = 5.42793 6.48119 5.97780
#
# Compressibility (1/GPa) = 0.02928707
#
# Stress axis : x y z
#
# Youngs Moduli (GPa) = 79.29139 178.78207 38.18176
#
# Poissons Ratio (x) = 0.18532 0.16816
# Poissons Ratio (y) = 0.08219 0.08070
# Poissons Ratio (z) = 0.34921 0.37787
#
# Static dielectric constant tensor:
#      x y z
#    x 1.935130 0.000000 -0.049030 
#    y 0.000000 1.989410 0.000000 
#    z -0.049030 0.000000 2.057210 
# 
# From -- ./inp_files/37512.got.cif
#   From: 2010.05.17/outbox.cif.g08.bks.cpg/sg13_19_cif.got.tgz:37512.got - 2010.06.03 16:44:36.
