data_PCOD9229565
_publ_section_title
;
Structure prediction by ZEFSAII (Michael W. Deem and Ramdas Pophale) SiO2 
 PCOD9229565
Probable space group: P 2/C
;
_chemical_formula_sum "Si O2"
_cell_formula_units_Z 28
_cell_length_a 17.882083
_cell_length_b 14.195345
_cell_length_c 8.412148
_cell_angle_alpha 90.000000
_cell_angle_beta 40.801425
_cell_angle_gamma 90.000000
_cell_volume 1395.327974
_symmetry_space_group_name_H-M "P 2/C"
_symmetry_group_IT_number 13
_symmetry_cell_setting 'monoclinic'
loop_
_space_group_symop_operation_xyz
x,y,z
-x,y,1/2-z
-x,-y,-z
x,-y,1/2+z
loop_
_atom_site_type_symbol
_atom_site_label
_atom_site_fract_x
_atom_site_fract_y
_atom_site_fract_z
Si Si1 0.376157 0.679474 0.481295
Si Si2 0.181315 0.872455 0.120613
Si Si3 0.584669 0.220157 0.259070
Si Si4 0.133411 0.605398 0.839439
Si Si5 0.000000 0.242689 0.750000
Si Si6 0.396272 0.878652 0.258908
Si Si7 0.272535 0.997008 0.704436
Si Si8 0.000000 0.448064 0.250000
O O1 0.500000 0.635746 0.250000
O O2 0.381803 0.705196 0.658978
O O3 0.269263 0.615058 0.610458
O O4 0.370751 0.777313 0.384647
O O5 0.175672 0.959875 0.247553
O O6 0.067122 0.816148 0.274281
O O7 0.292838 0.814997 0.999457
O O8 0.220860 0.911720 0.886593
O O9 0.500000 0.247239 0.250000
O O10 0.514200 0.140487 0.473279
O O11 0.072516 0.607070 0.765676
O O12 0.091482 0.692399 0.013669
O O13 0.086794 0.514097 0.009012
O O14 0.313899 0.922248 0.257974
O O15 0.375404 0.956403 0.430145
#
# Coordination Sequence:
#
# PCOD9229565 Si02
#       8
#     4   4   4   4   2   4   4   2
#     4  10  21  39  59  86 120 156 187 239 291 345
#     4  11  22  36  50  79 106 159 208 248 303 332
#     4  11  20  35  52  81 112 145 211 246 292 349
#     4  10  20  43  67  92 123 143 187 229 277 348
#     4  11  22  38  64  77 118 160 194 241 286 352
#     4  10  20  32  51  77 108 153 196 247 297 333
#     4  10  21  34  50  74 114 151 206 263 293 331
#     4   9  22  40  70 103 112 150 182 221 270 352
#
# _framework density 20.066967000000002
#
# number of rings (size 3 to 8) (size 9 to 14) (size 15 to 20)
#    0.000    1.714    4.286    0.000    0.000    5.143 
#    0.000    0.714    0.000    0.000    0.000    0.000 
#    0.000    0.000    0.000    0.000    0.000    0.000 
#
# Total GULP energy -156061.308168 kJ/mol
# GULP energy per Si atom -5573.618149 kJ/mol
# Density = 2.002129 g / cm^3
# Si number density = 20.066967 Si / 1000 Ang^3
#
#
#
# Elastic Constant Matrix: (Units=GPa)
#
#
# Indices 1 2 3 4 5 6 
#
# 1 121.8776 26.2093 30.1942 0.0000 -3.1801 0.0000
# 2 26.2093 19.9657 7.7453 0.0000 -13.8423 0.0000
# 3 30.1942 7.7453 51.5707 0.0000 -10.0967 0.0000
# 4 0.0000 0.0000 0.0000 -1.2835 0.0000 -6.4626
# 5 -3.1801 -13.8423 -10.0967 0.0000 37.6310 0.0000
# 6 0.0000 0.0000 0.0000 -6.4626 0.0000 21.8658
#
#
#
# Elastic Compliance Matrix: (Units=1/GPa)
#
#
# Indices 1 2 3 4 5 6 
#
# 1 0.014533 -0.022606 -0.006862 0.000000 -0.008929 0.000000
# 2 -0.022606 0.103934 0.005000 0.000000 0.037662 0.000000
# 3 -0.006862 0.005000 0.024174 0.000000 0.007745 0.000000
# 4 0.000000 0.000000 0.000000 -0.313133 0.000000 -0.092549
# 5 -0.008929 0.037662 0.007745 0.000000 0.041751 0.000000
# 6 0.000000 0.000000 0.000000 -0.092549 0.000000 0.018380
#
#
# Mechanical properties :
#
#
# Convention : Reuss Voigt Hill
#
# Bulk Modulus (GPa) = 10.67190 35.74571 23.20881
# Shear Modulus (GPa) = -165.62363 20.26037 -72.68163
#
# Velocity S-wave (km/s) = -9.09476 3.18093 -6.02480
# Velocity P-wave (km/s) = 10.24483 5.59848 6.06686
#
# Compressibility (1/GPa) = 0.09370403
#
# Stress axis : x y z
#
# Youngs Moduli (GPa) = 68.80685 9.62153 41.36677
#
# Poissons Ratio (x) = 0.21751 0.28386
# Poissons Ratio (y) = 1.55548 -0.20684
# Poissons Ratio (z) = 0.47216 -0.04811
#
# Static dielectric constant tensor:
#      x y z
#    x 1.756940 0.000000 0.006210 
#    y 0.000000 1.719950 0.000000 
#    z 0.006210 0.000000 1.749520 
# 
# From -- ./inp_files/21961.got.cif
#   From: 2010.05.17/outbox.cif.g08.bks.cpg/sg13_11_cif.got.tgz:21961.got - 2010.06.03 16:44:36.
