data_PCOD9229108
_publ_section_title
;
Structure prediction by ZEFSAII (Michael W. Deem and Ramdas Pophale) SiO2 
 PCOD9229108
Probable space group: P 2/C
;
_chemical_formula_sum "Si O2"
_cell_formula_units_Z 30
_cell_length_a 12.687193
_cell_length_b 8.462460
_cell_length_c 32.044219
_cell_angle_alpha 90.000000
_cell_angle_beta 22.318122
_cell_angle_gamma 90.000000
_cell_volume 1306.496488
_symmetry_space_group_name_H-M "P 2/C"
_symmetry_group_IT_number 13
_symmetry_cell_setting 'monoclinic'
loop_
_space_group_symop_operation_xyz
x,y,z
-x,y,1/2-z
-x,-y,-z
x,-y,1/2+z
loop_
_atom_site_type_symbol
_atom_site_label
_atom_site_fract_x
_atom_site_fract_y
_atom_site_fract_z
Si Si1 0.477264 0.812450 0.505545
Si Si2 0.625950 0.302665 0.542244
Si Si3 0.188277 0.387588 0.813659
Si Si4 0.659659 0.822047 0.610210
Si Si5 0.276205 0.189186 0.906340
Si Si6 0.500000 0.626289 0.750000
Si Si7 0.595076 0.682999 0.547740
Si Si8 0.954253 0.628909 0.222803
O O1 0.296391 0.765816 0.531229
O O2 0.418383 0.741758 0.572904
O O3 0.769525 0.727239 0.387410
O O4 0.500000 0.000000 0.500000
O O5 0.791884 0.240675 0.521096
O O6 0.606628 0.492632 0.546672
O O7 0.308096 0.257781 0.671749
O O8 0.475919 0.295066 0.702178
O O9 0.246178 0.514046 0.828263
O O10 0.119817 0.460292 0.792745
O O11 0.922043 0.278512 0.919673
O O12 0.561275 0.728329 0.686795
O O13 0.519870 0.761181 0.619030
O O14 0.991832 0.793593 0.485410
O O15 0.627832 0.008358 0.628293
O O16 0.000000 0.540235 0.250000
#
# Coordination Sequence:
#
# PCOD9229108 Si02
#       8
#     4   4   4   4   4   2   4   4
#     4  10  20  36  61  90 120 155 195 241 294 353
#     4  10  19  37  62  87 119 159 196 238 295 355
#     4  10  21  37  60  87 117 157 194 240 301 356
#     4  11  24  39  58  87 118 155 202 250 296 352
#     4  10  22  40  62  85 119 160 196 241 301 356
#     4  12  24  38  58  86 118 152 204 254 292 350
#     4  11  22  38  62  90 119 154 199 245 294 354
#     4   8  17  34  58  82 112 151 191 232 287 350
#
# _framework density 22.962177000000001
#
# number of rings (size 3 to 8) (size 9 to 14) (size 15 to 20)
#    0.000    1.867    0.000    4.400    0.000    4.267 
#    0.000    5.333    0.000   32.800    0.000    0.000 
#    0.000    0.000    0.000    0.000    0.000    0.000 
#
# Total GULP energy -167495.042747 kJ/mol
# GULP energy per Si atom -5583.168092 kJ/mol
# Density = 2.290991 g / cm^3
# Si number density = 22.962177 Si / 1000 Ang^3
#
#
#
# Elastic Constant Matrix: (Units=GPa)
#
#
# Indices 1 2 3 4 5 6 
#
# 1 148.3150 28.6418 1.9082 0.0001 46.2052 0.0000
# 2 28.6418 80.2558 6.1055 0.0001 15.4398 0.0000
# 3 1.9082 6.1055 48.3641 -0.0002 11.4087 0.0000
# 4 0.0001 0.0001 -0.0002 -37.7442 0.0001 -15.5741
# 5 46.2052 15.4398 11.4087 0.0001 37.9655 0.0000
# 6 0.0000 0.0000 0.0000 -15.5741 0.0000 21.4855
#
#
#
# Elastic Compliance Matrix: (Units=1/GPa)
#
#
# Indices 1 2 3 4 5 6 
#
# 1 0.011432 -0.001584 0.003099 0.000000 -0.014201 0.000000
# 2 -0.001584 0.013746 -0.000871 0.000000 -0.003401 0.000000
# 3 0.003099 -0.000871 0.023108 0.000000 -0.010361 0.000000
# 4 0.000000 0.000000 0.000000 -0.020394 0.000000 -0.014783
# 5 -0.014201 -0.003401 -0.010361 0.000000 0.048119 0.000000
# 6 0.000000 0.000000 0.000000 -0.014783 0.000000 0.035827
#
#
# Mechanical properties :
#
#
# Convention : Reuss Voigt Hill
#
# Bulk Modulus (GPa) = 20.17133 38.91622 29.54377
# Shear Modulus (GPa) = 39.34688 20.35998 29.85343
#
# Velocity S-wave (km/s) = 4.14400 2.98094 3.60962
# Velocity P-wave (km/s) = 5.63033 5.36961 5.50152
#
# Compressibility (1/GPa) = 0.04957532
#
# Stress axis : x y z
#
# Youngs Moduli (GPa) = 87.47081 72.74888 43.27455
#
# Poissons Ratio (x) = 0.11522 -0.13409
# Poissons Ratio (y) = 0.13854 0.03767
# Poissons Ratio (z) = -0.27105 0.06333
#
# Static dielectric constant tensor:
#      x y z
#    x 1.943100 0.000000 -0.013480 
#    y 0.000000 1.802180 0.000000 
#    z -0.013480 0.000000 1.925090 
# 
# From -- ./inp_files/96608.got.cif
#   From: 2010.05.17/outbox.cif.g08.bks.cpg/sg13_49_cif.got.tgz:96608.got - 2010.06.03 16:44:36.
