data_PCOD9229480
_publ_section_title
;
Structure prediction by ZEFSAII (Michael W. Deem and Ramdas Pophale) SiO2 
 PCOD9229480
Probable space group: P 2/C
;
_chemical_formula_sum "Si O2"
_cell_formula_units_Z 28
_cell_length_a 14.249858
_cell_length_b 8.494061
_cell_length_c 18.991161
_cell_angle_alpha 90.000000
_cell_angle_beta 145.832772
_cell_angle_gamma 90.000000
_cell_volume 1290.958926
_symmetry_space_group_name_H-M "P 2/C"
_symmetry_group_IT_number 13
_symmetry_cell_setting 'monoclinic'
loop_
_space_group_symop_operation_xyz
x,y,z
-x,y,1/2-z
-x,-y,-z
x,-y,1/2+z
loop_
_atom_site_type_symbol
_atom_site_label
_atom_site_fract_x
_atom_site_fract_y
_atom_site_fract_z
Si Si1 0.148566 0.928218 0.428577
Si Si2 0.719072 0.150431 0.233835
Si Si3 0.855466 0.701995 0.608073
Si Si4 0.531311 0.322784 0.002431
Si Si5 0.046486 0.344896 0.482922
Si Si6 0.209448 0.858932 0.310055
Si Si7 0.677770 0.921738 0.333657
O O1 0.114832 0.112185 0.388224
O O2 0.253925 0.956475 0.564139
O O3 0.219784 0.854272 0.401137
O O4 0.978061 0.829597 0.333661
O O5 0.586636 0.256875 0.112776
O O6 0.875338 0.248180 0.360901
O O7 0.767995 0.037848 0.199583
O O8 0.652113 0.031190 0.250419
O O9 0.677113 0.690766 0.535118
O O10 0.877180 0.614742 0.546967
O O11 0.000000 0.644528 0.750000
O O12 0.500000 0.500000 0.000000
O O13 0.360091 0.240762 0.872782
O O14 0.183839 0.214702 0.594996
O O15 0.000000 0.500000 0.500000
O O16 0.500000 0.855801 0.250000
#
# Coordination Sequence:
#
# PCOD9229480 Si02
#       7
#     4   4   4   4   4   4   4
#     4  10  19  42  70 110 134 187 245 295 355 436
#     4  12  23  46  72 103 142 187 251 304 351 444
#     4  11  19  46  73  95 142 190 240 302 366 430
#     4  12  27  44  70 113 146 185 245 315 375 427
#     4  11  25  47  70 104 148 198 239 294 375 446
#     4  11  21  41  78 102 136 184 249 303 351 434
#     4  11  25  43  71 107 148 195 244 296 370 439
#
# _framework density 21.689304
#
# number of rings (size 3 to 8) (size 9 to 14) (size 15 to 20)
#    0.000    0.857    7.143    1.714    4.000    1.143 
#    7.714    0.000    0.000    0.000    0.000    0.000 
#    0.000    0.000    0.000    0.000    0.000    0.000 
#
# Total GULP energy -156252.265998 kJ/mol
# GULP energy per Si atom -5580.438071 kJ/mol
# Density = 2.163994 g / cm^3
# Si number density = 21.689304 Si / 1000 Ang^3
#
#
#
# Elastic Constant Matrix: (Units=GPa)
#
#
# Indices 1 2 3 4 5 6 
#
# 1 132.3266 42.9405 61.9302 0.0000 13.3395 0.0000
# 2 42.9405 59.9180 32.9928 0.0000 18.9624 0.0000
# 3 61.9302 32.9928 83.0274 0.0000 22.6215 0.0000
# 4 0.0000 0.0000 0.0000 -41.0202 0.0000 -6.6629
# 5 13.3395 18.9624 22.6215 0.0000 48.1708 0.0000
# 6 0.0000 0.0000 0.0000 -6.6629 0.0000 30.7976
#
#
#
# Elastic Compliance Matrix: (Units=1/GPa)
#
#
# Indices 1 2 3 4 5 6 
#
# 1 0.012892 -0.005561 -0.008062 0.000000 0.002405 0.000000
# 2 -0.005561 0.024901 -0.004009 0.000000 -0.006380 0.000000
# 3 -0.008062 -0.004009 0.021343 0.000000 -0.006212 0.000000
# 4 0.000000 0.000000 0.000000 -0.023551 0.000000 -0.005095
# 5 0.002405 -0.006380 -0.006212 0.000000 0.025522 0.000000
# 6 0.000000 0.000000 0.000000 -0.005095 0.000000 0.031368
#
#
# Mechanical properties :
#
#
# Convention : Reuss Voigt Hill
#
# Bulk Modulus (GPa) = 41.88787 61.22211 51.55499
# Shear Modulus (GPa) = 36.84678 16.75022 26.79850
#
# Velocity S-wave (km/s) = 4.12618 2.78201 3.51887
# Velocity P-wave (km/s) = 6.48499 6.21350 6.35069
#
# Compressibility (1/GPa) = 0.02387326
#
# Stress axis : x y z
#
# Youngs Moduli (GPa) = 77.56607 40.15835 46.85392
#
# Poissons Ratio (x) = 0.22334 0.37772
# Poissons Ratio (y) = 0.43137 0.18782
# Poissons Ratio (z) = 0.62531 0.16098
#
# Static dielectric constant tensor:
#      x y z
#    x 1.843390 0.000000 -0.012750 
#    y 0.000000 1.769420 0.000000 
#    z -0.012750 0.000000 1.842740 
# 
# From -- ./inp_files/80030.got.cif
#   From: 2010.05.17/outbox.cif.g08.bks.cpg/sg13_41_cif.got.tgz:80030.got - 2010.06.03 16:44:36.
