data_PCOD9229683
_publ_section_title
;
Structure prediction by ZEFSAII (Michael W. Deem and Ramdas Pophale) SiO2 
 PCOD9229683
Probable space group: P 2/C
;
_chemical_formula_sum "Si O2"
_cell_formula_units_Z 24
_cell_length_a 15.068523
_cell_length_b 13.963210
_cell_length_c 9.182872
_cell_angle_alpha 90.000000
_cell_angle_beta 36.284625
_cell_angle_gamma 90.000000
_cell_volume 1143.423635
_symmetry_space_group_name_H-M "P 2/C"
_symmetry_group_IT_number 13
_symmetry_cell_setting 'monoclinic'
loop_
_space_group_symop_operation_xyz
x,y,z
-x,y,1/2-z
-x,-y,-z
x,-y,1/2+z
loop_
_atom_site_type_symbol
_atom_site_label
_atom_site_fract_x
_atom_site_fract_y
_atom_site_fract_z
Si Si1 0.850259 0.321501 0.031173
Si Si2 0.327641 0.322039 0.516327
Si Si3 0.723106 0.875012 0.334140
Si Si4 0.382430 0.472027 0.029812
Si Si5 0.080849 0.877821 0.915480
Si Si6 0.755809 0.995174 0.546334
O O1 0.757711 0.286808 0.013570
O O2 0.741650 0.396708 0.254270
O O3 0.887263 0.233386 0.089248
O O4 0.000000 0.359584 0.750000
O O5 0.500000 0.327845 0.250000
O O6 0.306914 0.236075 0.655492
O O7 0.292602 0.430896 0.605162
O O8 0.669552 0.920912 0.557130
O O9 0.904293 0.884978 0.114794
O O10 0.666244 0.939104 0.277256
O O11 0.500000 0.438726 0.750000
O O12 0.500000 0.500000 0.000000
O O13 0.163503 0.928580 0.669758
O O14 0.137292 0.933999 0.985661
#
# Coordination Sequence:
#
# PCOD9229683 Si02
#       6
#     4   4   4   4   4   4
#     4  12  23  43  71 104 132 166 225 284 324 377
#     4  11  23  43  66  89 130 176 210 267 341 396
#     4  11  19  36  60  92 128 171 215 267 326 388
#     4  11  24  47  71  94 129 180 219 258 342 414
#     4  11  19  35  61  97 129 167 217 275 321 382
#     4  10  20  33  61  93 131 172 215 265 330 387
#
# _framework density 20.989595000000001
#
# number of rings (size 3 to 8) (size 9 to 14) (size 15 to 20)
#    0.000    1.000    6.667    4.000    0.000    2.000 
#    0.000    0.833    0.000    0.000    0.000    0.000 
#    0.000    0.000    0.000    0.000    0.000    0.000 
#
# Total GULP energy -133789.187793 kJ/mol
# GULP energy per Si atom -5574.549491 kJ/mol
# Density = 2.094182 g / cm^3
# Si number density = 20.989595 Si / 1000 Ang^3
#
#
#
# Elastic Constant Matrix: (Units=GPa)
#
#
# Indices 1 2 3 4 5 6 
#
# 1 61.8884 15.3175 29.9355 0.0000 9.6543 0.0000
# 2 15.3175 153.5047 68.0611 0.0000 3.4267 0.0000
# 3 29.9355 68.0611 101.4125 0.0000 14.6145 0.0000
# 4 0.0000 0.0000 0.0000 1025.2565 0.0000 252.3486
# 5 9.6543 3.4267 14.6145 0.0000 29.6741 0.0000
# 6 0.0000 0.0000 0.0000 252.3486 0.0000 61.8919
#
#
#
# Elastic Compliance Matrix: (Units=1/GPa)
#
#
# Indices 1 2 3 4 5 6 
#
# 1 0.019268 0.000641 -0.005601 0.000000 -0.003584 0.000000
# 2 0.000641 0.009424 -0.006811 0.000000 0.002057 0.000000
# 3 -0.005601 -0.006811 0.016909 0.000000 -0.005719 0.000000
# 4 0.000000 0.000000 0.000000 -0.275382 0.000000 1.122801
# 5 -0.003584 0.002057 -0.005719 0.000000 0.037445 0.000000
# 6 0.000000 0.000000 0.000000 1.122801 0.000000 -4.561781
#
#
# Mechanical properties :
#
#
# Convention : Reuss Voigt Hill
#
# Bulk Modulus (GPa) = 45.33220 60.38152 52.85686
# Shear Modulus (GPa) = -1.05860 236.93061 117.93600
#
# Velocity S-wave (km/s) = -0.71094 10.63603 7.50399
# Velocity P-wave (km/s) = 4.57935 13.40385 10.01583
#
# Compressibility (1/GPa) = 0.02205937
#
# Stress axis : x y z
#
# Youngs Moduli (GPa) = 51.89973 106.10903 59.13994
#
# Poissons Ratio (x) = -0.06800 0.33125
# Poissons Ratio (y) = -0.03326 0.40278
# Poissons Ratio (z) = 0.29070 0.72266
#
# Static dielectric constant tensor:
#      x y z
#    x 1.757690 0.000000 0.043320 
#    y 0.000000 1.882380 0.000000 
#    z 0.043320 0.000000 1.806220 
# 
# From -- ./inp_files/19459.got.cif
#   From: 2010.05.17/outbox.cif.g08.bks.cpg/sg13_10_cif.got.tgz:19459.got - 2010.06.03 16:44:36.
