data_PCOD9229559
_publ_section_title
;
Structure prediction by ZEFSAII (Michael W. Deem and Ramdas Pophale) SiO2 
 PCOD9229559
Probable space group: P 2/C
;
_chemical_formula_sum "Si O2"
_cell_formula_units_Z 20
_cell_length_a 13.202833
_cell_length_b 11.704863
_cell_length_c 8.922766
_cell_angle_alpha 90.000000
_cell_angle_beta 135.859293
_cell_angle_gamma 90.000000
_cell_volume 960.297874
_symmetry_space_group_name_H-M "P 2/C"
_symmetry_group_IT_number 13
_symmetry_cell_setting 'monoclinic'
loop_
_space_group_symop_operation_xyz
x,y,z
-x,y,1/2-z
-x,-y,-z
x,-y,1/2+z
loop_
_atom_site_type_symbol
_atom_site_label
_atom_site_fract_x
_atom_site_fract_y
_atom_site_fract_z
Si Si1 0.657920 0.224740 0.342272
Si Si2 0.694439 0.976842 0.226632
Si Si3 0.141747 0.352488 0.140627
Si Si4 0.922486 0.841654 0.316129
Si Si5 0.500000 0.056367 0.750000
Si Si6 0.000000 0.476652 0.250000
O O1 0.500000 0.239552 0.250000
O O2 0.681789 0.100415 0.289972
O O3 0.702272 0.312425 0.257183
O O4 0.784207 0.229962 0.603466
O O5 0.851676 0.934919 0.348068
O O6 0.616279 0.889697 0.259713
O O7 0.600720 0.988659 0.975798
O O8 0.115980 0.402692 0.277968
O O9 0.036106 0.242283 0.014022
O O10 0.081562 0.444254 0.957031
O O11 0.000000 0.890259 0.250000
#
# Coordination Sequence:
#
# PCOD9229559 Si02
#       6
#     4   4   4   4   2   2
#     4  11  20  38  59  88 119 164 191 234 291 349
#     4  11  19  35  56  78 127 157 199 222 286 345
#     4  10  22  40  67  87 114 150 198 243 304 352
#     4  10  21  37  55  89 117 161 192 240 287 347
#     4  10  20  32  50  82 108 174 186 224 270 344
#     4  10  20  44  68  84 114 150 190 254 312 348
#
# _framework density 20.826872000000002
#
# number of rings (size 3 to 8) (size 9 to 14) (size 15 to 20)
#    0.000    1.600    6.000    1.200    0.000    4.800 
#    1.800    1.000    0.000    0.000    0.000    0.000 
#    0.000    0.000    0.000    0.000    0.000    0.000 
#
# Total GULP energy -111439.168357 kJ/mol
# GULP energy per Si atom -5571.958418 kJ/mol
# Density = 2.077947 g / cm^3
# Si number density = 20.826872 Si / 1000 Ang^3
#
#
#
# Elastic Constant Matrix: (Units=GPa)
#
#
# Indices 1 2 3 4 5 6 
#
# 1 240.2183 64.6596 28.0879 0.0000 9.2080 0.0000
# 2 64.6596 60.8213 1.4344 0.0000 -1.6703 0.0000
# 3 28.0879 1.4344 45.2381 0.0000 1.2042 0.0000
# 4 0.0000 0.0000 0.0000 7.8553 0.0000 -0.2599
# 5 9.2080 -1.6703 1.2042 0.0000 42.1759 0.0000
# 6 0.0000 0.0000 0.0000 -0.2599 0.0000 29.0293
#
#
#
# Elastic Compliance Matrix: (Units=1/GPa)
#
#
# Indices 1 2 3 4 5 6 
#
# 1 0.006520 -0.006886 -0.003788 0.000000 -0.001588 0.000000
# 2 -0.006886 0.023745 0.003460 0.000000 0.002345 0.000000
# 3 -0.003788 0.003460 0.024340 0.000000 0.000269 0.000000
# 4 0.000000 0.000000 0.000000 0.127340 0.000000 0.001140
# 5 -0.001588 0.002345 0.000269 0.000000 0.024142 0.000000
# 6 0.000000 0.000000 0.000000 0.001140 0.000000 0.034458
#
#
# Mechanical properties :
#
#
# Convention : Reuss Voigt Hill
#
# Bulk Modulus (GPa) = 24.88917 59.40461 42.14689
# Shear Modulus (GPa) = 18.63133 32.61847 25.62490
#
# Velocity S-wave (km/s) = 2.99420 3.96178 3.51148
# Velocity P-wave (km/s) = 4.89184 7.03652 6.05981
#
# Compressibility (1/GPa) = 0.04017813
#
# Stress axis : x y z
#
# Youngs Moduli (GPa) = 153.37187 42.11441 41.08443
#
# Poissons Ratio (x) = 0.28999 0.15561
# Poissons Ratio (y) = 1.05610 -0.14215
# Poissons Ratio (z) = 0.58092 -0.14572
#
# Static dielectric constant tensor:
#      x y z
#    x 1.856520 0.000000 0.013800 
#    y 0.000000 1.819130 0.000000 
#    z 0.013800 0.000000 1.778770 
# 
# From -- ./inp_files/16036.got.cif
#   From: 2010.05.17/outbox.cif.g08.bks.cpg/sg13_9_cif.got.tgz:16036.got - 2010.06.03 16:44:36.
