data_PCOD9229464
_publ_section_title
;
Structure prediction by ZEFSAII (Michael W. Deem and Ramdas Pophale) SiO2 
 PCOD9229464
Probable space group: P 2/C
;
_chemical_formula_sum "Si O2"
_cell_formula_units_Z 28
_cell_length_a 14.195325
_cell_length_b 6.476859
_cell_length_c 13.078176
_cell_angle_alpha 90.000000
_cell_angle_beta 103.873671
_cell_angle_gamma 90.000000
_cell_volume 1167.343592
_symmetry_space_group_name_H-M "P 2/C"
_symmetry_group_IT_number 13
_symmetry_cell_setting 'monoclinic'
loop_
_space_group_symop_operation_xyz
x,y,z
-x,y,1/2-z
-x,-y,-z
x,-y,1/2+z
loop_
_atom_site_type_symbol
_atom_site_label
_atom_site_fract_x
_atom_site_fract_y
_atom_site_fract_z
Si Si1 0.132014 0.912895 0.049794
Si Si2 0.542503 0.307279 0.945365
Si Si3 0.364383 0.984758 0.369391
Si Si4 0.806282 0.726877 0.081485
Si Si5 0.212740 0.194613 0.232303
Si Si6 0.078419 0.338310 0.358166
Si Si7 0.719247 0.554286 0.387574
O O1 0.060318 0.757147 0.966978
O O2 0.147694 0.096481 0.975175
O O3 0.223527 0.766037 0.089216
O O4 0.135703 0.042756 0.156692
O O5 0.606535 0.394524 0.868409
O O6 0.456031 0.162275 0.883836
O O7 0.500000 0.500000 0.000000
O O8 0.607298 0.155382 0.036283
O O9 0.322151 0.106406 0.261422
O O10 0.271529 0.836511 0.366755
O O11 0.894220 0.579755 0.137435
O O12 0.741287 0.579913 0.993770
O O13 0.174831 0.232483 0.336432
O O14 0.228399 0.418073 0.185409
O O15 0.000000 0.301834 0.250000
#
# Coordination Sequence:
#
# PCOD9229464 Si02
#       7
#     4   4   4   4   4   4   4
#     4  10  22  44  70  97 135 181 220 274 344 415
#     4  11  22  38  69  97 131 174 234 286 321 399
#     4  11  22  39  68  97 129 184 231 267 348 404
#     4  10  19  41  69  90 130 179 220 271 343 407
#     4  11  25  41  71  98 139 185 223 282 355 413
#     4  11  25  44  72 105 132 175 233 287 348 421
#     4  10  21  40  65  95 134 178 222 277 334 392
#
# _framework density 23.986084000000002
#
# number of rings (size 3 to 8) (size 9 to 14) (size 15 to 20)
#    0.000    1.429    4.286    0.857    2.000    1.143 
#    0.000   10.714    0.000    0.000    0.000    0.000 
#    0.000    0.000    0.000    0.000    0.000    0.000 
#
# Total GULP energy -156101.919103 kJ/mol
# GULP energy per Si atom -5575.068539 kJ/mol
# Density = 2.393149 g / cm^3
# Si number density = 23.986084 Si / 1000 Ang^3
#
#
#
# Elastic Constant Matrix: (Units=GPa)
#
#
# Indices 1 2 3 4 5 6 
#
# 1 46.4396 28.1372 15.9884 0.0000 14.4212 0.0000
# 2 28.1372 136.4570 27.4939 0.0000 -0.6952 0.0000
# 3 15.9884 27.4939 75.4714 0.0000 12.3973 0.0000
# 4 0.0000 0.0000 0.0000 36.7582 0.0000 2.2688
# 5 14.4212 -0.6952 12.3973 0.0000 33.6793 0.0000
# 6 0.0000 0.0000 0.0000 2.2688 0.0000 -5.3068
#
#
#
# Elastic Compliance Matrix: (Units=1/GPa)
#
#
# Indices 1 2 3 4 5 6 
#
# 1 0.029437 -0.005685 -0.002209 0.000000 -0.011909 0.000000
# 2 -0.005685 0.009061 -0.002690 0.000000 0.003612 0.000000
# 3 -0.002209 -0.002690 0.015488 0.000000 -0.004811 0.000000
# 4 0.000000 0.000000 0.000000 0.026505 0.000000 0.011332
# 5 -0.011909 0.003612 -0.004811 0.000000 0.036637 0.000000
# 6 0.000000 0.000000 0.000000 0.011332 0.000000 -0.183591
#
#
# Mechanical properties :
#
#
# Convention : Reuss Voigt Hill
#
# Bulk Modulus (GPa) = 30.47101 44.62299 37.54700
# Shear Modulus (GPa) = -145.53222 25.47604 -60.02809
#
# Velocity S-wave (km/s) = -7.79778 3.26255 -5.00805
# Velocity P-wave (km/s) = 8.26696 5.73031 4.21344
#
# Compressibility (1/GPa) = 0.03281808
#
# Stress axis : x y z
#
# Youngs Moduli (GPa) = 33.97123 110.36342 64.56588
#
# Poissons Ratio (x) = 0.62746 0.14261
# Poissons Ratio (y) = 0.19314 0.17366
# Poissons Ratio (z) = 0.07503 0.29684
#
# Static dielectric constant tensor:
#      x y z
#    x 1.945510 0.000000 0.030980 
#    y 0.000000 1.989520 0.000000 
#    z 0.030980 0.000000 1.994430 
# 
# From -- ./inp_files/54715.got.cif
#   From: 2010.05.17/outbox.cif.g08.bks.cpg/sg13_28_cif.got.tgz:54715.got - 2010.06.03 16:44:36.
