data_PCOD9229642
_publ_section_title
;
Structure prediction by ZEFSAII (Michael W. Deem and Ramdas Pophale) SiO2 
 PCOD9229642
Probable space group: P 2/C
;
_chemical_formula_sum "Si O2"
_cell_formula_units_Z 28
_cell_length_a 21.785471
_cell_length_b 8.777013
_cell_length_c 19.896043
_cell_angle_alpha 90.000000
_cell_angle_beta 161.268011
_cell_angle_gamma 90.000000
_cell_volume 1221.735568
_symmetry_space_group_name_H-M "P 2/C"
_symmetry_group_IT_number 13
_symmetry_cell_setting 'monoclinic'
loop_
_space_group_symop_operation_xyz
x,y,z
-x,y,1/2-z
-x,-y,-z
x,-y,1/2+z
loop_
_atom_site_type_symbol
_atom_site_label
_atom_site_fract_x
_atom_site_fract_y
_atom_site_fract_z
Si Si1 0.450027 0.793528 0.407057
Si Si2 0.187263 0.565341 0.776923
Si Si3 0.163751 0.866870 0.831990
Si Si4 0.791054 0.014966 0.752041
Si Si5 0.754357 0.525265 0.818726
Si Si6 0.722342 0.208041 0.909486
Si Si7 0.540029 0.448025 0.216976
O O1 0.646539 0.880847 0.626680
O O2 0.397153 0.615162 0.343165
O O3 0.386175 0.858381 0.267721
O O4 0.305115 0.837343 0.316295
O O5 0.232982 0.724674 0.859533
O O6 0.217970 0.578349 0.728878
O O7 0.966203 0.527085 0.558786
O O8 0.334016 0.456902 0.967237
O O9 0.183341 0.006923 0.801580
O O10 0.945564 0.819068 0.622105
O O11 0.284558 0.870879 0.025110
O O12 0.000000 0.000000 0.000000
O O13 0.672523 0.625086 0.795539
O O14 0.647982 0.384596 0.841060
O O15 0.500000 0.385184 0.250000
#
# Coordination Sequence:
#
# PCOD9229642 Si02
#       7
#     4   4   4   4   4   4   4
#     4  10  21  36  55  82 114 145 197 234 284 354
#     4  11  20  34  56  82 119 151 184 239 292 353
#     4  11  19  34  59  85 118 148 182 239 299 342
#     4  11  21  35  54  80 112 152 188 237 288 341
#     4  10  22  37  52  84 117 152 194 232 292 351
#     4  10  20  33  53  89 116 142 185 242 295 342
#     4  11  20  31  52  80 113 149 181 234 288 339
#
# _framework density 22.918215
#
# number of rings (size 3 to 8) (size 9 to 14) (size 15 to 20)
#    0.000    1.429    5.714    2.143    0.000    0.571 
#    0.000    0.000    0.000    0.000   11.143    4.000 
#    0.000    0.000    0.000    0.000    0.000    0.000 
#
# Total GULP energy -156036.265050 kJ/mol
# GULP energy per Si atom -5572.723752 kJ/mol
# Density = 2.286605 g / cm^3
# Si number density = 22.918215 Si / 1000 Ang^3
#
#
#
# Elastic Constant Matrix: (Units=GPa)
#
#
# Indices 1 2 3 4 5 6 
#
# 1 177.3945 12.2268 44.6928 0.0000 -27.3472 0.0000
# 2 12.2268 8.9458 9.5499 0.0000 -9.0488 0.0000
# 3 44.6928 9.5499 149.9549 0.0000 9.9783 0.0000
# 4 0.0000 0.0000 0.0000 14.6846 0.0000 1.2128
# 5 -27.3472 -9.0488 9.9783 0.0000 50.0482 0.0000
# 6 0.0000 0.0000 0.0000 1.2128 0.0000 28.3373
#
#
#
# Elastic Compliance Matrix: (Units=1/GPa)
#
#
# Indices 1 2 3 4 5 6 
#
# 1 0.006963 -0.003714 -0.002075 0.000000 0.003547 0.000000
# 2 -0.003714 0.157297 -0.010811 0.000000 0.028566 0.000000
# 3 -0.002075 -0.010811 0.008291 0.000000 -0.004741 0.000000
# 4 0.000000 0.000000 0.000000 0.068340 0.000000 -0.002925
# 5 0.003547 0.028566 -0.004741 0.000000 0.028029 0.000000
# 6 0.000000 0.000000 0.000000 -0.002925 0.000000 0.035414
#
#
# Mechanical properties :
#
#
# Convention : Reuss Voigt Hill
#
# Bulk Modulus (GPa) = 7.17614 52.13712 29.65663
# Shear Modulus (GPa) = 13.02137 36.60240 24.81188
#
# Velocity S-wave (km/s) = 2.38621 4.00069 3.29390
# Velocity P-wave (km/s) = 3.27567 6.64374 5.23781
#
# Compressibility (1/GPa) = 0.13935066
#
# Stress axis : x y z
#
# Youngs Moduli (GPa) = 143.62538 6.35739 120.61261
#
# Poissons Ratio (x) = 0.02361 0.25022
# Poissons Ratio (y) = 0.53344 1.30399
# Poissons Ratio (z) = 0.29796 0.06873
#
# Static dielectric constant tensor:
#      x y z
#    x 1.948100 0.000000 0.032670 
#    y 0.000000 1.980550 0.000000 
#    z 0.032670 0.000000 1.913670 
# 
# From -- ./inp_files/70725.got.cif
#   From: 2010.05.17/outbox.cif.g08.bks.cpg/sg13_36_cif.got.tgz:70725.got - 2010.06.03 16:44:36.
