data_PCOD9229486
_publ_section_title
;
Structure prediction by ZEFSAII (Michael W. Deem and Ramdas Pophale) SiO2 
 PCOD9229486
Probable space group: P 2/C
;
_chemical_formula_sum "Si O2"
_cell_formula_units_Z 18
_cell_length_a 10.697669
_cell_length_b 6.882301
_cell_length_c 17.151052
_cell_angle_alpha 90.000000
_cell_angle_beta 148.337657
_cell_angle_gamma 90.000000
_cell_volume 662.827281
_symmetry_space_group_name_H-M "P 2/C"
_symmetry_group_IT_number 13
_symmetry_cell_setting 'monoclinic'
loop_
_space_group_symop_operation_xyz
x,y,z
-x,y,1/2-z
-x,-y,-z
x,-y,1/2+z
loop_
_atom_site_type_symbol
_atom_site_label
_atom_site_fract_x
_atom_site_fract_y
_atom_site_fract_z
Si Si1 0.500000 0.749919 0.250000
Si Si2 0.214028 0.418972 0.164518
Si Si3 0.763183 0.110905 0.454924
Si Si4 0.390113 0.769066 0.894623
Si Si5 0.810178 0.189778 0.710183
O O1 0.400435 0.594975 0.258638
O O2 0.689934 0.891239 0.393202
O O3 0.199639 0.363436 0.247400
O O4 0.265572 0.228417 0.140481
O O5 0.000000 0.500000 0.000000
O O6 0.584357 0.183468 0.428426
O O7 0.255956 0.966104 0.845724
O O8 0.555560 0.710568 0.055205
O O9 0.030521 0.845037 0.127803
O O10 0.000000 0.272764 0.750000
#
# Coordination Sequence:
#
# PCOD9229486 Si02
#       5
#     2   4   4   4   4
#     4  12  22  40  68  98 138 166 218 272 328 390
#     4  12  25  40  67 103 134 168 219 271 326 395
#     4  11  22  42  66  98 130 169 218 265 334 391
#     4  10  19  43  64  93 131 168 214 270 324 383
#     4   9  21  37  70  89 125 179 217 263 325 390
#
# _framework density 27.156395
#
# number of rings (size 3 to 8) (size 9 to 14) (size 15 to 20)
#    0.000    1.333    4.444    1.333    3.111    1.778 
#    0.000    1.111   14.667    0.000    0.000    0.000 
#    0.000    0.000    0.000    0.000    0.000    0.000 
#
# Total GULP energy -100482.686079 kJ/mol
# GULP energy per Si atom -5582.371449 kJ/mol
# Density = 2.709459 g / cm^3
# Si number density = 27.156395 Si / 1000 Ang^3
#
#
#
# Elastic Constant Matrix: (Units=GPa)
#
#
# Indices 1 2 3 4 5 6 
#
# 1 67.9485 23.7411 35.3167 0.0000 -33.4255 0.0000
# 2 23.7411 116.1089 38.9441 0.0000 -26.2468 0.0000
# 3 35.3167 38.9441 207.9959 0.0000 -67.4258 0.0000
# 4 0.0000 0.0000 0.0000 50.9033 0.0000 -11.8032
# 5 -33.4255 -26.2468 -67.4258 0.0000 56.8815 0.0000
# 6 0.0000 0.0000 0.0000 -11.8032 0.0000 44.9304
#
#
#
# Elastic Compliance Matrix: (Units=1/GPa)
#
#
# Indices 1 2 3 4 5 6 
#
# 1 0.021075 -0.001747 0.000815 0.000000 0.012544 0.000000
# 2 -0.001747 0.009805 -0.000658 0.000000 0.002717 0.000000
# 3 0.000815 -0.000658 0.007876 0.000000 0.009511 0.000000
# 4 0.000000 0.000000 0.000000 0.020919 0.000000 0.005495
# 5 0.012544 0.002717 0.009511 0.000000 0.037480 0.000000
# 6 0.000000 0.000000 0.000000 0.005495 0.000000 0.023700
#
#
# Mechanical properties :
#
#
# Convention : Reuss Voigt Hill
#
# Bulk Modulus (GPa) = 28.10940 65.33967 46.72454
# Shear Modulus (GPa) = 36.79358 50.14647 43.47002
#
# Velocity S-wave (km/s) = 3.68486 4.30185 4.00525
# Velocity P-wave (km/s) = 5.33645 6.98479 6.21550
#
# Compressibility (1/GPa) = 0.03557528
#
# Stress axis : x y z
#
# Youngs Moduli (GPa) = 47.45060 101.99006 126.97098
#
# Poissons Ratio (x) = 0.17817 -0.10351
# Poissons Ratio (y) = 0.08289 0.08359
# Poissons Ratio (z) = -0.03868 0.06714
#
# Static dielectric constant tensor:
#      x y z
#    x 7.029680 0.000000 0.616040 
#    y 0.000000 2.170830 0.000000 
#    z 0.616040 0.000000 2.314020 
# 
# From -- ./inp_files/97048.got.cif
#   From: 2010.05.17/outbox.cif.g08.bks.cpg/sg13_49_cif.got.tgz:97048.got - 2010.06.03 16:44:36.
