data_PCOD9229290
_publ_section_title
;
Structure prediction by ZEFSAII (Michael W. Deem and Ramdas Pophale) SiO2 
 PCOD9229290
Probable space group: P 2/C
;
_chemical_formula_sum "Si O2"
_cell_formula_units_Z 32
_cell_length_a 14.046475
_cell_length_b 8.466508
_cell_length_c 25.224859
_cell_angle_alpha 90.000000
_cell_angle_beta 31.900071
_cell_angle_gamma 90.000000
_cell_volume 1585.242112
_symmetry_space_group_name_H-M "P 2/C"
_symmetry_group_IT_number 13
_symmetry_cell_setting 'monoclinic'
loop_
_space_group_symop_operation_xyz
x,y,z
-x,y,1/2-z
-x,-y,-z
x,-y,1/2+z
loop_
_atom_site_type_symbol
_atom_site_label
_atom_site_fract_x
_atom_site_fract_y
_atom_site_fract_z
Si Si1 0.038989 0.626851 0.874574
Si Si2 0.869653 0.182593 0.354462
Si Si3 0.434309 0.881496 0.221565
Si Si4 0.267819 0.964000 0.994888
Si Si5 0.712210 0.503092 0.389811
Si Si6 0.933733 0.056079 0.087958
Si Si7 0.261743 0.400486 0.509637
Si Si8 0.639438 0.570575 0.309806
O O1 0.033396 0.757268 0.922571
O O2 0.239628 0.561925 0.775021
O O3 0.974580 0.723135 0.852084
O O4 0.902050 0.480425 0.944735
O O5 0.776285 0.322049 0.364568
O O6 0.000000 0.101067 0.250000
O O7 0.737919 0.062022 0.447218
O O8 0.500000 0.842283 0.250000
O O9 0.366550 0.727833 0.221882
O O10 0.270513 0.005279 0.304429
O O11 0.597897 0.952077 0.109680
O O12 0.311728 0.779907 0.976510
O O13 0.064738 0.975856 0.068917
O O14 0.500000 0.500000 0.500000
O O15 0.793661 0.589081 0.402191
O O16 0.734885 0.583859 0.322384
O O17 0.000000 0.000000 0.000000
O O18 0.436463 0.509144 0.415783
#
# Coordination Sequence:
#
# PCOD9229290 Si02
#       8
#     4   4   4   4   4   4   4   4
#     4  10  21  40  66  92 128 168 210 261 327 388
#     4  10  19  38  66  94 132 176 208 260 329 399
#     4  12  25  44  68  92 126 176 224 277 336 383
#     4  11  23  44  65  94 134 169 217 272 326 394
#     4   9  18  36  61  89 126 166 206 257 323 388
#     4  11  23  44  69  89 126 171 216 276 333 384
#     4  10  22  39  63  96 129 165 212 264 319 395
#     4  11  21  41  63  92 128 166 217 267 323 392
#
# _framework density 20.186191000000001
#
# number of rings (size 3 to 8) (size 9 to 14) (size 15 to 20)
#    0.000    1.500    2.500    4.500    0.000    0.000 
#    9.000    4.375    0.000    0.000    0.000    0.000 
#    0.000    0.000    0.000    0.000    0.000    0.000 
#
# Total GULP energy -178559.401274 kJ/mol
# GULP energy per Si atom -5579.981290 kJ/mol
# Density = 2.014025 g / cm^3
# Si number density = 20.186191 Si / 1000 Ang^3
#
#
#
# Elastic Constant Matrix: (Units=GPa)
#
#
# Indices 1 2 3 4 5 6 
#
# 1 73.6769 43.5638 29.7398 0.0000 9.5050 0.0000
# 2 43.5638 104.7940 26.4124 0.0000 24.8469 0.0000
# 3 29.7398 26.4124 96.9658 0.0000 12.7062 0.0000
# 4 0.0000 0.0000 0.0000 36.5005 0.0000 -1.3684
# 5 9.5050 24.8469 12.7062 0.0000 31.1450 0.0000
# 6 0.0000 0.0000 0.0000 -1.3684 0.0000 11.2621
#
#
#
# Elastic Compliance Matrix: (Units=1/GPa)
#
#
# Indices 1 2 3 4 5 6 
#
# 1 0.019425 -0.007429 -0.004156 0.000000 0.001694 0.000000
# 2 -0.007429 0.015024 -0.000571 0.000000 -0.009486 0.000000
# 3 -0.004156 -0.000571 0.012168 0.000000 -0.003240 0.000000
# 4 0.000000 0.000000 0.000000 0.027522 0.000000 0.003344
# 5 0.001694 -0.009486 -0.003240 0.000000 0.040480 0.000000
# 6 0.000000 0.000000 0.000000 0.003344 0.000000 0.089200
#
#
# Mechanical properties :
#
#
# Convention : Reuss Voigt Hill
#
# Bulk Modulus (GPa) = 44.83485 52.76321 48.79903
# Shear Modulus (GPa) = 21.22557 27.49622 24.36090
#
# Velocity S-wave (km/s) = 3.24619 3.69471 3.47769
# Velocity P-wave (km/s) = 6.02571 6.66305 6.35238
#
# Compressibility (1/GPa) = 0.02230408
#
# Stress axis : x y z
#
# Youngs Moduli (GPa) = 51.48135 66.56093 82.18516
#
# Poissons Ratio (x) = 0.49449 0.34156
# Poissons Ratio (y) = 0.38246 0.04691
# Poissons Ratio (z) = 0.21395 0.03799
#
# Static dielectric constant tensor:
#      x y z
#    x 1.759310 0.000000 0.007000 
#    y 0.000000 1.717080 0.000000 
#    z 0.007000 0.000000 1.719840 
# 
# From -- ./inp_files/92826.got.cif
#   From: 2010.05.17/outbox.cif.g08.bks.cpg/sg13_47_cif.got.tgz:92826.got - 2010.06.03 16:44:36.
