data_PCOD9229459
_publ_section_title
;
Structure prediction by ZEFSAII (Michael W. Deem and Ramdas Pophale) SiO2 
 PCOD9229459
Probable space group: P 2/C
;
_chemical_formula_sum "Si O2"
_cell_formula_units_Z 26
_cell_length_a 19.465931
_cell_length_b 9.019406
_cell_length_c 25.755365
_cell_angle_alpha 90.000000
_cell_angle_beta 165.757431
_cell_angle_gamma 90.000000
_cell_volume 1112.511813
_symmetry_space_group_name_H-M "P 2/C"
_symmetry_group_IT_number 13
_symmetry_cell_setting 'monoclinic'
loop_
_space_group_symop_operation_xyz
x,y,z
-x,y,1/2-z
-x,-y,-z
x,-y,1/2+z
loop_
_atom_site_type_symbol
_atom_site_label
_atom_site_fract_x
_atom_site_fract_y
_atom_site_fract_z
Si Si1 0.146375 0.868012 0.516115
Si Si2 0.564822 0.522697 0.986051
Si Si3 0.864785 0.715235 0.892609
Si Si4 0.500000 0.148577 0.750000
Si Si5 0.417296 0.995248 0.360267
Si Si6 0.086933 0.187691 0.756249
Si Si7 0.469972 0.727365 0.122275
O O1 0.219508 0.733803 0.608504
O O2 0.158716 0.826369 0.464933
O O3 0.290382 0.029846 0.623819
O O4 0.818527 0.892148 0.287608
O O5 0.301180 0.598352 0.763579
O O6 0.639002 0.386644 0.001677
O O7 0.500000 0.500000 0.000000
O O8 0.805480 0.645225 0.162832
O O9 0.761906 0.875769 0.797795
O O10 0.195400 0.696618 0.128478
O O11 0.627563 0.251585 0.889275
O O12 0.651527 0.079822 0.564319
O O13 0.570277 0.888692 0.432112
O O14 0.000000 0.146643 0.750000
#
# Coordination Sequence:
#
# PCOD9229459 Si02
#       7
#     4   4   4   2   4   4   4
#     4  11  21  39  71  97 129 169 222 280 325 399
#     4  11  25  45  64  90 132 178 224 268 325 403
#     4  10  20  41  68  92 120 174 228 260 320 400
#     4  12  22  38  68 108 136 160 216 294 348 372
#     4  10  19  41  67  96 125 169 226 266 329 392
#     4  11  25  43  63  96 132 175 222 268 329 400
#     4  11  21  41  64 101 130 165 216 277 335 394
#
# _framework density 23.370539000000001
#
# number of rings (size 3 to 8) (size 9 to 14) (size 15 to 20)
#    0.000    1.231    3.077    4.615    2.154    1.231 
#    5.538    0.769    0.000    0.000    0.000    0.000 
#    0.000    0.000    0.000    0.000    0.000    0.000 
#
# Total GULP energy -145016.331816 kJ/mol
# GULP energy per Si atom -5577.551224 kJ/mol
# Density = 2.331735 g / cm^3
# Si number density = 23.370539 Si / 1000 Ang^3
#
#
#
# Elastic Constant Matrix: (Units=GPa)
#
#
# Indices 1 2 3 4 5 6 
#
# 1 131.8087 37.5389 26.0772 0.0000 -28.8979 0.0000
# 2 37.5389 95.7241 24.6125 0.0000 -20.6707 0.0000
# 3 26.0772 24.6125 30.0607 0.0000 -17.1874 0.0000
# 4 0.0000 0.0000 0.0000 -2.8475 0.0000 5.2188
# 5 -28.8979 -20.6707 -17.1874 0.0000 44.1216 0.0000
# 6 0.0000 0.0000 0.0000 5.2188 0.0000 25.0464
#
#
#
# Elastic Compliance Matrix: (Units=1/GPa)
#
#
# Indices 1 2 3 4 5 6 
#
# 1 0.009898 -0.001798 -0.005004 0.000000 0.003691 0.000000
# 2 -0.001798 0.013785 -0.008630 0.000000 0.001919 0.000000
# 3 -0.005004 -0.008630 0.052088 0.000000 0.012970 0.000000
# 4 0.000000 0.000000 0.000000 -0.254133 0.000000 0.052953
# 5 0.003691 0.001919 0.012970 0.000000 0.031034 0.000000
# 6 0.000000 0.000000 0.000000 0.052953 0.000000 0.028892
#
#
# Mechanical properties :
#
#
# Convention : Reuss Voigt Hill
#
# Bulk Modulus (GPa) = 22.26751 48.22785 35.24768
# Shear Modulus (GPa) = -68.86833 24.55508 -22.15662
#
# Velocity S-wave (km/s) = -5.43433 3.24494 -3.08240
# Velocity P-wave (km/s) = 5.46143 5.89241 1.56417
#
# Compressibility (1/GPa) = 0.04490849
#
# Stress axis : x y z
#
# Youngs Moduli (GPa) = 101.03003 72.54257 19.19811
#
# Poissons Ratio (x) = 0.13043 0.09606
# Poissons Ratio (y) = 0.18164 0.16568
# Poissons Ratio (z) = 0.50554 0.62603
#
# Static dielectric constant tensor:
#      x y z
#    x 2.095030 0.000000 0.007220 
#    y 0.000000 1.864110 0.000000 
#    z 0.007220 0.000000 1.907250 
# 
# From -- ./inp_files/88061.got.cif
#   From: 2010.05.17/outbox.cif.g08.bks.cpg/sg13_45_cif.got.tgz:88061.got - 2010.06.03 16:44:36.
