data_PCOD9229725
_publ_section_title
;
Structure prediction by ZEFSAII (Michael W. Deem and Ramdas Pophale) SiO2 
 PCOD9229725
Probable space group: P 2/C
;
_chemical_formula_sum "Si O2"
_cell_formula_units_Z 24
_cell_length_a 22.504571
_cell_length_b 7.470394
_cell_length_c 16.842463
_cell_angle_alpha 90.000000
_cell_angle_beta 21.919951
_cell_angle_gamma 90.000000
_cell_volume 1057.037639
_symmetry_space_group_name_H-M "P 2/C"
_symmetry_group_IT_number 13
_symmetry_cell_setting 'monoclinic'
loop_
_space_group_symop_operation_xyz
x,y,z
-x,y,1/2-z
-x,-y,-z
x,-y,1/2+z
loop_
_atom_site_type_symbol
_atom_site_label
_atom_site_fract_x
_atom_site_fract_y
_atom_site_fract_z
Si Si1 0.502400 0.533628 0.091911
Si Si2 0.163152 0.535505 0.841558
Si Si3 0.168366 0.953713 0.514599
Si Si4 0.496428 0.058951 0.848917
Si Si5 0.831534 0.962658 0.666931
Si Si6 0.834197 0.455300 0.479526
O O1 0.495941 0.745236 0.118957
O O2 0.336031 0.461364 0.332384
O O3 0.500000 0.500000 0.000000
O O4 0.677108 0.471387 0.901941
O O5 0.177879 0.748807 0.832994
O O6 0.161255 0.451344 0.930881
O O7 0.000000 0.500000 0.000000
O O8 0.337935 0.034026 0.330858
O O9 0.165223 0.749681 0.552322
O O10 0.170368 0.951229 0.417260
O O11 0.000000 0.036579 0.750000
O O12 0.500000 0.079022 0.750000
O O13 0.327434 0.980826 0.087868
O O14 0.000000 0.000000 0.500000
O O15 0.000000 0.542964 0.250000
#
# Coordination Sequence:
#
# PCOD9229725 Si02
#       6
#     4   4   4   4   4   4
#     4   8  17  33  53  78 108 143 181 227 280 337
#     4  10  20  34  53  77 107 141 181 227 274 328
#     4  10  20  36  59  84 113 149 188 233 286 343
#     4  10  20  35  57  85 113 146 191 239 286 343
#     4  11  22  36  56  82 115 153 190 235 285 338
#     4   9  18  34  56  80 105 138 180 225 275 333
#
# _framework density 22.704962999999999
#
# number of rings (size 3 to 8) (size 9 to 14) (size 15 to 20)
#    0.000    2.333    0.000    2.500    0.000    7.333 
#    0.000    1.667    0.000    2.000    0.000    2.333 
#    0.000    0.000    0.000    0.000    0.000    0.000 
#
# Total GULP energy -133820.176740 kJ/mol
# GULP energy per Si atom -5575.840697 kJ/mol
# Density = 2.265329 g / cm^3
# Si number density = 22.704963 Si / 1000 Ang^3
#
#
#
# Elastic Constant Matrix: (Units=GPa)
#
#
# Indices 1 2 3 4 5 6 
#
# 1 84.9408 0.0877 60.2629 0.0000 -19.7532 0.0000
# 2 0.0877 79.6750 11.9862 0.0000 1.2636 0.0000
# 3 60.2629 11.9862 284.0573 0.0000 -40.3539 0.0000
# 4 0.0000 0.0000 0.0000 -27.5686 0.0000 19.8756
# 5 -19.7532 1.2636 -40.3539 0.0000 50.5306 0.0000
# 6 0.0000 0.0000 0.0000 19.8756 0.0000 10.0611
#
#
#
# Elastic Compliance Matrix: (Units=1/GPa)
#
#
# Indices 1 2 3 4 5 6 
#
# 1 0.014425 0.000313 -0.002565 0.000000 0.003583 0.000000
# 2 0.000313 0.012669 -0.000709 0.000000 -0.000761 0.000000
# 3 -0.002565 -0.000709 0.004461 0.000000 0.002577 0.000000
# 4 0.000000 0.000000 0.000000 -0.014963 0.000000 0.029559
# 5 0.003583 -0.000761 0.002577 0.000000 0.023268 0.000000
# 6 0.000000 0.000000 0.000000 0.029559 0.000000 0.041000
#
#
# Mechanical properties :
#
#
# Convention : Reuss Voigt Hill
#
# Bulk Modulus (GPa) = 39.01034 65.92743 52.46889
# Shear Modulus (GPa) = 52.45163 31.69370 42.07267
#
# Velocity S-wave (km/s) = 4.81161 3.74022 4.30934
# Velocity P-wave (km/s) = 6.93451 6.91028 6.92240
#
# Compressibility (1/GPa) = 0.02563423
#
# Stress axis : x y z
#
# Youngs Moduli (GPa) = 69.32260 78.93046 224.18723
#
# Poissons Ratio (x) = -0.02471 0.57493
# Poissons Ratio (y) = -0.02170 0.15897
# Poissons Ratio (z) = 0.17778 0.05597
#
# Static dielectric constant tensor:
#      x y z
#    x 1.782910 0.000000 -0.040290 
#    y 0.000000 1.979520 0.000000 
#    z -0.040290 0.000000 1.941840 
# 
# From -- ./inp_files/71073.got.cif
#   From: 2010.05.17/outbox.cif.g08.bks.cpg/sg13_36_cif.got.tgz:71073.got - 2010.06.03 16:44:36.
