data_PCOD9229851
_publ_section_title
;
Structure prediction by ZEFSAII (Michael W. Deem and Ramdas Pophale) SiO2 
 PCOD9229851
Probable space group: P 2/C
;
_chemical_formula_sum "Si O2"
_cell_formula_units_Z 26
_cell_length_a 12.734623
_cell_length_b 9.777260
_cell_length_c 12.014459
_cell_angle_alpha 90.000000
_cell_angle_beta 60.000712
_cell_angle_gamma 90.000000
_cell_volume 1295.511355
_symmetry_space_group_name_H-M "P 2/C"
_symmetry_group_IT_number 13
_symmetry_cell_setting 'monoclinic'
loop_
_space_group_symop_operation_xyz
x,y,z
-x,y,1/2-z
-x,-y,-z
x,-y,1/2+z
loop_
_atom_site_type_symbol
_atom_site_label
_atom_site_fract_x
_atom_site_fract_y
_atom_site_fract_z
Si Si1 0.813542 0.230545 0.439460
Si Si2 0.000000 0.643909 0.250000
Si Si3 0.867206 0.508228 0.508326
Si Si4 0.185329 0.849751 0.218023
Si Si5 0.087898 0.859832 0.824901
Si Si6 0.640502 0.936609 0.176938
Si Si7 0.757188 0.206353 0.067171
O O1 0.800496 0.365484 0.522383
O O2 0.828509 0.240389 0.297018
O O3 0.711881 0.124053 0.532288
O O4 0.948854 0.178980 0.395039
O O5 0.080265 0.736813 0.290035
O O6 0.908606 0.550284 0.363462
O O7 0.777187 0.633548 0.588262
O O8 0.000000 0.500000 0.500000
O O9 0.289456 0.870261 0.254693
O O10 0.116982 0.993759 0.258035
O O11 0.236047 0.813666 0.068816
O O12 0.127124 0.859207 0.931874
O O13 0.500000 0.900810 0.250000
O O14 0.655265 0.102549 0.167319
#
# Coordination Sequence:
#
# PCOD9229851 Si02
#       7
#     4   2   4   4   4   4   4
#     4  11  21  38  59  92 126 161 198 253 321 368
#     4  10  20  34  58  94 132 156 192 248 332 374
#     4  11  21  34  57  92 130 158 193 254 321 388
#     4  10  21  36  62  94 121 161 200 260 310 371
#     4  10  20  35  61  93 128 151 196 258 324 375
#     4  11  25  43  63  87 122 173 220 256 293 363
#     4  10  22  40  60  91 123 163 206 256 315 367
#
# _framework density 20.069295
#
# number of rings (size 3 to 8) (size 9 to 14) (size 15 to 20)
#    0.000    1.538    3.077    2.769    4.308    1.846 
#    0.000    0.769    0.000    3.692    0.000    0.000 
#    0.000    0.000    0.000    0.000    0.000    0.000 
#
# Total GULP energy -144769.682353 kJ/mol
# GULP energy per Si atom -5568.064706 kJ/mol
# Density = 2.002362 g / cm^3
# Si number density = 20.069295 Si / 1000 Ang^3
#
#
#
# Elastic Constant Matrix: (Units=GPa)
#
#
# Indices 1 2 3 4 5 6 
#
# 1 84.2354 23.0823 44.0005 0.0000 -6.5622 0.0000
# 2 23.0823 105.2976 8.7509 0.0000 -5.2967 0.0000
# 3 44.0005 8.7509 71.7405 0.0000 0.4784 0.0000
# 4 0.0000 0.0000 0.0000 24.4426 0.0000 0.5441
# 5 -6.5622 -5.2967 0.4784 0.0000 23.4456 0.0000
# 6 0.0000 0.0000 0.0000 0.5441 0.0000 13.8320
#
#
#
# Elastic Compliance Matrix: (Units=1/GPa)
#
#
# Indices 1 2 3 4 5 6 
#
# 1 0.018971 -0.002974 -0.011305 0.000000 0.004869 0.000000
# 2 -0.002974 0.010174 0.000573 0.000000 0.001454 0.000000
# 3 -0.011305 0.000573 0.020826 0.000000 -0.003460 0.000000
# 4 0.000000 0.000000 0.000000 0.040948 0.000000 -0.001611
# 5 0.004869 0.001454 -0.003460 0.000000 0.044414 0.000000
# 6 0.000000 0.000000 0.000000 -0.001611 0.000000 0.072359
#
#
# Mechanical properties :
#
#
# Convention : Reuss Voigt Hill
#
# Bulk Modulus (GPa) = 44.32722 45.88234 45.10478
# Shear Modulus (GPa) = 20.60799 24.70669 22.65734
#
# Velocity S-wave (km/s) = 3.20791 3.51247 3.36364
# Velocity P-wave (km/s) = 5.98799 6.27387 6.13260
#
# Compressibility (1/GPa) = 0.02255950
#
# Stress axis : x y z
#
# Youngs Moduli (GPa) = 52.71197 98.28610 48.01684
#
# Poissons Ratio (x) = 0.29232 0.54284
# Poissons Ratio (y) = 0.15678 -0.02753
# Poissons Ratio (z) = 0.59592 -0.05636
#
# Static dielectric constant tensor:
#      x y z
#    x 1.698950 0.000000 0.067750 
#    y 0.000000 1.836820 0.000000 
#    z 0.067750 0.000000 1.774350 
# 
# From -- ./inp_files/36116.got.cif
#   From: 2010.05.17/outbox.cif.g08.bks.cpg/sg13_19_cif.got.tgz:36116.got - 2010.06.03 16:44:36.
