data_PCOD9229969
_publ_section_title
;
Structure prediction by ZEFSAII (Michael W. Deem and Ramdas Pophale) SiO2 
 PCOD9229969
Probable space group: P 2/C
;
_chemical_formula_sum "Si O2"
_cell_formula_units_Z 24
_cell_length_a 9.174531
_cell_length_b 19.368283
_cell_length_c 15.737196
_cell_angle_alpha 90.000000
_cell_angle_beta 151.742195
_cell_angle_gamma 90.000000
_cell_volume 1323.935979
_symmetry_space_group_name_H-M "P 2/C"
_symmetry_group_IT_number 13
_symmetry_cell_setting 'monoclinic'
loop_
_space_group_symop_operation_xyz
x,y,z
-x,y,1/2-z
-x,-y,-z
x,-y,1/2+z
loop_
_atom_site_type_symbol
_atom_site_label
_atom_site_fract_x
_atom_site_fract_y
_atom_site_fract_z
Si Si1 0.855771 0.327125 0.083111
Si Si2 0.133120 0.076755 0.062050
Si Si3 0.881739 0.329687 0.783883
Si Si4 0.268138 0.817953 0.049309
Si Si5 0.125907 0.422955 0.560293
Si Si6 0.879052 0.168796 0.780721
O O1 0.000000 0.330235 0.250000
O O2 0.488342 0.333769 0.906049
O O3 0.897638 0.252984 0.059500
O O4 0.970859 0.384670 0.076282
O O5 0.500000 0.075348 0.250000
O O6 0.974251 0.122972 0.053729
O O7 0.022974 0.116014 0.920880
O O8 0.000000 0.000000 0.000000
O O9 0.980894 0.379009 0.912114
O O10 0.962554 0.249193 0.843008
O O11 0.000000 0.347527 0.750000
O O12 0.500000 0.807866 0.250000
O O13 0.509374 0.836062 0.099139
O O14 0.500000 0.423467 0.750000
O O15 0.000000 0.500000 0.500000
O O16 0.000000 0.153724 0.750000
#
# Coordination Sequence:
#
# PCOD9229969 Si02
#       6
#     4   4   4   4   4   4
#     4  10  20  35  56  82 109 139 178 223 271 322
#     4  11  22  37  56  79 109 146 182 218 265 321
#     4   9  19  37  59  79 106 141 179 223 271 320
#     4   9  18  36  58  78 107 144 178 219 271 324
#     4  10  21  37  54  76 109 147 181 219 269 322
#     4   9  18  36  59  82 106 137 177 224 271 319
#
# _framework density 18.127763999999999
#
# number of rings (size 3 to 8) (size 9 to 14) (size 15 to 20)
#    0.000    2.333    0.000    5.000    0.000    6.000 
#    0.000    9.167    0.000    0.000    0.000    0.000 
#    0.000    0.000    0.000    0.000    0.000    0.000 
#
# Total GULP energy -133861.288551 kJ/mol
# GULP energy per Si atom -5577.553690 kJ/mol
# Density = 1.808650 g / cm^3
# Si number density = 18.127764 Si / 1000 Ang^3
#
#
#
# Elastic Constant Matrix: (Units=GPa)
#
#
# Indices 1 2 3 4 5 6 
#
# 1 145.3070 91.5847 24.9920 0.0000 -3.6352 0.0000
# 2 91.5847 161.6080 60.8512 0.0000 -10.2906 0.0000
# 3 24.9920 60.8512 56.7195 0.0000 -11.5897 0.0000
# 4 0.0000 0.0000 0.0000 22.0462 0.0000 13.4711
# 5 -3.6352 -10.2906 -11.5897 0.0000 23.3315 0.0000
# 6 0.0000 0.0000 0.0000 13.4711 0.0000 13.8331
#
#
#
# Elastic Compliance Matrix: (Units=1/GPa)
#
#
# Indices 1 2 3 4 5 6 
#
# 1 0.011021 -0.007410 0.003091 0.000000 -0.000016 0.000000
# 2 -0.007410 0.015388 -0.013459 0.000000 -0.001053 0.000000
# 3 0.003091 -0.013459 0.032937 0.000000 0.010906 0.000000
# 4 0.000000 0.000000 0.000000 0.112012 0.000000 -0.109081
# 5 -0.000016 -0.001053 0.010906 0.000000 0.047811 0.000000
# 6 0.000000 0.000000 0.000000 -0.109081 0.000000 0.178516
#
#
# Mechanical properties :
#
#
# Convention : Reuss Voigt Hill
#
# Bulk Modulus (GPa) = 42.03718 79.83224 60.93471
# Shear Modulus (GPa) = 11.33348 24.25594 17.79471
#
# Velocity S-wave (km/s) = 2.50311 3.66191 3.13649
# Velocity P-wave (km/s) = 5.62084 7.87488 6.84133
#
# Compressibility (1/GPa) = 0.02378847
#
# Stress axis : x y z
#
# Youngs Moduli (GPa) = 90.73949 64.98557 30.36133
#
# Poissons Ratio (x) = 0.48156 -0.09384
# Poissons Ratio (y) = 0.67241 0.40863
# Poissons Ratio (z) = -0.28047 0.87464
#
# Static dielectric constant tensor:
#      x y z
#    x 1.644000 0.000000 0.000140 
#    y 0.000000 1.612660 0.000000 
#    z 0.000140 0.000000 1.617330 
# 
# From -- ./inp_files/48135.got.cif
#   From: 2010.05.17/outbox.cif.g08.bks.cpg/sg13_25_cif.got.tgz:48135.got - 2010.06.03 16:44:36.
