data_PCOD9229593
_publ_section_title
;
Structure prediction by ZEFSAII (Michael W. Deem and Ramdas Pophale) SiO2 
 PCOD9229593
Probable space group: P 2/C
;
_chemical_formula_sum "Si O2"
_cell_formula_units_Z 26
_cell_length_a 15.794905
_cell_length_b 11.658771
_cell_length_c 25.068944
_cell_angle_alpha 90.000000
_cell_angle_beta 161.394504
_cell_angle_gamma 90.000000
_cell_volume 1472.871572
_symmetry_space_group_name_H-M "P 2/C"
_symmetry_group_IT_number 13
_symmetry_cell_setting 'monoclinic'
loop_
_space_group_symop_operation_xyz
x,y,z
-x,y,1/2-z
-x,-y,-z
x,-y,1/2+z
loop_
_atom_site_type_symbol
_atom_site_label
_atom_site_fract_x
_atom_site_fract_y
_atom_site_fract_z
Si Si1 0.737183 0.390577 0.200159
Si Si2 0.500000 0.105635 0.250000
Si Si3 0.177071 0.236467 0.406523
Si Si4 0.661629 0.651708 0.134350
Si Si5 0.946457 0.149207 0.656843
Si Si6 0.912052 0.952822 0.562371
Si Si7 0.350506 0.203113 0.269186
O O1 0.747690 0.527482 0.207010
O O2 0.697400 0.327331 0.232866
O O3 0.994870 0.333466 0.326222
O O4 0.490349 0.362267 0.013200
O O5 0.369543 0.185879 0.217275
O O6 0.710744 0.022065 0.404607
O O7 0.446264 0.290358 0.544732
O O8 0.222077 0.135018 0.475687
O O9 0.000000 0.195818 0.250000
O O10 0.909629 0.733813 0.273487
O O11 0.633284 0.160443 0.460369
O O12 0.000000 0.123828 0.750000
O O13 0.053500 0.048329 0.683188
O O14 0.120742 0.879498 0.653685
#
# Coordination Sequence:
#
# PCOD9229593 Si02
#       7
#     4   2   4   4   4   4   4
#     4   9  19  35  56  81 118 152 186 232 274 342
#     4  10  22  38  62  82 104 152 200 244 286 334
#     4   9  19  35  54  85 116 150 182 228 291 339
#     4  10  20  32  57  85 118 151 185 223 278 353
#     4  11  22  32  55  88 120 149 181 226 289 347
#     4  10  22  38  58  81 114 149 191 240 286 340
#     4  10  21  39  56  83 113 148 193 240 283 329
#
# _framework density 17.652591000000001
#
# number of rings (size 3 to 8) (size 9 to 14) (size 15 to 20)
#    0.000    2.154    1.538    0.923    6.462    1.231 
#    0.000    0.000    0.000    4.615    0.000    0.000 
#    0.000    0.000    0.000    0.000    0.000    0.000 
#
# Total GULP energy -145042.297898 kJ/mol
# GULP energy per Si atom -5578.549919 kJ/mol
# Density = 1.761241 g / cm^3
# Si number density = 17.652591 Si / 1000 Ang^3
#
#
#
# Elastic Constant Matrix: (Units=GPa)
#
#
# Indices 1 2 3 4 5 6 
#
# 1 137.4084 67.4939 35.5533 0.0000 -13.8974 0.0000
# 2 67.4939 116.5416 24.9257 0.0000 -12.6527 0.0000
# 3 35.5533 24.9257 48.0577 0.0000 -5.5981 0.0000
# 4 0.0000 0.0000 0.0000 14.2146 0.0000 -3.6435
# 5 -13.8974 -12.6527 -5.5981 0.0000 17.6434 0.0000
# 6 0.0000 0.0000 0.0000 -3.6435 0.0000 21.4567
#
#
#
# Elastic Compliance Matrix: (Units=1/GPa)
#
#
# Indices 1 2 3 4 5 6 
#
# 1 0.011596 -0.005141 -0.005480 0.000000 0.003708 0.000000
# 2 -0.005141 0.012481 -0.002180 0.000000 0.004210 0.000000
# 3 -0.005480 -0.002180 0.026280 0.000000 0.002458 0.000000
# 4 0.000000 0.000000 0.000000 0.073552 0.000000 0.012490
# 5 0.003708 0.004210 0.002458 0.000000 0.063398 0.000000
# 6 0.000000 0.000000 0.000000 0.012490 0.000000 0.048726
#
#
# Mechanical properties :
#
#
# Convention : Reuss Voigt Hill
#
# Bulk Modulus (GPa) = 40.39669 61.99486 51.19577
# Shear Modulus (GPa) = 18.52631 22.26525 20.39578
#
# Velocity S-wave (km/s) = 3.24311 3.55533 3.40280
# Velocity P-wave (km/s) = 6.07928 7.21454 6.67110
#
# Compressibility (1/GPa) = 0.02475450
#
# Stress axis : x y z
#
# Youngs Moduli (GPa) = 86.23853 80.12063 38.05227
#
# Poissons Ratio (x) = 0.41189 0.20854
# Poissons Ratio (y) = 0.44334 0.08295
# Poissons Ratio (z) = 0.47261 0.17466
#
# Static dielectric constant tensor:
#      x y z
#    x 1.613380 0.000000 0.001850 
#    y 0.000000 1.597460 0.000000 
#    z 0.001850 0.000000 1.581470 
# 
# From -- ./inp_files/39073.got.cif
#   From: 2010.05.17/outbox.cif.g08.bks.cpg/sg13_20_cif.got.tgz:39073.got - 2010.06.03 16:44:36.
