data_PCOD9229477
_publ_section_title
;
Structure prediction by ZEFSAII (Michael W. Deem and Ramdas Pophale) SiO2 
 PCOD9229477
Probable space group: P 2/C
;
_chemical_formula_sum "Si O2"
_cell_formula_units_Z 24
_cell_length_a 22.724085
_cell_length_b 8.730060
_cell_length_c 15.465822
_cell_angle_alpha 90.000000
_cell_angle_beta 158.888869
_cell_angle_gamma 90.000000
_cell_volume 1105.080415
_symmetry_space_group_name_H-M "P 2/C"
_symmetry_group_IT_number 13
_symmetry_cell_setting 'monoclinic'
loop_
_space_group_symop_operation_xyz
x,y,z
-x,y,1/2-z
-x,-y,-z
x,-y,1/2+z
loop_
_atom_site_type_symbol
_atom_site_label
_atom_site_fract_x
_atom_site_fract_y
_atom_site_fract_z
Si Si1 0.376998 0.625668 0.867749
Si Si2 0.500000 0.600505 0.750000
Si Si3 0.698397 0.174239 0.399743
Si Si4 0.528677 0.925880 0.443363
Si Si5 0.172724 0.439954 0.702058
Si Si6 0.127022 0.922509 0.105532
Si Si7 0.000000 0.032667 0.750000
O O1 0.326164 0.749264 0.727169
O O2 0.471233 0.742990 0.060695
O O3 0.216550 0.535948 0.677055
O O4 0.500000 0.500000 0.000000
O O5 0.399131 0.708516 0.675881
O O6 0.344018 0.523848 0.488442
O O7 0.888481 0.140642 0.657837
O O8 0.617183 0.009446 0.306035
O O9 0.500000 0.000000 0.500000
O O10 0.702207 0.988581 0.649851
O O11 0.157143 0.256991 0.668299
O O12 0.000000 0.500000 0.500000
O O13 0.086177 0.936343 0.945628
O O14 0.000000 0.000000 0.000000
#
# Coordination Sequence:
#
# PCOD9229477 Si02
#       7
#     4   2   4   4   4   4   2
#     4  11  21  42  70  96 138 183 222 301 368 418
#     4  12  24  48  72 106 138 200 242 292 390 442
#     4  11  24  43  72 100 136 187 245 293 361 440
#     4  10  19  42  69  94 131 179 234 287 349 424
#     4  12  27  47  70 106 149 186 241 311 371 442
#     4  12  24  47  73 103 142 190 246 308 356 440
#     4  12  26  42  74 112 136 190 262 296 366 442
#
# _framework density 21.717874999999999
#
# number of rings (size 3 to 8) (size 9 to 14) (size 15 to 20)
#    0.000    0.667    6.667    3.000    2.333    0.000 
#    6.000    0.000    0.000    0.000    0.000    0.000 
#    0.000    0.000    0.000    0.000    0.000    0.000 
#
# Total GULP energy -133601.212728 kJ/mol
# GULP energy per Si atom -5566.717197 kJ/mol
# Density = 2.166844 g / cm^3
# Si number density = 21.717875 Si / 1000 Ang^3
#
#
#
# Elastic Constant Matrix: (Units=GPa)
#
#
# Indices 1 2 3 4 5 6 
#
# 1 77.8673 22.2709 38.8839 0.0000 34.2582 0.0000
# 2 22.2709 150.9727 38.2862 0.0000 26.0858 0.0000
# 3 38.8839 38.2862 102.3756 0.0000 34.0013 0.0000
# 4 0.0000 0.0000 0.0000 3812.2890 0.0000-7600.1878
# 5 34.2582 26.0858 34.0013 0.0000 56.9652 0.0000
# 6 0.0000 0.0000 0.0000-7600.1878 0.000015359.0807
#
#
#
# Elastic Compliance Matrix: (Units=1/GPa)
#
#
# Indices 1 2 3 4 5 6 
#
# 1 0.018830 -0.000210 -0.004171 0.000000 -0.008738 0.000000
# 2 -0.000210 0.007536 -0.002038 0.000000 -0.002108 0.000000
# 3 -0.004171 -0.002038 0.013684 0.000000 -0.004726 0.000000
# 4 0.000000 0.000000 0.000000 0.019432 0.000000 0.009616
# 5 -0.008738 -0.002108 -0.004726 0.000000 0.026596 0.000000
# 6 0.000000 0.000000 0.000000 0.009616 0.000000 0.004823
#
#
# Mechanical properties :
#
#
# Convention : Reuss Voigt Hill
#
# Bulk Modulus (GPa) = 36.75061 58.89974 47.82517
# Shear Modulus (GPa) = 44.32238 3861.11862 1952.72050
#
# Velocity S-wave (km/s) = 4.52245 42.21034 30.01804
# Velocity P-wave (km/s) = 6.65046 49.01832 34.97874
#
# Compressibility (1/GPa) = 0.02721043
#
# Stress axis : x y z
#
# Youngs Moduli (GPa) = 53.10749 132.69932 73.07758
#
# Poissons Ratio (x) = 0.02788 0.30482
# Poissons Ratio (y) = 0.01116 0.14896
# Poissons Ratio (z) = 0.22152 0.27049
#
# Static dielectric constant tensor:
#      x y z
#    x 1.973960 0.000000 -0.080570 
#    y 0.000000 1.958130 0.000000 
#    z -0.080570 0.000000 1.931440 
# 
# From -- ./inp_files/71342.got.cif
#   From: 2010.05.17/outbox.cif.g08.bks.cpg/sg13_36_cif.got.tgz:71342.got - 2010.06.03 16:44:36.
