data_PCOD9229989
_publ_section_title
;
Structure prediction by ZEFSAII (Michael W. Deem and Ramdas Pophale) SiO2 
 PCOD9229989
Probable space group: P 2/C
;
_chemical_formula_sum "Si O2"
_cell_formula_units_Z 24
_cell_length_a 26.429609
_cell_length_b 8.503033
_cell_length_c 19.519784
_cell_angle_alpha 90.000000
_cell_angle_beta 17.141727
_cell_angle_gamma 90.000000
_cell_volume 1292.924830
_symmetry_space_group_name_H-M "P 2/C"
_symmetry_group_IT_number 13
_symmetry_cell_setting 'monoclinic'
loop_
_space_group_symop_operation_xyz
x,y,z
-x,y,1/2-z
-x,-y,-z
x,-y,1/2+z
loop_
_atom_site_type_symbol
_atom_site_label
_atom_site_fract_x
_atom_site_fract_y
_atom_site_fract_z
Si Si1 0.533008 0.360511 0.787221
Si Si2 0.498157 0.376921 0.440598
Si Si3 0.328887 0.932424 0.811472
Si Si4 0.324617 0.066148 0.075533
Si Si5 0.824380 0.883826 0.881173
Si Si6 0.205074 0.864932 0.346272
O O1 0.500000 0.386983 0.750000
O O2 0.530350 0.520591 0.831607
O O3 0.707479 0.256666 0.563691
O O4 0.383073 0.246432 0.010466
O O5 0.500000 0.500000 0.500000
O O6 0.643039 0.241077 0.254147
O O7 0.316836 0.284335 0.678516
O O8 0.500990 0.970873 0.632680
O O9 0.307719 0.050044 0.775050
O O10 0.181014 0.974838 0.056952
O O11 0.262704 0.060191 0.077402
O O12 0.194239 0.990535 0.298106
O O13 0.015451 0.828235 0.617773
#
# Coordination Sequence:
#
# PCOD9229989 Si02
#       6
#     4   4   4   4   4   4
#     4   9  19  36  56  77 109 145 174 210 268 329
#     4  11  21  35  55  78 108 146 178 211 263 328
#     4  10  20  35  57  79 103 142 184 216 258 320
#     4   9  18  36  58  78 105 143 179 215 264 321
#     4  10  20  37  57  81 108 137 177 230 270 302
#     4  11  21  35  57  83 106 137 183 230 262 302
#
# _framework density 18.562564999999999
#
# number of rings (size 3 to 8) (size 9 to 14) (size 15 to 20)
#    0.000    2.000    0.000    7.500    0.000    2.667 
#    0.000    8.333    0.000    0.000    0.000    0.000 
#    0.000    0.000    0.000    0.000    0.000    0.000 
#
# Total GULP energy -133773.036123 kJ/mol
# GULP energy per Si atom -5573.876505 kJ/mol
# Density = 1.852032 g / cm^3
# Si number density = 18.562565 Si / 1000 Ang^3
#
#
#
# Elastic Constant Matrix: (Units=GPa)
#
#
# Indices 1 2 3 4 5 6 
#
# 1 76.0554 51.8884 30.4118 0.0000 4.5359 0.0000
# 2 51.8884 106.3271 47.4202 0.0000 11.5772 0.0000
# 3 30.4118 47.4202 98.9910 0.0000 12.3712 0.0000
# 4 0.0000 0.0000 0.0000 24.5458 0.0000 15.0815
# 5 4.5359 11.5772 12.3712 0.0000 23.7606 0.0000
# 6 0.0000 0.0000 0.0000 15.0815 0.0000 37.0712
#
#
#
# Elastic Compliance Matrix: (Units=1/GPa)
#
#
# Indices 1 2 3 4 5 6 
#
# 1 0.020037 -0.009054 -0.002023 0.000000 0.001640 0.000000
# 2 -0.009054 0.016261 -0.004528 0.000000 -0.003837 0.000000
# 3 -0.002023 -0.004528 0.013443 0.000000 -0.004407 0.000000
# 4 0.000000 0.000000 0.000000 0.054318 0.000000 -0.022098
# 5 0.001640 -0.003837 -0.004407 0.000000 0.045937 0.000000
# 6 0.000000 0.000000 0.000000 -0.022098 0.000000 0.035965
#
#
# Mechanical properties :
#
#
# Convention : Reuss Voigt Hill
#
# Bulk Modulus (GPa) = 53.96892 60.09047 57.02969
# Shear Modulus (GPa) = 22.38643 27.18573 24.78608
#
# Velocity S-wave (km/s) = 3.47652 3.83109 3.65810
# Velocity P-wave (km/s) = 6.72697 7.21192 6.97366
#
# Compressibility (1/GPa) = 0.01852918
#
# Stress axis : x y z
#
# Youngs Moduli (GPa) = 49.90815 61.49733 74.38542
#
# Poissons Ratio (x) = 0.55682 0.15050
# Poissons Ratio (y) = 0.45189 0.33685
# Poissons Ratio (z) = 0.10098 0.27848
#
# Static dielectric constant tensor:
#      x y z
#    x 1.671000 0.000000 0.016430 
#    y 0.000000 1.637380 0.000000 
#    z 0.016430 0.000000 1.696830 
# 
# From -- ./inp_files/71219.got.cif
#   From: 2010.05.17/outbox.cif.g08.bks.cpg/sg13_36_cif.got.tgz:71219.got - 2010.06.03 16:44:36.
