data_PCOD9229090
_publ_section_title
;
Structure prediction by ZEFSAII (Michael W. Deem and Ramdas Pophale) SiO2 
 PCOD9229090
Probable space group: P 2/C
;
_chemical_formula_sum "Si O2"
_cell_formula_units_Z 28
_cell_length_a 14.562811
_cell_length_b 8.951425
_cell_length_c 21.036877
_cell_angle_alpha 90.000000
_cell_angle_beta 29.600783
_cell_angle_gamma 90.000000
_cell_volume 1354.580889
_symmetry_space_group_name_H-M "P 2/C"
_symmetry_group_IT_number 13
_symmetry_cell_setting 'monoclinic'
loop_
_space_group_symop_operation_xyz
x,y,z
-x,y,1/2-z
-x,-y,-z
x,-y,1/2+z
loop_
_atom_site_type_symbol
_atom_site_label
_atom_site_fract_x
_atom_site_fract_y
_atom_site_fract_z
Si Si1 0.343613 0.242338 0.889330
Si Si2 0.749337 0.232692 0.248748
Si Si3 0.024857 0.175943 0.981478
Si Si4 0.034622 0.415474 0.155069
Si Si5 0.981763 0.242239 0.864868
Si Si6 0.386990 0.947368 0.942028
Si Si7 0.176148 0.004994 0.185901
O O1 0.500000 0.318000 0.750000
O O2 0.422638 0.089071 0.874165
O O3 0.218726 0.331704 0.016476
O O4 0.191140 0.205575 0.928588
O O5 0.844221 0.245081 0.123176
O O6 0.539633 0.182123 0.359672
O O7 0.845366 0.366096 0.231230
O O8 0.816003 0.093872 0.253233
O O9 0.050433 0.234689 0.895714
O O10 0.000000 0.000000 0.000000
O O11 0.063254 0.591112 0.127645
O O12 0.000000 0.385965 0.250000
O O13 0.137264 0.167074 0.726662
O O14 0.802844 0.133230 0.966367
O O15 0.348441 0.016974 0.035014
O O16 0.000000 0.056606 0.250000
#
# Coordination Sequence:
#
# PCOD9229090 Si02
#       7
#     4   4   4   4   4   4   4
#     4  11  24  41  67  97 128 166 216 275 325 385
#     4  11  22  36  64  94 125 167 216 273 323 381
#     4  11  19  40  64  91 124 167 212 261 327 385
#     4  11  24  47  66  91 135 181 216 263 331 397
#     4  11  23  41  66  89 132 176 213 262 324 396
#     4  11  22  38  63  97 125 160 224 275 320 376
#     4  10  19  37  61  91 122 168 217 265 320 380
#
# _framework density 20.6706
#
# number of rings (size 3 to 8) (size 9 to 14) (size 15 to 20)
#    0.000    1.143    2.857    6.429    0.000    2.286 
#    5.143    1.429    0.000    0.000    0.000    0.000 
#    0.000    0.000    0.000    0.000    0.000    0.000 
#
# Total GULP energy -156086.282655 kJ/mol
# GULP energy per Si atom -5574.510095 kJ/mol
# Density = 2.062355 g / cm^3
# Si number density = 20.670600 Si / 1000 Ang^3
#
#
#
# Elastic Constant Matrix: (Units=GPa)
#
#
# Indices 1 2 3 4 5 6 
#
# 1 65.8003 8.2966 28.2981 0.0000 27.0983 0.0000
# 2 8.2966 82.4775 9.6191 0.0000 14.7405 0.0000
# 3 28.2981 9.6191 88.7699 0.0000 22.8538 0.0000
# 4 0.0000 0.0000 0.0000 11.8218 0.0000 7.8319
# 5 27.0983 14.7405 22.8538 0.0000 35.5573 0.0000
# 6 0.0000 0.0000 0.0000 7.8319 0.0000 21.3672
#
#
#
# Elastic Compliance Matrix: (Units=1/GPa)
#
#
# Indices 1 2 3 4 5 6 
#
# 1 0.023023 0.000892 -0.003383 0.000000 -0.015741 0.000000
# 2 0.000892 0.013129 -0.000157 0.000000 -0.006022 0.000000
# 3 -0.003383 -0.000157 0.013996 0.000000 -0.006352 0.000000
# 4 0.000000 0.000000 0.000000 0.111718 0.000000 -0.040949
# 5 -0.015741 -0.006022 -0.006352 0.000000 0.046699 0.000000
# 6 0.000000 0.000000 0.000000 -0.040949 0.000000 0.061810
#
#
# Mechanical properties :
#
#
# Convention : Reuss Voigt Hill
#
# Bulk Modulus (GPa) = 22.29576 36.60837 29.45207
# Shear Modulus (GPa) = 17.20450 26.47150 21.83800
#
# Velocity S-wave (km/s) = 2.88812 3.58248 3.25387
# Velocity P-wave (km/s) = 4.68309 5.90432 5.32880
#
# Compressibility (1/GPa) = 0.04485157
#
# Stress axis : x y z
#
# Youngs Moduli (GPa) = 43.43572 76.16546 71.44909
#
# Poissons Ratio (x) = -0.06793 0.24174
# Poissons Ratio (y) = -0.03874 0.01119
# Poissons Ratio (z) = 0.14696 0.01193
#
# Static dielectric constant tensor:
#      x y z
#    x 1.666690 0.000000 0.130300 
#    y 0.000000 1.733900 0.000000 
#    z 0.130300 0.000000 1.540870 
# 
# From -- ./inp_files/50223.got.cif
#   From: 2010.05.17/outbox.cif.g08.bks.cpg/sg13_26_cif.got.tgz:50223.got - 2010.06.03 16:44:36.
