data_PCOD9229771
_publ_section_title
;
Structure prediction by ZEFSAII (Michael W. Deem and Ramdas Pophale) SiO2 
 PCOD9229771
Probable space group: P 2/C
;
_chemical_formula_sum "Si O2"
_cell_formula_units_Z 28
_cell_length_a 13.937111
_cell_length_b 15.485501
_cell_length_c 9.098204
_cell_angle_alpha 90.000000
_cell_angle_beta 45.467457
_cell_angle_gamma 90.000000
_cell_volume 1399.758787
_symmetry_space_group_name_H-M "P 2/C"
_symmetry_group_IT_number 13
_symmetry_cell_setting 'monoclinic'
loop_
_space_group_symop_operation_xyz
x,y,z
-x,y,1/2-z
-x,-y,-z
x,-y,1/2+z
loop_
_atom_site_type_symbol
_atom_site_label
_atom_site_fract_x
_atom_site_fract_y
_atom_site_fract_z
Si Si1 0.751784 0.698580 0.856336
Si Si2 0.208412 0.695734 0.255465
Si Si3 0.501846 0.742558 0.569612
Si Si4 0.432813 0.920982 0.160640
Si Si5 0.153705 0.556331 0.527167
Si Si6 0.144202 0.636063 0.029437
Si Si7 0.848322 0.846151 0.967423
O O1 0.623687 0.705236 0.886857
O O2 0.759432 0.618099 0.959296
O O3 0.867665 0.679767 0.614314
O O4 0.781015 0.786051 0.912995
O O5 0.151456 0.605205 0.374087
O O6 0.206092 0.699871 0.082849
O O7 0.142314 0.777470 0.407750
O O8 0.365402 0.693334 0.125811
O O9 0.500000 0.740937 0.750000
O O10 0.526850 0.838569 0.481010
O O11 0.500000 0.916047 0.250000
O O12 0.268742 0.915222 0.361691
O O13 0.500000 0.000000 0.000000
O O14 0.208178 0.459242 0.453412
O O15 0.000000 0.558117 0.750000
O O16 0.000000 0.620013 0.250000
O O17 0.000000 0.872282 0.750000
#
# Coordination Sequence:
#
# PCOD9229771 Si02
#       7
#     4   4   4   4   4   4   4
#     4  11  20  36  60  81 123 159 208 254 309 357
#     4  10  20  34  55  81 116 154 206 252 305 349
#     4  11  22  40  60  88 116 156 206 251 293 375
#     4  11  23  43  71  96 125 164 195 235 303 381
#     4  10  21  35  52  81 115 159 206 256 314 367
#     4  11  20  33  54  81 117 158 205 260 315 357
#     4  10  21  39  65  96 125 158 206 251 298 357
#
# _framework density 20.003444999999999
#
# number of rings (size 3 to 8) (size 9 to 14) (size 15 to 20)
#    0.000    1.429    2.857    4.714    0.000    2.286 
#    0.000    5.000    0.000    0.000    0.000    0.000 
#    0.000    0.000    0.000    0.000    0.000    0.000 
#
# Total GULP energy -155975.988410 kJ/mol
# GULP energy per Si atom -5570.571015 kJ/mol
# Density = 1.995792 g / cm^3
# Si number density = 20.003445 Si / 1000 Ang^3
#
#
#
# Elastic Constant Matrix: (Units=GPa)
#
#
# Indices 1 2 3 4 5 6 
#
# 1 106.2792 21.9146 33.5526 0.0000 0.3625 0.0000
# 2 21.9146 51.6256 42.5935 0.0000 -5.4533 0.0000
# 3 33.5526 42.5935 105.9323 0.0000 1.8477 0.0000
# 4 0.0000 0.0000 0.0000 24.0125 0.0000 -2.7970
# 5 0.3625 -5.4533 1.8477 0.0000 42.4903 0.0000
# 6 0.0000 0.0000 0.0000 -2.7970 0.0000 10.7886
#
#
#
# Elastic Compliance Matrix: (Units=1/GPa)
#
#
# Indices 1 2 3 4 5 6 
#
# 1 0.010689 -0.002670 -0.002306 0.000000 -0.000334 0.000000
# 2 -0.002670 0.030433 -0.011468 0.000000 0.004427 0.000000
# 3 -0.002306 -0.011468 0.014818 0.000000 -0.002097 0.000000
# 4 0.000000 0.000000 0.000000 0.042942 0.000000 0.011133
# 5 -0.000334 0.004427 -0.002097 0.000000 0.024197 0.000000
# 6 0.000000 0.000000 0.000000 0.011133 0.000000 0.095577
#
#
# Mechanical properties :
#
#
# Convention : Reuss Voigt Hill
#
# Bulk Modulus (GPa) = 43.38091 51.10650 47.24371
# Shear Modulus (GPa) = 19.28802 26.51002 22.89902
#
# Velocity S-wave (km/s) = 3.10858 3.64438 3.38709
# Velocity P-wave (km/s) = 5.88372 6.58126 6.24224
#
# Compressibility (1/GPa) = 0.02305161
#
# Stress axis : x y z
#
# Youngs Moduli (GPa) = 93.55477 32.85906 67.48462
#
# Poissons Ratio (x) = 0.08773 0.15564
# Poissons Ratio (y) = 0.24977 0.77393
# Poissons Ratio (z) = 0.21576 0.37683
#
# Static dielectric constant tensor:
#      x y z
#    x 1.774230 0.000000 -0.030950 
#    y 0.000000 1.721670 0.000000 
#    z -0.030950 0.000000 1.793720 
# 
# From -- ./inp_files/20068.got.cif
#   From: 2010.05.17/outbox.cif.g08.bks.cpg/sg13_11_cif.got.tgz:20068.got - 2010.06.03 16:44:36.
