data_PCOD9229689
_publ_section_title
;
Structure prediction by ZEFSAII (Michael W. Deem and Ramdas Pophale) SiO2 
 PCOD9229689
Probable space group: P 2/C
;
_chemical_formula_sum "Si O2"
_cell_formula_units_Z 20
_cell_length_a 7.743539
_cell_length_b 23.247810
_cell_length_c 5.269377
_cell_angle_alpha 90.000000
_cell_angle_beta 119.857816
_cell_angle_gamma 90.000000
_cell_volume 822.681802
_symmetry_space_group_name_H-M "P 2/C"
_symmetry_group_IT_number 13
_symmetry_cell_setting 'monoclinic'
loop_
_space_group_symop_operation_xyz
x,y,z
-x,y,1/2-z
-x,-y,-z
x,-y,1/2+z
loop_
_atom_site_type_symbol
_atom_site_label
_atom_site_fract_x
_atom_site_fract_y
_atom_site_fract_z
Si Si1 0.756787 0.970880 0.602028
Si Si2 0.742611 0.533829 0.423163
Si Si3 0.737839 0.268997 0.425041
Si Si4 0.127768 0.140994 0.089132
Si Si5 0.743288 0.665069 0.426920
O O1 0.722768 0.908936 0.707556
O O2 0.000000 0.973510 0.750000
O O3 0.690554 0.982920 0.265856
O O4 0.500000 0.535016 0.250000
O O5 0.801336 0.507301 0.735320
O O6 0.808203 0.599459 0.434176
O O7 0.500000 0.273422 0.250000
O O8 0.786848 0.202308 0.426488
O O9 0.804878 0.293458 0.743539
O O10 0.804676 0.308652 0.240520
O O11 0.000000 0.151672 0.250000
O O12 0.000000 0.120162 0.750000
O O13 0.500000 0.663985 0.250000
#
# Coordination Sequence:
#
# PCOD9229689 Si02
#       5
#     4   4   4   4   4
#     4   9  16  28  47  71  96 122 154 196 245 288
#     4   9  15  23  38  62  92 122 153 195 243 284
#     4  10  20  34  50  69 100 137 165 193 239 297
#     4  11  21  33  52  77 101 125 163 209 242 280
#     4   9  17  29  45  66  95 132 165 193 238 297
#
# _framework density 24.310738000000001
#
# number of rings (size 3 to 8) (size 9 to 14) (size 15 to 20)
#    0.000    2.400    0.000    5.400    0.000    4.800 
#    0.000    0.000    0.000    1.200    0.000    0.000 
#    0.000   59.200    0.000    0.000    0.000    0.000 
#
# Total GULP energy -111960.924996 kJ/mol
# GULP energy per Si atom -5598.046250 kJ/mol
# Density = 2.425541 g / cm^3
# Si number density = 24.310738 Si / 1000 Ang^3
#
#
#
# Elastic Constant Matrix: (Units=GPa)
#
#
# Indices 1 2 3 4 5 6 
#
# 1 66.8212 12.1017 25.3970 0.0000 -12.0767 0.0000
# 2 12.1017 201.6369 73.6504 0.0000 -33.9784 0.0000
# 3 25.3970 73.6504 187.6701 0.0000 -21.2694 0.0000
# 4 0.0000 0.0000 0.0000 35.5131 0.0000 -13.2205
# 5 -12.0767 -33.9784 -21.2694 0.0000 48.5185 0.0000
# 6 0.0000 0.0000 0.0000 -13.2205 0.0000 23.5832
#
#
#
# Elastic Compliance Matrix: (Units=1/GPa)
#
#
# Indices 1 2 3 4 5 6 
#
# 1 0.016262 0.000306 -0.001934 0.000000 0.003414 0.000000
# 2 0.000306 0.006316 -0.002115 0.000000 0.003572 0.000000
# 3 -0.001934 -0.002115 0.006522 0.000000 0.000896 0.000000
# 4 0.000000 0.000000 0.000000 0.035585 0.000000 0.019948
# 5 0.003414 0.003572 0.000896 0.000000 0.024355 0.000000
# 6 0.000000 0.000000 0.000000 0.019948 0.000000 0.053586
#
#
# Mechanical properties :
#
#
# Convention : Reuss Voigt Hill
#
# Bulk Modulus (GPa) = 46.26838 75.38070 60.82454
# Shear Modulus (GPa) = 31.78324 44.52156 38.15240
#
# Velocity S-wave (km/s) = 3.61969 4.28407 3.96582
# Velocity P-wave (km/s) = 6.04507 7.45289 6.78559
#
# Compressibility (1/GPa) = 0.02161303
#
# Stress axis : x y z
#
# Youngs Moduli (GPa) = 61.49322 158.34057 153.33119
#
# Poissons Ratio (x) = -0.04839 0.29650
# Poissons Ratio (y) = -0.01879 0.32430
# Poissons Ratio (z) = 0.11891 0.33490
#
# Static dielectric constant tensor:
#      x y z
#    x 2.039330 0.000000 0.073530 
#    y 0.000000 1.874180 0.000000 
#    z 0.073530 0.000000 1.888250 
# 
# From -- ./inp_files/2031.got.cif
#   From: 2010.05.17/outbox.cif.g08.bks.cpg/sg13_2_cif.got.tgz:2031.got - 2010.06.03 16:44:36.
