data_PCOD9229274
_publ_section_title
;
Structure prediction by ZEFSAII (Michael W. Deem and Ramdas Pophale) SiO2 
 PCOD9229274
Probable space group: P 2/C
;
_chemical_formula_sum "Si O2"
_cell_formula_units_Z 28
_cell_length_a 16.239674
_cell_length_b 8.951801
_cell_length_c 13.715001
_cell_angle_alpha 90.000000
_cell_angle_beta 137.386305
_cell_angle_gamma 90.000000
_cell_volume 1349.912215
_symmetry_space_group_name_H-M "P 2/C"
_symmetry_group_IT_number 13
_symmetry_cell_setting 'monoclinic'
loop_
_space_group_symop_operation_xyz
x,y,z
-x,y,1/2-z
-x,-y,-z
x,-y,1/2+z
loop_
_atom_site_type_symbol
_atom_site_label
_atom_site_fract_x
_atom_site_fract_y
_atom_site_fract_z
Si Si1 0.635923 0.274950 0.844841
Si Si2 0.500000 0.768333 0.750000
Si Si3 0.017545 0.673167 0.627185
Si Si4 0.589619 0.461049 0.163365
Si Si5 0.179811 0.526311 0.928959
Si Si6 0.177008 0.301904 0.093339
Si Si7 0.000000 0.048860 0.250000
Si Si8 0.251751 0.046276 0.047360
O O1 0.500000 0.227863 0.750000
O O2 0.624737 0.381870 0.742620
O O3 0.713224 0.125519 0.907378
O O4 0.691812 0.391947 0.972312
O O5 0.471884 0.656243 0.814929
O O6 0.622434 0.868230 0.874482
O O7 0.100004 0.558215 0.764159
O O8 0.054856 0.674177 0.547605
O O9 0.883570 0.620500 0.538375
O O10 0.028152 0.836803 0.685012
O O11 0.717695 0.381754 0.253113
O O12 0.500000 0.500000 0.000000
O O13 0.183416 0.368175 0.987750
O O14 0.211259 0.129919 0.110691
O O15 0.124961 0.957871 0.375574
#
# Coordination Sequence:
#
# PCOD9229274 Si02
#       8
#     4   2   4   4   4   4   2   4
#     4  11  20  38  66  83 121 172 202 251 326 372
#     4  10  22  44  64  94 128 162 214 274 314 376
#     4  10  19  38  65  84 121 163 216 248 312 382
#     4  10  23  40  61  94 121 162 217 268 313 377
#     4   9  20  39  60  88 114 163 210 252 310 376
#     4  10  23  36  60  93 128 152 210 275 308 365
#     4  10  22  40  62  88 130 174 214 246 316 402
#     4  11  22  41  61  95 128 170 210 261 320 381
#
# _framework density 20.742089
#
# number of rings (size 3 to 8) (size 9 to 14) (size 15 to 20)
#    0.000    2.000    4.286    0.429    2.000    1.714 
#    2.571    2.857    0.000    0.000    0.000    0.000 
#    0.000    0.000    0.000    0.000    0.000    0.000 
#
# Total GULP energy -155885.267362 kJ/mol
# GULP energy per Si atom -5567.330977 kJ/mol
# Density = 2.069488 g / cm^3
# Si number density = 20.742089 Si / 1000 Ang^3
#
#
#
# Elastic Constant Matrix: (Units=GPa)
#
#
# Indices 1 2 3 4 5 6 
#
# 1 51.2514 32.9004 20.2228 0.0000 10.7286 0.0000
# 2 32.9004 94.6734 37.4189 0.0000 8.4796 0.0000
# 3 20.2228 37.4189 114.7232 0.0000 23.4983 0.0000
# 4 0.0000 0.0000 0.0000 29.4994 0.0000 13.2174
# 5 10.7286 8.4796 23.4983 0.0000 26.5411 0.0000
# 6 0.0000 0.0000 0.0000 13.2174 0.0000 11.0057
#
#
#
# Elastic Compliance Matrix: (Units=1/GPa)
#
#
# Indices 1 2 3 4 5 6 
#
# 1 0.026700 -0.008439 -0.000361 0.000000 -0.007777 0.000000
# 2 -0.008439 0.014798 -0.003749 0.000000 0.002003 0.000000
# 3 -0.000361 -0.003749 0.011883 0.000000 -0.009177 0.000000
# 4 0.000000 0.000000 0.000000 0.073390 0.000000 -0.088139
# 5 -0.007777 0.002003 -0.009177 0.000000 0.048306 0.000000
# 6 0.000000 0.000000 0.000000 -0.088139 0.000000 0.196714
#
#
# Mechanical properties :
#
#
# Convention : Reuss Voigt Hill
#
# Bulk Modulus (GPa) = 35.35905 49.08136 42.22020
# Shear Modulus (GPa) = 12.30571 24.74963 18.52767
#
# Velocity S-wave (km/s) = 2.43836 3.45803 2.99195
# Velocity P-wave (km/s) = 5.00115 6.29746 5.68637
#
# Compressibility (1/GPa) = 0.02828131
#
# Stress axis : x y z
#
# Youngs Moduli (GPa) = 37.45385 67.57748 84.15555
#
# Poissons Ratio (x) = 0.57030 0.03038
# Poissons Ratio (y) = 0.31608 0.31552
# Poissons Ratio (z) = 0.01352 0.25336
#
# Static dielectric constant tensor:
#      x y z
#    x 1.804900 0.000000 0.056930 
#    y 0.000000 1.774740 0.000000 
#    z 0.056930 0.000000 1.844050 
# 
# From -- ./inp_files/55337.got.cif
#   From: 2010.05.17/outbox.cif.g08.bks.cpg/sg13_28_cif.got.tgz:55337.got - 2010.06.03 16:44:36.
