data_PCOD9229189
_publ_section_title
;
Structure prediction by ZEFSAII (Michael W. Deem and Ramdas Pophale) SiO2 
 PCOD9229189
Probable space group: P 2/C
;
_chemical_formula_sum "Si O2"
_cell_formula_units_Z 30
_cell_length_a 20.885607
_cell_length_b 8.419033
_cell_length_c 16.159840
_cell_angle_alpha 90.000000
_cell_angle_beta 31.192727
_cell_angle_gamma 90.000000
_cell_volume 1471.660838
_symmetry_space_group_name_H-M "P 2/C"
_symmetry_group_IT_number 13
_symmetry_cell_setting 'monoclinic'
loop_
_space_group_symop_operation_xyz
x,y,z
-x,y,1/2-z
-x,-y,-z
x,-y,1/2+z
loop_
_atom_site_type_symbol
_atom_site_label
_atom_site_fract_x
_atom_site_fract_y
_atom_site_fract_z
Si Si1 0.114281 0.803319 0.399175
Si Si2 0.732139 0.491531 0.571637
Si Si3 0.346157 0.615352 0.158351
Si Si4 0.860006 0.823308 0.437068
Si Si5 0.859709 0.834166 0.932881
Si Si6 0.500000 0.359977 0.750000
Si Si7 0.151978 0.840017 0.850910
Si Si8 0.576373 0.288363 0.492467
O O1 0.226374 0.691297 0.247711
O O2 0.140183 0.822815 0.468033
O O3 0.972078 0.750307 0.544071
O O4 0.132215 0.978920 0.341790
O O5 0.701781 0.468032 0.703174
O O6 0.795978 0.658524 0.484802
O O7 0.803643 0.331292 0.465064
O O8 0.607774 0.474639 0.659486
O O9 0.402892 0.478017 0.039536
O O10 0.456341 0.735849 0.065204
O O11 0.858822 0.830687 0.538078
O O12 0.000000 0.816835 0.250000
O O13 0.803870 0.993868 0.470408
O O14 0.000000 0.839309 0.750000
O O15 0.536351 0.255553 0.630347
O O16 0.290229 0.785798 0.675147
#
# Coordination Sequence:
#
# PCOD9229189 Si02
#       8
#     4   4   4   4   4   2   4   4
#     4   9  20  35  55  87 115 143 188 235 285 342
#     4  10  19  38  56  81 111 152 191 233 282 340
#     4   9  19  37  58  77 111 149 190 227 281 346
#     4  10  20  36  58  84 116 150 188 233 290 347
#     4   9  19  34  55  82 116 149 183 232 283 342
#     4  10  24  36  58  82 114 146 196 242 278 334
#     4  10  20  36  58  85 115 148 185 238 288 332
#     4  10  20  37  59  79 111 151 186 235 281 341
#
# _framework density 20.385133
#
# number of rings (size 3 to 8) (size 9 to 14) (size 15 to 20)
#    0.000    2.400    1.333    0.400    1.867    2.133 
#    0.000    0.667    0.000    0.000    0.000    0.000 
#    0.000    0.000    0.000    0.000    0.000    0.000 
#
# Total GULP energy -167101.122297 kJ/mol
# GULP energy per Si atom -5570.037410 kJ/mol
# Density = 2.033874 g / cm^3
# Si number density = 20.385133 Si / 1000 Ang^3
#
#
#
# Elastic Constant Matrix: (Units=GPa)
#
#
# Indices 1 2 3 4 5 6 
#
# 1 24.6882 17.1888 15.3753 0.0000 -8.0171 0.0000
# 2 17.1888 105.6544 34.8841 0.0000 -19.1610 0.0000
# 3 15.3753 34.8841 104.6577 0.0000 -9.5645 0.0000
# 4 0.0000 0.0000 0.0000 44.4875 0.0000 -7.7781
# 5 -8.0171 -19.1610 -9.5645 0.0000 28.1317 0.0000
# 6 0.0000 0.0000 0.0000 -7.7781 0.0000 7.9640
#
#
#
# Elastic Compliance Matrix: (Units=1/GPa)
#
#
# Indices 1 2 3 4 5 6 
#
# 1 0.049917 -0.004828 -0.004876 0.000000 0.009279 0.000000
# 2 -0.004828 0.012278 -0.002833 0.000000 0.006024 0.000000
# 3 -0.004876 -0.002833 0.011262 0.000000 0.000510 0.000000
# 4 0.000000 0.000000 0.000000 0.027107 0.000000 0.026474
# 5 0.009279 0.006024 0.000510 0.000000 0.042468 0.000000
# 6 0.000000 0.000000 0.000000 0.026474 0.000000 0.151420
#
#
# Mechanical properties :
#
#
# Convention : Reuss Voigt Hill
#
# Bulk Modulus (GPa) = 20.66835 41.09964 30.88400
# Shear Modulus (GPa) = 14.89633 27.28678 21.09156
#
# Velocity S-wave (km/s) = 2.70616 3.66261 3.22009
# Velocity P-wave (km/s) = 4.46378 6.17184 5.38595
#
# Compressibility (1/GPa) = 0.04838315
#
# Stress axis : x y z
#
# Youngs Moduli (GPa) = 20.03340 81.44638 88.79363
#
# Poissons Ratio (x) = 0.39324 0.43296
# Poissons Ratio (y) = 0.09672 0.25152
# Poissons Ratio (z) = 0.09768 0.23071
#
# Static dielectric constant tensor:
#      x y z
#    x 1.736260 0.000000 0.001940 
#    y 0.000000 1.781760 0.000000 
#    z 0.001940 0.000000 1.807020 
# 
# From -- ./inp_files/70583.got.cif
#   From: 2010.05.17/outbox.cif.g08.bks.cpg/sg13_36_cif.got.tgz:70583.got - 2010.06.03 16:44:36.
