data_PCOD9229912
_publ_section_title
;
Structure prediction by ZEFSAII (Michael W. Deem and Ramdas Pophale) SiO2 
 PCOD9229912
Probable space group: P 2/C
;
_chemical_formula_sum "Si O2"
_cell_formula_units_Z 30
_cell_length_a 14.396810
_cell_length_b 13.492700
_cell_length_c 23.668253
_cell_angle_alpha 90.000000
_cell_angle_beta 159.345740
_cell_angle_gamma 90.000000
_cell_volume 1621.702623
_symmetry_space_group_name_H-M "P 2/C"
_symmetry_group_IT_number 13
_symmetry_cell_setting 'monoclinic'
loop_
_space_group_symop_operation_xyz
x,y,z
-x,y,1/2-z
-x,-y,-z
x,-y,1/2+z
loop_
_atom_site_type_symbol
_atom_site_label
_atom_site_fract_x
_atom_site_fract_y
_atom_site_fract_z
Si Si1 0.137987 0.963338 0.883629
Si Si2 0.206315 0.363991 0.088443
Si Si3 0.338265 0.301914 0.760657
Si Si4 0.296731 0.052111 0.265448
Si Si5 0.924940 0.754102 0.880457
Si Si6 0.728443 0.897123 0.341279
Si Si7 0.180469 0.730865 0.903827
Si Si8 0.500000 0.557614 0.250000
O O1 0.205546 0.848820 0.908403
O O2 0.000000 0.008703 0.750000
O O3 0.918032 0.962814 0.807398
O O4 0.411585 0.013896 0.055434
O O5 0.500000 0.317597 0.250000
O O6 0.126384 0.336467 0.106913
O O7 0.259630 0.479728 0.107778
O O8 0.974148 0.323735 0.916286
O O9 0.370631 0.188801 0.757995
O O10 0.449523 0.373544 0.774841
O O11 0.527420 0.313833 0.922075
O O12 0.314551 0.170343 0.266034
O O13 0.185184 0.986727 0.149769
O O14 0.043240 0.722653 0.887672
O O15 0.107151 0.829174 0.021282
O O16 0.500000 0.940995 0.250000
O O17 0.000000 0.691424 0.750000
#
# Coordination Sequence:
#
# PCOD9229912 Si02
#       8
#     4   4   4   4   4   4   4   2
#     4  10  21  38  54  78 114 162 206 234 267 330
#     4   9  22  34  55  90 115 146 180 230 295 357
#     4  11  17  35  61  81 111 146 190 235 281 338
#     4  11  21  33  54  81 114 151 192 240 283 329
#     4  10  20  35  52  79 119 146 179 235 285 340
#     4  11  18  32  53  87 109 142 187 234 285 341
#     4  10  20  36  59  83 109 152 204 236 266 327
#     4  10  20  36  60  88 112 146 180 236 300 354
#
# _framework density 18.499077
#
# number of rings (size 3 to 8) (size 9 to 14) (size 15 to 20)
#    0.400    1.333    3.333    2.800    0.000    2.667 
#    0.000    0.000    0.000    3.200    0.000    0.000 
#    0.000    0.000    0.000    0.000    0.000    0.000 
#
# Total GULP energy -167003.380628 kJ/mol
# GULP energy per Si atom -5566.779354 kJ/mol
# Density = 1.845697 g / cm^3
# Si number density = 18.499077 Si / 1000 Ang^3
#
#
#
# Elastic Constant Matrix: (Units=GPa)
#
#
# Indices 1 2 3 4 5 6 
#
# 1 51.4320 18.2143 44.6042 0.0000 -7.3235 0.0000
# 2 18.2143 46.8885 13.7095 0.0000 9.3438 0.0000
# 3 44.6042 13.7095 144.0178 0.0000 -12.5201 0.0000
# 4 0.0000 0.0000 0.0000 26.7420 0.0000 8.9080
# 5 -7.3235 9.3438 -12.5201 0.0000 27.1403 0.0000
# 6 0.0000 0.0000 0.0000 8.9080 0.0000 14.7564
#
#
#
# Elastic Compliance Matrix: (Units=1/GPa)
#
#
# Indices 1 2 3 4 5 6 
#
# 1 0.031796 -0.011820 -0.007941 0.000000 0.008986 0.000000
# 2 -0.011820 0.028594 -0.000202 0.000000 -0.013127 0.000000
# 3 -0.007941 -0.000202 0.009628 0.000000 0.002368 0.000000
# 4 0.000000 0.000000 0.000000 0.046806 0.000000 -0.028256
# 5 0.008986 -0.013127 0.002368 0.000000 0.044882 0.000000
# 6 0.000000 0.000000 0.000000 -0.028256 0.000000 0.084824
#
#
# Mechanical properties :
#
#
# Convention : Reuss Voigt Hill
#
# Bulk Modulus (GPa) = 33.23292 43.93270 38.58281
# Shear Modulus (GPa) = 16.86409 24.78175 20.82292
#
# Velocity S-wave (km/s) = 3.02258 3.66405 3.35867
# Velocity P-wave (km/s) = 5.49408 6.45760 5.99523
#
# Compressibility (1/GPa) = 0.03009064
#
# Stress axis : x y z
#
# Youngs Moduli (GPa) = 31.45085 34.97244 103.86126
#
# Poissons Ratio (x) = 0.41338 0.82478
# Poissons Ratio (y) = 0.37175 0.02101
# Poissons Ratio (z) = 0.24976 0.00707
#
# Static dielectric constant tensor:
#      x y z
#    x 1.637510 0.000000 -0.001110 
#    y 0.000000 1.635030 0.000000 
#    z -0.001110 0.000000 1.761930 
# 
# From -- ./inp_files/87556.got.cif
#   From: 2010.05.17/outbox.cif.g08.bks.cpg/sg13_44_cif.got.tgz:87556.got - 2010.06.03 16:44:36.
