data_PCOD9229551
_publ_section_title
;
Structure prediction by ZEFSAII (Michael W. Deem and Ramdas Pophale) SiO2 
 PCOD9229551
Probable space group: P 2/C
;
_chemical_formula_sum "Si O2"
_cell_formula_units_Z 20
_cell_length_a 12.641798
_cell_length_b 9.248900
_cell_length_c 8.674704
_cell_angle_alpha 90.000000
_cell_angle_beta 53.509982
_cell_angle_gamma 90.000000
_cell_volume 815.433022
_symmetry_space_group_name_H-M "P 2/C"
_symmetry_group_IT_number 13
_symmetry_cell_setting 'monoclinic'
loop_
_space_group_symop_operation_xyz
x,y,z
-x,y,1/2-z
-x,-y,-z
x,-y,1/2+z
loop_
_atom_site_type_symbol
_atom_site_label
_atom_site_fract_x
_atom_site_fract_y
_atom_site_fract_z
Si Si1 0.742267 0.551194 0.016762
Si Si2 0.600418 0.377795 0.350917
Si Si3 0.581546 0.186431 0.823327
Si Si4 0.000000 0.085012 0.250000
Si Si5 0.000000 0.400664 0.750000
Si Si6 0.858371 0.845245 0.171200
O O1 0.725554 0.600240 0.855486
O O2 0.890033 0.502863 0.922375
O O3 0.653188 0.409645 0.136016
O O4 0.662008 0.673274 0.181787
O O5 0.500000 0.500000 0.500000
O O6 0.526705 0.232287 0.457688
O O7 0.500000 0.123832 0.750000
O O8 0.704645 0.114791 0.796866
O O9 0.909719 0.167926 0.450369
O O10 0.917979 0.980272 0.210659
O O11 0.912827 0.295022 0.715655
#
# Coordination Sequence:
#
# PCOD9229551 Si02
#       6
#     4   4   4   2   2   4
#     4  10  20  32  49  83 124 152 182 220 265 336
#     4   9  17  31  48  70 111 157 184 214 258 316
#     4   9  19  34  56  84 117 155 188 223 277 344
#     4   9  22  43  64  82 108 141 190 265 306 318
#     4  11  22  33  56  90 118 155 192 223 276 350
#     4  10  21  40  62  83 108 146 196 242 295 340
#
# _framework density 24.526847
#
# number of rings (size 3 to 8) (size 9 to 14) (size 15 to 20)
#    0.000    2.400    0.000    4.200    0.000    7.200 
#    0.000    1.000    0.000    2.400    0.000    0.000 
#    0.000    0.000    0.000    0.000    0.000    0.000 
#
# Total GULP energy -111566.266161 kJ/mol
# GULP energy per Si atom -5578.313308 kJ/mol
# Density = 2.447102 g / cm^3
# Si number density = 24.526847 Si / 1000 Ang^3
#
#
#
# Elastic Constant Matrix: (Units=GPa)
#
#
# Indices 1 2 3 4 5 6 
#
# 1 140.4846 19.5681 48.1275 0.0000 -22.5122 0.0000
# 2 19.5681 38.2914 16.0375 0.0000 0.0757 0.0000
# 3 48.1275 16.0375 111.3090 0.0000 -0.9924 0.0000
# 4 0.0000 0.0000 0.0000 8.5025 0.0000 14.6846
# 5 -22.5122 0.0757 -0.9924 0.0000 42.9668 0.0000
# 6 0.0000 0.0000 0.0000 14.6846 0.0000 -26.3399
#
#
#
# Elastic Compliance Matrix: (Units=1/GPa)
#
#
# Indices 1 2 3 4 5 6 
#
# 1 0.009633 -0.003413 -0.003629 0.000000 0.004969 0.000000
# 2 -0.003413 0.029003 -0.002720 0.000000 -0.001902 0.000000
# 3 -0.003629 -0.002720 0.010930 0.000000 -0.001644 0.000000
# 4 0.000000 0.000000 0.000000 0.059919 0.000000 0.033405
# 5 0.004969 -0.001902 -0.001644 0.000000 0.025843 0.000000
# 6 0.000000 0.000000 0.000000 0.033405 0.000000 -0.019342
#
#
# Mechanical properties :
#
#
# Convention : Reuss Voigt Hill
#
# Bulk Modulus (GPa) = 33.28644 50.83901 42.06272
# Shear Modulus (GPa) = 34.35860 18.78268 26.57064
#
# Velocity S-wave (km/s) = 3.74686 2.77031 3.29497
# Velocity P-wave (km/s) = 5.68503 5.56828 5.62696
#
# Compressibility (1/GPa) = 0.03004226
#
# Stress axis : x y z
#
# Youngs Moduli (GPa) = 103.80771 34.47972 91.48781
#
# Poissons Ratio (x) = 0.11767 0.33202
# Poissons Ratio (y) = 0.35426 0.24885
# Poissons Ratio (z) = 0.37674 0.09379
#
# Static dielectric constant tensor:
#      x y z
#    x 2.050830 0.000000 0.001580 
#    y 0.000000 2.004400 0.000000 
#    z 0.001580 0.000000 1.944650 
# 
# From -- ./inp_files/15744.got.cif
#   From: 2010.05.17/outbox.cif.g08.bks.cpg/sg13_8_cif.got.tgz:15744.got - 2010.06.03 16:44:36.
