data_PCOD9229358
_publ_section_title
;
Structure prediction by ZEFSAII (Michael W. Deem and Ramdas Pophale) SiO2 
 PCOD9229358
Probable space group: P 2/C
;
_chemical_formula_sum "Si O2"
_cell_formula_units_Z 32
_cell_length_a 24.846610
_cell_length_b 9.179624
_cell_length_c 19.507772
_cell_angle_alpha 90.000000
_cell_angle_beta 18.749186
_cell_angle_gamma 90.000000
_cell_volume 1430.147158
_symmetry_space_group_name_H-M "P 2/C"
_symmetry_group_IT_number 13
_symmetry_cell_setting 'monoclinic'
loop_
_space_group_symop_operation_xyz
x,y,z
-x,y,1/2-z
-x,-y,-z
x,-y,1/2+z
loop_
_atom_site_type_symbol
_atom_site_label
_atom_site_fract_x
_atom_site_fract_y
_atom_site_fract_z
Si Si1 0.466413 0.147963 0.000511
Si Si2 0.662088 0.171132 0.091855
Si Si3 0.830807 0.640727 0.270922
Si Si4 0.420294 0.344817 0.739902
Si Si5 0.908714 0.105118 0.056697
Si Si6 0.222339 0.661876 0.613560
Si Si7 0.496569 0.653740 0.592508
Si Si8 0.951529 0.936005 0.732789
O O1 0.281300 0.131078 0.193442
O O2 0.466440 0.277422 0.055561
O O3 0.594961 0.199668 0.787213
O O4 0.500000 0.000000 0.000000
O O5 0.500000 0.104558 0.250000
O O6 0.600876 0.243929 0.235528
O O7 0.731205 0.296500 0.957606
O O8 0.802735 0.050330 0.926972
O O9 0.872041 0.473897 0.238196
O O10 0.693026 0.653763 0.376807
O O11 0.987968 0.744883 0.070604
O O12 0.600277 0.329839 0.560744
O O13 0.431374 0.490409 0.681399
O O14 0.279579 0.366826 0.966285
O O15 0.917032 0.027845 0.971722
O O16 0.000000 0.000000 0.000000
O O17 0.114789 0.807239 0.736147
O O18 0.000000 0.882315 0.750000
#
# Coordination Sequence:
#
# PCOD9229358 Si02
#       8
#     4   4   4   4   4   4   4   4
#     4  12  26  40  63  94 131 172 214 269 328 384
#     4   9  18  34  63  89 119 159 210 256 316 388
#     4   9  19  41  66  93 120 169 210 266 319 393
#     4  10  22  40  67  92 126 165 220 265 319 394
#     4  11  24  45  64  91 136 178 220 261 331 408
#     4  10  21  41  67  95 122 165 221 270 317 386
#     4  10  19  39  64  95 122 157 212 265 331 382
#     4  11  24  39  59  94 131 168 218 276 327 376
#
# _framework density 22.375319999999999
#
# number of rings (size 3 to 8) (size 9 to 14) (size 15 to 20)
#    0.000    1.750    1.250    2.625    5.250    1.000 
#    2.250    7.500    0.000    0.000    0.000    0.000 
#    0.000    0.000    0.000    0.000    0.000    0.000 
#
# Total GULP energy -178982.236466 kJ/mol
# GULP energy per Si atom -5593.194890 kJ/mol
# Density = 2.232439 g / cm^3
# Si number density = 22.375320 Si / 1000 Ang^3
#
#
#
# Elastic Constant Matrix: (Units=GPa)
#
#
# Indices 1 2 3 4 5 6 
#
# 1 68.6926 26.9626 0.4724 0.0000 8.3925 0.0000
# 2 26.9626 113.7940 19.0980 0.0000 0.6408 0.0000
# 3 0.4724 19.0980 44.5881 0.0000 2.4157 0.0000
# 4 0.0000 0.0000 0.0000 25.7449 0.0000 1.4953
# 5 8.3925 0.6408 2.4157 0.0000 21.1045 0.0000
# 6 0.0000 0.0000 0.0000 1.4953 0.0000 36.8015
#
#
#
# Elastic Compliance Matrix: (Units=1/GPa)
#
#
# Indices 1 2 3 4 5 6 
#
# 1 0.017097 -0.004358 0.002059 0.000000 -0.006902 0.000000
# 2 -0.004358 0.010580 -0.004590 0.000000 0.001937 0.000000
# 3 0.002059 -0.004590 0.024561 0.000000 -0.003491 0.000000
# 4 0.000000 0.000000 0.000000 0.038935 0.000000 -0.001582
# 5 -0.006902 0.001937 -0.003491 0.000000 0.050469 0.000000
# 6 0.000000 0.000000 0.000000 -0.001582 0.000000 0.027237
#
#
# Mechanical properties :
#
#
# Convention : Reuss Voigt Hill
#
# Bulk Modulus (GPa) = 26.00072 35.57116 30.78594
# Shear Modulus (GPa) = 25.57856 28.76630 27.17243
#
# Velocity S-wave (km/s) = 3.38473 3.58945 3.48859
# Velocity P-wave (km/s) = 5.18852 5.75421 5.47867
#
# Compressibility (1/GPa) = 0.03846047
#
# Stress axis : x y z
#
# Youngs Moduli (GPa) = 58.48899 94.51933 40.71498
#
# Poissons Ratio (x) = 0.41190 -0.08385
# Poissons Ratio (y) = 0.25488 0.18690
# Poissons Ratio (z) = -0.12045 0.43388
#
# Static dielectric constant tensor:
#      x y z
#    x 1.872210 0.000000 -0.016380 
#    y 0.000000 1.810090 0.000000 
#    z -0.016380 0.000000 1.863740 
# 
# From -- ./inp_files/82503.got.cif
#   From: 2010.05.17/outbox.cif.g08.bks.cpg/sg13_42_cif.got.tgz:82503.got - 2010.06.03 16:44:36.
