data_PCOD9229190
_publ_section_title
;
Structure prediction by ZEFSAII (Michael W. Deem and Ramdas Pophale) SiO2 
 PCOD9229190
Probable space group: P 2/C
;
_chemical_formula_sum "Si O2"
_cell_formula_units_Z 30
_cell_length_a 9.381996
_cell_length_b 11.207077
_cell_length_c 29.731692
_cell_angle_alpha 90.000000
_cell_angle_beta 30.893816
_cell_angle_gamma 90.000000
_cell_volume 1605.107891
_symmetry_space_group_name_H-M "P 2/C"
_symmetry_group_IT_number 13
_symmetry_cell_setting 'monoclinic'
loop_
_space_group_symop_operation_xyz
x,y,z
-x,y,1/2-z
-x,-y,-z
x,-y,1/2+z
loop_
_atom_site_type_symbol
_atom_site_label
_atom_site_fract_x
_atom_site_fract_y
_atom_site_fract_z
Si Si1 0.862516 0.830817 0.113563
Si Si2 0.256434 0.639677 0.963829
Si Si3 0.500000 0.647421 0.250000
Si Si4 0.705858 0.204732 0.311650
Si Si5 0.671677 0.970250 0.086900
Si Si6 0.201748 0.237242 0.314711
Si Si7 0.255035 0.046481 0.034016
Si Si8 0.846776 0.460531 0.107248
O O1 0.750192 0.742682 0.182591
O O2 0.634878 0.885159 0.140366
O O3 0.043159 0.936631 0.084708
O O4 0.057174 0.749122 0.029919
O O5 0.562177 0.696129 0.882385
O O6 0.204109 0.599726 0.926912
O O7 0.140359 0.531032 0.025233
O O8 0.604708 0.557720 0.182838
O O9 0.757932 0.259663 0.248695
O O10 0.000000 0.162870 0.250000
O O11 0.504910 0.090873 0.361032
O O12 0.630523 0.921949 0.047184
O O13 0.000000 0.000000 0.000000
O O14 0.500000 0.183222 0.250000
O O15 0.161805 0.358941 0.353039
O O16 0.938325 0.152465 0.394939
O O17 0.500000 0.000000 0.000000
#
# Coordination Sequence:
#
# PCOD9229190 Si02
#       8
#     4   4   2   4   4   4   4   4
#     4  10  21  35  62  87 116 155 198 242 300 355
#     4  10  19  38  62  85 116 155 201 245 300 354
#     4  10  20  36  56  92 120 140 198 262 286 342
#     4  12  23  36  57  89 127 157 191 253 310 355
#     4  10  19  38  56  83 113 158 202 231 297 366
#     4  12  22  36  63  93 116 150 209 254 285 350
#     4  11  23  38  58  87 125 157 192 243 304 363
#     4  10  20  37  63  91 110 153 205 255 286 344
#
# _framework density 18.690332999999999
#
# number of rings (size 3 to 8) (size 9 to 14) (size 15 to 20)
#    0.000    1.333    4.667    3.200    2.800    0.000 
#    0.000    0.667    2.933    0.000    0.000    0.000 
#    0.000    0.000    0.000    0.000    0.000    0.000 
#
# Total GULP energy -167069.720155 kJ/mol
# GULP energy per Si atom -5568.990672 kJ/mol
# Density = 1.864779 g / cm^3
# Si number density = 18.690333 Si / 1000 Ang^3
#
#
#
# Elastic Constant Matrix: (Units=GPa)
#
#
# Indices 1 2 3 4 5 6 
#
# 1 69.4145 15.8415 36.8055 0.0000 -7.8709 0.0000
# 2 15.8415 92.7881 60.3967 0.0000 -3.2165 0.0000
# 3 36.8055 60.3967 108.9291 0.0000 5.1332 0.0000
# 4 0.0000 0.0000 0.0000 40.3438 0.0000 8.7016
# 5 -7.8709 -3.2165 5.1332 0.0000 27.1567 0.0000
# 6 0.0000 0.0000 0.0000 8.7016 0.0000 10.8490
#
#
#
# Elastic Compliance Matrix: (Units=1/GPa)
#
#
# Indices 1 2 3 4 5 6 
#
# 1 0.018951 0.002201 -0.007966 0.000000 0.007259 0.000000
# 2 0.002201 0.017516 -0.010679 0.000000 0.004731 0.000000
# 3 -0.007966 -0.010679 0.018123 0.000000 -0.006999 0.000000
# 4 0.000000 0.000000 0.000000 0.029972 0.000000 -0.024039
# 5 0.007259 0.004731 -0.006999 0.000000 0.040811 0.000000
# 6 0.000000 0.000000 0.000000 -0.024039 0.000000 0.111455
#
#
# Mechanical properties :
#
#
# Convention : Reuss Voigt Hill
#
# Bulk Modulus (GPa) = 46.07674 55.24655 50.66165
# Shear Modulus (GPa) = 18.05392 26.20912 22.13152
#
# Velocity S-wave (km/s) = 3.11134 3.74877 3.44483
# Velocity P-wave (km/s) = 6.13299 6.95419 6.55646
#
# Compressibility (1/GPa) = 0.02170292
#
# Stress axis : x y z
#
# Youngs Moduli (GPa) = 52.76891 57.08939 55.17991
#
# Poissons Ratio (x) = -0.12566 0.43954
# Poissons Ratio (y) = -0.11615 0.58926
# Poissons Ratio (z) = 0.42034 0.60965
#
# Static dielectric constant tensor:
#      x y z
#    x 1.652650 0.000000 0.023950 
#    y 0.000000 1.673060 0.000000 
#    z 0.023950 0.000000 1.709610 
# 
# From -- ./inp_files/96072.got.cif
#   From: 2010.05.17/outbox.cif.g08.bks.cpg/sg13_49_cif.got.tgz:96072.got - 2010.06.03 16:44:36.
