data_PCOD9229904
_publ_section_title
;
Structure prediction by ZEFSAII (Michael W. Deem and Ramdas Pophale) SiO2 
 PCOD9229904
Probable space group: P 2/C
;
_chemical_formula_sum "Si O2"
_cell_formula_units_Z 28
_cell_length_a 8.911682
_cell_length_b 10.381097
_cell_length_c 21.334685
_cell_angle_alpha 90.000000
_cell_angle_beta 133.330147
_cell_angle_gamma 90.000000
_cell_volume 1435.719203
_symmetry_space_group_name_H-M "P 2/C"
_symmetry_group_IT_number 13
_symmetry_cell_setting 'monoclinic'
loop_
_space_group_symop_operation_xyz
x,y,z
-x,y,1/2-z
-x,-y,-z
x,-y,1/2+z
loop_
_atom_site_type_symbol
_atom_site_label
_atom_site_fract_x
_atom_site_fract_y
_atom_site_fract_z
Si Si1 0.365252 0.394139 0.836614
Si Si2 0.919323 0.899483 0.363304
Si Si3 0.500000 0.737606 0.250000
Si Si4 0.102408 0.295022 0.011515
Si Si5 0.909078 0.363335 0.286122
Si Si6 0.790734 0.570374 0.515748
Si Si7 0.275896 0.162030 0.172945
Si Si8 0.000000 0.807058 0.250000
O O1 0.481424 0.349576 0.806433
O O2 0.545146 0.411193 0.939525
O O3 0.232108 0.518797 0.778636
O O4 0.200601 0.285421 0.808849
O O5 0.701798 0.825382 0.307629
O O6 0.061569 0.816454 0.449895
O O7 0.987431 0.887597 0.310529
O O8 0.887874 0.046282 0.374986
O O9 0.908151 0.332588 0.000862
O O10 0.162143 0.426276 0.994296
O O11 0.272010 0.242529 0.107970
O O12 0.094768 0.410886 0.384978
O O13 0.000000 0.300146 0.250000
O O14 0.780186 0.262735 0.289257
O O15 0.500000 0.105803 0.250000
#
# Coordination Sequence:
#
# PCOD9229904 Si02
#       8
#     4   4   2   4   4   4   4   2
#     4  11  21  40  62  94 126 158 207 255 318 365
#     4  11  21  42  61  88 125 163 211 247 299 365
#     4  10  20  34  68  88 118 158 212 256 290 360
#     4  10  21  38  64  98 117 156 211 263 299 361
#     4  11  25  41  59  94 130 159 201 253 318 380
#     4  10  21  38  67  92 127 158 200 260 322 357
#     4  11  24  41  64  89 121 166 210 253 304 362
#     4  10  24  38  62  96 124 162 208 254 304 378
#
# _framework density 19.502420000000001
#
# number of rings (size 3 to 8) (size 9 to 14) (size 15 to 20)
#    0.000    1.429    2.857    3.000    6.000    0.571 
#    2.571    0.000    0.000    2.571    0.000    0.000 
#    0.000    0.000    0.000    0.000    0.000    0.000 
#
# Total GULP energy -156368.931090 kJ/mol
# GULP energy per Si atom -5584.604682 kJ/mol
# Density = 1.945803 g / cm^3
# Si number density = 19.502420 Si / 1000 Ang^3
#
#
#
# Elastic Constant Matrix: (Units=GPa)
#
#
# Indices 1 2 3 4 5 6 
#
# 1 61.0324 -0.7433 39.8800 0.0000 -13.0492 0.0000
# 2 -0.7433 60.7743 19.3788 0.0000 -9.4263 0.0000
# 3 39.8800 19.3788 105.4843 0.0000 1.8166 0.0000
# 4 0.0000 0.0000 0.0000 -33.7102 0.0000 28.5033
# 5 -13.0492 -9.4263 1.8166 0.0000 34.8072 0.0000
# 6 0.0000 0.0000 0.0000 28.5033 0.0000 -3.3291
#
#
#
# Elastic Compliance Matrix: (Units=1/GPa)
#
#
# Indices 1 2 3 4 5 6 
#
# 1 0.026372 0.005773 -0.011238 0.000000 0.012037 0.000000
# 2 0.005773 0.019621 -0.005921 0.000000 0.007787 0.000000
# 3 -0.011238 -0.005921 0.014930 0.000000 -0.006596 0.000000
# 4 0.000000 0.000000 0.000000 0.004754 0.000000 0.040707
# 5 0.012037 0.007787 -0.006596 0.000000 0.035695 0.000000
# 6 0.000000 0.000000 0.000000 0.040707 0.000000 0.048143
#
#
# Mechanical properties :
#
#
# Convention : Reuss Voigt Hill
#
# Bulk Modulus (GPa) = 26.21237 38.25802 32.23520
# Shear Modulus (GPa) = 27.02635 10.80529 18.91582
#
# Velocity S-wave (km/s) = 3.72666 2.35638 3.11773
# Velocity P-wave (km/s) = 5.65572 5.20221 5.43370
#
# Compressibility (1/GPa) = 0.03814993
#
# Stress axis : x y z
#
# Youngs Moduli (GPa) = 37.91928 50.96640 66.97827
#
# Poissons Ratio (x) = -0.29422 0.75271
# Poissons Ratio (y) = -0.21890 0.39659
# Poissons Ratio (z) = 0.42614 0.30178
#
# Static dielectric constant tensor:
#      x y z
#    x 1.680210 0.000000 0.011880 
#    y 0.000000 1.648370 0.000000 
#    z 0.011880 0.000000 1.697950 
# 
# From -- ./inp_files/76302.got.cif
#   From: 2010.05.17/outbox.cif.g08.bks.cpg/sg13_39_cif.got.tgz:76302.got - 2010.06.03 16:44:36.
