data_PCOD9229409
_publ_section_title
;
Structure prediction by ZEFSAII (Michael W. Deem and Ramdas Pophale) SiO2 
 PCOD9229409
Probable space group: P 2/C
;
_chemical_formula_sum "Si O2"
_cell_formula_units_Z 32
_cell_length_a 10.132113
_cell_length_b 16.416133
_cell_length_c 11.542845
_cell_angle_alpha 90.000000
_cell_angle_beta 46.894179
_cell_angle_gamma 90.000000
_cell_volume 1401.721869
_symmetry_space_group_name_H-M "P 2/C"
_symmetry_group_IT_number 13
_symmetry_cell_setting 'monoclinic'
loop_
_space_group_symop_operation_xyz
x,y,z
-x,y,1/2-z
-x,-y,-z
x,-y,1/2+z
loop_
_atom_site_type_symbol
_atom_site_label
_atom_site_fract_x
_atom_site_fract_y
_atom_site_fract_z
Si Si1 0.211620 0.461509 0.084291
Si Si2 0.564451 0.610302 0.494230
Si Si3 0.705040 0.333188 0.663157
Si Si4 0.185006 0.906291 0.210350
Si Si5 0.250282 0.862765 0.831870
Si Si6 0.330318 0.017543 0.936934
Si Si7 0.127325 0.159241 0.992721
Si Si8 0.609650 0.214584 0.042662
O O1 0.308413 0.549179 0.009423
O O2 0.000000 0.466171 0.250000
O O3 0.364461 0.423761 0.081515
O O4 0.223771 0.404571 0.963863
O O5 0.678594 0.631262 0.308398
O O6 0.538557 0.695880 0.572053
O O7 0.500000 0.312483 0.750000
O O8 0.816118 0.250768 0.570905
O O9 0.145733 0.899266 0.368275
O O10 0.000000 0.912922 0.250000
O O11 0.311310 0.975180 0.076036
O O12 0.279776 0.819679 0.130153
O O13 0.240663 0.946494 0.909437
O O14 0.255631 0.794540 0.929991
O O15 0.444977 0.848282 0.659600
O O16 0.082739 0.846755 0.851102
O O17 0.500000 0.033643 0.750000
O O18 0.248819 0.107156 0.005842
#
# Coordination Sequence:
#
# PCOD9229409 Si02
#       8
#     4   4   4   4   4   4   4   4
#     4  10  24  44  64  98 136 166 215 269 322 403
#     4  10  22  43  70  93 131 175 208 265 337 383
#     4  10  23  44  64  94 133 166 216 266 322 401
#     4  11  21  37  62  89 121 163 222 269 309 381
#     4  10  21  38  59  93 130 158 217 277 309 382
#     4  11  22  41  57  88 134 166 216 272 321 382
#     4  12  23  38  67  90 122 180 215 266 333 376
#     4  10  19  40  63  93 124 163 212 269 318 379
#
# _framework density 22.829063999999999
#
# number of rings (size 3 to 8) (size 9 to 14) (size 15 to 20)
#    0.000    1.500    6.250    0.750    1.750    2.500 
#   11.250    0.625    0.000    0.000    0.000    0.000 
#    0.000    0.000    0.000    0.000    0.000    0.000 
#
# Total GULP energy -178332.348057 kJ/mol
# GULP energy per Si atom -5572.885877 kJ/mol
# Density = 2.277710 g / cm^3
# Si number density = 22.829064 Si / 1000 Ang^3
#
#
#
# Elastic Constant Matrix: (Units=GPa)
#
#
# Indices 1 2 3 4 5 6 
#
# 1 25.6861 27.7107 28.1000 0.0000 -9.6859 0.0000
# 2 27.7107 103.2033 33.8862 0.0000 -6.0001 0.0000
# 3 28.1000 33.8862 100.0859 0.0000 -17.1902 0.0000
# 4 0.0000 0.0000 0.0000 20.7855 0.0000 7.4116
# 5 -9.6859 -6.0001 -17.1902 0.0000 34.1184 0.0000
# 6 0.0000 0.0000 0.0000 7.4116 0.0000 7.6913
#
#
#
# Elastic Compliance Matrix: (Units=1/GPa)
#
#
# Indices 1 2 3 4 5 6 
#
# 1 0.074403 -0.014737 -0.013922 0.000000 0.011516 0.000000
# 2 -0.014737 0.013821 -0.000923 0.000000 -0.002218 0.000000
# 3 -0.013922 -0.000923 0.014785 0.000000 0.003335 0.000000
# 4 0.000000 0.000000 0.000000 0.073296 0.000000 -0.070631
# 5 0.011516 -0.002218 0.003335 0.000000 0.033869 0.000000
# 6 0.000000 0.000000 0.000000 -0.070631 0.000000 0.198080
#
#
# Mechanical properties :
#
#
# Convention : Reuss Voigt Hill
#
# Bulk Modulus (GPa) = 22.80721 45.37436 34.09078
# Shear Modulus (GPa) = 10.37278 21.80426 16.08852
#
# Velocity S-wave (km/s) = 2.13390 3.09384 2.65757
# Velocity P-wave (km/s) = 4.01042 5.71676 4.93785
#
# Compressibility (1/GPa) = 0.04384579
#
# Stress axis : x y z
#
# Youngs Moduli (GPa) = 13.44039 72.35598 67.63495
#
# Poissons Ratio (x) = 1.06630 0.94160
# Poissons Ratio (y) = 0.19807 0.06241
# Poissons Ratio (z) = 0.18711 0.06676
#
# Static dielectric constant tensor:
#      x y z
#    x 1.962410 0.000000 0.014610 
#    y 0.000000 1.835450 0.000000 
#    z 0.014610 0.000000 1.892830 
# 
# From -- ./inp_files/51473.got.cif
#   From: 2010.05.17/outbox.cif.g08.bks.cpg/sg13_26_cif.got.tgz:51473.got - 2010.06.03 16:44:36.
