data_PCOD9229931
_publ_section_title
;
Structure prediction by ZEFSAII (Michael W. Deem and Ramdas Pophale) SiO2 
 PCOD9229931
Probable space group: P 2/C
;
_chemical_formula_sum "Si O2"
_cell_formula_units_Z 32
_cell_length_a 8.171674
_cell_length_b 11.433329
_cell_length_c 19.866092
_cell_angle_alpha 90.000000
_cell_angle_beta 122.810776
_cell_angle_gamma 90.000000
_cell_volume 1559.967880
_symmetry_space_group_name_H-M "P 2/C"
_symmetry_group_IT_number 13
_symmetry_cell_setting 'monoclinic'
loop_
_space_group_symop_operation_xyz
x,y,z
-x,y,1/2-z
-x,-y,-z
x,-y,1/2+z
loop_
_atom_site_type_symbol
_atom_site_label
_atom_site_fract_x
_atom_site_fract_y
_atom_site_fract_z
Si Si1 0.314182 0.733856 0.665115
Si Si2 0.110236 0.079057 0.665129
Si Si3 0.841630 0.162463 0.957201
Si Si4 0.507797 0.879334 0.593968
Si Si5 0.877931 0.612969 0.990446
Si Si6 0.426243 0.140748 0.843076
Si Si7 0.761960 0.247125 0.577354
Si Si8 0.915081 0.845055 0.627650
O O1 0.500000 0.702729 0.750000
O O2 0.395419 0.840756 0.636966
O O3 0.274566 0.631931 0.602920
O O4 0.111927 0.766082 0.659530
O O5 0.111899 0.057902 0.584405
O O6 0.302356 0.104139 0.750629
O O7 0.972194 0.190774 0.637560
O O8 0.002806 0.967569 0.671458
O O9 0.636700 0.195472 0.878349
O O10 0.989397 0.270088 0.985591
O O11 0.826461 0.138549 0.032714
O O12 0.366818 0.834607 0.502333
O O13 0.722739 0.820404 0.630149
O O14 0.541273 0.018407 0.608450
O O15 0.783275 0.630095 0.042917
O O16 0.000000 0.500000 0.000000
O O17 0.329451 0.235590 0.870079
#
# Coordination Sequence:
#
# PCOD9229931 Si02
#       8
#     4   4   4   4   4   4   4   4
#     4  10  22  37  59  92 120 147 198 255 297 349
#     4  11  21  31  49  83 123 163 190 231 282 358
#     4  10  21  36  56  80 111 153 203 248 289 354
#     4  11  21  35  58  84 123 168 196 230 284 363
#     4   9  21  43  64  79 104 151 202 251 310 355
#     4  12  20  32  52  85 125 156 195 229 292 353
#     4  10  20  35  54  80 113 153 198 242 284 352
#     4  11  20  36  57  83 122 167 199 226 288 356
#
# _framework density 20.513244
#
# number of rings (size 3 to 8) (size 9 to 14) (size 15 to 20)
#    0.000    1.500    2.500    4.500    0.000    1.500 
#    0.000    3.125    0.000    0.000    6.500    0.000 
#    0.000    0.000    0.000    0.000    0.000    0.000 
#
# Total GULP energy -178140.406124 kJ/mol
# GULP energy per Si atom -5566.887691 kJ/mol
# Density = 2.046656 g / cm^3
# Si number density = 20.513244 Si / 1000 Ang^3
#
#
#
# Elastic Constant Matrix: (Units=GPa)
#
#
# Indices 1 2 3 4 5 6 
#
# 1 75.6017 8.7916 13.6306 0.0000 11.3511 0.0000
# 2 8.7916 34.5220 13.9313 0.0000 -6.2698 0.0000
# 3 13.6306 13.9313 127.7223 0.0000 22.1403 0.0000
# 4 0.0000 0.0000 0.0000 8.1087 0.0000 5.4542
# 5 11.3511 -6.2698 22.1403 0.0000 35.8953 0.0000
# 6 0.0000 0.0000 0.0000 5.4542 0.0000 25.7058
#
#
#
# Elastic Compliance Matrix: (Units=1/GPa)
#
#
# Indices 1 2 3 4 5 6 
#
# 1 0.014592 -0.004637 -0.000124 0.000000 -0.005348 0.000000
# 2 -0.004637 0.034100 -0.005051 0.000000 0.010538 0.000000
# 3 -0.000124 -0.005051 0.009562 0.000000 -0.006741 0.000000
# 4 0.000000 0.000000 0.000000 0.143856 0.000000 -0.030523
# 5 -0.005348 0.010538 -0.006741 0.000000 0.035548 0.000000
# 6 0.000000 0.000000 0.000000 -0.030523 0.000000 0.045378
#
#
# Mechanical properties :
#
#
# Convention : Reuss Voigt Hill
#
# Bulk Modulus (GPa) = 25.88755 34.50588 30.19672
# Shear Modulus (GPa) = 15.84591 27.37480 21.61036
#
# Velocity S-wave (km/s) = 2.78235 3.65704 3.24926
# Velocity P-wave (km/s) = 4.79263 5.88979 5.36931
#
# Compressibility (1/GPa) = 0.03862861
#
# Stress axis : x y z
#
# Youngs Moduli (GPa) = 68.53167 29.32517 104.57757
#
# Poissons Ratio (x) = 0.13598 0.01302
# Poissons Ratio (y) = 0.31778 0.52826
# Poissons Ratio (z) = 0.00853 0.14813
#
# Static dielectric constant tensor:
#      x y z
#    x 1.932700 0.000000 -0.038320 
#    y 0.000000 1.698130 0.000000 
#    z -0.038320 0.000000 1.768500 
# 
# From -- ./inp_files/76475.got.cif
#   From: 2010.05.17/outbox.cif.g08.bks.cpg/sg13_39_cif.got.tgz:76475.got - 2010.06.03 16:44:36.
