data_PCOD9229581
_publ_section_title
;
Structure prediction by ZEFSAII (Michael W. Deem and Ramdas Pophale) SiO2 
 PCOD9229581
Probable space group: P 2/C
;
_chemical_formula_sum "Si O2"
_cell_formula_units_Z 28
_cell_length_a 21.393149
_cell_length_b 5.460561
_cell_length_c 22.892521
_cell_angle_alpha 90.000000
_cell_angle_beta 146.932177
_cell_angle_gamma 90.000000
_cell_volume 1459.166897
_symmetry_space_group_name_H-M "P 2/C"
_symmetry_group_IT_number 13
_symmetry_cell_setting 'monoclinic'
loop_
_space_group_symop_operation_xyz
x,y,z
-x,y,1/2-z
-x,-y,-z
x,-y,1/2+z
loop_
_atom_site_type_symbol
_atom_site_label
_atom_site_fract_x
_atom_site_fract_y
_atom_site_fract_z
Si Si1 0.459962 0.577719 0.374636
Si Si2 0.403259 0.811899 0.444548
Si Si3 0.261135 0.093478 0.046336
Si Si4 0.311718 0.129349 0.462482
Si Si5 0.625727 0.593458 0.319554
Si Si6 0.090728 0.585537 0.767217
Si Si7 0.996586 0.085367 0.818947
O O1 0.382545 0.658337 0.369458
O O2 0.535935 0.355926 0.459201
O O3 0.558884 0.772347 0.434808
O O4 0.389164 0.539306 0.260798
O O5 0.500000 0.000000 0.500000
O O6 0.305381 0.967433 0.398935
O O7 0.315199 0.352693 0.106746
O O8 0.309457 0.851519 0.117591
O O9 0.124325 0.112261 0.942746
O O10 0.288142 0.035790 0.999881
O O11 0.218202 0.346616 0.388467
O O12 0.500000 0.616820 0.250000
O O13 0.000000 0.571069 0.750000
O O14 0.076614 0.326725 0.724990
O O15 0.052528 0.823299 0.701030
O O16 0.000000 0.070524 0.750000
#
# Coordination Sequence:
#
# PCOD9229581 Si02
#       7
#     4   4   4   4   4   4   4
#     4  10  22  40  57  87 124 159 207 248 299 360
#     4   9  21  38  62  82 118 158 209 261 291 342
#     4  12  24  37  56  89 126 165 194 237 308 375
#     4  11  21  35  60  88 123 155 201 249 311 363
#     4  12  25  36  57  86 126 168 197 238 301 379
#     4  10  20  32  55  83 116 149 188 255 303 357
#     4  10  20  35  53  79 120 152 196 242 295 355
#
# _framework density 19.189031
#
# number of rings (size 3 to 8) (size 9 to 14) (size 15 to 20)
#    0.000    1.429    4.286    2.143    8.000    0.000 
#    0.000    0.000    0.000    0.000    0.000    6.000 
#    0.000    0.000    0.000    0.000    0.000    0.000 
#
# Total GULP energy -156169.354651 kJ/mol
# GULP energy per Si atom -5577.476952 kJ/mol
# Density = 1.914536 g / cm^3
# Si number density = 19.189031 Si / 1000 Ang^3
#
#
#
# Elastic Constant Matrix: (Units=GPa)
#
#
# Indices 1 2 3 4 5 6 
#
# 1 60.5705 16.5238 22.4060 0.0000 -10.3977 0.0000
# 2 16.5238 122.5174 34.0073 0.0000 0.8763 0.0000
# 3 22.4060 34.0073 90.6769 0.0000 -3.0792 0.0000
# 4 0.0000 0.0000 0.0000 20.8628 0.0000 -0.7423
# 5 -10.3977 0.8763 -3.0792 0.0000 15.6108 0.0000
# 6 0.0000 0.0000 0.0000 -0.7423 0.0000 18.3965
#
#
#
# Elastic Compliance Matrix: (Units=1/GPa)
#
#
# Indices 1 2 3 4 5 6 
#
# 1 0.020729 -0.001776 -0.004011 0.000000 0.013116 0.000000
# 2 -0.001776 0.009285 -0.003122 0.000000 -0.002320 0.000000
# 3 -0.004011 -0.003122 0.013194 0.000000 0.000106 0.000000
# 4 0.000000 0.000000 0.000000 0.048001 0.000000 0.001937
# 5 0.013116 -0.002320 0.000106 0.000000 0.072945 0.000000
# 6 0.000000 0.000000 0.000000 0.001937 0.000000 0.054436
#
#
# Mechanical properties :
#
#
# Convention : Reuss Voigt Hill
#
# Bulk Modulus (GPa) = 39.38565 46.62655 43.00610
# Shear Modulus (GPa) = 20.41882 24.36251 22.39067
#
# Velocity S-wave (km/s) = 3.26558 3.56702 3.41962
# Velocity P-wave (km/s) = 5.89816 6.42776 6.16865
#
# Compressibility (1/GPa) = 0.02538996
#
# Stress axis : x y z
#
# Youngs Moduli (GPa) = 48.24080 107.70222 75.79393
#
# Poissons Ratio (x) = 0.19131 0.30398
# Poissons Ratio (y) = 0.08569 0.23663
# Poissons Ratio (z) = 0.19347 0.33625
#
# Static dielectric constant tensor:
#      x y z
#    x 1.666330 0.000000 0.013340 
#    y 0.000000 1.776280 0.000000 
#    z 0.013340 0.000000 1.671890 
# 
# From -- ./inp_files/88314.got.cif
#   From: 2010.05.17/outbox.cif.g08.bks.cpg/sg13_45_cif.got.tgz:88314.got - 2010.06.03 16:44:36.
