data_PCOD9229104
_publ_section_title
;
Structure prediction by ZEFSAII (Michael W. Deem and Ramdas Pophale) SiO2 
 PCOD9229104
Probable space group: P 2/C
;
_chemical_formula_sum "Si O2"
_cell_formula_units_Z 22
_cell_length_a 12.588192
_cell_length_b 15.209640
_cell_length_c 9.131343
_cell_angle_alpha 90.000000
_cell_angle_beta 38.779031
_cell_angle_gamma 90.000000
_cell_volume 1094.995220
_symmetry_space_group_name_H-M "P 2/C"
_symmetry_group_IT_number 13
_symmetry_cell_setting 'monoclinic'
loop_
_space_group_symop_operation_xyz
x,y,z
-x,y,1/2-z
-x,-y,-z
x,-y,1/2+z
loop_
_atom_site_type_symbol
_atom_site_label
_atom_site_fract_x
_atom_site_fract_y
_atom_site_fract_z
Si Si1 0.000000 0.524232 0.750000
Si Si2 0.117729 0.049413 0.994879
Si Si3 0.439458 0.634110 0.980148
Si Si4 0.766391 0.543824 0.756850
Si Si5 0.417198 0.196358 0.676676
Si Si6 0.406285 0.073430 0.200520
O O1 0.871147 0.576773 0.784478
O O2 0.110397 0.468472 0.514951
O O3 0.000000 0.083832 0.250000
O O4 0.259990 0.127086 0.821156
O O5 0.226829 0.966367 0.932159
O O6 0.000000 0.000000 0.000000
O O7 0.500000 0.656508 0.750000
O O8 0.392725 0.602014 0.615164
O O9 0.309946 0.551948 0.117761
O O10 0.365244 0.713138 0.155890
O O11 0.500000 0.201274 0.750000
O O12 0.577032 0.160531 0.410455
O O13 0.500000 0.086425 0.250000
O O14 0.500000 0.000000 0.000000
#
# Coordination Sequence:
#
# PCOD9229104 Si02
#       6
#     2   4   4   4   4   4
#     4  10  20  40  64  94 128 158 214 270 332 374
#     4  11  21  38  63  91 123 156 205 263 321 382
#     4  11  23  41  65  94 131 175 227 262 315 399
#     4  10  22  40  68  96 127 175 223 266 321 393
#     4  11  24  40  62  91 127 170 217 266 320 388
#     4  10  19  37  62  85 116 163 208 249 309 391
#
# _framework density 20.091411999999998
#
# number of rings (size 3 to 8) (size 9 to 14) (size 15 to 20)
#    0.000    1.455    1.818    6.000    2.545    0.000 
#    1.636    3.636    4.000    0.000    0.000    0.000 
#    0.000    0.000    0.000    0.000    0.000    0.000 
#
# Total GULP energy -122510.974399 kJ/mol
# GULP energy per Si atom -5568.680655 kJ/mol
# Density = 2.004568 g / cm^3
# Si number density = 20.091412 Si / 1000 Ang^3
#
#
#
# Elastic Constant Matrix: (Units=GPa)
#
#
# Indices 1 2 3 4 5 6 
#
# 1 157.0918 46.6627 35.3548 0.0000 19.5807 0.0000
# 2 46.6627 73.6805 23.6050 0.0000 4.9438 0.0000
# 3 35.3548 23.6050 92.3010 0.0000 7.8490 0.0000
# 4 0.0000 0.0000 0.0000 21.4209 0.0000 2.1398
# 5 19.5807 4.9438 7.8490 0.0000 41.2549 0.0000
# 6 0.0000 0.0000 0.0000 2.1398 0.0000 11.8076
#
#
#
# Elastic Compliance Matrix: (Units=1/GPa)
#
#
# Indices 1 2 3 4 5 6 
#
# 1 0.008539 -0.004612 -0.001823 0.000000 -0.003153 0.000000
# 2 -0.004612 0.017321 -0.002717 0.000000 0.000630 0.000000
# 3 -0.001823 -0.002717 0.012325 0.000000 -0.001154 0.000000
# 4 0.000000 0.000000 0.000000 0.047544 0.000000 -0.008616
# 5 -0.003153 0.000630 -0.001154 0.000000 0.025880 0.000000
# 6 0.000000 0.000000 0.000000 -0.008616 0.000000 0.086253
#
#
# Mechanical properties :
#
#
# Convention : Reuss Voigt Hill
#
# Bulk Modulus (GPa) = 50.29783 59.36870 54.83327
# Shear Modulus (GPa) = 22.44227 29.39340 25.91783
#
# Velocity S-wave (km/s) = 3.34579 3.82905 3.59555
# Velocity P-wave (km/s) = 6.32571 7.01158 6.67746
#
# Compressibility (1/GPa) = 0.01988157
#
# Stress axis : x y z
#
# Youngs Moduli (GPa) = 117.10869 57.73299 81.13373
#
# Poissons Ratio (x) = 0.26628 0.14792
# Poissons Ratio (y) = 0.54013 0.22041
# Poissons Ratio (z) = 0.21350 0.15684
#
# Static dielectric constant tensor:
#      x y z
#    x 1.774640 0.000000 -0.060580 
#    y 0.000000 1.710940 0.000000 
#    z -0.060580 0.000000 1.738470 
# 
# From -- ./inp_files/16227.got.cif
#   From: 2010.05.17/outbox.cif.g08.bks.cpg/sg13_9_cif.got.tgz:16227.got - 2010.06.03 16:44:36.
