data_PCOD9229855
_publ_section_title
;
Structure prediction by ZEFSAII (Michael W. Deem and Ramdas Pophale) SiO2 
 PCOD9229855
Probable space group: P 2/C
;
_chemical_formula_sum "Si O2"
_cell_formula_units_Z 20
_cell_length_a 10.543082
_cell_length_b 11.054433
_cell_length_c 8.851620
_cell_angle_alpha 90.000000
_cell_angle_beta 77.552736
_cell_angle_gamma 90.000000
_cell_volume 1007.387960
_symmetry_space_group_name_H-M "P 2/C"
_symmetry_group_IT_number 13
_symmetry_cell_setting 'monoclinic'
loop_
_space_group_symop_operation_xyz
x,y,z
-x,y,1/2-z
-x,-y,-z
x,-y,1/2+z
loop_
_atom_site_type_symbol
_atom_site_label
_atom_site_fract_x
_atom_site_fract_y
_atom_site_fract_z
Si Si1 0.655105 0.149431 0.728971
Si Si2 0.207459 0.964931 0.035102
Si Si3 0.639517 0.407607 0.630657
Si Si4 0.876308 0.168119 0.214265
Si Si5 0.641752 0.352359 0.278866
O O1 0.500000 0.148127 0.750000
O O2 0.703990 0.283367 0.671317
O O3 0.713562 0.049360 0.601462
O O4 0.697410 0.116161 0.887181
O O5 0.113386 0.882244 0.958290
O O6 0.138003 0.054811 0.168687
O O7 0.500000 0.410696 0.750000
O O8 0.624135 0.396435 0.455529
O O9 0.697416 0.535837 0.666026
O O10 0.743732 0.243842 0.252914
O O11 0.000000 0.238054 0.250000
O O12 0.500000 0.317292 0.250000
#
# Coordination Sequence:
#
# PCOD9229855 Si02
#       5
#     4   4   4   4   4
#     4  10  20  34  59  93 124 149 198 250 303 356
#     4  10  22  38  60  84 121 163 198 243 303 364
#     4  10  21  37  61  89 126 155 199 241 307 358
#     4  11  24  42  63  87 122 160 204 247 302 360
#     4  11  23  39  65  90 120 159 204 249 300 355
#
# _framework density 19.853325999999999
#
# number of rings (size 3 to 8) (size 9 to 14) (size 15 to 20)
#    0.000    1.600    2.000    3.600    8.400    3.200 
#    0.000    1.000    0.000    0.000    0.000    0.000 
#    0.000    0.000    0.000    0.000    0.000    0.000 
#
# Total GULP energy -111646.656889 kJ/mol
# GULP energy per Si atom -5582.332844 kJ/mol
# Density = 1.980814 g / cm^3
# Si number density = 19.853326 Si / 1000 Ang^3
#
#
#
# Elastic Constant Matrix: (Units=GPa)
#
#
# Indices 1 2 3 4 5 6 
#
# 1 87.5329 45.1319 35.4238 0.0000 31.4750 0.0000
# 2 45.1319 82.4053 36.7721 0.0000 23.8563 0.0000
# 3 35.4238 36.7721 125.4275 0.0000 31.0713 0.0000
# 4 0.0000 0.0000 0.0000 8.1036 0.0000 -19.9437
# 5 31.4750 23.8563 31.0713 0.0000 28.4969 0.0000
# 6 0.0000 0.0000 0.0000 -19.9437 0.0000 -23.1533
#
#
#
# Elastic Compliance Matrix: (Units=1/GPa)
#
#
# Indices 1 2 3 4 5 6 
#
# 1 0.021246 -0.006479 0.000505 0.000000 -0.018594 0.000000
# 2 -0.006479 0.018324 -0.002076 0.000000 -0.005921 0.000000
# 3 0.000505 -0.002076 0.011161 0.000000 -0.010989 0.000000
# 4 0.000000 0.000000 0.000000 0.039553 0.000000 -0.034070
# 5 -0.018594 -0.005921 -0.010989 0.000000 0.072567 0.000000
# 6 0.000000 0.000000 0.000000 -0.034070 0.000000 -0.013843
#
#
# Mechanical properties :
#
#
# Convention : Reuss Voigt Hill
#
# Bulk Modulus (GPa) = 28.87473 58.89126 43.88300
# Shear Modulus (GPa) = 28.30453 14.55862 21.43157
#
# Velocity S-wave (km/s) = 3.77992 2.71091 3.28913
# Velocity P-wave (km/s) = 5.79879 6.28699 6.04782
#
# Compressibility (1/GPa) = 0.03463236
#
# Stress axis : x y z
#
# Youngs Moduli (GPa) = 47.06730 54.57416 89.59804
#
# Poissons Ratio (x) = 0.35357 -0.04525
# Poissons Ratio (y) = 0.30493 0.18596
# Poissons Ratio (z) = -0.02377 0.11327
#
# Static dielectric constant tensor:
#      x y z
#    x 1.727320 0.000000 0.012510 
#    y 0.000000 1.760210 0.000000 
#    z 0.012510 0.000000 1.690660 
# 
# From -- ./inp_files/11795.got.cif
#   From: 2010.05.17/outbox.cif.g08.bks.cpg/sg13_6_cif.got.tgz:11795.got - 2010.06.03 16:44:36.
