data_PCOD9229313
_publ_section_title
;
Structure prediction by ZEFSAII (Michael W. Deem and Ramdas Pophale) SiO2 
 PCOD9229313
Probable space group: P 2/C
;
_chemical_formula_sum "Si O2"
_cell_formula_units_Z 20
_cell_length_a 12.372741
_cell_length_b 9.979870
_cell_length_c 10.227233
_cell_angle_alpha 90.000000
_cell_angle_beta 48.282609
_cell_angle_gamma 90.000000
_cell_volume 942.630889
_symmetry_space_group_name_H-M "P 2/C"
_symmetry_group_IT_number 13
_symmetry_cell_setting 'monoclinic'
loop_
_space_group_symop_operation_xyz
x,y,z
-x,y,1/2-z
-x,-y,-z
x,-y,1/2+z
loop_
_atom_site_type_symbol
_atom_site_label
_atom_site_fract_x
_atom_site_fract_y
_atom_site_fract_z
Si Si1 0.199373 0.855363 0.901896
Si Si2 0.023436 0.385168 0.877309
Si Si3 0.348115 0.720974 0.119909
Si Si4 0.729751 0.987385 0.920072
Si Si5 0.500000 0.275374 0.250000
Si Si6 0.500000 0.204525 0.750000
O O1 0.365295 0.807996 0.796937
O O2 0.193218 0.915206 0.762542
O O3 0.171059 0.961020 0.040726
O O4 0.091694 0.732678 0.006388
O O5 0.184526 0.327545 0.757242
O O6 0.000000 0.437777 0.750000
O O7 0.000000 0.500000 0.000000
O O8 0.343185 0.879595 0.084916
O O9 0.422672 0.710176 0.199705
O O10 0.431136 0.652217 0.931412
O O11 0.613719 0.890000 0.081759
#
# Coordination Sequence:
#
# PCOD9229313 Si02
#       6
#     4   4   4   4   2   2
#     4  11  23  41  69 104 143 179 223 279 357 418
#     4  12  28  53  70  90 139 194 245 289 334 397
#     4  11  23  41  68 101 137 180 221 282 348 417
#     4  11  20  35  69 101 145 172 211 278 354 419
#     4  10  19  38  73  96 138 175 214 279 346 418
#     4  12  21  36  67 118 142 175 214 279 364 434
#
# _framework density 21.217213000000001
#
# number of rings (size 3 to 8) (size 9 to 14) (size 15 to 20)
#    0.000    0.800    8.000    3.000    0.000    2.400 
#    3.600    2.000    0.000    0.000    0.000    0.000 
#    0.000    0.000    0.000    0.000    0.000    0.000 
#
# Total GULP energy -111824.887421 kJ/mol
# GULP energy per Si atom -5591.244371 kJ/mol
# Density = 2.116892 g / cm^3
# Si number density = 21.217213 Si / 1000 Ang^3
#
#
#
# Elastic Constant Matrix: (Units=GPa)
#
#
# Indices 1 2 3 4 5 6 
#
# 1 133.5597 64.8089 100.7886 0.0000 16.0135 0.0000
# 2 64.8089 39.8379 62.2155 0.0000 9.2871 0.0000
# 3 100.7886 62.2155 184.1920 0.0000 30.7263 0.0000
# 4 0.0000 0.0000 0.0000 -163.4156 0.0000 163.6869
# 5 16.0135 9.2871 30.7263 0.0000 49.9265 0.0000
# 6 0.0000 0.0000 0.0000 163.6869 0.0000 -121.1722
#
#
#
# Elastic Compliance Matrix: (Units=1/GPa)
#
#
# Indices 1 2 3 4 5 6 
#
# 1 0.035582 -0.058202 0.000320 0.000000 -0.000783 0.000000
# 2 -0.058202 0.148404 -0.018709 0.000000 0.002577 0.000000
# 3 0.000320 -0.018709 0.012270 0.000000 -0.004174 0.000000
# 4 0.000000 0.000000 0.000000 0.017330 0.000000 0.023411
# 5 -0.000783 0.002577 -0.004174 0.000000 0.022370 0.000000
# 6 0.000000 0.000000 0.000000 0.023411 0.000000 0.023372
#
#
# Mechanical properties :
#
#
# Convention : Reuss Voigt Hill
#
# Bulk Modulus (GPa) = 23.21677 90.35730 56.78703
# Shear Modulus (GPa) = 11.71319 -38.28047 -13.28364
#
# Velocity S-wave (km/s) = 2.35215 -4.25222 -2.50487
# Velocity P-wave (km/s) = 4.28287 4.30938 4.29615
#
# Compressibility (1/GPa) = 0.04307231
#
# Stress axis : x y z
#
# Youngs Moduli (GPa) = 28.10386 6.73837 81.49986
#
# Poissons Ratio (x) = 0.39219 -0.02604
# Poissons Ratio (y) = 1.63571 1.52479
# Poissons Ratio (z) = -0.00898 0.12607
#
# Static dielectric constant tensor:
#      x y z
#    x 1.759170 0.000000 0.012800 
#    y 0.000000 1.748110 0.000000 
#    z 0.012800 0.000000 1.781350 
# 
# From -- ./inp_files/11716.got.cif
#   From: 2010.05.17/outbox.cif.g08.bks.cpg/sg13_6_cif.got.tgz:11716.got - 2010.06.03 16:44:36.
