data_PCOD9229580
_publ_section_title
;
Structure prediction by ZEFSAII (Michael W. Deem and Ramdas Pophale) SiO2 
 PCOD9229580
Probable space group: P 2/C
;
_chemical_formula_sum "Si O2"
_cell_formula_units_Z 32
_cell_length_a 20.492737
_cell_length_b 11.386194
_cell_length_c 8.737706
_cell_angle_alpha 90.000000
_cell_angle_beta 123.249795
_cell_angle_gamma 90.000000
_cell_volume 1705.029508
_symmetry_space_group_name_H-M "P 2/C"
_symmetry_group_IT_number 13
_symmetry_cell_setting 'monoclinic'
loop_
_space_group_symop_operation_xyz
x,y,z
-x,y,1/2-z
-x,-y,-z
x,-y,1/2+z
loop_
_atom_site_type_symbol
_atom_site_label
_atom_site_fract_x
_atom_site_fract_y
_atom_site_fract_z
Si Si1 0.654140 0.104979 0.574122
Si Si2 0.660380 0.489114 0.726917
Si Si3 0.835304 0.078865 0.879388
Si Si4 0.591876 0.131618 0.832798
Si Si5 0.589071 0.664129 0.880035
Si Si6 0.864099 0.836682 0.758586
Si Si7 0.717887 0.669193 0.556030
Si Si8 0.016026 0.869574 0.089835
O O1 0.744831 0.106254 0.737346
O O2 0.605394 0.120522 0.667996
O O3 0.638593 0.216906 0.446860
O O4 0.627241 0.985551 0.457102
O O5 0.613597 0.573609 0.780521
O O6 0.603954 0.406448 0.555754
O O7 0.706624 0.573739 0.673171
O O8 0.714698 0.402636 0.893916
O O9 0.843230 0.941202 0.849743
O O10 0.861544 0.106774 0.085773
O O11 0.894382 0.149248 0.843380
O O12 0.500000 0.144123 0.750000
O O13 0.644263 0.241128 0.957713
O O14 0.500000 0.698723 0.750000
O O15 0.796876 0.740827 0.676361
O O16 0.950313 0.794346 0.917310
O O17 0.000000 0.133628 0.750000
O O18 0.000000 0.000000 0.000000
#
# Coordination Sequence:
#
# PCOD9229580 Si02
#       8
#     4   4   4   4   4   4   4   4
#     4  12  24  41  59  92 125 171 204 254 316 387
#     4  10  24  41  61  86 115 158 216 273 310 359
#     4  11  19  35  57  89 131 161 203 240 301 382
#     4  12  26  41  61  88 132 165 214 255 322 387
#     4  11  23  39  60  84 114 154 211 261 317 360
#     4  11  20  36  60  89 127 166 200 244 311 369
#     4  11  23  43  64  90 121 165 211 269 319 371
#     4  10  20  32  54  90 130 165 197 239 296 367
#
# _framework density 18.768003
#
# number of rings (size 3 to 8) (size 9 to 14) (size 15 to 20)
#    0.000    1.000    3.750    4.500    3.500    4.000 
#    0.000    0.000    0.000    0.000    0.000   21.875 
#    0.000    0.000    0.000    0.000    0.000    0.000 
#
# Total GULP energy -178756.724227 kJ/mol
# GULP energy per Si atom -5586.147632 kJ/mol
# Density = 1.872529 g / cm^3
# Si number density = 18.768003 Si / 1000 Ang^3
#
#
#
# Elastic Constant Matrix: (Units=GPa)
#
#
# Indices 1 2 3 4 5 6 
#
# 1 72.4768 23.2306 38.1883 0.0000 12.7013 0.0000
# 2 23.2306 93.9742 43.2461 0.0000 3.2071 0.0000
# 3 38.1883 43.2461 97.2236 0.0000 -0.2337 0.0000
# 4 0.0000 0.0000 0.0000 22.5933 0.0000 -8.4721
# 5 12.7013 3.2071 -0.2337 0.0000 22.8541 0.0000
# 6 0.0000 0.0000 0.0000 -8.4721 0.0000 6.1111
#
#
#
# Elastic Compliance Matrix: (Units=1/GPa)
#
#
# Indices 1 2 3 4 5 6 
#
# 1 0.019978 -0.001181 -0.007348 0.000000 -0.011012 0.000000
# 2 -0.001181 0.013536 -0.005560 0.000000 -0.001300 0.000000
# 3 -0.007348 -0.005560 0.015657 0.000000 0.005024 0.000000
# 4 0.000000 0.000000 0.000000 0.092184 0.000000 0.127800
# 5 -0.011012 -0.001300 0.005024 0.000000 0.050110 0.000000
# 6 0.000000 0.000000 0.000000 0.127800 0.000000 0.340814
#
#
# Mechanical properties :
#
#
# Convention : Reuss Voigt Hill
#
# Bulk Modulus (GPa) = 47.63692 52.55606 50.09649
# Shear Modulus (GPa) = 8.81126 20.91232 14.86179
#
# Velocity S-wave (km/s) = 2.16911 3.34167 2.81707
# Velocity P-wave (km/s) = 5.63120 6.55384 6.10996
#
# Compressibility (1/GPa) = 0.02099212
#
# Stress axis : x y z
#
# Youngs Moduli (GPa) = 50.05584 73.87503 63.86858
#
# Poissons Ratio (x) = 0.08726 0.46931
# Poissons Ratio (y) = 0.05913 0.35513
# Poissons Ratio (z) = 0.36781 0.41077
#
# Static dielectric constant tensor:
#      x y z
#    x 1.679460 0.000000 0.007920 
#    y 0.000000 1.631830 0.000000 
#    z 0.007920 0.000000 1.676960 
# 
# From -- ./inp_files/23381.got.cif
#   From: 2010.05.17/outbox.cif.g08.bks.cpg/sg13_12_cif.got.tgz:23381.got - 2010.06.03 16:44:36.
