data_PCOD9229583
_publ_section_title
;
Structure prediction by ZEFSAII (Michael W. Deem and Ramdas Pophale) SiO2 
 PCOD9229583
Probable space group: P 2/C
;
_chemical_formula_sum "Si O2"
_cell_formula_units_Z 32
_cell_length_a 14.897564
_cell_length_b 17.101779
_cell_length_c 14.446317
_cell_angle_alpha 90.000000
_cell_angle_beta 29.302562
_cell_angle_gamma 90.000000
_cell_volume 1801.344120
_symmetry_space_group_name_H-M "P 2/C"
_symmetry_group_IT_number 13
_symmetry_cell_setting 'monoclinic'
loop_
_space_group_symop_operation_xyz
x,y,z
-x,y,1/2-z
-x,-y,-z
x,-y,1/2+z
loop_
_atom_site_type_symbol
_atom_site_label
_atom_site_fract_x
_atom_site_fract_y
_atom_site_fract_z
Si Si1 0.958601 0.650848 0.691583
Si Si2 0.718476 0.443553 0.539539
Si Si3 0.107765 0.268692 0.440189
Si Si4 0.418545 0.087906 0.426213
Si Si5 0.201516 0.093878 0.345786
Si Si6 0.281936 0.626531 0.941411
Si Si7 0.166466 0.766188 0.166762
Si Si8 0.061984 0.012727 0.293803
O O1 0.147510 0.601747 0.509029
O O2 0.000000 0.698130 0.750000
O O3 0.907244 0.699895 0.649521
O O4 0.797869 0.591797 0.871406
O O5 0.500000 0.431440 0.750000
O O6 0.761329 0.535345 0.508786
O O7 0.210883 0.186358 0.354669
O O8 0.200598 0.333778 0.422153
O O9 0.911748 0.245704 0.660738
O O10 0.500000 0.077552 0.250000
O O11 0.588050 0.068394 0.340204
O O12 0.336251 0.175523 0.507789
O O13 0.247250 0.034188 0.605294
O O14 0.085340 0.047856 0.528835
O O15 0.104190 0.074902 0.336211
O O16 0.500000 0.633149 0.750000
O O17 0.208793 0.680889 0.089084
O O18 0.000000 0.797062 0.250000
O O19 0.000000 0.044589 0.250000
#
# Coordination Sequence:
#
# PCOD9229583 Si02
#       8
#     4   4   4   4   4   4   4   4
#     4   8  21  38  57  80 115 155 198 234 283 339
#     4   8  18  40  57  78 115 150 194 247 280 337
#     4  11  21  38  59  86 118 159 188 238 297 341
#     4  12  20  37  63  88 120 153 186 241 299 341
#     4  11  24  39  61  86 121 147 202 239 280 353
#     4  10  20  35  56  89 118 145 191 245 298 352
#     4  10  20  32  55  89 121 149 187 236 297 351
#     4  11  23  42  60  88 115 159 190 236 294 342
#
# _framework density 17.764512
#
# number of rings (size 3 to 8) (size 9 to 14) (size 15 to 20)
#    0.750    1.000    2.500    3.375    5.250    1.000 
#    4.500    1.250    0.000    0.750    0.000    0.000 
#    0.000    0.000    0.000    0.000    0.000    0.000 
#
# Total GULP energy -178207.135403 kJ/mol
# GULP energy per Si atom -5568.972981 kJ/mol
# Density = 1.772408 g / cm^3
# Si number density = 17.764512 Si / 1000 Ang^3
#
#
#
# Elastic Constant Matrix: (Units=GPa)
#
#
# Indices 1 2 3 4 5 6 
#
# 1 69.9395 5.4947 25.3544 0.0000 11.7844 0.0000
# 2 5.4947 22.9225 13.3262 0.0000 3.6998 0.0000
# 3 25.3544 13.3262 89.8901 0.0000 -10.1624 0.0000
# 4 0.0000 0.0000 0.0000 15.9530 0.0000 6.7944
# 5 11.7844 3.6998 -10.1624 0.0000 30.7941 0.0000
# 6 0.0000 0.0000 0.0000 6.7944 0.0000 20.0303
#
#
#
# Elastic Compliance Matrix: (Units=1/GPa)
#
#
# Indices 1 2 3 4 5 6 
#
# 1 0.018014 0.000753 -0.006214 0.000000 -0.009035 0.000000
# 2 0.000753 0.049950 -0.008651 0.000000 -0.009144 0.000000
# 3 -0.006214 -0.008651 0.015110 0.000000 0.008404 0.000000
# 4 0.000000 0.000000 0.000000 0.073269 0.000000 -0.024854
# 5 -0.009035 -0.009144 0.008404 0.000000 0.039803 0.000000
# 6 0.000000 0.000000 0.000000 -0.024854 0.000000 0.058355
#
#
# Mechanical properties :
#
#
# Convention : Reuss Voigt Hill
#
# Bulk Modulus (GPa) = 18.23182 30.12253 24.17718
# Shear Modulus (GPa) = 16.61075 22.59393 19.60234
#
# Velocity S-wave (km/s) = 3.06118 3.57018 3.32543
# Velocity P-wave (km/s) = 4.77282 5.82995 5.32767
#
# Compressibility (1/GPa) = 0.05484915
#
# Stress axis : x y z
#
# Youngs Moduli (GPa) = 55.51255 20.01994 66.18104
#
# Poissons Ratio (x) = -0.01507 0.41125
# Poissons Ratio (y) = -0.04179 0.57255
# Poissons Ratio (z) = 0.34496 0.17320
#
# Static dielectric constant tensor:
#      x y z
#    x 1.629470 0.000000 -0.028080 
#    y 0.000000 1.605270 0.000000 
#    z -0.028080 0.000000 1.653100 
# 
# From -- ./inp_files/53925.got.cif
#   From: 2010.05.17/outbox.cif.g08.bks.cpg/sg13_27_cif.got.tgz:53925.got - 2010.06.03 16:44:36.
