data_PCOD9229478
_publ_section_title
;
Structure prediction by ZEFSAII (Michael W. Deem and Ramdas Pophale) SiO2 
 PCOD9229478
Probable space group: P 2/C
;
_chemical_formula_sum "Si O2"
_cell_formula_units_Z 22
_cell_length_a 11.881208
_cell_length_b 7.003195
_cell_length_c 17.939893
_cell_angle_alpha 90.000000
_cell_angle_beta 44.698689
_cell_angle_gamma 90.000000
_cell_volume 1049.942989
_symmetry_space_group_name_H-M "P 2/C"
_symmetry_group_IT_number 13
_symmetry_cell_setting 'monoclinic'
loop_
_space_group_symop_operation_xyz
x,y,z
-x,y,1/2-z
-x,-y,-z
x,-y,1/2+z
loop_
_atom_site_type_symbol
_atom_site_label
_atom_site_fract_x
_atom_site_fract_y
_atom_site_fract_z
Si Si1 0.602905 0.638869 0.127930
Si Si2 0.000000 0.484692 0.250000
Si Si3 0.219591 0.309119 0.545996
Si Si4 0.882366 0.929586 0.991839
Si Si5 0.603049 0.140293 0.899357
Si Si6 0.884515 0.130031 0.244634
O O1 0.500000 0.593825 0.250000
O O2 0.496161 0.744826 0.115179
O O3 0.684983 0.455159 0.051364
O O4 0.744217 0.787026 0.082048
O O5 0.948362 0.604006 0.345975
O O6 0.856834 0.334227 0.297295
O O7 0.193942 0.110706 0.514993
O O8 0.311667 0.275064 0.580419
O O9 0.001815 0.828181 0.877770
O O10 0.000000 0.000000 0.000000
O O11 0.734806 0.001446 0.799602
O O12 0.500000 0.000000 0.000000
O O13 0.000000 0.024148 0.250000
#
# Coordination Sequence:
#
# PCOD9229478 Si02
#       6
#     4   2   4   4   4   4
#     4  12  27  47  66 108 145 180 229 285 355 415
#     4  10  20  40  74 104 132 168 240 290 318 408
#     4  12  23  45  74 101 137 180 236 285 342 412
#     4  12  25  47  70  95 139 188 227 281 345 405
#     4  12  22  44  74 101 140 183 229 286 349 414
#     4  10  19  42  69  98 134 176 227 277 334 400
#
# _framework density 20.953517000000002
#
# number of rings (size 3 to 8) (size 9 to 14) (size 15 to 20)
#    0.545    0.000    5.455    3.818    0.000    1.455 
#    6.545    0.000    0.000    0.000    0.000    0.000 
#    0.000    0.000    0.000    0.000    0.000    0.000 
#
# Total GULP energy -122861.548214 kJ/mol
# GULP energy per Si atom -5584.615828 kJ/mol
# Density = 2.090583 g / cm^3
# Si number density = 20.953517 Si / 1000 Ang^3
#
#
#
# Elastic Constant Matrix: (Units=GPa)
#
#
# Indices 1 2 3 4 5 6 
#
# 1 70.6279 -7.9372 -3.3659 0.0000 3.8491 0.0000
# 2 -7.9372 88.3504 33.2893 0.0000 -6.1480 0.0000
# 3 -3.3659 33.2893 125.2327 0.0000 2.4482 0.0000
# 4 0.0000 0.0000 0.0000 32.6100 0.0000 -5.5272
# 5 3.8491 -6.1480 2.4482 0.0000 29.1271 0.0000
# 6 0.0000 0.0000 0.0000 -5.5272 0.0000 10.3133
#
#
#
# Elastic Compliance Matrix: (Units=1/GPa)
#
#
# Indices 1 2 3 4 5 6 
#
# 1 0.014383 0.001131 0.000119 0.000000 -0.001672 0.000000
# 2 0.001131 0.012924 -0.003461 0.000000 0.002869 0.000000
# 3 0.000119 -0.003461 0.008938 0.000000 -0.001497 0.000000
# 4 0.000000 0.000000 0.000000 0.033729 0.000000 0.018077
# 5 -0.001672 0.002869 -0.001497 0.000000 0.035285 0.000000
# 6 0.000000 0.000000 0.000000 0.018077 0.000000 0.106650
#
#
# Mechanical properties :
#
#
# Convention : Reuss Voigt Hill
#
# Bulk Modulus (GPa) = 31.42555 36.46483 33.94519
# Shear Modulus (GPa) = 22.03246 31.89176 26.96211
#
# Velocity S-wave (km/s) = 3.24619 3.90555 3.59103
# Velocity P-wave (km/s) = 5.39265 6.14640 5.78182
#
# Compressibility (1/GPa) = 0.03182124
#
# Stress axis : x y z
#
# Youngs Moduli (GPa) = 69.52849 77.37569 111.88646
#
# Poissons Ratio (x) = -0.08752 -0.01327
# Poissons Ratio (y) = -0.07864 0.38725
# Poissons Ratio (z) = -0.00825 0.26781
#
# Static dielectric constant tensor:
#      x y z
#    x 2.833090 0.000000 0.610360 
#    y 0.000000 1.786460 0.000000 
#    z 0.610360 0.000000 2.195760 
# 
# From -- ./inp_files/78962.got.cif
#   From: 2010.05.17/outbox.cif.g08.bks.cpg/sg13_40_cif.got.tgz:78962.got - 2010.06.03 16:44:36.
