data_PCOD9229956
_publ_section_title
;
Structure prediction by ZEFSAII (Michael W. Deem and Ramdas Pophale) SiO2 
 PCOD9229956
Probable space group: P 2/C
;
_chemical_formula_sum "Si O2"
_cell_formula_units_Z 32
_cell_length_a 11.919590
_cell_length_b 5.268742
_cell_length_c 31.262258
_cell_angle_alpha 90.000000
_cell_angle_beta 118.680882
_cell_angle_gamma 90.000000
_cell_volume 1722.423200
_symmetry_space_group_name_H-M "P 2/C"
_symmetry_group_IT_number 13
_symmetry_cell_setting 'monoclinic'
loop_
_space_group_symop_operation_xyz
x,y,z
-x,y,1/2-z
-x,-y,-z
x,-y,1/2+z
loop_
_atom_site_type_symbol
_atom_site_label
_atom_site_fract_x
_atom_site_fract_y
_atom_site_fract_z
Si Si1 0.234219 0.378851 0.292640
Si Si2 0.889379 0.343143 0.145086
Si Si3 0.495563 0.320509 0.843516
Si Si4 0.422265 0.813588 0.691571
Si Si5 0.347226 0.239361 0.446840
Si Si6 0.823196 0.885434 0.802072
Si Si7 0.491110 0.256860 0.940986
Si Si8 0.969830 0.736376 0.285797
O O1 0.197281 0.247271 0.330579
O O2 0.349222 0.577524 0.317957
O O3 0.250311 0.198941 0.254788
O O4 0.109831 0.531002 0.255346
O O5 0.802525 0.285687 0.088756
O O6 0.034013 0.237838 0.168439
O O7 0.914106 0.635303 0.164127
O O8 0.564717 0.564508 0.835359
O O9 0.530895 0.262092 0.898979
O O10 0.523555 0.067705 0.821245
O O11 0.500000 0.771807 0.750000
O O12 0.274071 0.849534 0.677542
O O13 0.391891 0.233604 0.504223
O O14 0.418677 0.480264 0.438513
O O15 0.398725 0.980851 0.434694
O O16 0.864372 0.170468 0.800001
O O17 0.000000 0.918375 0.250000
#
# Coordination Sequence:
#
# PCOD9229956 Si02
#       8
#     4   4   4   4   4   4   4   4
#     4  10  20  35  55  86 119 154 203 249 312 360
#     4  10  21  34  59  89 120 154 197 253 322 369
#     4  12  24  40  62  87 122 167 203 256 301 360
#     4  12  26  40  60  85 122 171 216 248 288 353
#     4  10  21  39  64  97 122 154 196 261 322 379
#     4  11  22  36  55  82 125 162 210 248 296 372
#     4  10  22  40  64  92 127 154 201 257 320 376
#     4   9  19  33  52  83 116 159 193 243 303 366
#
# _framework density 18.578476999999999
#
# number of rings (size 3 to 8) (size 9 to 14) (size 15 to 20)
#    0.000    1.500    2.500    3.750    5.250    0.000 
#    0.000    0.000    0.000    1.500    0.000    0.000 
#    0.000    0.000    0.000    0.000    0.000    0.000 
#
# Total GULP energy -178224.663716 kJ/mol
# GULP energy per Si atom -5569.520741 kJ/mol
# Density = 1.853619 g / cm^3
# Si number density = 18.578477 Si / 1000 Ang^3
#
#
#
# Elastic Constant Matrix: (Units=GPa)
#
#
# Indices 1 2 3 4 5 6 
#
# 1 117.2007 23.7599 56.9231 0.0000 -0.1349 0.0000
# 2 23.7599 79.0415 39.1055 0.0000 -5.3495 0.0000
# 3 56.9231 39.1055 121.4423 0.0000 2.7006 0.0000
# 4 0.0000 0.0000 0.0000 17.2844 0.0000 -7.4219
# 5 -0.1349 -5.3495 2.7006 0.0000 25.7362 0.0000
# 6 0.0000 0.0000 0.0000 -7.4219 0.0000 22.0806
#
#
#
# Elastic Compliance Matrix: (Units=1/GPa)
#
#
# Indices 1 2 3 4 5 6 
#
# 1 0.011106 -0.000871 -0.004934 0.000000 0.000395 0.000000
# 2 -0.000871 0.015466 -0.004655 0.000000 0.003699 0.000000
# 3 -0.004934 -0.004655 0.012096 0.000000 -0.002263 0.000000
# 4 0.000000 0.000000 0.000000 0.067615 0.000000 0.022727
# 5 0.000395 0.003699 -0.002263 0.000000 0.039864 0.000000
# 6 0.000000 0.000000 0.000000 0.022727 0.000000 0.052928
#
#
# Mechanical properties :
#
#
# Convention : Reuss Voigt Hill
#
# Bulk Modulus (GPa) = 56.33760 61.91794 59.12777
# Shear Modulus (GPa) = 22.13277 26.21332 24.17305
#
# Velocity S-wave (km/s) = 3.45528 3.76034 3.61103
# Velocity P-wave (km/s) = 6.80504 7.22867 7.02005
#
# Compressibility (1/GPa) = 0.01775013
#
# Stress axis : x y z
#
# Youngs Moduli (GPa) = 90.04393 64.65626 82.67093
#
# Poissons Ratio (x) = 0.05629 0.40790
# Poissons Ratio (y) = 0.07839 0.38479
# Poissons Ratio (z) = 0.44427 0.30094
#
# Static dielectric constant tensor:
#      x y z
#    x 1.745180 0.000000 -0.033680 
#    y 0.000000 1.807160 0.000000 
#    z -0.033680 0.000000 1.695830 
# 
# From -- ./inp_files/96343.got.cif
#   From: 2010.05.17/outbox.cif.g08.bks.cpg/sg13_49_cif.got.tgz:96343.got - 2010.06.03 16:44:36.
