data_PCOD9229446
_publ_section_title
;
Structure prediction by ZEFSAII (Michael W. Deem and Ramdas Pophale) SiO2 
 PCOD9229446
Probable space group: P 2/C
;
_chemical_formula_sum "Si O2"
_cell_formula_units_Z 30
_cell_length_a 14.093396
_cell_length_b 14.061761
_cell_length_c 17.039008
_cell_angle_alpha 90.000000
_cell_angle_beta 23.566798
_cell_angle_gamma 90.000000
_cell_volume 1350.087634
_symmetry_space_group_name_H-M "P 2/C"
_symmetry_group_IT_number 13
_symmetry_cell_setting 'monoclinic'
loop_
_space_group_symop_operation_xyz
x,y,z
-x,y,1/2-z
-x,-y,-z
x,-y,1/2+z
loop_
_atom_site_type_symbol
_atom_site_label
_atom_site_fract_x
_atom_site_fract_y
_atom_site_fract_z
Si Si1 0.011231 0.144313 0.149031
Si Si2 0.567733 0.438435 0.350902
Si Si3 0.746277 0.978447 0.151626
Si Si4 0.360485 0.355794 0.654352
Si Si5 0.519234 0.170484 0.121813
Si Si6 0.500000 0.680943 0.750000
Si Si7 0.488195 0.848755 0.040981
Si Si8 0.065338 0.700503 0.914754
O O1 0.745857 0.106607 0.330613
O O2 0.049022 0.239989 0.069356
O O3 0.000000 0.159285 0.250000
O O4 0.198037 0.068709 0.974619
O O5 0.366996 0.391956 0.559140
O O6 0.555144 0.551134 0.362982
O O7 0.578221 0.393059 0.257465
O O8 0.812944 0.398538 0.203134
O O9 0.632678 0.901905 0.296591
O O10 0.581766 0.070788 0.272463
O O11 0.000000 0.000000 0.000000
O O12 0.522654 0.262213 0.536018
O O13 0.115562 0.321287 0.878156
O O14 0.648035 0.239824 0.086517
O O15 0.280625 0.232082 0.281735
O O16 0.643111 0.152835 0.943769
#
# Coordination Sequence:
#
# PCOD9229446 Si02
#       8
#     4   4   4   4   4   2   4   4
#     4  11  24  39  57  88 127 152 205 260 298 356
#     4  10  22  38  63  88 121 157 210 244 306 375
#     4  12  22  41  65  90 117 168 212 238 309 385
#     4  11  19  38  66  87 112 168 205 244 303 370
#     4  10  21  38  63  88 123 160 201 253 304 364
#     4  10  20  42  58  88 132 148 192 264 304 352
#     4  11  21  40  65  87 122 162 206 252 304 363
#     4  10  19  41  59  86 117 160 201 248 300 360
#
# _framework density 22.220779
#
# number of rings (size 3 to 8) (size 9 to 14) (size 15 to 20)
#    0.000    1.333    8.000    0.800    0.000    1.600 
#    2.400    2.667    0.000    0.000    0.000    0.000 
#    0.000    0.000    0.000    0.000    0.000    0.000 
#
# Total GULP energy -167199.237145 kJ/mol
# GULP energy per Si atom -5573.307905 kJ/mol
# Density = 2.217020 g / cm^3
# Si number density = 22.220779 Si / 1000 Ang^3
#
#
#
# Elastic Constant Matrix: (Units=GPa)
#
#
# Indices 1 2 3 4 5 6 
#
# 1 64.4695 30.6443 21.6801 0.0000 37.2702 0.0000
# 2 30.6443 156.8931 36.3193 0.0000 17.0689 0.0000
# 3 21.6801 36.3193 118.9873 0.0000 23.2493 0.0000
# 4 0.0000 0.0000 0.0000 42.6607 0.0000 6.9864
# 5 37.2702 17.0689 23.2493 0.0000 27.0963 0.0000
# 6 0.0000 0.0000 0.0000 6.9864 0.0000 21.0052
#
#
#
# Elastic Compliance Matrix: (Units=1/GPa)
#
#
# Indices 1 2 3 4 5 6 
#
# 1 0.086905 -0.005790 0.010304 0.000000 -0.124729 0.000000
# 2 -0.005790 0.007458 -0.002234 0.000000 0.005183 0.000000
# 3 0.010304 -0.002234 0.011657 0.000000 -0.022768 0.000000
# 4 0.000000 0.000000 0.000000 0.024791 0.000000 -0.008246
# 5 -0.124729 0.005183 -0.022768 0.000000 0.224737 0.000000
# 6 0.000000 0.000000 0.000000 -0.008246 0.000000 0.050350
#
#
# Mechanical properties :
#
#
# Convention : Reuss Voigt Hill
#
# Bulk Modulus (GPa) = 9.04322 57.51526 33.27924
# Shear Modulus (GPa) = 11.41036 34.93286 23.17161
#
# Velocity S-wave (km/s) = 2.26851 3.96925 3.23273
# Velocity P-wave (km/s) = 3.30758 6.85174 5.37989
#
# Compressibility (1/GPa) = 0.11058004
#
# Stress axis : x y z
#
# Youngs Moduli (GPa) = 11.50683 134.08442 85.78219
#
# Poissons Ratio (x) = 0.77633 -0.88389
# Poissons Ratio (y) = 0.06662 0.19165
# Poissons Ratio (z) = -0.11857 0.29957
#
# Static dielectric constant tensor:
#      x y z
#    x 1.979130 0.000000 0.015940 
#    y 0.000000 1.836420 0.000000 
#    z 0.015940 0.000000 1.876120 
# 
# From -- ./inp_files/53867.got.cif
#   From: 2010.05.17/outbox.cif.g08.bks.cpg/sg13_27_cif.got.tgz:53867.got - 2010.06.03 16:44:36.
