data_PCOD9229050
_publ_section_title
;
Structure prediction by ZEFSAII (Michael W. Deem and Ramdas Pophale) SiO2 
 PCOD9229050
Probable space group: P 2/C
;
_chemical_formula_sum "Si O2"
_cell_formula_units_Z 20
_cell_length_a 7.640374
_cell_length_b 10.572805
_cell_length_c 9.785975
_cell_angle_alpha 90.000000
_cell_angle_beta 76.882090
_cell_angle_gamma 90.000000
_cell_volume 769.884488
_symmetry_space_group_name_H-M "P 2/C"
_symmetry_group_IT_number 13
_symmetry_cell_setting 'monoclinic'
loop_
_space_group_symop_operation_xyz
x,y,z
-x,y,1/2-z
-x,-y,-z
x,-y,1/2+z
loop_
_atom_site_type_symbol
_atom_site_label
_atom_site_fract_x
_atom_site_fract_y
_atom_site_fract_z
Si Si1 0.200199 0.858995 0.004285
Si Si2 0.617630 0.781181 0.899680
Si Si3 0.711697 0.036683 0.741571
Si Si4 0.857420 0.631610 0.657864
Si Si5 0.382713 0.573894 0.406196
O O1 0.192116 0.870044 0.169438
O O2 0.408285 0.814827 0.944726
O O3 0.191727 0.987078 0.912900
O O4 0.090227 0.746948 0.951582
O O5 0.707461 0.910211 0.836735
O O6 0.685237 0.681886 0.774915
O O7 0.663135 0.713210 0.032337
O O8 0.500000 0.066617 0.750000
O O9 0.792654 0.509406 0.589135
O O10 0.000000 0.605879 0.750000
O O11 0.500000 0.584584 0.250000
O O12 0.500000 0.500000 0.500000
#
# Coordination Sequence:
#
# PCOD9229050 Si02
#       5
#     4   4   4   4   4
#     4  10  19  37  59  88 117 153 200 249 293 349
#     4  10  20  37  59  84 119 149 198 238 296 344
#     4   9  18  32  58  89 118 145 191 252 293 335
#     4  11  23  40  59  82 122 165 192 239 307 355
#     4  12  22  40  64  91 115 151 201 247 294 352
#
# _framework density 25.977924000000002
#
# number of rings (size 3 to 8) (size 9 to 14) (size 15 to 20)
#    0.000    1.600    4.000    4.200    0.000    3.200 
#    0.000    4.000    0.000    1.200    0.000    0.000 
#    0.000    0.000    0.000    0.000    0.000    0.000 
#
# Total GULP energy -111917.394078 kJ/mol
# GULP energy per Si atom -5595.869704 kJ/mol
# Density = 2.591880 g / cm^3
# Si number density = 25.977924 Si / 1000 Ang^3
#
#
#
# Elastic Constant Matrix: (Units=GPa)
#
#
# Indices 1 2 3 4 5 6 
#
# 1 104.5098 18.8039 54.5575 0.0000 13.6602 0.0000
# 2 18.8039 56.3395 37.6776 0.0000 16.9509 0.0000
# 3 54.5575 37.6776 169.0842 0.0000 35.9000 0.0000
# 4 0.0000 0.0000 0.0000 59.4372 0.0000 20.7414
# 5 13.6602 16.9509 35.9000 0.0000 50.8539 0.0000
# 6 0.0000 0.0000 0.0000 20.7414 0.0000 7.5670
#
#
#
# Elastic Compliance Matrix: (Units=1/GPa)
#
#
# Indices 1 2 3 4 5 6 
#
# 1 0.011632 -0.001569 -0.003354 0.000000 -0.000234 0.000000
# 2 -0.001569 0.021908 -0.003429 0.000000 -0.004461 0.000000
# 3 -0.003354 -0.003429 0.008618 0.000000 -0.004040 0.000000
# 4 0.000000 0.000000 0.000000 0.386976 0.000000 -1.060720
# 5 -0.000234 -0.004461 -0.004040 0.000000 0.024066 0.000000
# 6 0.000000 0.000000 0.000000 -1.060720 0.000000 3.039634
#
#
# Mechanical properties :
#
#
# Convention : Reuss Voigt Hill
#
# Bulk Modulus (GPa) = 39.28404 61.33462 50.30933
# Shear Modulus (GPa) = 1.42125 38.16458 19.79292
#
# Velocity S-wave (km/s) = 0.74046 3.83706 2.76327
# Velocity P-wave (km/s) = 3.98572 6.57969 5.43959
#
# Compressibility (1/GPa) = 0.02545563
#
# Stress axis : x y z
#
# Youngs Moduli (GPa) = 85.96781 45.64508 116.03287
#
# Poissons Ratio (x) = 0.07162 0.38918
# Poissons Ratio (y) = 0.13488 0.39782
# Poissons Ratio (z) = 0.28834 0.15649
#
# Static dielectric constant tensor:
#      x y z
#    x 2.072490 0.000000 0.010770 
#    y 0.000000 2.068670 0.000000 
#    z 0.010770 0.000000 2.105930 
# 
# From -- ./inp_files/11782.got.cif
#   From: 2010.05.17/outbox.cif.g08.bks.cpg/sg13_6_cif.got.tgz:11782.got - 2010.06.03 16:44:36.
