data_PCOD9229113
_publ_section_title
;
Structure prediction by ZEFSAII (Michael W. Deem and Ramdas Pophale) SiO2 
 PCOD9229113
Probable space group: P 2/C
;
_chemical_formula_sum "Si O2"
_cell_formula_units_Z 22
_cell_length_a 7.606818
_cell_length_b 13.496291
_cell_length_c 10.662292
_cell_angle_alpha 90.000000
_cell_angle_beta 73.513730
_cell_angle_gamma 90.000000
_cell_volume 1049.628971
_symmetry_space_group_name_H-M "P 2/C"
_symmetry_group_IT_number 13
_symmetry_cell_setting 'monoclinic'
loop_
_space_group_symop_operation_xyz
x,y,z
-x,y,1/2-z
-x,-y,-z
x,-y,1/2+z
loop_
_atom_site_type_symbol
_atom_site_label
_atom_site_fract_x
_atom_site_fract_y
_atom_site_fract_z
Si Si1 0.643865 0.794628 0.501954
Si Si2 0.208629 0.424140 0.856370
Si Si3 0.768706 0.429300 0.932465
Si Si4 0.800272 0.944732 0.270724
Si Si5 0.668381 0.204879 0.617172
Si Si6 0.500000 0.090587 0.250000
O O1 0.708125 0.681515 0.481640
O O2 0.766583 0.861435 0.384058
O O3 0.434666 0.801703 0.493107
O O4 0.634239 0.842637 0.639801
O O5 0.287547 0.445150 0.701343
O O6 0.235448 0.309455 0.885307
O O7 0.989791 0.437605 0.890358
O O8 0.290522 0.491974 0.950224
O O9 0.788913 0.886977 0.139276
O O10 0.000000 0.989958 0.250000
O O11 0.629926 0.019252 0.306081
O O12 0.500000 0.205809 0.750000
#
# Coordination Sequence:
#
# PCOD9229113 Si02
#       6
#     4   4   4   4   4   2
#     4  11  23  42  63  92 132 168 208 272 322 380
#     4  10  20  38  62  94 123 166 216 260 314 400
#     4  10  21  38  63  90 128 169 211 262 324 378
#     4  11  22  42  71  92 121 171 218 265 324 384
#     4  10  19  37  62  90 119 161 213 254 310 385
#     4  12  26  44  60  96 136 162 218 278 318 380
#
# _framework density 20.959786999999999
#
# number of rings (size 3 to 8) (size 9 to 14) (size 15 to 20)
#    0.000    1.455    6.364    1.636    0.000    2.909 
#    4.909    0.000    0.000    0.000    0.000    0.000 
#    0.000    0.000    0.000    0.000    0.000    0.000 
#
# Total GULP energy -122831.223212 kJ/mol
# GULP energy per Si atom -5583.237419 kJ/mol
# Density = 2.091208 g / cm^3
# Si number density = 20.959787 Si / 1000 Ang^3
#
#
#
# Elastic Constant Matrix: (Units=GPa)
#
#
# Indices 1 2 3 4 5 6 
#
# 1 60.5812 2.2116 5.9885 0.0000 -8.1990 0.0000
# 2 2.2116 85.7413 50.4901 0.0000 3.6043 0.0000
# 3 5.9885 50.4901 45.3284 0.0000 7.3843 0.0000
# 4 0.0000 0.0000 0.0000 38.2500 0.0000 0.0859
# 5 -8.1990 3.6043 7.3843 0.0000 19.0953 0.0000
# 6 0.0000 0.0000 0.0000 0.0859 0.0000 37.2437
#
#
#
# Elastic Compliance Matrix: (Units=1/GPa)
#
#
# Indices 1 2 3 4 5 6 
#
# 1 0.018713 0.004514 -0.009253 0.000000 0.010761 0.000000
# 2 0.004514 0.036414 -0.043066 0.000000 0.011719 0.000000
# 3 -0.009253 -0.043066 0.075322 0.000000 -0.024972 0.000000
# 4 0.000000 0.000000 0.000000 0.026144 0.000000 -0.000060
# 5 0.010761 0.011719 -0.024972 0.000000 0.064434 0.000000
# 6 0.000000 0.000000 0.000000 -0.000060 0.000000 0.026850
#
#
# Mechanical properties :
#
#
# Convention : Reuss Voigt Hill
#
# Bulk Modulus (GPa) = 28.70406 34.33683 31.52044
# Shear Modulus (GPa) = 14.08047 27.78184 20.93115
#
# Velocity S-wave (km/s) = 2.59469 3.64467 3.16355
# Velocity P-wave (km/s) = 4.76457 5.84203 5.33059
#
# Compressibility (1/GPa) = 0.03483827
#
# Stress axis : x y z
#
# Youngs Moduli (GPa) = 53.43858 27.46184 13.27631
#
# Poissons Ratio (x) = -0.12396 0.12285
# Poissons Ratio (y) = -0.24121 0.57176
# Poissons Ratio (z) = 0.49447 1.18268
#
# Static dielectric constant tensor:
#      x y z
#    x 1.799950 0.000000 0.033550 
#    y 0.000000 1.723370 0.000000 
#    z 0.033550 0.000000 1.781510 
# 
# From -- ./inp_files/29353.got.cif
#   From: 2010.05.17/outbox.cif.g08.bks.cpg/sg13_15_cif.got.tgz:29353.got - 2010.06.03 16:44:36.
