data_PCOD9229341
_publ_section_title
;
Structure prediction by ZEFSAII (Michael W. Deem and Ramdas Pophale) SiO2 
 PCOD9229341
Probable space group: P 2/C
;
_chemical_formula_sum "Si O2"
_cell_formula_units_Z 32
_cell_length_a 14.597712
_cell_length_b 12.184488
_cell_length_c 18.346343
_cell_angle_alpha 90.000000
_cell_angle_beta 152.151184
_cell_angle_gamma 90.000000
_cell_volume 1524.364286
_symmetry_space_group_name_H-M "P 2/C"
_symmetry_group_IT_number 13
_symmetry_cell_setting 'monoclinic'
loop_
_space_group_symop_operation_xyz
x,y,z
-x,y,1/2-z
-x,-y,-z
x,-y,1/2+z
loop_
_atom_site_type_symbol
_atom_site_label
_atom_site_fract_x
_atom_site_fract_y
_atom_site_fract_z
Si Si1 0.891546 0.252902 0.747782
Si Si2 0.646016 0.392533 0.909559
Si Si3 0.395416 0.076785 0.251920
Si Si4 0.456936 0.123530 0.989539
Si Si5 0.971665 0.782484 0.007254
Si Si6 0.045615 0.583015 0.599775
Si Si7 0.212814 0.519349 0.356835
Si Si8 0.560540 0.179251 0.677840
O O1 0.774819 0.142152 0.678151
O O2 0.743991 0.354164 0.631662
O O3 0.000000 0.239513 0.750000
O O4 0.030065 0.273033 0.913792
O O5 0.500000 0.449026 0.750000
O O6 0.563412 0.270367 0.866781
O O7 0.851838 0.393344 0.012101
O O8 0.654700 0.457064 0.991857
O O9 0.500000 0.110356 0.250000
O O10 0.474559 0.139229 0.379736
O O11 0.444597 0.947265 0.298688
O O12 0.164912 0.109801 0.086427
O O13 0.524025 0.187905 0.964509
O O14 0.500000 0.000000 0.000000
O O15 0.205321 0.794734 0.156142
O O16 0.891043 0.696646 0.892168
O O17 0.000000 0.500000 0.500000
O O18 0.193042 0.537075 0.764309
O O19 0.000000 0.521987 0.250000
#
# Coordination Sequence:
#
# PCOD9229341 Si02
#       8
#     4   4   4   4   4   4   4   4
#     4  10  19  39  63  88 127 170 209 257 334 395
#     4  11  22  42  68  97 127 176 223 272 333 397
#     4  11  23  40  63  95 130 169 221 278 334 396
#     4   9  21  40  61  89 127 166 218 276 325 392
#     4  11  22  38  66  92 127 171 215 270 329 394
#     4  11  22  42  63  96 137 168 220 271 328 400
#     4   9  21  38  61  92 127 167 210 270 321 391
#     4  10  22  43  66  91 127 173 222 276 333 397
#
# _framework density 20.992356000000001
#
# number of rings (size 3 to 8) (size 9 to 14) (size 15 to 20)
#    0.000    1.750    2.500    1.500    1.750    0.000 
#    2.250    3.125    0.000    0.000    0.000    0.000 
#    0.000    0.000    0.000    0.000    0.000    0.000 
#
# Total GULP energy -178236.493819 kJ/mol
# GULP energy per Si atom -5569.890432 kJ/mol
# Density = 2.094458 g / cm^3
# Si number density = 20.992356 Si / 1000 Ang^3
#
#
#
# Elastic Constant Matrix: (Units=GPa)
#
#
# Indices 1 2 3 4 5 6 
#
# 1 120.0022 33.4073 38.3491 0.0000 -32.7749 0.0000
# 2 33.4073 74.4429 30.0343 0.0000 -5.8673 0.0000
# 3 38.3491 30.0343 66.3438 0.0000 -29.9846 0.0000
# 4 0.0000 0.0000 0.0000 26.9302 0.0000 -2.0198
# 5 -32.7749 -5.8673 -29.9846 0.0000 45.2669 0.0000
# 6 0.0000 0.0000 0.0000 -2.0198 0.0000 21.0562
#
#
#
# Elastic Compliance Matrix: (Units=1/GPa)
#
#
# Indices 1 2 3 4 5 6 
#
# 1 0.011952 -0.004013 -0.002021 0.000000 0.006795 0.000000
# 2 -0.004013 0.018304 -0.008860 0.000000 -0.006402 0.000000
# 3 -0.002021 -0.008860 0.027221 0.000000 0.015420 0.000000
# 4 0.000000 0.000000 0.000000 0.037402 0.000000 0.003588
# 5 0.006795 -0.006402 0.015420 0.000000 0.036395 0.000000
# 6 0.000000 0.000000 0.000000 0.003588 0.000000 0.047836
#
#
# Mechanical properties :
#
#
# Convention : Reuss Voigt Hill
#
# Bulk Modulus (GPa) = 36.11512 51.59669 43.85591
# Shear Modulus (GPa) = 22.92231 29.25053 26.08642
#
# Velocity S-wave (km/s) = 3.30803 3.73686 3.52897
# Velocity P-wave (km/s) = 5.64199 6.57655 6.12711
#
# Compressibility (1/GPa) = 0.02768923
#
# Stress axis : x y z
#
# Youngs Moduli (GPa) = 83.66854 54.63299 36.73583
#
# Poissons Ratio (x) = 0.21922 0.07425
# Poissons Ratio (y) = 0.33573 0.32549
# Poissons Ratio (z) = 0.16911 0.48406
#
# Static dielectric constant tensor:
#      x y z
#    x 1.822120 0.000000 -0.004530 
#    y 0.000000 1.847140 0.000000 
#    z -0.004530 0.000000 1.805470 
# 
# From -- ./inp_files/68692.got.cif
#   From: 2010.05.17/outbox.cif.g08.bks.cpg/sg13_35_cif.got.tgz:68692.got - 2010.06.03 16:44:36.
