data_PCOD9229438
_publ_section_title
;
Structure prediction by ZEFSAII (Michael W. Deem and Ramdas Pophale) SiO2 
 PCOD9229438
Probable space group: P 2/C
;
_chemical_formula_sum "Si O2"
_cell_formula_units_Z 18
_cell_length_a 8.970602
_cell_length_b 7.792955
_cell_length_c 20.387968
_cell_angle_alpha 90.000000
_cell_angle_beta 147.731144
_cell_angle_gamma 90.000000
_cell_volume 760.942388
_symmetry_space_group_name_H-M "P 2/C"
_symmetry_group_IT_number 13
_symmetry_cell_setting 'monoclinic'
loop_
_space_group_symop_operation_xyz
x,y,z
-x,y,1/2-z
-x,-y,-z
x,-y,1/2+z
loop_
_atom_site_type_symbol
_atom_site_label
_atom_site_fract_x
_atom_site_fract_y
_atom_site_fract_z
Si Si1 0.688649 0.151226 0.037451
Si Si2 0.806535 0.826442 0.872540
Si Si3 0.199214 0.279985 0.768930
Si Si4 0.000000 0.384578 0.250000
Si Si5 0.199388 0.218426 0.625370
O O1 0.995857 0.140745 0.116935
O O2 0.763741 0.277423 0.125259
O O3 0.501973 0.228130 0.908142
O O4 0.500000 0.000000 0.000000
O O5 0.500000 0.750008 0.750000
O O6 0.746069 0.020835 0.876479
O O7 0.979907 0.720183 0.990740
O O8 0.089490 0.221282 0.658258
O O9 0.000000 0.199991 0.750000
O O10 0.149884 0.483503 0.755890
O O11 0.500000 0.303880 0.750000
#
# Coordination Sequence:
#
# PCOD9229438 Si02
#       5
#     4   4   4   2   4
#     4  12  25  44  74 110 137 195 256 302 366 442
#     4  10  23  39  68 111 146 181 249 313 357 420
#     4  10  23  44  68  99 146 193 229 299 375 433
#     4  10  28  44  68 104 154 182 242 316 376 434
#     4  10  19  40  68  97 143 195 237 297 368 430
#
# _framework density 23.654879000000001
#
# number of rings (size 3 to 8) (size 9 to 14) (size 15 to 20)
#    0.667    0.889    2.222    2.000    4.667    1.778 
#    0.000    2.222    0.000    0.000    0.000    0.000 
#    0.000    0.000    0.000    0.000    0.000    0.000 
#
# Total GULP energy -100224.637095 kJ/mol
# GULP energy per Si atom -5568.035394 kJ/mol
# Density = 2.360104 g / cm^3
# Si number density = 23.654879 Si / 1000 Ang^3
#
#
#
# Elastic Constant Matrix: (Units=GPa)
#
#
# Indices 1 2 3 4 5 6 
#
# 1 125.1341 12.3057 59.8800 0.0000 1.8048 0.0000
# 2 12.3057 85.2067 45.0440 0.0000 -8.7072 0.0000
# 3 59.8800 45.0440 179.3913 0.0000 4.9000 0.0000
# 4 0.0000 0.0000 0.0000 25.2377 0.0000 5.3326
# 5 1.8048 -8.7072 4.9000 0.0000 48.3408 0.0000
# 6 0.0000 0.0000 0.0000 5.3326 0.0000 -8.8043
#
#
#
# Elastic Compliance Matrix: (Units=1/GPa)
#
#
# Indices 1 2 3 4 5 6 
#
# 1 0.009520 0.000357 -0.003268 0.000000 0.000040 0.000000
# 2 0.000357 0.013932 -0.003696 0.000000 0.002871 0.000000
# 3 -0.003268 -0.003696 0.007629 0.000000 -0.001317 0.000000
# 4 0.000000 0.000000 0.000000 0.035128 0.000000 0.021276
# 5 0.000040 0.002871 -0.001317 0.000000 0.021336 0.000000
# 6 0.000000 0.000000 0.000000 0.021276 0.000000 -0.100694
#
#
# Mechanical properties :
#
#
# Convention : Reuss Voigt Hill
#
# Bulk Modulus (GPa) = 55.97036 69.35461 62.66249
# Shear Modulus (GPa) = 830.67728 31.12167 430.89948
#
# Velocity S-wave (km/s) = 18.75973 3.63113 13.51134
# Velocity P-wave (km/s) = 22.20247 6.85297 16.43035
#
# Compressibility (1/GPa) = 0.01786660
#
# Stress axis : x y z
#
# Youngs Moduli (GPa) = 105.04473 71.77880 131.07297
#
# Poissons Ratio (x) = -0.02563 0.42840
# Poissons Ratio (y) = -0.03751 0.48441
# Poissons Ratio (z) = 0.34333 0.26528
#
# Static dielectric constant tensor:
#      x y z
#    x 3.544450 0.000000 -0.307970 
#    y 0.000000 1.907320 0.000000 
#    z -0.307970 0.000000 2.044920 
# 
# From -- ./inp_files/75895.got.cif
#   From: 2010.05.17/outbox.cif.g08.bks.cpg/sg13_38_cif.got.tgz:75895.got - 2010.06.03 16:44:36.
