data_PCOD9229755
_publ_section_title
;
Structure prediction by ZEFSAII (Michael W. Deem and Ramdas Pophale) SiO2 
 PCOD9229755
Probable space group: P 2/C
;
_chemical_formula_sum "Si O2"
_cell_formula_units_Z 20
_cell_length_a 15.755621
_cell_length_b 6.941157
_cell_length_c 13.627088
_cell_angle_alpha 90.000000
_cell_angle_beta 36.766020
_cell_angle_gamma 90.000000
_cell_volume 892.010321
_symmetry_space_group_name_H-M "P 2/C"
_symmetry_group_IT_number 13
_symmetry_cell_setting 'monoclinic'
loop_
_space_group_symop_operation_xyz
x,y,z
-x,y,1/2-z
-x,-y,-z
x,-y,1/2+z
loop_
_atom_site_type_symbol
_atom_site_label
_atom_site_fract_x
_atom_site_fract_y
_atom_site_fract_z
Si Si1 0.862714 0.986404 0.495233
Si Si2 0.375570 0.281736 0.289368
Si Si3 0.466309 0.910702 0.396200
Si Si4 0.825133 0.964984 0.253045
Si Si5 0.713886 0.668927 0.220938
O O1 0.756343 0.838000 0.540850
O O2 0.029234 0.977084 0.323215
O O3 0.850195 0.933427 0.623856
O O4 0.798508 0.203213 0.559980
O O5 0.500000 0.348657 0.250000
O O6 0.455985 0.114358 0.154681
O O7 0.304356 0.451314 0.294153
O O8 0.500000 0.880232 0.250000
O O9 0.304862 0.930221 0.574917
O O10 0.554170 0.748710 0.369428
O O11 0.785148 0.746339 0.255380
#
# Coordination Sequence:
#
# PCOD9229755 Si02
#       5
#     4   4   4   4   4
#     4   8  19  37  57  81 111 142 183 229 272 327
#     4  10  20  34  54  82 113 145 183 225 276 325
#     4  10  20  35  54  80 115 146 180 229 270 325
#     4   9  18  38  57  83 110 143 186 222 280 325
#     4   9  18  34  57  81 109 143 186 225 267 327
#
# _framework density 22.421264000000001
#
# number of rings (size 3 to 8) (size 9 to 14) (size 15 to 20)
#    1.200    1.600    0.000    1.200    0.000    2.400 
#    0.000    9.000    0.000    4.800    0.000    0.000 
#    0.000    0.000    0.000    0.000    0.000    0.000 
#
# Total GULP energy -111378.963828 kJ/mol
# GULP energy per Si atom -5568.948191 kJ/mol
# Density = 2.237023 g / cm^3
# Si number density = 22.421264 Si / 1000 Ang^3
#
#
#
# Elastic Constant Matrix: (Units=GPa)
#
#
# Indices 1 2 3 4 5 6 
#
# 1 81.0007 0.3522 14.5374 0.0000 -21.1408 0.0000
# 2 0.3522 73.5454 10.5056 0.0000 -10.5981 0.0000
# 3 14.5374 10.5056 145.4657 0.0000 -49.7852 0.0000
# 4 0.0000 0.0000 0.0000 -17.8679 0.0000 -4.4273
# 5 -21.1408 -10.5981 -49.7852 0.0000 36.6560 0.0000
# 6 0.0000 0.0000 0.0000 -4.4273 0.0000 23.7381
#
#
#
# Elastic Compliance Matrix: (Units=1/GPa)
#
#
# Indices 1 2 3 4 5 6 
#
# 1 0.015237 0.001402 0.002844 0.000000 0.013056 0.000000
# 2 0.001402 0.014356 0.000972 0.000000 0.006280 0.000000
# 3 0.002844 0.000972 0.013412 0.000000 0.020137 0.000000
# 4 0.000000 0.000000 0.000000 -0.053494 0.000000 -0.009977
# 5 0.013056 0.006280 0.020137 0.000000 0.063976 0.000000
# 6 0.000000 0.000000 0.000000 -0.009977 0.000000 0.040266
#
#
# Mechanical properties :
#
#
# Convention : Reuss Voigt Hill
#
# Bulk Modulus (GPa) = 18.71155 38.97801 28.84478
# Shear Modulus (GPa) = 49.44190 26.81303 38.12747
#
# Velocity S-wave (km/s) = 4.70098 3.46189 4.12819
# Velocity P-wave (km/s) = 6.15054 5.77942 5.96787
#
# Compressibility (1/GPa) = 0.05344293
#
# Stress axis : x y z
#
# Youngs Moduli (GPa) = 65.63167 69.65529 74.56039
#
# Poissons Ratio (x) = -0.09767 -0.21208
# Poissons Ratio (y) = -0.09203 -0.07250
# Poissons Ratio (z) = -0.18669 -0.06773
#
# Static dielectric constant tensor:
#      x y z
#    x 1.986080 0.000000 0.040740 
#    y 0.000000 1.816080 0.000000 
#    z 0.040740 0.000000 1.903050 
# 
# From -- ./inp_files/69270.got.cif
#   From: 2010.05.17/outbox.cif.g08.bks.cpg/sg13_35_cif.got.tgz:69270.got - 2010.06.03 16:44:36.
