data_PCOD9229952
_publ_section_title
;
Structure prediction by ZEFSAII (Michael W. Deem and Ramdas Pophale) SiO2 
 PCOD9229952
Probable space group: P 2/C
;
_chemical_formula_sum "Si O2"
_cell_formula_units_Z 28
_cell_length_a 21.940873
_cell_length_b 11.300343
_cell_length_c 11.691955
_cell_angle_alpha 90.000000
_cell_angle_beta 25.375505
_cell_angle_gamma 90.000000
_cell_volume 1242.318782
_symmetry_space_group_name_H-M "P 2/C"
_symmetry_group_IT_number 13
_symmetry_cell_setting 'monoclinic'
loop_
_space_group_symop_operation_xyz
x,y,z
-x,y,1/2-z
-x,-y,-z
x,-y,1/2+z
loop_
_atom_site_type_symbol
_atom_site_label
_atom_site_fract_x
_atom_site_fract_y
_atom_site_fract_z
Si Si1 0.334073 0.644320 0.994983
Si Si2 0.430651 0.970162 0.491816
Si Si3 0.201005 0.384369 0.240713
Si Si4 0.257541 0.181675 0.812912
Si Si5 0.097162 0.369405 0.190691
Si Si6 0.287117 0.409904 0.323885
Si Si7 0.457013 0.280395 0.665049
O O1 0.500000 0.642779 0.750000
O O2 0.305051 0.661093 0.910495
O O3 0.261409 0.518232 0.145037
O O4 0.256452 0.746334 0.197506
O O5 0.500000 0.009770 0.250000
O O6 0.443415 0.828940 0.466796
O O7 0.500000 0.000000 0.500000
O O8 0.284708 0.044209 0.747263
O O9 0.070685 0.378413 0.371636
O O10 0.184383 0.354978 0.401781
O O11 0.324557 0.305386 0.972906
O O12 0.391506 0.236423 0.656273
O O13 0.131111 0.233044 0.103946
O O14 0.000000 0.409445 0.250000
O O15 0.232025 0.459185 0.947751
O O16 0.446693 0.397496 0.003308
#
# Coordination Sequence:
#
# PCOD9229952 Si02
#       7
#     4   4   4   4   4   4   4
#     4  11  19  29  51  82 116 146 180 216 275 351
#     4  10  21  35  55  85 119 150 182 226 280 345
#     4  10  21  32  53  82 113 149 184 229 281 342
#     4  10  20  36  55  81 112 150 188 227 276 345
#     4  10  23  39  55  77 110 152 196 241 281 325
#     4  11  20  33  53  81 113 148 182 229 282 337
#     4  10  20  35  55  84 119 147 176 223 288 349
#
# _framework density 22.538498000000001
#
# number of rings (size 3 to 8) (size 9 to 14) (size 15 to 20)
#    0.000    1.714    2.857    2.571    2.000    2.857 
#    0.000    0.000    0.000    0.857    0.000   14.000 
#    0.000    0.000    0.000    0.000    0.000    0.000 
#
# Total GULP energy -155928.019615 kJ/mol
# GULP energy per Si atom -5568.857843 kJ/mol
# Density = 2.248720 g / cm^3
# Si number density = 22.538498 Si / 1000 Ang^3
#
#
#
# Elastic Constant Matrix: (Units=GPa)
#
#
# Indices 1 2 3 4 5 6 
#
# 1 209.6838 13.0680 15.4808 0.0000 23.7304 0.0000
# 2 13.0680 83.1945 7.6747 0.0000 -3.6566 0.0000
# 3 15.4808 7.6747 16.9915 0.0000 1.1332 0.0000
# 4 0.0000 0.0000 0.0000 24.6656 0.0000 2.2926
# 5 23.7304 -3.6566 1.1332 0.0000 33.4951 0.0000
# 6 0.0000 0.0000 0.0000 2.2926 0.0000 24.9054
#
#
#
# Elastic Compliance Matrix: (Units=1/GPa)
#
#
# Indices 1 2 3 4 5 6 
#
# 1 0.005582 -0.000628 -0.004544 0.000000 -0.003869 0.000000
# 2 -0.000628 0.012696 -0.005296 0.000000 0.002010 0.000000
# 3 -0.004544 -0.005296 0.065356 0.000000 0.000430 0.000000
# 4 0.000000 0.000000 0.000000 0.040892 0.000000 -0.003764
# 5 -0.003869 0.002010 0.000430 0.000000 0.032801 0.000000
# 6 0.000000 0.000000 0.000000 -0.003764 0.000000 0.040498
#
#
# Mechanical properties :
#
#
# Convention : Reuss Voigt Hill
#
# Bulk Modulus (GPa) = 15.94955 42.47964 29.21460
# Shear Modulus (GPa) = 20.86286 34.85629 27.85957
#
# Velocity S-wave (km/s) = 3.04576 3.93685 3.51962
# Velocity P-wave (km/s) = 4.41144 6.28916 5.43205
#
# Compressibility (1/GPa) = 0.06269769
#
# Stress axis : x y z
#
# Youngs Moduli (GPa) = 179.16173 78.76782 15.30073
#
# Poissons Ratio (x) = 0.04944 0.06952
# Poissons Ratio (y) = 0.11245 0.08104
# Poissons Ratio (z) = 0.81407 0.41719
#
# Static dielectric constant tensor:
#      x y z
#    x 2.002530 0.000000 0.008600 
#    y 0.000000 1.814910 0.000000 
#    z 0.008600 0.000000 1.955390 
# 
# From -- ./inp_files/40758.got.cif
#   From: 2010.05.17/outbox.cif.g08.bks.cpg/sg13_21_cif.got.tgz:40758.got - 2010.06.03 16:44:36.
