data_PCOD9229594
_publ_section_title
;
Structure prediction by ZEFSAII (Michael W. Deem and Ramdas Pophale) SiO2 
 PCOD9229594
Probable space group: P 2/C
;
_chemical_formula_sum "Si O2"
_cell_formula_units_Z 28
_cell_length_a 21.496529
_cell_length_b 5.420711
_cell_length_c 24.658009
_cell_angle_alpha 90.000000
_cell_angle_beta 28.991155
_cell_angle_gamma 90.000000
_cell_volume 1392.620738
_symmetry_space_group_name_H-M "P 2/C"
_symmetry_group_IT_number 13
_symmetry_cell_setting 'monoclinic'
loop_
_space_group_symop_operation_xyz
x,y,z
-x,y,1/2-z
-x,-y,-z
x,-y,1/2+z
loop_
_atom_site_type_symbol
_atom_site_label
_atom_site_fract_x
_atom_site_fract_y
_atom_site_fract_z
Si Si1 0.938898 0.808692 0.089219
Si Si2 0.431914 0.022645 0.469519
Si Si3 0.636743 0.481145 0.425499
Si Si4 0.188796 0.428165 0.395864
Si Si5 0.387304 0.144113 0.380865
Si Si6 0.719077 0.147272 0.274215
Si Si7 0.345775 0.645696 0.373045
O O1 0.867884 0.612041 0.105615
O O2 0.830817 0.956338 0.203901
O O3 0.063861 0.685759 0.021005
O O4 0.000000 0.000000 0.000000
O O5 0.350338 0.252434 0.556385
O O6 0.440273 0.072630 0.399120
O O7 0.575772 0.035809 0.385229
O O8 0.374865 0.752699 0.525031
O O9 0.500000 0.500000 0.500000
O O10 0.727548 0.380530 0.308247
O O11 0.260697 0.228047 0.303738
O O12 0.282868 0.566367 0.364558
O O13 0.500000 0.170206 0.250000
O O14 0.322690 0.413010 0.430079
O O15 0.301300 0.913874 0.426804
O O16 0.500000 0.672273 0.250000
#
# Coordination Sequence:
#
# PCOD9229594 Si02
#       7
#     4   4   4   4   4   4   4
#     4   9  21  35  53  82 116 153 193 239 298 342
#     4  11  22  36  54  81 127 152 190 247 282 355
#     4  10  22  35  52  84 116 160 194 234 292 349
#     4  10  21  35  55  83 124 148 193 245 288 356
#     4  10  21  34  51  81 108 155 191 220 292 346
#     4  10  20  32  58  77 117 159 196 229 298 348
#     4  10  21  33  54  82 114 151 189 221 286 354
#
# _framework density 20.105976999999999
#
# number of rings (size 3 to 8) (size 9 to 14) (size 15 to 20)
#    0.000    2.000    0.000    4.286   14.000    0.000 
#    0.000    0.000    0.000    0.000    0.000    1.000 
#    0.000    0.000    0.000    0.000    0.000    0.000 
#
# Total GULP energy -156094.138375 kJ/mol
# GULP energy per Si atom -5574.790656 kJ/mol
# Density = 2.006022 g / cm^3
# Si number density = 20.105977 Si / 1000 Ang^3
#
#
#
# Elastic Constant Matrix: (Units=GPa)
#
#
# Indices 1 2 3 4 5 6 
#
# 1 47.9661 -9.3698 23.3147 0.0000 4.7660 0.0000
# 2 -9.3698 106.3115 24.4410 0.0000 0.8316 0.0000
# 3 23.3147 24.4410 73.9594 0.0000 0.1554 0.0000
# 4 0.0000 0.0000 0.0000 26.4014 0.0000 3.1221
# 5 4.7660 0.8316 0.1554 0.0000 27.0419 0.0000
# 6 0.0000 0.0000 0.0000 3.1221 0.0000 29.8688
#
#
#
# Elastic Compliance Matrix: (Units=1/GPa)
#
#
# Indices 1 2 3 4 5 6 
#
# 1 0.027190 0.004765 -0.010136 0.000000 -0.004880 0.000000
# 2 0.004765 0.011017 -0.005140 0.000000 -0.001149 0.000000
# 3 -0.010136 -0.005140 0.018411 0.000000 0.001839 0.000000
# 4 0.000000 0.000000 0.000000 0.038351 0.000000 -0.004009
# 5 -0.004880 -0.001149 0.001839 0.000000 0.037865 0.000000
# 6 0.000000 0.000000 0.000000 -0.004009 0.000000 0.033899
#
#
# Mechanical properties :
#
#
# Convention : Reuss Voigt Hill
#
# Bulk Modulus (GPa) = 28.09324 33.88986 30.99155
# Shear Modulus (GPa) = 25.04753 29.31916 27.18334
#
# Velocity S-wave (km/s) = 3.53338 3.82282 3.68095
# Velocity P-wave (km/s) = 5.53618 6.03138 5.78908
#
# Compressibility (1/GPa) = 0.03559575
#
# Stress axis : x y z
#
# Youngs Moduli (GPa) = 36.77764 90.76857 54.31546
#
# Poissons Ratio (x) = -0.43250 0.55053
# Poissons Ratio (y) = -0.17524 0.27920
# Poissons Ratio (z) = 0.37277 0.46658
#
# Static dielectric constant tensor:
#      x y z
#    x 1.696910 0.000000 0.038740 
#    y 0.000000 1.835200 0.000000 
#    z 0.038740 0.000000 1.754990 
# 
# From -- ./inp_files/88295.got.cif
#   From: 2010.05.17/outbox.cif.g08.bks.cpg/sg13_45_cif.got.tgz:88295.got - 2010.06.03 16:44:36.
