data_PCOD9229535
_publ_section_title
;
Structure prediction by ZEFSAII (Michael W. Deem and Ramdas Pophale) SiO2 
 PCOD9229535
Probable space group: P 2/C
;
_chemical_formula_sum "Si O2"
_cell_formula_units_Z 20
_cell_length_a 11.594887
_cell_length_b 6.315378
_cell_length_c 23.499982
_cell_angle_alpha 90.000000
_cell_angle_beta 28.404689
_cell_angle_gamma 90.000000
_cell_volume 818.583675
_symmetry_space_group_name_H-M "P 2/C"
_symmetry_group_IT_number 13
_symmetry_cell_setting 'monoclinic'
loop_
_space_group_symop_operation_xyz
x,y,z
-x,y,1/2-z
-x,-y,-z
x,-y,1/2+z
loop_
_atom_site_type_symbol
_atom_site_label
_atom_site_fract_x
_atom_site_fract_y
_atom_site_fract_z
Si Si1 0.972899 0.064748 0.872074
Si Si2 0.405499 0.442254 0.458522
Si Si3 0.298869 0.184191 0.094019
Si Si4 0.751899 0.335500 0.672606
Si Si5 0.901016 0.692867 0.986507
O O1 0.219942 0.170342 0.787896
O O2 0.940666 0.928381 0.828999
O O3 0.882773 0.910548 0.960982
O O4 0.800685 0.267437 0.941298
O O5 0.649770 0.316920 0.369867
O O6 0.367461 0.635869 0.518036
O O7 0.330709 0.544995 0.430621
O O8 0.500000 0.000000 0.000000
O O9 0.500000 0.329534 0.750000
O O10 0.925068 0.273984 0.543337
O O11 0.861698 0.565802 0.639248
#
# Coordination Sequence:
#
# PCOD9229535 Si02
#       5
#     4   4   4   4   4
#     4   9  16  28  46  69  95 124 161 205 248 298
#     4   8  14  25  44  71  95 122 161 202 246 298
#     4   8  13  23  43  72  96 120 160 203 247 298
#     4  10  20  32  47  70  98 131 167 205 252 308
#     4   9  18  32  48  69  98 128 164 208 250 301
#
# _framework density 24.432444
#
# number of rings (size 3 to 8) (size 9 to 14) (size 15 to 20)
#    0.000    3.200    0.000    0.600    0.000    0.800 
#    0.000    0.000    0.000    0.000    0.000  182.000 
#    0.000    0.000    0.000    0.000    0.000    0.000 
#
# Total GULP energy -111339.486874 kJ/mol
# GULP energy per Si atom -5566.974344 kJ/mol
# Density = 2.437683 g / cm^3
# Si number density = 24.432444 Si / 1000 Ang^3
#
#
#
# Elastic Constant Matrix: (Units=GPa)
#
#
# Indices 1 2 3 4 5 6 
#
# 1 153.0706 62.8920 30.5548 0.0000 -30.7556 0.0000
# 2 62.8920 159.1967 34.1623 0.0000 -24.2905 0.0000
# 3 30.5548 34.1623 45.1626 0.0000 -33.1229 0.0000
# 4 0.0000 0.0000 0.0000 13.9372 0.0000 -15.6960
# 5 -30.7556 -24.2905 -33.1229 0.0000 38.8749 0.0000
# 6 0.0000 0.0000 0.0000 -15.6960 0.0000 63.5566
#
#
#
# Elastic Compliance Matrix: (Units=1/GPa)
#
#
# Indices 1 2 3 4 5 6 
#
# 1 0.008659 -0.002612 -0.000147 0.000000 0.005093 0.000000
# 2 -0.002612 0.008289 -0.005918 0.000000 -0.001930 0.000000
# 3 -0.000147 -0.005918 0.063772 0.000000 0.050522 0.000000
# 4 0.000000 0.000000 0.000000 0.099394 0.000000 0.024546
# 5 0.005093 -0.001930 0.050522 0.000000 0.071594 0.000000
# 6 0.000000 0.000000 0.000000 0.024546 0.000000 0.021796
#
#
# Mechanical properties :
#
#
# Convention : Reuss Voigt Hill
#
# Bulk Modulus (GPa) = 15.78157 68.07200 41.92678
# Shear Modulus (GPa) = 16.02671 38.59515 27.31093
#
# Velocity S-wave (km/s) = 2.56395 3.97882 3.34700
# Velocity P-wave (km/s) = 3.90364 7.00213 5.66869
#
# Compressibility (1/GPa) = 0.06336506
#
# Stress axis : x y z
#
# Youngs Moduli (GPa) = 115.48941 120.64186 15.68096
#
# Poissons Ratio (x) = 0.31513 0.00231
# Poissons Ratio (y) = 0.30167 0.09280
# Poissons Ratio (z) = 0.01698 0.71397
#
# Static dielectric constant tensor:
#      x y z
#    x 1.998230 0.000000 -0.031480 
#    y 0.000000 1.927980 0.000000 
#    z -0.031480 0.000000 2.066680 
# 
# From -- ./inp_files/38077.got.cif
#   From: 2010.05.17/outbox.cif.g08.bks.cpg/sg13_20_cif.got.tgz:38077.got - 2010.06.03 16:44:36.
