data_PCOD9229978
_publ_section_title
;
Structure prediction by ZEFSAII (Michael W. Deem and Ramdas Pophale) SiO2 
 PCOD9229978
Probable space group: P 2/C
;
_chemical_formula_sum "Si O2"
_cell_formula_units_Z 32
_cell_length_a 8.180631
_cell_length_b 11.414605
_cell_length_c 26.894315
_cell_angle_alpha 90.000000
_cell_angle_beta 146.010825
_cell_angle_gamma 90.000000
_cell_volume 1403.938738
_symmetry_space_group_name_H-M "P 2/C"
_symmetry_group_IT_number 13
_symmetry_cell_setting 'monoclinic'
loop_
_space_group_symop_operation_xyz
x,y,z
-x,y,1/2-z
-x,-y,-z
x,-y,1/2+z
loop_
_atom_site_type_symbol
_atom_site_label
_atom_site_fract_x
_atom_site_fract_y
_atom_site_fract_z
Si Si1 0.895098 0.113816 0.882848
Si Si2 0.572989 0.383252 0.874404
Si Si3 0.818061 0.459290 0.518589
Si Si4 0.317201 0.822325 0.353901
Si Si5 0.799638 0.039520 0.122743
Si Si6 0.965858 0.343207 0.834340
Si Si7 0.395496 0.213670 0.067673
Si Si8 0.459274 0.905426 0.795115
O O1 0.835585 0.233711 0.835418
O O2 0.111851 0.028666 0.905127
O O3 0.634101 0.028446 0.833748
O O4 0.089719 0.155548 0.976917
O O5 0.654477 0.434936 0.949867
O O6 0.541992 0.243771 0.875491
O O7 0.274985 0.396932 0.765130
O O8 0.845600 0.439058 0.914407
O O9 0.637885 0.349184 0.452024
O O10 0.873348 0.440433 0.591195
O O11 0.396187 0.945836 0.396588
O O12 0.000000 0.844186 0.250000
O O13 0.218658 0.726711 0.369441
O O14 0.629985 0.159604 0.088139
O O15 0.126656 0.063727 0.224078
O O16 0.449296 0.180557 0.138105
O O17 0.500000 0.852245 0.750000
#
# Coordination Sequence:
#
# PCOD9229978 Si02
#       8
#     4   4   4   4   4   4   4   4
#     4   9  20  35  58  89 117 150 195 241 288 343
#     4  10  21  40  60  84 114 148 196 249 291 337
#     4  10  23  39  59  86 114 152 197 237 294 354
#     4   9  18  32  56  85 113 148 193 240 286 332
#     4  10  20  35  56  85 119 156 193 234 288 349
#     4   9  19  37  61  87 113 146 190 246 296 340
#     4  11  21  36  55  84 123 155 187 237 293 350
#     4  10  21  36  54  82 120 158 195 229 281 355
#
# _framework density 22.793016999999999
#
# number of rings (size 3 to 8) (size 9 to 14) (size 15 to 20)
#    0.000    2.250    0.000    2.250    0.000   15.500 
#    0.000    8.750    0.000    0.000    0.000    0.000 
#    0.000    0.000    0.000    0.000    0.000    0.000 
#
# Total GULP energy -178191.980446 kJ/mol
# GULP energy per Si atom -5568.499389 kJ/mol
# Density = 2.274114 g / cm^3
# Si number density = 22.793017 Si / 1000 Ang^3
#
#
#
# Elastic Constant Matrix: (Units=GPa)
#
#
# Indices 1 2 3 4 5 6 
#
# 1 45.2134 -1.5300 47.3126 0.0000 2.0400 0.0000
# 2 -1.5300 30.9211 26.0207 0.0000 11.9603 0.0000
# 3 47.3126 26.0207 79.2210 0.0000 -13.1018 0.0000
# 4 0.0000 0.0000 0.0000 45.3565 0.0000 -81.2923
# 5 2.0400 11.9603 -13.1018 0.0000 25.2521 0.0000
# 6 0.0000 0.0000 0.0000 -81.2923 0.0000 407.9894
#
#
#
# Elastic Compliance Matrix: (Units=1/GPa)
#
#
# Indices 1 2 3 4 5 6 
#
# 1 -0.024931 -0.054858 0.041062 0.000000 0.049301 0.000000
# 2 -0.054858 -0.029100 0.049588 0.000000 0.043943 0.000000
# 3 0.041062 0.049588 -0.035682 0.000000 -0.045317 0.000000
# 4 0.000000 0.000000 0.000000 0.034295 0.000000 0.006833
# 5 0.049301 0.043943 -0.045317 0.000000 -0.008708 0.000000
# 6 0.000000 0.000000 0.000000 0.006833 0.000000 0.003813
#
#
# Mechanical properties :
#
#
# Convention : Reuss Voigt Hill
#
# Bulk Modulus (GPa) = -55.15640 33.21802 -10.96919
# Shear Modulus (GPa) = -36.24726 101.28975 32.52125
#
# Velocity S-wave (km/s) = -3.99216 6.67349 3.78141
# Velocity P-wave (km/s) = 6.74545 8.60151 3.77391
#
# Compressibility (1/GPa) = -0.01813026
#
# Stress axis : x y z
#
# Youngs Moduli (GPa) = -40.10999 -34.36382 -28.02517
#
# Poissons Ratio (x) = -1.88511 1.15076
# Poissons Ratio (y) = -2.20034 1.38971
# Poissons Ratio (z) = 1.64698 1.70403
#
# Static dielectric constant tensor:
#      x y z
#    x 2.033380 0.000000 -0.067300 
#    y 0.000000 1.845370 0.000000 
#    z -0.067300 0.000000 1.905500 
# 
# From -- ./inp_files/96155.got.cif
#   From: 2010.05.17/outbox.cif.g08.bks.cpg/sg13_49_cif.got.tgz:96155.got - 2010.06.03 16:44:36.
