data_PCOD9229400
_publ_section_title
;
Structure prediction by ZEFSAII (Michael W. Deem and Ramdas Pophale) SiO2 
 PCOD9229400
Probable space group: P 2/C
;
_chemical_formula_sum "Si O2"
_cell_formula_units_Z 30
_cell_length_a 15.218675
_cell_length_b 5.352058
_cell_length_c 20.380436
_cell_angle_alpha 90.000000
_cell_angle_beta 61.369812
_cell_angle_gamma 90.000000
_cell_volume 1457.043050
_symmetry_space_group_name_H-M "P 2/C"
_symmetry_group_IT_number 13
_symmetry_cell_setting 'monoclinic'
loop_
_space_group_symop_operation_xyz
x,y,z
-x,y,1/2-z
-x,-y,-z
x,-y,1/2+z
loop_
_atom_site_type_symbol
_atom_site_label
_atom_site_fract_x
_atom_site_fract_y
_atom_site_fract_z
Si Si1 0.500000 0.081333 0.750000
Si Si2 0.681848 0.441739 0.645452
Si Si3 0.640611 0.799505 0.776426
Si Si4 0.182383 0.081157 0.844937
Si Si5 0.896865 0.057116 0.997552
Si Si6 0.104761 0.920380 0.246723
Si Si7 0.804648 0.452428 0.475656
Si Si8 0.775676 0.579465 0.833746
O O1 0.595313 0.237461 0.689661
O O2 0.536385 0.937511 0.803217
O O3 0.644483 0.656337 0.705963
O O4 0.786863 0.351255 0.640717
O O5 0.711318 0.476639 0.559703
O O6 0.675291 0.636552 0.826266
O O7 0.729977 0.996451 0.735121
O O8 0.176678 0.921329 0.912541
O O9 0.088121 0.063703 0.831480
O O10 0.861177 0.809497 0.971419
O O11 0.878399 0.311586 0.963890
O O12 0.000000 0.000000 0.000000
O O13 0.171721 0.674154 0.209780
O O14 0.000000 0.881116 0.250000
O O15 0.152694 0.179883 0.204174
O O16 0.765404 0.449098 0.415421
#
# Coordination Sequence:
#
# PCOD9229400 Si02
#       8
#     2   4   4   4   4   4   4   4
#     4  10  22  36  70  98 114 154 216 270 314 388
#     4  10  19  40  62  91 122 159 207 260 318 381
#     4  10  19  40  62  90 123 157 207 261 319 378
#     4   9  20  35  60  86 120 168 210 258 309 354
#     4  11  23  39  60  89 126 170 222 262 301 364
#     4  11  23  39  60  89 126 170 222 261 300 364
#     4  11  24  41  62  91 130 173 204 257 327 374
#     4  11  24  41  62  91 130 173 203 257 327 374
#
# _framework density 20.589644
#
# number of rings (size 3 to 8) (size 9 to 14) (size 15 to 20)
#    0.000    1.600    2.667    2.000    3.733    0.000 
#    0.000    0.667    0.000    3.200    0.000    0.000 
#    0.000    0.000    0.000    0.000    0.000    0.000 
#
# Total GULP energy -167038.871553 kJ/mol
# GULP energy per Si atom -5567.962385 kJ/mol
# Density = 2.054278 g / cm^3
# Si number density = 20.589644 Si / 1000 Ang^3
#
#
#
# Elastic Constant Matrix: (Units=GPa)
#
#
# Indices 1 2 3 4 5 6 
#
# 1 98.4952 41.5829 25.6351 0.0000 18.0340 0.0000
# 2 41.5829 127.8528 35.9019 0.0000 12.7416 0.0000
# 3 25.6351 35.9019 94.9680 0.0000 28.2796 0.0000
# 4 0.0000 0.0000 0.0000 19.5260 0.0000 2.4631
# 5 18.0340 12.7416 28.2796 0.0000 25.0660 0.0000
# 6 0.0000 0.0000 0.0000 2.4631 0.0000 26.8664
#
#
#
# Elastic Compliance Matrix: (Units=1/GPa)
#
#
# Indices 1 2 3 4 5 6 
#
# 1 0.013011 -0.003493 0.000101 0.000000 -0.007699 0.000000
# 2 -0.003493 0.009707 -0.003021 0.000000 0.000986 0.000000
# 3 0.000101 -0.003021 0.016880 0.000000 -0.017581 0.000000
# 4 0.000000 0.000000 0.000000 0.051813 0.000000 -0.004750
# 5 -0.007699 0.000986 -0.017581 0.000000 0.064768 0.000000
# 6 0.000000 0.000000 0.000000 -0.004750 0.000000 0.037657
#
#
# Mechanical properties :
#
#
# Convention : Reuss Voigt Hill
#
# Bulk Modulus (GPa) = 37.35068 58.61730 47.98399
# Shear Modulus (GPa) = 23.19274 28.83808 26.01541
#
# Velocity S-wave (km/s) = 3.35987 3.74653 3.55846
# Velocity P-wave (km/s) = 5.76468 6.87361 6.34342
#
# Compressibility (1/GPa) = 0.02677327
#
# Stress axis : x y z
#
# Youngs Moduli (GPa) = 76.85955 103.01420 59.24216
#
# Poissons Ratio (x) = 0.35980 -0.00599
# Poissons Ratio (y) = 0.26845 0.17895
# Poissons Ratio (z) = -0.00777 0.31118
#
# Static dielectric constant tensor:
#      x y z
#    x 1.823580 0.000000 -0.007180 
#    y 0.000000 1.840640 0.000000 
#    z -0.007180 0.000000 1.812150 
# 
# From -- ./inp_files/67536.got.cif
#   From: 2010.05.17/outbox.cif.g08.bks.cpg/sg13_34_cif.got.tgz:67536.got - 2010.06.03 16:44:36.
