data_PCOD9229235
_publ_section_title
;
Structure prediction by ZEFSAII (Michael W. Deem and Ramdas Pophale) SiO2 
 PCOD9229235
Probable space group: P 2/C
;
_chemical_formula_sum "Si O2"
_cell_formula_units_Z 28
_cell_length_a 23.868750
_cell_length_b 8.875141
_cell_length_c 21.572274
_cell_angle_alpha 90.000000
_cell_angle_beta 161.141554
_cell_angle_gamma 90.000000
_cell_volume 1477.114338
_symmetry_space_group_name_H-M "P 2/C"
_symmetry_group_IT_number 13
_symmetry_cell_setting 'monoclinic'
loop_
_space_group_symop_operation_xyz
x,y,z
-x,y,1/2-z
-x,-y,-z
x,-y,1/2+z
loop_
_atom_site_type_symbol
_atom_site_label
_atom_site_fract_x
_atom_site_fract_y
_atom_site_fract_z
Si Si1 0.321732 0.168051 0.956055
Si Si2 0.442859 0.913168 0.256052
Si Si3 0.834727 0.840957 0.334777
Si Si4 0.341519 0.647666 0.727582
Si Si5 0.202627 0.804105 0.467074
Si Si6 0.219391 0.190986 0.220212
Si Si7 0.426930 0.306186 0.848847
O O1 0.176984 0.169332 0.752055
O O2 0.271426 0.232849 0.970267
O O3 0.483673 0.255427 0.096729
O O4 0.390543 0.999916 0.041303
O O5 0.500000 0.845126 0.250000
O O6 0.378906 0.795426 0.239211
O O7 0.305916 0.046646 0.097992
O O8 0.702517 0.732557 0.230782
O O9 0.032595 0.801281 0.558069
O O10 0.771327 0.011193 0.284128
O O11 0.242282 0.675246 0.558919
O O12 0.230954 0.717476 0.668050
O O13 0.400613 0.479235 0.803966
O O14 0.000000 0.834992 0.250000
O O15 0.380405 0.256559 0.427910
#
# Coordination Sequence:
#
# PCOD9229235 Si02
#       7
#     4   4   4   4   4   4   4
#     4  10  19  38  62  86 115 162 208 249 302 358
#     4   9  20  38  63  85 115 159 206 257 307 350
#     4  11  22  38  67  92 119 160 211 260 300 353
#     4  11  23  39  61  88 126 170 200 241 317 378
#     4  10  21  40  63  89 117 157 214 256 296 367
#     4  11  23  39  62  95 122 162 209 250 307 362
#     4  12  23  41  61  90 133 159 197 256 310 373
#
# _framework density 18.955878999999999
#
# number of rings (size 3 to 8) (size 9 to 14) (size 15 to 20)
#    0.000    1.429    2.857    4.714    0.000    2.857 
#    2.571    0.714    0.000    0.000    0.000    0.000 
#    0.000    0.000    0.000    0.000    0.000    0.000 
#
# Total GULP energy -156246.673301 kJ/mol
# GULP energy per Si atom -5580.238332 kJ/mol
# Density = 1.891273 g / cm^3
# Si number density = 18.955879 Si / 1000 Ang^3
#
#
#
# Elastic Constant Matrix: (Units=GPa)
#
#
# Indices 1 2 3 4 5 6 
#
# 1 94.6802 46.2060 21.1464 0.0000 -14.3400 0.0000
# 2 46.2060 71.4024 14.4247 0.0000 -7.9170 0.0000
# 3 21.1464 14.4247 73.5970 0.0000 8.5666 0.0000
# 4 0.0000 0.0000 0.0000 12.2111 0.0000 -7.5249
# 5 -14.3400 -7.9170 8.5666 0.0000 20.1485 0.0000
# 6 0.0000 0.0000 0.0000 -7.5249 0.0000 3.8004
#
#
#
# Elastic Compliance Matrix: (Units=1/GPa)
#
#
# Indices 1 2 3 4 5 6 
#
# 1 0.017821 -0.009402 -0.004549 0.000000 0.010923 0.000000
# 2 -0.009402 0.020642 -0.001588 0.000000 0.002095 0.000000
# 3 -0.004549 -0.001588 0.016470 0.000000 -0.010864 0.000000
# 4 0.000000 0.000000 0.000000 -0.371962 0.000000 -0.736496
# 5 0.010923 0.002095 -0.010864 0.000000 0.062848 0.000000
# 6 0.000000 0.000000 0.000000 -0.736496 0.000000 -1.195156
#
#
# Mechanical properties :
#
#
# Convention : Reuss Voigt Hill
#
# Bulk Modulus (GPa) = 41.91977 44.80375 43.36176
# Shear Modulus (GPa) = -3.54533 17.75885 7.10676
#
# Velocity S-wave (km/s) = -1.36908 3.06412 1.93836
# Velocity P-wave (km/s) = 4.43433 6.01711 5.28530
#
# Compressibility (1/GPa) = 0.02385509
#
# Stress axis : x y z
#
# Youngs Moduli (GPa) = 56.11496 48.44386 60.71480
#
# Poissons Ratio (x) = 0.45547 0.27619
# Poissons Ratio (y) = 0.52759 0.09643
# Poissons Ratio (z) = 0.25527 0.07694
#
# Static dielectric constant tensor:
#      x y z
#    x 1.675100 0.000000 -0.026420 
#    y 0.000000 1.635410 0.000000 
#    z -0.026420 0.000000 1.683640 
# 
# From -- ./inp_files/82232.got.cif
#   From: 2010.05.17/outbox.cif.g08.bks.cpg/sg13_42_cif.got.tgz:82232.got - 2010.06.03 16:44:36.
