data_PCOD9229044
_publ_section_title
;
Structure prediction by ZEFSAII (Michael W. Deem and Ramdas Pophale) SiO2 
 PCOD9229044
Probable space group: P 2/C
;
_chemical_formula_sum "Si O2"
_cell_formula_units_Z 24
_cell_length_a 8.828465
_cell_length_b 8.868863
_cell_length_c 21.829016
_cell_angle_alpha 90.000000
_cell_angle_beta 48.187986
_cell_angle_gamma 90.000000
_cell_volume 1273.912306
_symmetry_space_group_name_H-M "P 2/C"
_symmetry_group_IT_number 13
_symmetry_cell_setting 'monoclinic'
loop_
_space_group_symop_operation_xyz
x,y,z
-x,y,1/2-z
-x,-y,-z
x,-y,1/2+z
loop_
_atom_site_type_symbol
_atom_site_label
_atom_site_fract_x
_atom_site_fract_y
_atom_site_fract_z
Si Si1 0.808376 0.063221 0.455748
Si Si2 0.380120 0.864152 0.218357
Si Si3 0.984116 0.766978 0.110678
Si Si4 0.263647 0.326323 0.936656
Si Si5 0.611635 0.603139 0.519895
Si Si6 0.603832 0.099703 0.386978
O O1 0.832860 0.219133 0.484867
O O2 0.777324 0.080969 0.391467
O O3 0.596688 0.991365 0.536493
O O4 0.978840 0.938739 0.422272
O O5 0.500000 0.893088 0.250000
O O6 0.169483 0.782616 0.291754
O O7 0.524864 0.752929 0.140513
O O8 0.344216 0.018310 0.190575
O O9 0.875764 0.677323 0.085504
O O10 0.203673 0.693861 0.062211
O O11 0.301215 0.490228 0.953110
O O12 0.500000 0.500000 0.500000
O O13 0.465989 0.726805 0.590670
#
# Coordination Sequence:
#
# PCOD9229044 Si02
#       6
#     4   4   4   4   4   4
#     4   9  17  32  57  83 108 143 200 241 274 333
#     4   9  20  38  58  83 115 152 193 241 296 346
#     4  10  21  35  58  87 113 156 198 240 290 346
#     4  10  19  37  59  84 119 150 193 244 295 354
#     4  11  21  37  59  85 118 154 195 242 296 356
#     4   9  18  34  56  83 109 149 189 240 291 334
#
# _framework density 18.839599
#
# number of rings (size 3 to 8) (size 9 to 14) (size 15 to 20)
#    0.000    2.333    1.667    1.000    2.333    2.000 
#    0.000    4.167    3.667    0.000    0.000    0.000 
#    0.000    0.000    0.000    0.000    0.000    0.000 
#
# Total GULP energy -133829.076747 kJ/mol
# GULP energy per Si atom -5576.211531 kJ/mol
# Density = 1.879672 g / cm^3
# Si number density = 18.839599 Si / 1000 Ang^3
#
#
#
# Elastic Constant Matrix: (Units=GPa)
#
#
# Indices 1 2 3 4 5 6 
#
# 1 38.8191 29.2845 29.4373 0.0000 -3.0096 0.0000
# 2 29.2845 105.4465 31.8217 0.0000 8.9082 0.0000
# 3 29.4373 31.8217 78.2913 0.0000 0.5893 0.0000
# 4 0.0000 0.0000 0.0000 21.7650 0.0000 4.0785
# 5 -3.0096 8.9082 0.5893 0.0000 19.0459 0.0000
# 6 0.0000 0.0000 0.0000 4.0785 0.0000 36.5852
#
#
#
# Elastic Compliance Matrix: (Units=1/GPa)
#
#
# Indices 1 2 3 4 5 6 
#
# 1 0.043074 -0.009139 -0.012568 0.000000 0.011470 0.000000
# 2 -0.009139 0.013230 -0.001884 0.000000 -0.007574 0.000000
# 3 -0.012568 -0.001884 0.018277 0.000000 -0.001670 0.000000
# 4 0.000000 0.000000 0.000000 0.046926 0.000000 -0.005231
# 5 0.011470 -0.007574 -0.001670 0.000000 0.057911 0.000000
# 6 0.000000 0.000000 0.000000 -0.005231 0.000000 0.027917
#
#
# Mechanical properties :
#
#
# Convention : Reuss Voigt Hill
#
# Bulk Modulus (GPa) = 36.49699 44.84932 40.67315
# Shear Modulus (GPa) = 18.96464 24.28011 21.62238
#
# Velocity S-wave (km/s) = 3.17620 3.59385 3.39146
# Velocity P-wave (km/s) = 5.73284 6.40926 6.08047
#
# Compressibility (1/GPa) = 0.02739952
#
# Stress axis : x y z
#
# Youngs Moduli (GPa) = 23.21576 75.58615 54.71476
#
# Poissons Ratio (x) = 0.69077 0.68763
# Poissons Ratio (y) = 0.21216 0.10309
# Poissons Ratio (z) = 0.29177 0.14242
#
# Static dielectric constant tensor:
#      x y z
#    x 1.681290 0.000000 -0.010130 
#    y 0.000000 1.640940 0.000000 
#    z -0.010130 0.000000 1.662050 
# 
# From -- ./inp_files/52898.got.cif
#   From: 2010.05.17/outbox.cif.g08.bks.cpg/sg13_27_cif.got.tgz:52898.got - 2010.06.03 16:44:36.
