data_PCOD9229986
_publ_section_title
;
Structure prediction by ZEFSAII (Michael W. Deem and Ramdas Pophale) SiO2 
 PCOD9229986
Probable space group: P 2/C
;
_chemical_formula_sum "Si O2"
_cell_formula_units_Z 28
_cell_length_a 9.583829
_cell_length_b 8.640265
_cell_length_c 15.932935
_cell_angle_alpha 90.000000
_cell_angle_beta 80.391101
_cell_angle_gamma 90.000000
_cell_volume 1300.845319
_symmetry_space_group_name_H-M "P 2/C"
_symmetry_group_IT_number 13
_symmetry_cell_setting 'monoclinic'
loop_
_space_group_symop_operation_xyz
x,y,z
-x,y,1/2-z
-x,-y,-z
x,-y,1/2+z
loop_
_atom_site_type_symbol
_atom_site_label
_atom_site_fract_x
_atom_site_fract_y
_atom_site_fract_z
Si Si1 0.533322 0.854753 0.117561
Si Si2 0.186137 0.876351 0.793340
Si Si3 0.356614 0.701897 0.998894
Si Si4 0.201202 0.996640 0.964209
Si Si5 0.895055 0.172992 0.370142
Si Si6 0.500000 0.400040 0.750000
Si Si7 0.360440 0.413122 0.113069
Si Si8 0.500000 0.878528 0.750000
O O1 0.405992 0.793316 0.076089
O O2 0.577840 0.718778 0.177721
O O3 0.653539 0.907086 0.041376
O O4 0.488771 0.005158 0.172998
O O5 0.178849 0.006946 0.866068
O O6 0.149349 0.935339 0.704089
O O7 0.344420 0.806202 0.775957
O O8 0.053672 0.769372 0.833204
O O9 0.328250 0.532904 0.039983
O O10 0.236303 0.814348 0.974212
O O11 0.493536 0.677131 0.925240
O O12 0.104305 0.079092 0.042781
O O13 0.776282 0.304082 0.374017
O O14 0.599067 0.499003 0.803575
#
# Coordination Sequence:
#
# PCOD9229986 Si02
#       8
#     4   4   4   4   4   2   4   2
#     4   9  17  33  57  95 127 157 206 273 308 365
#     4  10  24  38  60  95 126 164 207 262 325 371
#     4  10  20  35  56  94 122 164 216 253 318 369
#     4  11  21  37  67  92 126 165 215 264 319 376
#     4  11  23  41  60  89 134 166 208 267 318 375
#     4   9  20  35  54  90 139 169 214 258 313 377
#     4  10  22  36  59  85 134 173 210 261 311 376
#     4   9  18  33  60  90 123 151 214 256 321 369
#
# _framework density 21.524466
#
# number of rings (size 3 to 8) (size 9 to 14) (size 15 to 20)
#    0.000    2.000    1.429    1.714    6.000    1.143 
#    0.000    0.714    0.000   18.857    0.000    0.000 
#    0.000    0.000    0.000    0.000    0.000    0.000 
#
# Total GULP energy -155873.699946 kJ/mol
# GULP energy per Si atom -5566.917855 kJ/mol
# Density = 2.147548 g / cm^3
# Si number density = 21.524466 Si / 1000 Ang^3
#
#
#
# Elastic Constant Matrix: (Units=GPa)
#
#
# Indices 1 2 3 4 5 6 
#
# 1 110.9707 35.2200 40.0804 0.0000 -19.8701 0.0000
# 2 35.2200 84.0200 35.8145 0.0000 -2.9774 0.0000
# 3 40.0804 35.8145 100.6963 0.0000 3.9625 0.0000
# 4 0.0000 0.0000 0.0000 34.7201 0.0000 5.4284
# 5 -19.8701 -2.9774 3.9625 0.0000 44.2368 0.0000
# 6 0.0000 0.0000 0.0000 5.4284 0.0000 23.4293
#
#
#
# Elastic Compliance Matrix: (Units=1/GPa)
#
#
# Indices 1 2 3 4 5 6 
#
# 1 0.012566 -0.003340 -0.004041 0.000000 0.005782 0.000000
# 2 -0.003340 0.015003 -0.004001 0.000000 -0.000132 0.000000
# 3 -0.004041 -0.004001 0.013091 0.000000 -0.003257 0.000000
# 4 0.000000 0.000000 0.000000 0.029884 0.000000 -0.006924
# 5 0.005782 -0.000132 -0.003257 0.000000 0.025486 0.000000
# 6 0.000000 0.000000 0.000000 -0.006924 0.000000 0.044286
#
#
# Mechanical properties :
#
#
# Convention : Reuss Voigt Hill
#
# Bulk Modulus (GPa) = 55.88339 57.54632 56.71485
# Shear Modulus (GPa) = 29.57767 32.78205 31.17986
#
# Velocity S-wave (km/s) = 3.71096 3.90681 3.81015
# Velocity P-wave (km/s) = 6.66189 6.86617 6.76480
#
# Compressibility (1/GPa) = 0.01789441
#
# Stress axis : x y z
#
# Youngs Moduli (GPa) = 79.57740 66.65326 76.38943
#
# Poissons Ratio (x) = 0.22263 0.30872
# Poissons Ratio (y) = 0.26579 0.30567
# Poissons Ratio (z) = 0.32160 0.26671
#
# Static dielectric constant tensor:
#      x y z
#    x 1.881050 0.000000 0.019420 
#    y 0.000000 1.808360 0.000000 
#    z 0.019420 0.000000 1.892740 
# 
# From -- ./inp_files/63781.got.cif
#   From: 2010.05.17/outbox.cif.g08.bks.cpg/sg13_32_cif.got.tgz:63781.got - 2010.06.03 16:44:36.
