data_PCOD9229611
_publ_section_title
;
Structure prediction by ZEFSAII (Michael W. Deem and Ramdas Pophale) SiO2 
 PCOD9229611
Probable space group: P 2/C
;
_chemical_formula_sum "Si O2"
_cell_formula_units_Z 32
_cell_length_a 22.332015
_cell_length_b 15.900256
_cell_length_c 22.384080
_cell_angle_alpha 90.000000
_cell_angle_beta 166.813217
_cell_angle_gamma 90.000000
_cell_volume 1813.203685
_symmetry_space_group_name_H-M "P 2/C"
_symmetry_group_IT_number 13
_symmetry_cell_setting 'monoclinic'
loop_
_space_group_symop_operation_xyz
x,y,z
-x,y,1/2-z
-x,-y,-z
x,-y,1/2+z
loop_
_atom_site_type_symbol
_atom_site_label
_atom_site_fract_x
_atom_site_fract_y
_atom_site_fract_z
Si Si1 0.094209 0.819962 0.772766
Si Si2 0.179219 0.911063 0.586484
Si Si3 0.534417 0.520880 0.210855
Si Si4 0.373078 0.899463 0.254914
Si Si5 0.385580 0.907446 0.401107
Si Si6 0.544530 0.328280 0.221658
Si Si7 0.959213 0.375139 0.282175
Si Si8 0.036687 0.776995 0.214446
O O1 0.107059 0.721420 0.768351
O O2 0.000000 0.826011 0.750000
O O3 0.870554 0.858639 0.514629
O O4 0.362166 0.871001 0.021452
O O5 0.066642 0.858879 0.420906
O O6 0.913736 0.918249 0.367978
O O7 0.305085 0.000630 0.689502
O O8 0.413212 0.870485 0.854038
O O9 0.500000 0.518722 0.250000
O O10 0.535869 0.424206 0.191657
O O11 0.785677 0.579652 0.443189
O O12 0.286133 0.566838 0.942321
O O13 0.391961 0.867367 0.341655
O O14 0.500000 0.000000 0.500000
O O15 0.500000 0.330870 0.250000
O O16 0.835241 0.293651 0.496386
O O17 0.326043 0.262222 0.986161
O O18 0.000000 0.376094 0.250000
O O19 0.000000 0.790284 0.250000
#
# Coordination Sequence:
#
# PCOD9229611 Si02
#       8
#     4   4   4   4   4   4   4   4
#     4  11  22  35  50  76 112 143 169 205 256 315
#     4  11  21  36  56  76 101 135 175 218 262 304
#     4   9  15  26  45  67  94 133 172 201 240 296
#     4  11  21  36  55  74 101 138 177 218 258 302
#     4  10  20  37  57  76  94 124 177 234 272 288
#     4   9  17  29  46  70 102 137 168 202 246 300
#     4   9  17  28  44  67  99 134 166 203 245 296
#     4  10  20  33  49  74 110 140 163 201 253 314
#
# _framework density 17.648319999999998
#
# number of rings (size 3 to 8) (size 9 to 14) (size 15 to 20)
#    0.000    2.000    0.000    6.375    0.000    5.500 
#    0.000    5.000    0.000    0.000    0.000    0.000 
#    0.000   70.000    0.000    0.000    0.000    0.000 
#
# Total GULP energy -178225.030708 kJ/mol
# GULP energy per Si atom -5569.532210 kJ/mol
# Density = 1.760815 g / cm^3
# Si number density = 17.648320 Si / 1000 Ang^3
#
#
#
# Elastic Constant Matrix: (Units=GPa)
#
#
# Indices 1 2 3 4 5 6 
#
# 1 92.7830 47.4131 78.8209 0.0000 -7.1491 0.0000
# 2 47.4131 97.3208 46.9505 0.0000 -3.3679 0.0000
# 3 78.8209 46.9505 182.2596 0.0000 -3.3396 0.0000
# 4 0.0000 0.0000 0.0000 24.8959 0.0000 6.8508
# 5 -7.1491 -3.3679 -3.3396 0.0000 31.4359 0.0000
# 6 0.0000 0.0000 0.0000 6.8508 0.0000 -5.5996
#
#
#
# Elastic Compliance Matrix: (Units=1/GPa)
#
#
# Indices 1 2 3 4 5 6 
#
# 1 0.020282 -0.006358 -0.007075 0.000000 0.003180 0.000000
# 2 -0.006358 0.013754 -0.000795 0.000000 -0.000057 0.000000
# 3 -0.007075 -0.000795 0.008737 0.000000 -0.000766 0.000000
# 4 0.000000 0.000000 0.000000 0.030050 0.000000 0.036765
# 5 0.003180 -0.000057 -0.000766 0.000000 0.032446 0.000000
# 6 0.000000 0.000000 0.000000 0.036765 0.000000 -0.133605
#
#
# Mechanical properties :
#
#
# Convention : Reuss Voigt Hill
#
# Bulk Modulus (GPa) = 69.84169 79.85915 74.85042
# Shear Modulus (GPa) = 1021.61257 23.42504 522.51881
#
# Velocity S-wave (km/s) = 24.08587 3.64720 17.22543
# Velocity P-wave (km/s) = 28.51606 7.94258 20.93144
#
# Compressibility (1/GPa) = 0.01431809
#
# Stress axis : x y z
#
# Youngs Moduli (GPa) = 49.30370 72.70557 114.45330
#
# Poissons Ratio (x) = 0.46225 0.80980
# Poissons Ratio (y) = 0.31347 0.09094
# Poissons Ratio (z) = 0.34884 0.05777
#
# Static dielectric constant tensor:
#      x y z
#    x 1.678110 0.000000 0.035080 
#    y 0.000000 1.618410 0.000000 
#    z 0.035080 0.000000 1.632220 
# 
# From -- ./inp_files/89288.got.cif
#   From: 2010.05.17/outbox.cif.g08.bks.cpg/sg13_45_cif.got.tgz:89288.got - 2010.06.03 16:44:36.
