data_PCOD9229801
_publ_section_title
;
Structure prediction by ZEFSAII (Michael W. Deem and Ramdas Pophale) SiO2 
 PCOD9229801
Probable space group: P 2/C
;
_chemical_formula_sum "Si O2"
_cell_formula_units_Z 32
_cell_length_a 19.659158
_cell_length_b 15.343705
_cell_length_c 12.362986
_cell_angle_alpha 90.000000
_cell_angle_beta 26.582798
_cell_angle_gamma 90.000000
_cell_volume 1668.792970
_symmetry_space_group_name_H-M "P 2/C"
_symmetry_group_IT_number 13
_symmetry_cell_setting 'monoclinic'
loop_
_space_group_symop_operation_xyz
x,y,z
-x,y,1/2-z
-x,-y,-z
x,-y,1/2+z
loop_
_atom_site_type_symbol
_atom_site_label
_atom_site_fract_x
_atom_site_fract_y
_atom_site_fract_z
Si Si1 0.817986 0.596497 0.241379
Si Si2 0.178790 0.150277 0.975353
Si Si3 0.184139 0.657430 0.478506
Si Si4 0.193795 0.253488 0.357951
Si Si5 0.810910 0.597342 0.794499
Si Si6 0.830028 0.234864 0.861663
Si Si7 0.675536 0.882305 0.999978
Si Si8 0.163143 0.052445 0.778994
O O1 0.768137 0.504020 0.359672
O O2 0.771086 0.683599 0.373221
O O3 0.768980 0.595427 0.185482
O O4 0.003689 0.598827 0.975272
O O5 0.228070 0.247156 0.874125
O O6 0.255701 0.131744 0.979469
O O7 0.000000 0.155542 0.250000
O O8 0.192897 0.082636 0.859101
O O9 0.239360 0.640891 0.521144
O O10 0.000000 0.652623 0.750000
O O11 0.242346 0.344304 0.231418
O O12 0.238974 0.238645 0.418799
O O13 0.245853 0.176876 0.203301
O O14 0.010624 0.251646 0.616833
O O15 0.823834 0.139766 0.812997
O O16 0.708973 0.982823 0.929860
O O17 0.500000 0.860799 0.250000
O O18 0.000000 0.000000 0.000000
#
# Coordination Sequence:
#
# PCOD9229801 Si02
#       8
#     4   4   4   4   4   4   4   4
#     4   9  17  28  46  84 119 150 192 245 305 348
#     4  11  20  38  64  85 116 159 203 250 298 358
#     4   9  16  28  50  77 115 153 196 238 289 358
#     4  10  20  36  55  82 122 158 194 243 310 362
#     4   9  17  28  48  79 121 158 188 235 303 369
#     4  10  20  34  56  86 119 153 197 253 303 361
#     4  12  27  42  60  90 123 159 207 257 306 365
#     4  12  23  38  63  88 115 159 210 251 305 367
#
# _framework density 19.175536000000001
#
# number of rings (size 3 to 8) (size 9 to 14) (size 15 to 20)
#    0.000    1.750    5.000    0.000    3.500    0.500 
#    0.000    0.000    0.000    0.000    0.000    4.375 
#    0.000    0.000    0.000    0.000    0.000    0.000 
#
# Total GULP energy -178256.151043 kJ/mol
# GULP energy per Si atom -5570.504720 kJ/mol
# Density = 1.913189 g / cm^3
# Si number density = 19.175536 Si / 1000 Ang^3
#
#
#
# Elastic Constant Matrix: (Units=GPa)
#
#
# Indices 1 2 3 4 5 6 
#
# 1 129.9912 55.3754 42.5119 0.0000 36.3352 0.0000
# 2 55.3754 116.2253 10.5702 0.0000 17.1896 0.0000
# 3 42.5119 10.5702 21.6676 0.0000 8.8258 0.0000
# 4 0.0000 0.0000 0.0000 6.7800 0.0000 11.5868
# 5 36.3352 17.1896 8.8258 0.0000 18.8258 0.0000
# 6 0.0000 0.0000 0.0000 11.5868 0.0000 30.5406
#
#
#
# Elastic Compliance Matrix: (Units=1/GPa)
#
#
# Indices 1 2 3 4 5 6 
#
# 1 0.051549 -0.009545 -0.073552 0.000000 -0.056296 0.000000
# 2 -0.009545 0.011750 0.012189 0.000000 0.001979 0.000000
# 3 -0.073552 0.012189 0.162197 0.000000 0.054791 0.000000
# 4 0.000000 0.000000 0.000000 0.419461 0.000000 -0.159140
# 5 -0.056296 0.001979 0.054791 0.000000 0.134280 0.000000
# 6 0.000000 0.000000 0.000000 -0.159140 0.000000 0.093120
#
#
# Mechanical properties :
#
#
# Convention : Reuss Voigt Hill
#
# Bulk Modulus (GPa) = 11.95022 53.86657 32.90839
# Shear Modulus (GPa) = 4.79816 21.85770 13.32793
#
# Velocity S-wave (km/s) = 1.58356 3.37987 2.63924
# Velocity P-wave (km/s) = 3.09663 6.58662 5.14649
#
# Compressibility (1/GPa) = 0.08368047
#
# Stress axis : x y z
#
# Youngs Moduli (GPa) = 19.39896 85.10277 6.16533
#
# Poissons Ratio (x) = 0.81232 0.45347
# Poissons Ratio (y) = 0.18517 -0.07515
# Poissons Ratio (z) = 1.42684 -1.03734
#
# Static dielectric constant tensor:
#      x y z
#    x 1.302250 0.000000 -0.124820 
#    y 0.000000 1.733690 0.000000 
#    z -0.124820 0.000000 1.601210 
# 
# From -- ./inp_files/39465.got.cif
#   From: 2010.05.17/outbox.cif.g08.bks.cpg/sg13_20_cif.got.tgz:39465.got - 2010.06.03 16:44:36.
