data_PCOD9229903
_publ_section_title
;
Structure prediction by ZEFSAII (Michael W. Deem and Ramdas Pophale) SiO2 
 PCOD9229903
Probable space group: P 2/C
;
_chemical_formula_sum "Si O2"
_cell_formula_units_Z 20
_cell_length_a 7.651877
_cell_length_b 12.216536
_cell_length_c 8.932402
_cell_angle_alpha 90.000000
_cell_angle_beta 101.477043
_cell_angle_gamma 90.000000
_cell_volume 818.299702
_symmetry_space_group_name_H-M "P 2/C"
_symmetry_group_IT_number 13
_symmetry_cell_setting 'monoclinic'
loop_
_space_group_symop_operation_xyz
x,y,z
-x,y,1/2-z
-x,-y,-z
x,-y,1/2+z
loop_
_atom_site_type_symbol
_atom_site_label
_atom_site_fract_x
_atom_site_fract_y
_atom_site_fract_z
Si Si1 0.709769 0.547521 0.332542
Si Si2 0.231921 0.660711 0.465948
Si Si3 0.844593 0.165722 0.343467
Si Si4 0.644522 0.732388 0.548471
Si Si5 0.365755 0.047857 0.599073
O O1 0.500000 0.531430 0.250000
O O2 0.781132 0.433869 0.410016
O O3 0.723103 0.627737 0.477887
O O4 0.794447 0.603840 0.200236
O O5 0.114559 0.762526 0.502386
O O6 0.432859 0.711712 0.495607
O O7 0.000000 0.153286 0.250000
O O8 0.766159 0.047841 0.373514
O O9 0.699404 0.238255 0.226161
O O10 0.711647 0.840319 0.474224
O O11 0.500000 0.081737 0.750000
O O12 0.500000 0.000000 0.500000
#
# Coordination Sequence:
#
# PCOD9229903 Si02
#       5
#     4   4   4   4   4
#     4  10  20  34  67 100 122 156 211 272 309 362
#     4  11  20  40  65  95 126 161 213 262 315 369
#     4  12  26  42  61  90 130 171 208 258 314 375
#     4  11  22  40  65  91 126 164 211 259 315 372
#     4  12  22  42  69  95 121 162 210 260 316 373
#
# _framework density 24.440919999999998
#
# number of rings (size 3 to 8) (size 9 to 14) (size 15 to 20)
#    0.000    0.800    4.000    7.200    0.000    0.800 
#    0.000    5.000    0.000    0.000    0.000    0.000 
#    0.000    0.000    0.000    0.000    0.000    0.000 
#
# Total GULP energy -111880.195110 kJ/mol
# GULP energy per Si atom -5594.009755 kJ/mol
# Density = 2.438529 g / cm^3
# Si number density = 24.440920 Si / 1000 Ang^3
#
#
#
# Elastic Constant Matrix: (Units=GPa)
#
#
# Indices 1 2 3 4 5 6 
#
# 1 100.2933 27.6426 11.1842 0.0000 -28.4788 0.0000
# 2 27.6426 168.0449 22.4863 0.0000 -25.4060 0.0000
# 3 11.1842 22.4863 86.3913 0.0000 -24.7947 0.0000
# 4 0.0000 0.0000 0.0000 57.7383 0.0000 -17.9014
# 5 -28.4788 -25.4060 -24.7947 0.0000 33.5494 0.0000
# 6 0.0000 0.0000 0.0000 -17.9014 0.0000 2.0509
#
#
#
# Elastic Compliance Matrix: (Units=1/GPa)
#
#
# Indices 1 2 3 4 5 6 
#
# 1 0.013442 -0.000598 0.001980 0.000000 0.012421 0.000000
# 2 -0.000598 0.006756 -0.000455 0.000000 0.004272 0.000000
# 3 0.001980 -0.000455 0.015003 0.000000 0.012425 0.000000
# 4 0.000000 0.000000 0.000000 -0.010150 0.000000 -0.088600
# 5 0.012421 0.004272 0.012425 0.000000 0.052768 0.000000
# 6 0.000000 0.000000 0.000000 -0.088600 0.000000 -0.285766
#
#
# Mechanical properties :
#
#
# Convention : Reuss Voigt Hill
#
# Bulk Modulus (GPa) = 26.98676 53.03953 40.01315
# Shear Modulus (GPa) = -25.32281 38.22880 6.45300
#
# Velocity S-wave (km/s) = -3.22232 3.95920 1.62665
# Velocity P-wave (km/s) = 1.66698 6.53059 4.46485
#
# Compressibility (1/GPa) = 0.03705521
#
# Stress axis : x y z
#
# Youngs Moduli (GPa) = 74.39519 148.01776 66.65243
#
# Poissons Ratio (x) = 0.08855 -0.13200
# Poissons Ratio (y) = 0.04451 0.03032
# Poissons Ratio (z) = -0.14733 0.06734
#
# Static dielectric constant tensor:
#      x y z
#    x 2.046320 0.000000 0.104490 
#    y 0.000000 1.881400 0.000000 
#    z 0.104490 0.000000 2.084840 
# 
# From -- ./inp_files/11649.got.cif
#   From: 2010.05.17/outbox.cif.g08.bks.cpg/sg13_6_cif.got.tgz:11649.got - 2010.06.03 16:44:36.
