data_PCOD9229941
_publ_section_title
;
Structure prediction by ZEFSAII (Michael W. Deem and Ramdas Pophale) SiO2 
 PCOD9229941
Probable space group: P 2/C
;
_chemical_formula_sum "Si O2"
_cell_formula_units_Z 16
_cell_length_a 7.628481
_cell_length_b 11.473672
_cell_length_c 11.246799
_cell_angle_alpha 90.000000
_cell_angle_beta 36.327289
_cell_angle_gamma 90.000000
_cell_volume 583.152652
_symmetry_space_group_name_H-M "P 2/C"
_symmetry_group_IT_number 13
_symmetry_cell_setting 'monoclinic'
loop_
_space_group_symop_operation_xyz
x,y,z
-x,y,1/2-z
-x,-y,-z
x,-y,1/2+z
loop_
_atom_site_type_symbol
_atom_site_label
_atom_site_fract_x
_atom_site_fract_y
_atom_site_fract_z
Si Si1 0.605148 0.205075 0.465805
Si Si2 0.199026 0.698017 0.996533
Si Si3 0.919464 0.878329 0.987319
Si Si4 0.658112 0.544580 0.035310
O O1 0.313080 0.241515 0.554642
O O2 0.818229 0.151010 0.250093
O O3 0.729560 0.324544 0.457203
O O4 0.624899 0.118653 0.566758
O O5 0.500000 0.693254 0.750000
O O6 0.957604 0.774483 0.061688
O O7 0.116193 0.562702 0.061913
O O8 0.000000 0.000000 0.000000
O O9 0.500000 0.555789 0.250000
O O10 0.500000 0.500000 0.000000
#
# Coordination Sequence:
#
# PCOD9229941 Si02
#       4
#     4   4   4   4
#     4   9  19  36  57  81 110 146 189 240 291 340
#     4   8  16  33  56  82 112 144 179 231 290 340
#     4  10  20  35  55  80 113 154 198 234 276 344
#     4   9  17  34  61  90 117 146 188 238 297 361
#
# _framework density 27.437071
#
# number of rings (size 3 to 8) (size 9 to 14) (size 15 to 20)
#    0.000    3.000    0.000    1.500    0.000    2.000 
#    0.000   13.750    0.000    0.000    0.000    0.000 
#    0.000    0.000    0.000    0.000    0.000    0.000 
#
# Total GULP energy -89478.101271 kJ/mol
# GULP energy per Si atom -5592.381329 kJ/mol
# Density = 2.737462 g / cm^3
# Si number density = 27.437071 Si / 1000 Ang^3
#
#
#
# Elastic Constant Matrix: (Units=GPa)
#
#
# Indices 1 2 3 4 5 6 
#
# 1 191.9783 73.9686 50.8058 0.0000 38.8004 0.0000
# 2 73.9686 165.5073 41.9235 0.0000 28.7551 0.0000
# 3 50.8058 41.9235 182.5634 0.0000 41.4288 0.0000
# 4 0.0000 0.0000 0.0000 43.7789 0.0000 19.4196
# 5 38.8004 28.7551 41.4288 0.0000 56.2853 0.0000
# 6 0.0000 0.0000 0.0000 19.4196 0.0000 58.9421
#
#
#
# Elastic Compliance Matrix: (Units=1/GPa)
#
#
# Indices 1 2 3 4 5 6 
#
# 1 0.006929 -0.002393 -0.000687 0.000000 -0.003048 0.000000
# 2 -0.002393 0.007584 -0.000685 0.000000 -0.001721 0.000000
# 3 -0.000687 -0.000685 0.006770 0.000000 -0.004159 0.000000
# 4 0.000000 0.000000 0.000000 0.026752 0.000000 -0.008814
# 5 -0.003048 -0.001721 -0.004159 0.000000 0.023808 0.000000
# 6 0.000000 0.000000 0.000000 -0.008814 0.000000 0.019870
#
#
# Mechanical properties :
#
#
# Convention : Reuss Voigt Hill
#
# Bulk Modulus (GPa) = 72.71438 97.04940 84.88189
# Shear Modulus (GPa) = 48.15696 56.69135 52.42415
#
# Velocity S-wave (km/s) = 4.19403 4.55051 4.37590
# Velocity P-wave (km/s) = 7.07198 7.94091 7.51901
#
# Compressibility (1/GPa) = 0.01375244
#
# Stress axis : x y z
#
# Youngs Moduli (GPa) = 144.32485 131.85645 147.71124
#
# Poissons Ratio (x) = 0.31554 0.10147
# Poissons Ratio (y) = 0.34537 0.10121
# Poissons Ratio (z) = 0.09915 0.09034
#
# Static dielectric constant tensor:
#      x y z
#    x 2.140460 0.000000 -0.070650 
#    y 0.000000 2.098560 0.000000 
#    z -0.070650 0.000000 2.285540 
# 
# From -- ./inp_files/11158.got.cif
#   From: 2010.05.17/outbox.cif.g08.bks.cpg/sg13_6_cif.got.tgz:11158.got - 2010.06.03 16:44:36.
