data_PCOD9229239
_publ_section_title
;
Structure prediction by ZEFSAII (Michael W. Deem and Ramdas Pophale) SiO2 
 PCOD9229239
Probable space group: P 2/C
;
_chemical_formula_sum "Si O2"
_cell_formula_units_Z 30
_cell_length_a 6.345503
_cell_length_b 8.602023
_cell_length_c 26.523504
_cell_angle_alpha 90.000000
_cell_angle_beta 93.830000
_cell_angle_gamma 90.000000
_cell_volume 1444.529869
_symmetry_space_group_name_H-M "P 2/C"
_symmetry_group_IT_number 13
_symmetry_cell_setting 'monoclinic'
loop_
_space_group_symop_operation_xyz
x,y,z
-x,y,1/2-z
-x,-y,-z
x,-y,1/2+z
loop_
_atom_site_type_symbol
_atom_site_label
_atom_site_fract_x
_atom_site_fract_y
_atom_site_fract_z
Si Si1 0.746333 0.523992 0.656589
Si Si2 0.285028 0.944469 0.122386
Si Si3 0.479452 0.341427 0.568052
Si Si4 0.500000 0.476683 0.750000
Si Si5 0.960178 0.111017 0.046027
Si Si6 0.889750 0.293934 0.800596
Si Si7 0.739617 0.632126 0.970329
Si Si8 0.594684 0.814698 0.603211
O O1 0.599416 0.418766 0.617700
O O2 0.630567 0.558892 0.707903
O O3 0.756899 0.692236 0.630578
O O4 0.955867 0.422504 0.670981
O O5 0.382912 0.820102 0.084692
O O6 0.173825 0.847324 0.164558
O O7 0.106439 0.045279 0.092668
O O8 0.477702 0.062715 0.137478
O O9 0.290510 0.453284 0.545449
O O10 0.644966 0.337987 0.524420
O O11 0.672175 0.374865 0.781766
O O12 0.036872 0.284717 0.033229
O O13 0.722934 0.101483 0.061213
O O14 0.000000 0.000000 0.000000
O O15 0.000000 0.244539 0.750000
O O16 0.584064 0.716652 0.928175
#
# Coordination Sequence:
#
# PCOD9229239 Si02
#       8
#     4   4   4   2   4   4   4   4
#     4  10  22  39  66  90 117 159 209 257 314 383
#     4  11  23  38  62  90 125 163 203 259 320 371
#     4  10  19  38  62  87 124 160 213 260 306 363
#     4  10  20  44  66  90 122 148 202 266 326 364
#     4  11  23  37  58  84 132 176 210 254 318 378
#     4  10  23  39  66  98 118 155 213 267 320 381
#     4   9  21  38  55  89 124 166 210 260 301 367
#     4  10  23  40  57  89 129 164 207 250 314 384
#
# _framework density 20.768001000000002
#
# number of rings (size 3 to 8) (size 9 to 14) (size 15 to 20)
#    0.000    1.867    1.333    1.600    5.600    3.200 
#    0.000    4.667    0.000    0.000    0.000    0.000 
#    0.000    0.000    0.000    0.000    0.000    0.000 
#
# Total GULP energy -167466.029746 kJ/mol
# GULP energy per Si atom -5582.200992 kJ/mol
# Density = 2.072073 g / cm^3
# Si number density = 20.768001 Si / 1000 Ang^3
#
#
#
# Elastic Constant Matrix: (Units=GPa)
#
#
# Indices 1 2 3 4 5 6 
#
# 1 82.2777 38.9031 25.0961 0.0000 -1.0734 0.0000
# 2 38.9031 83.8907 34.5012 0.0000 -8.2251 0.0000
# 3 25.0961 34.5012 92.1447 0.0000 -9.2509 0.0000
# 4 0.0000 0.0000 0.0000 25.0953 0.0000 -11.3658
# 5 -1.0734 -8.2251 -9.2509 0.0000 30.3998 0.0000
# 6 0.0000 0.0000 0.0000 -11.3658 0.0000 22.0608
#
#
#
# Elastic Compliance Matrix: (Units=1/GPa)
#
#
# Indices 1 2 3 4 5 6 
#
# 1 0.015930 -0.006749 -0.002000 0.000000 -0.001872 0.000000
# 2 -0.006749 0.017103 -0.004255 0.000000 0.003094 0.000000
# 3 -0.002000 -0.004255 0.013273 0.000000 0.002817 0.000000
# 4 0.000000 0.000000 0.000000 0.051976 0.000000 0.026778
# 5 -0.001872 0.003094 0.002817 0.000000 0.034523 0.000000
# 6 0.000000 0.000000 0.000000 0.026778 0.000000 0.059126
#
#
# Mechanical properties :
#
#
# Convention : Reuss Voigt Hill
#
# Bulk Modulus (GPa) = 49.26189 50.59044 49.92617
# Shear Modulus (GPa) = 22.25130 26.16534 24.20832
#
# Velocity S-wave (km/s) = 3.27681 3.55334 3.41787
# Velocity P-wave (km/s) = 6.17157 6.42243 6.29825
#
# Compressibility (1/GPa) = 0.02029967
#
# Stress axis : x y z
#
# Youngs Moduli (GPa) = 62.77289 58.46847 75.33948
#
# Poissons Ratio (x) = 0.39458 0.15067
# Poissons Ratio (y) = 0.42363 0.32058
# Poissons Ratio (z) = 0.12554 0.24879
#
# Static dielectric constant tensor:
#      x y z
#    x 1.763780 0.000000 -0.025440 
#    y 0.000000 1.770950 0.000000 
#    z -0.025440 0.000000 1.764710 
# 
# From -- ./inp_files/94885.got.cif
#   From: 2010.05.17/outbox.cif.g08.bks.cpg/sg13_48_cif.got.tgz:94885.got - 2010.06.03 16:44:36.
