data_PCOD9229097
_publ_section_title
;
Structure prediction by ZEFSAII (Michael W. Deem and Ramdas Pophale) SiO2 
 PCOD9229097
Probable space group: P 2/C
;
_chemical_formula_sum "Si O2"
_cell_formula_units_Z 24
_cell_length_a 11.385167
_cell_length_b 12.688936
_cell_length_c 26.791584
_cell_angle_alpha 90.000000
_cell_angle_beta 21.854904
_cell_angle_gamma 90.000000
_cell_volume 1440.808737
_symmetry_space_group_name_H-M "P 2/C"
_symmetry_group_IT_number 13
_symmetry_cell_setting 'monoclinic'
loop_
_space_group_symop_operation_xyz
x,y,z
-x,y,1/2-z
-x,-y,-z
x,-y,1/2+z
loop_
_atom_site_type_symbol
_atom_site_label
_atom_site_fract_x
_atom_site_fract_y
_atom_site_fract_z
Si Si1 0.636428 0.007026 0.890648
Si Si2 0.397870 0.806361 0.666946
Si Si3 0.797450 0.807910 0.976267
Si Si4 0.200463 0.899735 0.903086
Si Si5 0.625294 0.370732 0.897753
Si Si6 0.624052 0.384497 0.393266
O O1 0.626616 0.895498 0.866053
O O2 0.000000 0.042312 0.750000
O O3 0.500000 0.000000 0.000000
O O4 0.419493 0.089892 0.947107
O O5 0.655246 0.841671 0.605914
O O6 0.476378 0.695781 0.610032
O O7 0.064880 0.801520 0.827674
O O8 0.981875 0.824713 0.955235
O O9 0.570628 0.707841 0.059712
O O10 0.500000 0.931523 0.750000
O O11 0.000000 0.000000 0.000000
O O12 0.555481 0.492323 0.911218
O O13 0.000000 0.353499 0.750000
O O14 0.519030 0.354664 0.996854
O O15 0.000000 0.374311 0.250000
#
# Coordination Sequence:
#
# PCOD9229097 Si02
#       6
#     4   4   4   4   4   4
#     4  12  22  32  54  84 112 146 181 229 285 336
#     4  11  21  38  59  80 113 153 187 226 287 335
#     4  11  21  38  58  81 115 147 191 231 276 340
#     4  10  22  40  59  79 109 158 192 229 278 329
#     4  10  21  36  58  90 113 145 187 234 287 333
#     4  10  19  37  62  81 116 151 182 231 290 341
#
# _framework density 16.657312000000001
#
# number of rings (size 3 to 8) (size 9 to 14) (size 15 to 20)
#    0.000    1.333    5.000    2.000    0.000    0.000 
#    3.000    0.833    0.000    0.000    0.000    0.000 
#    0.000    0.000    0.000    0.000    0.000    0.000 
#
# Total GULP energy -133993.087103 kJ/mol
# GULP energy per Si atom -5583.045296 kJ/mol
# Density = 1.661940 g / cm^3
# Si number density = 16.657312 Si / 1000 Ang^3
#
#
#
# Elastic Constant Matrix: (Units=GPa)
#
#
# Indices 1 2 3 4 5 6 
#
# 1 103.5768 56.7042 43.2946 0.0000 -4.1652 0.0000
# 2 56.7042 90.3248 30.8445 0.0000 -1.9045 0.0000
# 3 43.2946 30.8445 94.8162 0.0000 0.7257 0.0000
# 4 0.0000 0.0000 0.0000 11.2692 0.0000 5.2803
# 5 -4.1652 -1.9045 0.7257 0.0000 26.7106 0.0000
# 6 0.0000 0.0000 0.0000 5.2803 0.0000 18.1840
#
#
#
# Elastic Compliance Matrix: (Units=1/GPa)
#
#
# Indices 1 2 3 4 5 6 
#
# 1 0.016458 -0.008681 -0.004707 0.000000 0.002075 0.000000
# 2 -0.008681 0.017060 -0.001585 0.000000 -0.000094 0.000000
# 3 -0.004707 -0.001585 0.013221 0.000000 -0.001206 0.000000
# 4 0.000000 0.000000 0.000000 0.102712 0.000000 -0.029825
# 5 0.002075 -0.000094 -0.001206 0.000000 0.037788 0.000000
# 6 0.000000 0.000000 0.000000 -0.029825 0.000000 0.063654
#
#
# Mechanical properties :
#
#
# Convention : Reuss Voigt Hill
#
# Bulk Modulus (GPa) = 59.54875 61.15604 60.35239
# Shear Modulus (GPa) = 17.45582 21.75773 19.60677
#
# Velocity S-wave (km/s) = 3.24070 3.61806 3.43456
# Velocity P-wave (km/s) = 7.05902 7.36530 7.21379
#
# Compressibility (1/GPa) = 0.01679296
#
# Stress axis : x y z
#
# Youngs Moduli (GPa) = 60.76040 58.61573 75.63780
#
# Poissons Ratio (x) = 0.50884 0.35602
# Poissons Ratio (y) = 0.52746 0.11990
# Poissons Ratio (z) = 0.28599 0.09292
#
# Static dielectric constant tensor:
#      x y z
#    x 1.533970 0.000000 0.011970 
#    y 0.000000 1.560570 0.000000 
#    z 0.011970 0.000000 1.553180 
# 
# From -- ./inp_files/92392.got.cif
#   From: 2010.05.17/outbox.cif.g08.bks.cpg/sg13_47_cif.got.tgz:92392.got - 2010.06.03 16:44:36.
