data_PCOD9229109
_publ_section_title
;
Structure prediction by ZEFSAII (Michael W. Deem and Ramdas Pophale) SiO2 
 PCOD9229109
Probable space group: P 2/C
;
_chemical_formula_sum "Si O2"
_cell_formula_units_Z 32
_cell_length_a 19.487565
_cell_length_b 8.615360
_cell_length_c 27.624268
_cell_angle_alpha 90.000000
_cell_angle_beta 159.218527
_cell_angle_gamma 90.000000
_cell_volume 1645.550072
_symmetry_space_group_name_H-M "P 2/C"
_symmetry_group_IT_number 13
_symmetry_cell_setting 'monoclinic'
loop_
_space_group_symop_operation_xyz
x,y,z
-x,y,1/2-z
-x,-y,-z
x,-y,1/2+z
loop_
_atom_site_type_symbol
_atom_site_label
_atom_site_fract_x
_atom_site_fract_y
_atom_site_fract_z
Si Si1 0.915929 0.186682 0.335155
Si Si2 0.213787 0.068122 0.458351
Si Si3 0.435437 0.286362 0.837784
Si Si4 0.334426 0.913854 0.359480
Si Si5 0.425104 0.351816 0.346222
Si Si6 0.168074 0.109943 0.590147
Si Si7 0.505879 0.855428 0.701843
Si Si8 0.195879 0.189069 0.864677
O O1 0.766049 0.325010 0.247024
O O2 0.026969 0.152686 0.358011
O O3 0.078308 0.188761 0.483531
O O4 0.773128 0.037956 0.245273
O O5 0.376491 0.199269 0.558958
O O6 0.302995 0.935684 0.552846
O O7 0.197333 0.969915 0.397617
O O8 0.413059 0.219333 0.877111
O O9 0.450767 0.469960 0.849674
O O10 0.253285 0.230113 0.685347
O O11 0.190348 0.848750 0.304610
O O12 0.500000 0.000000 0.500000
O O13 0.419896 0.250778 0.293268
O O14 0.611484 0.284072 0.496947
O O15 0.344132 0.996390 0.693322
O O16 0.000000 0.000000 0.500000
O O17 0.500000 0.773289 0.750000
O O18 0.000000 0.275083 0.750000
#
# Coordination Sequence:
#
# PCOD9229109 Si02
#       8
#     4   4   4   4   4   4   4   4
#     4  12  21  39  68  95 121 162 231 267 318 375
#     4  10  21  38  64  91 117 163 222 276 309 375
#     4  11  25  43  60  92 142 167 205 264 337 398
#     4  12  21  40  69  91 116 167 218 269 312 370
#     4  11  25  42  57  96 140 172 200 268 345 400
#     4  11  20  39  66  91 118 168 220 269 300 371
#     4  10  19  37  62  87 123 166 218 269 313 373
#     4  11  22  41  67  92 123 162 222 272 315 381
#
# _framework density 19.446383999999998
#
# number of rings (size 3 to 8) (size 9 to 14) (size 15 to 20)
#    0.000    1.000    7.500    0.750    0.000    1.000 
#    4.500    0.625    0.000    0.000    0.000    0.000 
#    0.000    0.000    0.000    0.000    0.000    0.000 
#
# Total GULP energy -178557.860086 kJ/mol
# GULP energy per Si atom -5579.933128 kJ/mol
# Density = 1.940212 g / cm^3
# Si number density = 19.446384 Si / 1000 Ang^3
#
#
#
# Elastic Constant Matrix: (Units=GPa)
#
#
# Indices 1 2 3 4 5 6 
#
# 1 88.8480 25.7272 14.5162 0.0000 0.8136 0.0000
# 2 25.7272 93.0280 31.5271 0.0000 -3.0686 0.0000
# 3 14.5162 31.5271 90.9951 0.0000 -2.1357 0.0000
# 4 0.0000 0.0000 0.0000 9.9640 0.0000 0.1842
# 5 0.8136 -3.0686 -2.1357 0.0000 35.3594 0.0000
# 6 0.0000 0.0000 0.0000 0.1842 0.0000 15.5085
#
#
#
# Elastic Compliance Matrix: (Units=1/GPa)
#
#
# Indices 1 2 3 4 5 6 
#
# 1 0.012311 -0.003121 -0.000897 0.000000 -0.000608 0.000000
# 2 -0.003121 0.012993 -0.003981 0.000000 0.000959 0.000000
# 3 -0.000897 -0.003981 0.012522 0.000000 0.000431 0.000000
# 4 0.000000 0.000000 0.000000 0.100384 0.000000 -0.001192
# 5 -0.000608 0.000959 0.000431 0.000000 0.028404 0.000000
# 6 0.000000 0.000000 0.000000 -0.001192 0.000000 0.064495
#
#
# Mechanical properties :
#
#
# Convention : Reuss Voigt Hill
#
# Bulk Modulus (GPa) = 45.81206 46.26801 46.04004
# Shear Modulus (GPa) = 19.65531 25.57308 22.61420
#
# Velocity S-wave (km/s) = 3.18267 3.63030 3.41383
# Velocity P-wave (km/s) = 6.09222 6.43556 6.26624
#
# Compressibility (1/GPa) = 0.02182831
#
# Stress axis : x y z
#
# Youngs Moduli (GPa) = 81.22854 76.96182 79.85757
#
# Poissons Ratio (x) = 0.24018 0.07163
# Poissons Ratio (y) = 0.25349 0.31795
# Poissons Ratio (z) = 0.07286 0.30642
#
# Static dielectric constant tensor:
#      x y z
#    x 1.730480 0.000000 0.004950 
#    y 0.000000 1.637940 0.000000 
#    z 0.004950 0.000000 1.721900 
# 
# From -- ./inp_files/97549.got.cif
#   From: 2010.05.17/outbox.cif.g08.bks.cpg/sg13_49_cif.got.tgz:97549.got - 2010.06.03 16:44:36.
