data_PCOD9229072
_publ_section_title
;
Structure prediction by ZEFSAII (Michael W. Deem and Ramdas Pophale) SiO2 
 PCOD9229072
Probable space group: P 2/C
;
_chemical_formula_sum "Si O2"
_cell_formula_units_Z 26
_cell_length_a 15.257184
_cell_length_b 8.620866
_cell_length_c 15.631828
_cell_angle_alpha 90.000000
_cell_angle_beta 40.207104
_cell_angle_gamma 90.000000
_cell_volume 1327.292180
_symmetry_space_group_name_H-M "P 2/C"
_symmetry_group_IT_number 13
_symmetry_cell_setting 'monoclinic'
loop_
_space_group_symop_operation_xyz
x,y,z
-x,y,1/2-z
-x,-y,-z
x,-y,1/2+z
loop_
_atom_site_type_symbol
_atom_site_label
_atom_site_fract_x
_atom_site_fract_y
_atom_site_fract_z
Si Si1 0.822277 0.165768 0.753660
Si Si2 0.500000 0.836865 0.750000
Si Si3 0.899615 0.805661 0.525899
Si Si4 0.290069 0.921501 0.329192
Si Si5 0.106218 0.189849 0.278007
Si Si6 0.264156 0.663658 0.009182
Si Si7 0.800504 0.696375 0.961812
O O1 0.703317 0.137567 0.773143
O O2 0.784854 0.267519 0.863454
O O3 0.944716 0.236552 0.606715
O O4 0.883292 0.997784 0.735564
O O5 0.586199 0.728304 0.622470
O O6 0.598832 0.950527 0.729475
O O7 0.856783 0.759324 0.653402
O O8 0.823527 0.734902 0.502435
O O9 0.855079 0.987006 0.556799
O O10 0.287043 0.788572 0.402840
O O11 0.208647 0.241666 0.127953
O O12 0.958005 0.264574 0.369667
O O13 0.240755 0.481698 0.015281
#
# Coordination Sequence:
#
# PCOD9229072 Si02
#       7
#     4   2   4   4   4   4   4
#     4  11  20  38  64  94 122 159 199 255 296 369
#     4  10  24  46  62  82 110 172 216 256 286 354
#     4  10  19  37  60  93 125 160 193 251 296 370
#     4  10  20  41  67  88 117 160 215 246 295 348
#     4  10  20  34  59  91 129 150 199 236 306 369
#     4  11  26  37  59  88 131 161 198 247 317 351
#     4  11  22  36  56  97 125 160 188 251 305 372
#
# _framework density 19.588754000000002
#
# number of rings (size 3 to 8) (size 9 to 14) (size 15 to 20)
#    0.000    1.538    3.077    3.231    6.462    3.077 
#    0.000    1.538    0.000   10.154    0.000    0.000 
#    0.000    0.000    0.000    0.000    0.000    0.000 
#
# Total GULP energy -144905.213997 kJ/mol
# GULP energy per Si atom -5573.277461 kJ/mol
# Density = 1.954417 g / cm^3
# Si number density = 19.588754 Si / 1000 Ang^3
#
#
#
# Elastic Constant Matrix: (Units=GPa)
#
#
# Indices 1 2 3 4 5 6 
#
# 1 84.8106 44.2587 55.9588 0.0000 31.5940 0.0000
# 2 44.2587 115.8696 55.0433 0.0000 22.6490 0.0000
# 3 55.9588 55.0433 77.1604 0.0000 27.9619 0.0000
# 4 0.0000 0.0000 0.0000 0.7510 0.0000 -31.3411
# 5 31.5940 22.6490 27.9619 0.0000 41.1736 0.0000
# 6 0.0000 0.0000 0.0000 -31.3411 0.0000 -39.7959
#
#
#
# Elastic Compliance Matrix: (Units=1/GPa)
#
#
# Indices 1 2 3 4 5 6 
#
# 1 0.025028 -0.001099 -0.014095 0.000000 -0.009028 0.000000
# 2 -0.001099 0.013143 -0.008309 0.000000 -0.000743 0.000000
# 3 -0.014095 -0.008309 0.031216 0.000000 -0.005813 0.000000
# 4 0.000000 0.000000 0.000000 0.039318 0.000000 -0.030965
# 5 -0.009028 -0.000743 -0.005813 0.000000 0.035571 0.000000
# 6 0.000000 0.000000 0.000000 -0.030965 0.000000 -0.000742
#
#
# Mechanical properties :
#
#
# Convention : Reuss Voigt Hill
#
# Bulk Modulus (GPa) = 44.68296 65.37359 55.02827
# Shear Modulus (GPa) = 25.25248 8.59773 16.92511
#
# Velocity S-wave (km/s) = 3.59434 2.09729 2.94261
# Velocity P-wave (km/s) = 6.33133 6.26980 6.30064
#
# Compressibility (1/GPa) = 0.02237990
#
# Stress axis : x y z
#
# Youngs Moduli (GPa) = 39.95568 76.08792 32.03496
#
# Poissons Ratio (x) = 0.08366 0.45153
# Poissons Ratio (y) = 0.04393 0.26617
# Poissons Ratio (z) = 0.56317 0.63220
#
# Static dielectric constant tensor:
#      x y z
#    x 1.734160 0.000000 -0.005870 
#    y 0.000000 1.716750 0.000000 
#    z -0.005870 0.000000 1.725300 
# 
# From -- ./inp_files/52955.got.cif
#   From: 2010.05.17/outbox.cif.g08.bks.cpg/sg13_27_cif.got.tgz:52955.got - 2010.06.03 16:44:36.
