data_PCOD9229046
_publ_section_title
;
Structure prediction by ZEFSAII (Michael W. Deem and Ramdas Pophale) SiO2 
 PCOD9229046
Probable space group: P 2/C
;
_chemical_formula_sum "Si O2"
_cell_formula_units_Z 30
_cell_length_a 15.364004
_cell_length_b 7.225380
_cell_length_c 23.765506
_cell_angle_alpha 90.000000
_cell_angle_beta 151.008611
_cell_angle_gamma 90.000000
_cell_volume 1278.691055
_symmetry_space_group_name_H-M "P 2/C"
_symmetry_group_IT_number 13
_symmetry_cell_setting 'monoclinic'
loop_
_space_group_symop_operation_xyz
x,y,z
-x,y,1/2-z
-x,-y,-z
x,-y,1/2+z
loop_
_atom_site_type_symbol
_atom_site_label
_atom_site_fract_x
_atom_site_fract_y
_atom_site_fract_z
Si Si1 0.110209 0.235613 0.398925
Si Si2 0.851434 0.879795 0.381341
Si Si3 0.306030 0.101293 0.040844
Si Si4 0.640582 0.060716 0.154960
Si Si5 0.939362 0.407867 0.570198
Si Si6 0.500000 0.896474 0.250000
Si Si7 0.745461 0.347759 0.129478
Si Si8 0.836666 0.748856 0.198857
O O1 0.132941 0.026502 0.431032
O O2 0.096694 0.374538 0.444099
O O3 0.265881 0.278285 0.441243
O O4 0.935441 0.279963 0.263941
O O5 0.769320 0.006446 0.282444
O O6 0.670975 0.811705 0.312736
O O7 0.962895 0.697042 0.425312
O O8 0.000000 0.000000 0.500000
O O9 0.443487 0.064087 0.069148
O O10 0.398930 0.021122 0.147950
O O11 0.246607 0.307167 0.020061
O O12 0.706539 0.909484 0.146600
O O13 0.634655 0.252686 0.116337
O O14 0.068281 0.346439 0.694061
O O15 0.738234 0.568274 0.118934
O O16 0.000000 0.809356 0.250000
#
# Coordination Sequence:
#
# PCOD9229046 Si02
#       8
#     4   4   4   4   4   2   4   4
#     4  10  21  37  63  91 123 165 215 261 312 402
#     4  10  19  39  67  94 124 169 223 275 329 386
#     4  11  23  41  59  91 128 164 219 269 326 385
#     4  10  24  35  61  91 124 171 212 267 330 386
#     4  10  20  38  64  88 121 172 208 258 330 380
#     4  10  22  40  66  94 128 168 214 288 320 378
#     4  10  20  38  60  90 122 166 213 258 317 389
#     4  10  19  37  59  85 121 160 213 263 313 389
#
# _framework density 23.461490000000001
#
# number of rings (size 3 to 8) (size 9 to 14) (size 15 to 20)
#    0.000    1.867    4.000    1.600    3.733    1.600 
#    0.000    2.667    5.867    0.000    0.000    0.000 
#    0.000    0.000    0.000    0.000    0.000    0.000 
#
# Total GULP energy -167150.060447 kJ/mol
# GULP energy per Si atom -5571.668682 kJ/mol
# Density = 2.340809 g / cm^3
# Si number density = 23.461490 Si / 1000 Ang^3
#
#
#
# Elastic Constant Matrix: (Units=GPa)
#
#
# Indices 1 2 3 4 5 6 
#
# 1 128.1133 29.1663 31.8678 0.0000 25.7911 0.0000
# 2 29.1663 45.6309 17.2184 0.0000 17.5177 0.0000
# 3 31.8678 17.2184 59.2233 0.0000 13.3236 0.0000
# 4 0.0000 0.0000 0.0000 -123.8204 0.0000 -5.1730
# 5 25.7911 17.5177 13.3236 0.0000 38.6295 0.0000
# 6 0.0000 0.0000 0.0000 -5.1730 0.0000 11.3905
#
#
#
# Elastic Compliance Matrix: (Units=1/GPa)
#
#
# Indices 1 2 3 4 5 6 
#
# 1 0.010349 -0.003733 -0.003588 0.000000 -0.003979 0.000000
# 2 -0.003733 0.029595 -0.004485 0.000000 -0.009381 0.000000
# 3 -0.003588 -0.004485 0.020732 0.000000 -0.002721 0.000000
# 4 0.000000 0.000000 0.000000 -0.007926 0.000000 -0.003600
# 5 -0.003979 -0.009381 -0.002721 0.000000 0.033736 0.000000
# 6 0.000000 0.000000 0.000000 -0.003600 0.000000 0.086158
#
#
# Mechanical properties :
#
#
# Convention : Reuss Voigt Hill
#
# Bulk Modulus (GPa) = 26.98092 43.27474 35.12783
# Shear Modulus (GPa) = 23.96790 -4.44575 9.76107
#
# Velocity S-wave (km/s) = 3.19969 -1.37805 2.04193
# Velocity P-wave (km/s) = 5.01754 3.99412 4.53480
#
# Compressibility (1/GPa) = 0.03706323
#
# Stress axis : x y z
#
# Youngs Moduli (GPa) = 96.62643 33.78934 48.23421
#
# Poissons Ratio (x) = 0.12615 0.17307
# Poissons Ratio (y) = 0.36075 0.21633
# Poissons Ratio (z) = 0.34672 0.15154
#
# Static dielectric constant tensor:
#      x y z
#    x 1.662150 0.000000 -0.054880 
#    y 0.000000 1.891680 0.000000 
#    z -0.054880 0.000000 1.941870 
# 
# From -- ./inp_files/87322.got.cif
#   From: 2010.05.17/outbox.cif.g08.bks.cpg/sg13_44_cif.got.tgz:87322.got - 2010.06.03 16:44:36.
