data_PCOD9229726
_publ_section_title
;
Structure prediction by ZEFSAII (Michael W. Deem and Ramdas Pophale) SiO2 
 PCOD9229726
Probable space group: P 2/C
;
_chemical_formula_sum "Si O2"
_cell_formula_units_Z 32
_cell_length_a 16.664215
_cell_length_b 11.023878
_cell_length_c 20.817927
_cell_angle_alpha 90.000000
_cell_angle_beta 156.566030
_cell_angle_gamma 90.000000
_cell_volume 1520.910074
_symmetry_space_group_name_H-M "P 2/C"
_symmetry_group_IT_number 13
_symmetry_cell_setting 'monoclinic'
loop_
_space_group_symop_operation_xyz
x,y,z
-x,y,1/2-z
-x,-y,-z
x,-y,1/2+z
loop_
_atom_site_type_symbol
_atom_site_label
_atom_site_fract_x
_atom_site_fract_y
_atom_site_fract_z
Si Si1 0.432472 0.466157 0.849547
Si Si2 0.448868 0.219099 0.940154
Si Si3 0.766186 0.700846 0.764235
Si Si4 0.157803 0.848816 0.562621
Si Si5 0.291053 0.900413 0.207589
Si Si6 0.833426 0.519947 0.579987
Si Si7 0.765012 0.329239 0.909860
Si Si8 0.014714 0.263070 0.685716
O O1 0.473792 0.343283 0.918101
O O2 0.317914 0.566258 0.806100
O O3 0.293114 0.427484 0.686996
O O4 0.643323 0.523557 0.981974
O O5 0.430268 0.115413 0.872484
O O6 0.240449 0.237948 0.825968
O O7 0.634807 0.208783 0.124825
O O8 0.752730 0.740552 0.828607
O O9 0.997760 0.698797 0.915596
O O10 0.128544 0.811861 0.467667
O O11 0.933261 0.872339 0.427761
O O12 0.282528 0.969839 0.668245
O O13 0.335514 0.795071 0.188415
O O14 0.733155 0.612013 0.455826
O O15 0.944734 0.404428 0.629893
O O16 0.000000 0.576962 0.750000
O O17 0.000000 0.231496 0.750000
#
# Coordination Sequence:
#
# PCOD9229726 Si02
#       8
#     4   4   4   4   4   4   4   4
#     4  11  21  34  53  78 112 146 179 220 272 332
#     4  10  20  35  56  81 111 142 180 225 272 329
#     4  11  19  31  55  83 107 139 181 224 270 330
#     4   9  18  34  56  78 105 141 183 224 270 326
#     4   8  18  36  55  76 104 142 181 224 270 319
#     4  11  21  34  53  79 112 144 179 226 277 329
#     4  10  20  34  53  77 107 143 182 223 272 326
#     4  10  20  36  56  81 112 144 179 226 281 328
#
# _framework density 21.040033999999999
#
# number of rings (size 3 to 8) (size 9 to 14) (size 15 to 20)
#    0.000    2.000    0.000    5.625    0.000    0.500 
#    0.000    2.500    0.000   13.500    0.000    0.000 
#    0.000    0.000    0.000    0.000    0.000    0.000 
#
# Total GULP energy -178661.962312 kJ/mol
# GULP energy per Si atom -5583.186322 kJ/mol
# Density = 2.099215 g / cm^3
# Si number density = 21.040034 Si / 1000 Ang^3
#
#
#
# Elastic Constant Matrix: (Units=GPa)
#
#
# Indices 1 2 3 4 5 6 
#
# 1 68.7436 17.9925 29.0341 0.0000 -17.4336 0.0000
# 2 17.9925 55.0384 5.9991 0.0000 -15.6899 0.0000
# 3 29.0341 5.9991 111.5905 0.0000 -19.5507 0.0000
# 4 0.0000 0.0000 0.0000 18.9119 0.0000 -1.7770
# 5 -17.4336 -15.6899 -19.5507 0.0000 39.2154 0.0000
# 6 0.0000 0.0000 0.0000 -1.7770 0.0000 16.2617
#
#
#
# Elastic Compliance Matrix: (Units=1/GPa)
#
#
# Indices 1 2 3 4 5 6 
#
# 1 0.018426 -0.004304 -0.003757 0.000000 0.004596 0.000000
# 2 -0.004304 0.021527 0.001245 0.000000 0.007320 0.000000
# 3 -0.003757 0.001245 0.010592 0.000000 0.004108 0.000000
# 4 0.000000 0.000000 0.000000 0.053425 0.000000 0.005838
# 5 0.004596 0.007320 0.004108 0.000000 0.032520 0.000000
# 6 0.000000 0.000000 0.000000 0.005838 0.000000 0.062132
#
#
# Mechanical properties :
#
#
# Convention : Reuss Voigt Hill
#
# Bulk Modulus (GPa) = 27.09125 37.93601 32.51363
# Shear Modulus (GPa) = 22.26583 27.03424 24.65004
#
# Velocity S-wave (km/s) = 3.25662 3.58843 3.42655
# Velocity P-wave (km/s) = 5.20046 5.93622 5.58048
#
# Compressibility (1/GPa) = 0.03691228
#
# Stress axis : x y z
#
# Youngs Moduli (GPa) = 54.27161 46.45288 94.41259
#
# Poissons Ratio (x) = 0.19992 0.35475
# Poissons Ratio (y) = 0.23357 -0.11754
# Poissons Ratio (z) = 0.20393 -0.05783
#
# Static dielectric constant tensor:
#      x y z
#    x 1.793410 0.000000 0.001120 
#    y 0.000000 1.748710 0.000000 
#    z 0.001120 0.000000 1.784730 
# 
# From -- ./inp_files/68706.got.cif
#   From: 2010.05.17/outbox.cif.g08.bks.cpg/sg13_35_cif.got.tgz:68706.got - 2010.06.03 16:44:36.
