data_PCOD9229144
_publ_section_title
;
Structure prediction by ZEFSAII (Michael W. Deem and Ramdas Pophale) SiO2 
 PCOD9229144
Probable space group: P 2/C
;
_chemical_formula_sum "Si O2"
_cell_formula_units_Z 18
_cell_length_a 22.029794
_cell_length_b 8.764083
_cell_length_c 14.275244
_cell_angle_alpha 90.000000
_cell_angle_beta 18.151004
_cell_angle_gamma 90.000000
_cell_volume 858.597855
_symmetry_space_group_name_H-M "P 2/C"
_symmetry_group_IT_number 13
_symmetry_cell_setting 'monoclinic'
loop_
_space_group_symop_operation_xyz
x,y,z
-x,y,1/2-z
-x,-y,-z
x,-y,1/2+z
loop_
_atom_site_type_symbol
_atom_site_label
_atom_site_fract_x
_atom_site_fract_y
_atom_site_fract_z
Si Si1 0.113285 0.637738 0.779138
Si Si2 0.834047 0.923226 0.678605
Si Si3 0.671282 0.378655 0.118734
Si Si4 0.714669 0.760297 0.346159
Si Si5 0.000000 0.784647 0.250000
O O1 0.208558 0.762394 0.708364
O O2 0.275729 0.553140 0.480372
O O3 0.000000 0.500000 0.000000
O O4 0.932555 0.719872 0.992268
O O5 0.922368 0.884174 0.449047
O O6 0.678100 0.058454 0.895227
O O7 0.000000 0.000000 0.500000
O O8 0.448432 0.338850 0.466442
O O9 0.707493 0.287729 0.966853
O O10 0.823208 0.316957 0.970763
#
# Coordination Sequence:
#
# PCOD9229144 Si02
#       5
#     4   4   4   4   2
#     4   9  16  36  62  81 121 169 195 252 316 364
#     4  10  19  37  64  89 125 165 202 259 316 365
#     4  10  20  36  64  87 123 165 207 253 312 366
#     4   9  19  38  61  87 124 167 204 254 314 367
#     4  12  20  34  66  92 122 166 210 250 318 372
#
# _framework density 20.964414000000001
#
# number of rings (size 3 to 8) (size 9 to 14) (size 15 to 20)
#    0.000    2.222    6.667    0.000    0.000    0.889 
#    0.000   14.444    0.000    0.000    0.000    0.000 
#    0.000    0.000    0.000    0.000    0.000    0.000 
#
# Total GULP energy -100310.567141 kJ/mol
# GULP energy per Si atom -5572.809286 kJ/mol
# Density = 2.091670 g / cm^3
# Si number density = 20.964414 Si / 1000 Ang^3
#
#
#
# Elastic Constant Matrix: (Units=GPa)
#
#
# Indices 1 2 3 4 5 6 
#
# 1 91.3071 32.0895 29.3236 0.0000 -12.7114 0.0000
# 2 32.0895 141.2986 49.8759 0.0000 -1.0002 0.0000
# 3 29.3236 49.8759 84.8060 0.0000 -20.2062 0.0000
# 4 0.0000 0.0000 0.0000 28.3274 0.0000 5.1543
# 5 -12.7114 -1.0002 -20.2062 0.0000 26.1253 0.0000
# 6 0.0000 0.0000 0.0000 5.1543 0.0000 7.0666
#
#
#
# Elastic Compliance Matrix: (Units=1/GPa)
#
#
# Indices 1 2 3 4 5 6 
#
# 1 0.013044 -0.002178 -0.002129 0.000000 0.004616 0.000000
# 2 -0.002178 0.009761 -0.006315 0.000000 -0.005570 0.000000
# 3 -0.002129 -0.006315 0.019538 0.000000 0.013833 0.000000
# 4 0.000000 0.000000 0.000000 0.040703 0.000000 -0.029688
# 5 0.004616 -0.005570 0.013833 0.000000 0.051009 0.000000
# 6 0.000000 0.000000 0.000000 -0.029688 0.000000 0.163165
#
#
# Mechanical properties :
#
#
# Convention : Reuss Voigt Hill
#
# Bulk Modulus (GPa) = 47.39674 59.99886 53.69780
# Shear Modulus (GPa) = 15.36107 26.04538 20.70323
#
# Velocity S-wave (km/s) = 2.70982 3.52854 3.14593
# Velocity P-wave (km/s) = 5.69632 6.72921 6.23420
#
# Compressibility (1/GPa) = 0.02109850
#
# Stress axis : x y z
#
# Youngs Moduli (GPa) = 76.66333 102.44331 51.18260
#
# Poissons Ratio (x) = 0.22312 0.10899
# Poissons Ratio (y) = 0.16697 0.32322
# Poissons Ratio (z) = 0.16325 0.64693
#
# Static dielectric constant tensor:
#      x y z
#    x 1.752280 0.000000 0.013720 
#    y 0.000000 1.832240 0.000000 
#    z 0.013720 0.000000 1.870550 
# 
# From -- ./inp_files/56980.got.cif
#   From: 2010.05.17/outbox.cif.g08.bks.cpg/sg13_29_cif.got.tgz:56980.got - 2010.06.03 16:44:36.
