data_PCOD9229389
_publ_section_title
;
Structure prediction by ZEFSAII (Michael W. Deem and Ramdas Pophale) SiO2 
 PCOD9229389
Probable space group: P 2/C
;
_chemical_formula_sum "Si O2"
_cell_formula_units_Z 26
_cell_length_a 14.509433
_cell_length_b 6.831434
_cell_length_c 14.932222
_cell_angle_alpha 90.000000
_cell_angle_beta 42.998903
_cell_angle_gamma 90.000000
_cell_volume 1009.395048
_symmetry_space_group_name_H-M "P 2/C"
_symmetry_group_IT_number 13
_symmetry_cell_setting 'monoclinic'
loop_
_space_group_symop_operation_xyz
x,y,z
-x,y,1/2-z
-x,-y,-z
x,-y,1/2+z
loop_
_atom_site_type_symbol
_atom_site_label
_atom_site_fract_x
_atom_site_fract_y
_atom_site_fract_z
Si Si1 0.500000 0.500291 0.250000
Si Si2 0.881962 0.216521 0.437926
Si Si3 0.972519 0.785439 0.366463
Si Si4 0.763690 0.332181 0.147981
Si Si5 0.482095 0.305963 0.951238
Si Si6 0.806167 0.310438 0.301022
Si Si7 0.237813 0.875768 0.291730
O O1 0.626975 0.374254 0.192765
O O2 0.537439 0.627842 0.137417
O O3 0.831721 0.340010 0.388880
O O4 0.797338 0.234522 0.589234
O O5 0.042066 0.249235 0.335303
O O6 0.883629 0.982763 0.412438
O O7 0.890364 0.648694 0.492274
O O8 0.000000 0.698952 0.250000
O O9 0.112764 0.843081 0.313657
O O10 0.764807 0.104416 0.177808
O O11 0.774452 0.443984 0.235789
O O12 0.618422 0.181515 0.851491
O O13 0.500000 0.500000 0.000000
O O14 0.342147 0.208076 0.082841
#
# Coordination Sequence:
#
# PCOD9229389 Si02
#       7
#     2   4   4   4   4   4   4
#     4  12  28  50  64  96 142 188 230 294 338 414
#     4  10  19  39  71 102 134 169 227 296 344 403
#     4  11  20  37  68 108 141 169 224 299 355 399
#     4  11  23  43  73 101 136 171 239 295 340 404
#     4  12  28  47  66  95 149 193 229 274 345 419
#     4  11  20  42  69  99 134 178 223 282 349 401
#     4  11  23  43  72 105 136 184 229 283 354 407
#
# _framework density 25.758002999999999
#
# number of rings (size 3 to 8) (size 9 to 14) (size 15 to 20)
#    0.000    0.923    6.154    1.846    2.154    3.692 
#    0.000    6.154    0.000    0.000    0.000    0.000 
#    0.000    0.000    0.000    0.000    0.000    0.000 
#
# Total GULP energy -145273.480683 kJ/mol
# GULP energy per Si atom -5587.441565 kJ/mol
# Density = 2.569938 g / cm^3
# Si number density = 25.758003 Si / 1000 Ang^3
#
#
#
# Elastic Constant Matrix: (Units=GPa)
#
#
# Indices 1 2 3 4 5 6 
#
# 1 197.8816 41.4429 76.8462 0.0000 14.4455 0.0000
# 2 41.4429 79.4626 36.5177 0.0000 0.7911 0.0000
# 3 76.8462 36.5177 221.8306 0.0000 -1.3213 0.0000
# 4 0.0000 0.0000 0.0000 35.7459 0.0000 -2.3423
# 5 14.4455 0.7911 -1.3213 0.0000 72.5914 0.0000
# 6 0.0000 0.0000 0.0000 -2.3423 0.0000 15.4497
#
#
#
# Elastic Compliance Matrix: (Units=1/GPa)
#
#
# Indices 1 2 3 4 5 6 
#
# 1 0.006366 -0.002478 -0.001805 0.000000 -0.001273 0.000000
# 2 -0.002478 0.014582 -0.001540 0.000000 0.000306 0.000000
# 3 -0.001805 -0.001540 0.005390 0.000000 0.000474 0.000000
# 4 0.000000 0.000000 0.000000 0.028256 0.000000 0.004284
# 5 -0.001273 0.000306 0.000474 0.000000 0.014034 0.000000
# 6 0.000000 0.000000 0.000000 0.004284 0.000000 0.065376
#
#
# Mechanical properties :
#
#
# Convention : Reuss Voigt Hill
#
# Bulk Modulus (GPa) = 68.06865 89.86538 78.96702
# Shear Modulus (GPa) = 33.21210 47.71526 40.46368
#
# Velocity S-wave (km/s) = 3.59470 4.30867 3.96778
# Velocity P-wave (km/s) = 6.61156 7.72767 7.19130
#
# Compressibility (1/GPa) = 0.01469105
#
# Stress axis : x y z
#
# Youngs Moduli (GPa) = 157.07371 68.57900 185.54186
#
# Poissons Ratio (x) = 0.16995 0.33492
# Poissons Ratio (y) = 0.38925 0.28576
# Poissons Ratio (z) = 0.28353 0.10562
#
# Static dielectric constant tensor:
#      x y z
#    x 1.954790 0.000000 0.018080 
#    y 0.000000 2.179710 0.000000 
#    z 0.018080 0.000000 1.980710 
# 
# From -- ./inp_files/52938.got.cif
#   From: 2010.05.17/outbox.cif.g08.bks.cpg/sg13_27_cif.got.tgz:52938.got - 2010.06.03 16:44:36.
