data_PCOD9229276
_publ_section_title
;
Structure prediction by ZEFSAII (Michael W. Deem and Ramdas Pophale) SiO2 
 PCOD9229276
Probable space group: P 2/C
;
_chemical_formula_sum "Si O2"
_cell_formula_units_Z 26
_cell_length_a 25.010527
_cell_length_b 8.524355
_cell_length_c 19.349549
_cell_angle_alpha 90.000000
_cell_angle_beta 18.197924
_cell_angle_gamma 90.000000
_cell_volume 1288.332297
_symmetry_space_group_name_H-M "P 2/C"
_symmetry_group_IT_number 13
_symmetry_cell_setting 'monoclinic'
loop_
_space_group_symop_operation_xyz
x,y,z
-x,y,1/2-z
-x,-y,-z
x,-y,1/2+z
loop_
_atom_site_type_symbol
_atom_site_label
_atom_site_fract_x
_atom_site_fract_y
_atom_site_fract_z
Si Si1 0.000000 0.629440 0.750000
Si Si2 0.929426 0.864657 0.450678
Si Si3 0.130332 0.352997 0.345708
Si Si4 0.682527 0.186155 0.011954
Si Si5 0.917412 0.790062 0.991970
Si Si6 0.640671 0.377109 0.921462
Si Si7 0.735391 0.647238 0.587088
O O1 0.994393 0.733179 0.825217
O O2 0.158948 0.511800 0.545825
O O3 0.892176 0.735118 0.554775
O O4 0.849583 0.785623 0.480588
O O5 0.134497 0.894843 0.200474
O O6 0.852822 0.032555 0.563881
O O7 0.309329 0.443866 0.121244
O O8 0.000000 0.500000 0.500000
O O9 0.067934 0.234097 0.363534
O O10 0.682947 0.265680 0.935864
O O11 0.500000 0.100509 0.250000
O O12 0.685556 0.314988 0.069286
O O13 0.759910 0.683531 0.212783
O O14 0.439730 0.364222 0.155303
#
# Coordination Sequence:
#
# PCOD9229276 Si02
#       7
#     2   4   4   4   4   4   4
#     4  12  24  40  62  90 124 162 210 262 312 374
#     4  12  22  39  65  93 129 170 202 262 330 378
#     4  10  19  38  65  87 117 161 215 251 302 372
#     4  10  20  37  64  91 121 161 210 256 307 373
#     4  11  25  39  62  95 129 166 209 262 326 380
#     4  10  22  42  66  94 122 166 217 266 304 380
#     4  11  23  40  67  94 124 165 217 260 319 373
#
# _framework density 20.181128999999999
#
# number of rings (size 3 to 8) (size 9 to 14) (size 15 to 20)
#    0.000    1.231    4.615    3.231    2.154    3.077 
#    0.000    1.538    0.000    0.000    0.000    0.000 
#    0.000    0.000    0.000    0.000    0.000    0.000 
#
# Total GULP energy -145015.794323 kJ/mol
# GULP energy per Si atom -5577.530551 kJ/mol
# Density = 2.013520 g / cm^3
# Si number density = 20.181129 Si / 1000 Ang^3
#
#
#
# Elastic Constant Matrix: (Units=GPa)
#
#
# Indices 1 2 3 4 5 6 
#
# 1 85.5898 18.9650 31.8211 0.0000 9.0196 0.0000
# 2 18.9650 78.0169 15.2082 0.0000 1.9920 0.0000
# 3 31.8211 15.2082 113.5928 0.0000 -9.4705 0.0000
# 4 0.0000 0.0000 0.0000 8.6683 0.0000 5.5362
# 5 9.0196 1.9920 -9.4705 0.0000 34.5677 0.0000
# 6 0.0000 0.0000 0.0000 5.5362 0.0000 1.5529
#
#
#
# Elastic Compliance Matrix: (Units=1/GPa)
#
#
# Indices 1 2 3 4 5 6 
#
# 1 0.014244 -0.002556 -0.004038 0.000000 -0.004676 0.000000
# 2 -0.002556 0.013675 -0.001151 0.000000 -0.000436 0.000000
# 3 -0.004038 -0.001151 0.010420 0.000000 0.003975 0.000000
# 4 0.000000 0.000000 0.000000 -0.090344 0.000000 0.322083
# 5 -0.004676 -0.000436 0.003975 0.000000 0.031263 0.000000
# 6 0.000000 0.000000 0.000000 0.322083 0.000000 -0.504300
#
#
# Mechanical properties :
#
#
# Convention : Reuss Voigt Hill
#
# Bulk Modulus (GPa) = 43.76647 45.46533 44.61590
# Shear Modulus (GPa) = -9.96143 23.03812 6.53834
#
# Velocity S-wave (km/s) = -2.22412 3.38237 1.80191
# Velocity P-wave (km/s) = 3.89079 6.15073 5.14635
#
# Compressibility (1/GPa) = 0.02284854
#
# Stress axis : x y z
#
# Youngs Moduli (GPa) = 70.20544 73.12813 95.96936
#
# Poissons Ratio (x) = 0.18692 0.38750
# Poissons Ratio (y) = 0.17945 0.11048
# Poissons Ratio (z) = 0.28347 0.08418
#
# Static dielectric constant tensor:
#      x y z
#    x 1.717020 0.000000 -0.023940 
#    y 0.000000 1.690450 0.000000 
#    z -0.023940 0.000000 1.784150 
# 
# From -- ./inp_files/71276.got.cif
#   From: 2010.05.17/outbox.cif.g08.bks.cpg/sg13_36_cif.got.tgz:71276.got - 2010.06.03 16:44:36.
