data_PCOD9229803
_publ_section_title
;
Structure prediction by ZEFSAII (Michael W. Deem and Ramdas Pophale) SiO2 
 PCOD9229803
Probable space group: P 2/C
;
_chemical_formula_sum "Si O2"
_cell_formula_units_Z 26
_cell_length_a 22.053482
_cell_length_b 3.870116
_cell_length_c 18.057116
_cell_angle_alpha 90.000000
_cell_angle_beta 148.305345
_cell_angle_gamma 90.000000
_cell_volume 809.716941
_symmetry_space_group_name_H-M "P 2/C"
_symmetry_group_IT_number 13
_symmetry_cell_setting 'monoclinic'
loop_
_space_group_symop_operation_xyz
x,y,z
-x,y,1/2-z
-x,-y,-z
x,-y,1/2+z
loop_
_atom_site_type_symbol
_atom_site_label
_atom_site_fract_x
_atom_site_fract_y
_atom_site_fract_z
Si Si1 0.038857 0.666908 0.366144
Si Si2 0.500000 0.237242 0.750000
Si Si3 0.263611 0.786907 0.058218
Si Si4 0.573423 0.275867 0.978875
Si Si5 0.350538 0.742631 0.786956
Si Si6 0.887657 0.280211 0.406345
Si Si7 0.187645 0.761460 0.824522
O O1 0.152767 0.442377 0.464883
O O2 0.072993 0.883231 0.474503
O O3 0.000000 0.850023 0.250000
O O4 0.924196 0.459106 0.269548
O O5 0.619413 0.411961 0.847080
O O6 0.461884 0.065814 0.632510
O O7 0.306997 0.021613 0.172601
O O8 0.224224 0.952648 0.938507
O O9 0.609045 0.090686 0.092588
O O10 0.695244 0.437804 0.078670
O O11 0.461762 0.510730 0.881326
O O12 0.233438 0.549315 0.692789
O O13 0.850770 0.073662 0.294286
O O14 0.000000 0.500000 0.500000
#
# Coordination Sequence:
#
# PCOD9229803 Si02
#       7
#     4   2   4   4   4   4   4
#     4   9  17  33  58  85 118 158 200 249 301 355
#     4  10  20  36  56  80 118 158 194 248 302 352
#     4  10  20  34  56  86 122 157 194 251 313 358
#     4   9  19  36  57  80 113 154 196 242 292 359
#     4  10  20  35  58  87 117 155 202 247 300 366
#     4   9  17  34  59  85 115 158 205 247 298 361
#     4   8  17  35  58  82 116 158 197 247 303 351
#
# _framework density 32.109985999999999
#
# number of rings (size 3 to 8) (size 9 to 14) (size 15 to 20)
#    0.000    2.769    0.000    0.923    0.000    1.231 
#    0.000    9.231    0.000   36.923    0.000    0.000 
#    0.000    0.000    0.000    0.000    0.000    0.000 
#
# Total GULP energy -144944.630833 kJ/mol
# GULP energy per Si atom -5574.793494 kJ/mol
# Density = 3.203690 g / cm^3
# Si number density = 32.109986 Si / 1000 Ang^3
#
#
#
# Elastic Constant Matrix: (Units=GPa)
#
#
# Indices 1 2 3 4 5 6 
#
# 1 282.1224 95.9970 194.1386 0.0000 -4.6315 0.0000
# 2 95.9970 76.5959 93.8183 0.0000 7.2064 0.0000
# 3 194.1386 93.8183 307.2698 0.0000 -25.7668 0.0000
# 4 0.0000 0.0000 0.0000 87.5111 0.0000 11.4269
# 5 -4.6315 7.2064 -25.7668 0.0000 229.1215 0.0000
# 6 0.0000 0.0000 0.0000 11.4269 0.0000 64.1679
#
#
#
# Elastic Compliance Matrix: (Units=1/GPa)
#
#
# Indices 1 2 3 4 5 6 
#
# 1 0.007614 -0.005830 -0.003031 0.000000 -0.000004 0.000000
# 2 -0.005830 0.025763 -0.004301 0.000000 -0.001412 0.000000
# 3 -0.003031 -0.004301 0.006551 0.000000 0.000811 0.000000
# 4 0.000000 0.000000 0.000000 0.011699 0.000000 -0.002083
# 5 -0.000004 -0.001412 0.000811 0.000000 0.004500 0.000000
# 6 0.000000 0.000000 0.000000 -0.002083 0.000000 0.015955
#
#
# Mechanical properties :
#
#
# Convention : Reuss Voigt Hill
#
# Bulk Modulus (GPa) = 73.50824 159.32177 116.41501
# Shear Modulus (GPa) = 48.57193 94.96237 71.76715
#
# Velocity S-wave (km/s) = 3.89353 5.44411 4.73275
# Velocity P-wave (km/s) = 6.56925 9.44685 8.13628
#
# Compressibility (1/GPa) = 0.01360392
#
# Stress axis : x y z
#
# Youngs Moduli (GPa) = 131.34094 38.81532 152.65417
#
# Poissons Ratio (x) = 0.22628 0.46268
# Poissons Ratio (y) = 0.76566 0.65662
# Poissons Ratio (z) = 0.39808 0.16696
#
# Static dielectric constant tensor:
#      x y z
#    x 2.386100 0.000000 0.003610 
#    y 0.000000 2.667420 0.000000 
#    z 0.003610 0.000000 2.423050 
# 
# From -- ./inp_files/70442.got.cif
#   From: 2010.05.17/outbox.cif.g08.bks.cpg/sg13_36_cif.got.tgz:70442.got - 2010.06.03 16:44:36.
