data_PCOD9229865
_publ_section_title
;
Structure prediction by ZEFSAII (Michael W. Deem and Ramdas Pophale) SiO2 
 PCOD9229865
Probable space group: P 2/C
;
_chemical_formula_sum "Si O2"
_cell_formula_units_Z 24
_cell_length_a 9.230208
_cell_length_b 6.825471
_cell_length_c 21.429905
_cell_angle_alpha 90.000000
_cell_angle_beta 66.129505
_cell_angle_gamma 90.000000
_cell_volume 1234.611289
_symmetry_space_group_name_H-M "P 2/C"
_symmetry_group_IT_number 13
_symmetry_cell_setting 'monoclinic'
loop_
_space_group_symop_operation_xyz
x,y,z
-x,y,1/2-z
-x,-y,-z
x,-y,1/2+z
loop_
_atom_site_type_symbol
_atom_site_label
_atom_site_fract_x
_atom_site_fract_y
_atom_site_fract_z
Si Si1 0.058818 0.986016 0.093920
Si Si2 0.406409 0.030305 0.580563
Si Si3 0.521189 0.683580 0.335541
Si Si4 0.280436 0.906102 0.303930
Si Si5 0.914052 0.700687 0.528570
Si Si6 0.421877 0.744599 0.851867
O O1 0.221263 0.006345 0.102563
O O2 0.907626 0.921563 0.161267
O O3 0.007322 0.181430 0.066168
O O4 0.085347 0.829322 0.034208
O O5 0.477080 0.884525 0.620396
O O6 0.500000 0.000000 0.500000
O O7 0.436189 0.248586 0.602530
O O8 0.517323 0.454083 0.321930
O O9 0.348093 0.771447 0.348471
O O10 0.643331 0.801304 0.269260
O O11 0.353352 0.120414 0.307450
O O12 0.734716 0.679066 0.583145
O O13 0.000000 0.500000 0.500000
#
# Coordination Sequence:
#
# PCOD9229865 Si02
#       6
#     4   4   4   4   4   4
#     4  10  21  38  58  85 125 157 194 249 296 358
#     4  11  23  38  57  90 127 163 192 243 307 354
#     4  10  22  38  63  88 117 158 203 249 295 361
#     4   9  21  41  62  86 117 158 204 250 300 346
#     4  10  20  34  60  89 116 156 202 245 293 349
#     4  10  21  39  63  90 119 156 204 246 298 358
#
# _framework density 19.439315000000001
#
# number of rings (size 3 to 8) (size 9 to 14) (size 15 to 20)
#    0.000    2.000    1.667    1.000    4.667    8.000 
#    0.000    0.000    0.000    6.000    0.000    0.000 
#    0.000    0.000    0.000    0.000    0.000    0.000 
#
# Total GULP energy -133959.319719 kJ/mol
# GULP energy per Si atom -5581.638322 kJ/mol
# Density = 1.939507 g / cm^3
# Si number density = 19.439315 Si / 1000 Ang^3
#
#
#
# Elastic Constant Matrix: (Units=GPa)
#
#
# Indices 1 2 3 4 5 6 
#
# 1 127.2834 16.8389 35.7143 0.0000 -19.5669 0.0000
# 2 16.8389 111.6911 35.9911 0.0000 -5.1859 0.0000
# 3 35.7143 35.9911 86.8926 0.0000 -19.7586 0.0000
# 4 0.0000 0.0000 0.0000 20.2855 0.0000 -9.8067
# 5 -19.5669 -5.1859 -19.7586 0.0000 35.2306 0.0000
# 6 0.0000 0.0000 0.0000 -9.8067 0.0000 17.8797
#
#
#
# Elastic Compliance Matrix: (Units=1/GPa)
#
#
# Indices 1 2 3 4 5 6 
#
# 1 0.009239 -0.000303 -0.002883 0.000000 0.003470 0.000000
# 2 -0.000303 0.010374 -0.004428 0.000000 -0.001125 0.000000
# 3 -0.002883 -0.004428 0.016064 0.000000 0.006756 0.000000
# 4 0.000000 0.000000 0.000000 0.067084 0.000000 0.036794
# 5 0.003470 -0.001125 0.006756 0.000000 0.033935 0.000000
# 6 0.000000 0.000000 0.000000 0.036794 0.000000 0.076110
#
#
# Mechanical properties :
#
#
# Convention : Reuss Voigt Hill
#
# Bulk Modulus (GPa) = 48.90272 55.88396 52.39334
# Shear Modulus (GPa) = 21.29022 30.50067 25.89544
#
# Velocity S-wave (km/s) = 3.31299 3.96538 3.65378
# Velocity P-wave (km/s) = 6.31235 7.05521 6.69409
#
# Compressibility (1/GPa) = 0.02044876
#
# Stress axis : x y z
#
# Youngs Moduli (GPa) = 108.23851 96.39872 62.25179
#
# Poissons Ratio (x) = 0.02919 0.17947
# Poissons Ratio (y) = 0.03277 0.27565
# Poissons Ratio (z) = 0.31204 0.42686
#
# Static dielectric constant tensor:
#      x y z
#    x 1.661650 0.000000 0.000180 
#    y 0.000000 1.706350 0.000000 
#    z 0.000180 0.000000 1.718300 
# 
# From -- ./inp_files/84301.got.cif
#   From: 2010.05.17/outbox.cif.g08.bks.cpg/sg13_43_cif.got.tgz:84301.got - 2010.06.03 16:44:36.
