data_PCOD9229055
_publ_section_title
;
Structure prediction by ZEFSAII (Michael W. Deem and Ramdas Pophale) SiO2 
 PCOD9229055
Probable space group: P 2/C
;
_chemical_formula_sum "Si O2"
_cell_formula_units_Z 32
_cell_length_a 9.178841
_cell_length_b 10.954245
_cell_length_c 32.296946
_cell_angle_alpha 90.000000
_cell_angle_beta 27.938753
_cell_angle_gamma 90.000000
_cell_volume 1521.481940
_symmetry_space_group_name_H-M "P 2/C"
_symmetry_group_IT_number 13
_symmetry_cell_setting 'monoclinic'
loop_
_space_group_symop_operation_xyz
x,y,z
-x,y,1/2-z
-x,-y,-z
x,-y,1/2+z
loop_
_atom_site_type_symbol
_atom_site_label
_atom_site_fract_x
_atom_site_fract_y
_atom_site_fract_z
Si Si1 0.694027 0.633582 0.305728
Si Si2 0.237694 0.511579 0.293448
Si Si3 0.282360 0.268006 0.975846
Si Si4 0.942330 0.140431 0.826384
Si Si5 0.836626 0.132129 0.330990
Si Si6 0.886855 0.868207 0.512619
Si Si7 0.736763 0.676722 0.923902
Si Si8 0.973725 0.742329 0.405781
O O1 0.621300 0.553062 0.285028
O O2 0.427067 0.638180 0.406604
O O3 0.000000 0.580678 0.250000
O O4 0.820130 0.765420 0.255927
O O5 0.500000 0.431577 0.250000
O O6 0.913134 0.445573 0.367267
O O7 0.173761 0.629790 0.338279
O O8 0.585300 0.178380 0.905061
O O9 0.218961 0.311249 0.037965
O O10 0.984962 0.213914 0.027171
O O11 0.976087 0.160870 0.867223
O O12 0.978958 0.001769 0.803466
O O13 0.472455 0.122737 0.410394
O O14 0.874391 0.212270 0.362573
O O15 0.000000 0.188942 0.250000
O O16 0.047189 0.808054 0.431002
O O17 0.000000 0.000000 0.500000
O O18 0.372335 0.685179 0.005363
#
# Coordination Sequence:
#
# PCOD9229055 Si02
#       8
#     4   4   4   4   4   4   4   4
#     4   9  19  36  64  90 111 153 203 256 300 354
#     4  11  22  41  62  85 120 153 206 263 300 345
#     4  10  19  37  59  91 120 150 201 249 305 346
#     4   9  18  35  61  86 121 157 197 241 297 367
#     4  11  23  40  58  86 124 168 199 235 299 379
#     4  11  22  34  60  92 124 151 194 252 302 354
#     4  10  24  39  62  83 122 166 202 237 299 375
#     4   9  21  39  62  90 116 158 205 245 301 359
#
# _framework density 21.032126999999999
#
# number of rings (size 3 to 8) (size 9 to 14) (size 15 to 20)
#    0.000    2.000    1.250    3.000    1.750    3.000 
#    0.000    5.000    0.000    0.000    0.000    0.000 
#    0.000    0.000    0.000    0.000    0.000    0.000 
#
# Total GULP energy -178442.490028 kJ/mol
# GULP energy per Si atom -5576.327813 kJ/mol
# Density = 2.098426 g / cm^3
# Si number density = 21.032127 Si / 1000 Ang^3
#
#
#
# Elastic Constant Matrix: (Units=GPa)
#
#
# Indices 1 2 3 4 5 6 
#
# 1 122.0955 31.1917 27.8696 0.0000 20.6222 0.0000
# 2 31.1917 37.0723 16.3958 0.0000 9.0250 0.0000
# 3 27.8696 16.3958 65.9421 0.0000 25.6456 0.0000
# 4 0.0000 0.0000 0.0000 -8.3638 0.0000 0.3628
# 5 20.6222 9.0250 25.6456 0.0000 34.2888 0.0000
# 6 0.0000 0.0000 0.0000 0.3628 0.0000 11.1922
#
#
#
# Elastic Compliance Matrix: (Units=1/GPa)
#
#
# Indices 1 2 3 4 5 6 
#
# 1 0.011120 -0.007886 -0.001333 0.000000 -0.003615 0.000000
# 2 -0.007886 0.036168 -0.005362 0.000000 -0.000766 0.000000
# 3 -0.001333 -0.005362 0.022846 0.000000 -0.014874 0.000000
# 4 0.000000 0.000000 0.000000 -0.119396 0.000000 0.003871
# 5 -0.003615 -0.000766 -0.014874 0.000000 0.042665 0.000000
# 6 0.000000 0.000000 0.000000 0.003871 0.000000 0.089222
#
#
# Mechanical properties :
#
#
# Convention : Reuss Voigt Hill
#
# Bulk Modulus (GPa) = 24.40700 41.78047 33.09373
# Shear Modulus (GPa) = 39.85843 17.40032 28.62937
#
# Velocity S-wave (km/s) = 4.35802 2.87944 3.69348
# Velocity P-wave (km/s) = 6.07889 5.56445 5.82735
#
# Compressibility (1/GPa) = 0.04097185
#
# Stress axis : x y z
#
# Youngs Moduli (GPa) = 89.92879 27.64911 43.77137
#
# Poissons Ratio (x) = 0.21805 0.05834
# Poissons Ratio (y) = 0.70922 0.23468
# Poissons Ratio (z) = 0.11986 0.14824
#
# Static dielectric constant tensor:
#      x y z
#    x 1.777790 0.000000 -0.013290 
#    y 0.000000 1.778770 0.000000 
#    z -0.013290 0.000000 1.759300 
# 
# From -- ./inp_files/96109.got.cif
#   From: 2010.05.17/outbox.cif.g08.bks.cpg/sg13_49_cif.got.tgz:96109.got - 2010.06.03 16:44:36.
