data_PCOD9229840
_publ_section_title
;
Structure prediction by ZEFSAII (Michael W. Deem and Ramdas Pophale) SiO2 
 PCOD9229840
Probable space group: P 2/C
;
_chemical_formula_sum "Si O2"
_cell_formula_units_Z 22
_cell_length_a 17.891055
_cell_length_b 7.396570
_cell_length_c 7.217189
_cell_angle_alpha 90.000000
_cell_angle_beta 61.591678
_cell_angle_gamma 90.000000
_cell_volume 840.058423
_symmetry_space_group_name_H-M "P 2/C"
_symmetry_group_IT_number 13
_symmetry_cell_setting 'monoclinic'
loop_
_space_group_symop_operation_xyz
x,y,z
-x,y,1/2-z
-x,-y,-z
x,-y,1/2+z
loop_
_atom_site_type_symbol
_atom_site_label
_atom_site_fract_x
_atom_site_fract_y
_atom_site_fract_z
Si Si1 0.912928 0.727879 0.356295
Si Si2 0.720487 0.785563 0.099529
Si Si3 0.089821 0.127418 0.232659
Si Si4 0.269341 0.373467 0.522255
Si Si5 0.607206 0.288260 0.451405
Si Si6 0.500000 0.381419 0.250000
O O1 0.896180 0.779006 0.587707
O O2 0.831784 0.642178 0.364792
O O3 0.000000 0.618871 0.250000
O O4 0.926943 0.913382 0.226328
O O5 0.815701 0.865667 0.973215
O O6 0.723870 0.588411 0.000200
O O7 0.639953 0.852250 0.071045
O O8 0.701590 0.739882 0.334020
O O9 0.000000 0.194433 0.250000
O O10 0.315126 0.296694 0.287720
O O11 0.531205 0.266056 0.389208
O O12 0.571505 0.475483 0.591038
#
# Coordination Sequence:
#
# PCOD9229840 Si02
#       6
#     4   4   4   4   4   2
#     4  11  22  39  58  86 119 161 205 240 280 342
#     4  12  21  37  58  87 124 154 195 245 294 342
#     4  11  22  39  58  86 119 161 205 240 280 342
#     4  12  21  37  58  87 124 154 195 245 294 342
#     4  11  20  36  54  88 121 146 195 239 305 343
#     4  10  20  34  58  84 118 154 184 246 296 368
#
# _framework density 26.188654
#
# number of rings (size 3 to 8) (size 9 to 14) (size 15 to 20)
#    0.000    0.727    5.455    4.364    2.545    0.727 
#    0.000    3.636    0.000    0.000    0.000    3.818 
#    0.000    0.000    0.000    0.000    0.000    0.000 
#
# Total GULP energy -122704.645476 kJ/mol
# GULP energy per Si atom -5577.483885 kJ/mol
# Density = 2.612905 g / cm^3
# Si number density = 26.188654 Si / 1000 Ang^3
#
#
#
# Elastic Constant Matrix: (Units=GPa)
#
#
# Indices 1 2 3 4 5 6 
#
# 1 167.9367 10.3149 18.2152 0.0000 7.7903 0.0000
# 2 10.3149 30.2429 -3.3490 0.0000 -5.9530 0.0000
# 3 18.2152 -3.3490 129.7288 0.0000 15.7454 0.0000
# 4 0.0000 0.0000 0.0000 43.7093 0.0000 -4.9649
# 5 7.7903 -5.9530 15.7454 0.0000 62.4642 0.0000
# 6 0.0000 0.0000 0.0000 -4.9649 0.0000 32.6761
#
#
#
# Elastic Compliance Matrix: (Units=1/GPa)
#
#
# Indices 1 2 3 4 5 6 
#
# 1 0.006228 -0.002373 -0.000840 0.000000 -0.000791 0.000000
# 2 -0.002373 0.034633 0.000816 0.000000 0.003391 0.000000
# 3 -0.000840 0.000816 0.008072 0.000000 -0.001852 0.000000
# 4 0.000000 0.000000 0.000000 0.023280 0.000000 0.003537
# 5 -0.000791 0.003391 -0.001852 0.000000 0.016898 0.000000
# 6 0.000000 0.000000 0.000000 0.003537 0.000000 0.031141
#
#
# Mechanical properties :
#
#
# Convention : Reuss Voigt Hill
#
# Bulk Modulus (GPa) = 22.65563 42.03004 32.34284
# Shear Modulus (GPa) = 35.77585 47.95176 41.86381
#
# Velocity S-wave (km/s) = 3.70006 4.28368 4.00252
# Velocity P-wave (km/s) = 5.18880 6.36791 5.80836
#
# Compressibility (1/GPa) = 0.04413913
#
# Stress axis : x y z
#
# Youngs Moduli (GPa) = 160.56113 28.87438 123.88250
#
# Poissons Ratio (x) = 0.06852 0.10403
# Poissons Ratio (y) = 0.38100 -0.10105
# Poissons Ratio (z) = 0.13483 -0.02355
#
# Static dielectric constant tensor:
#      x y z
#    x 2.551670 0.000000 0.039140 
#    y 0.000000 3.414780 0.000000 
#    z 0.039140 0.000000 2.032980 
# 
# From -- ./inp_files/20756.got.cif
#   From: 2010.05.17/outbox.cif.g08.bks.cpg/sg13_11_cif.got.tgz:20756.got - 2010.06.03 16:44:36.
