data_PCOD9229042
_publ_section_title
;
Structure prediction by ZEFSAII (Michael W. Deem and Ramdas Pophale) SiO2 
 PCOD9229042
Probable space group: P 2/C
;
_chemical_formula_sum "Si O2"
_cell_formula_units_Z 30
_cell_length_a 14.061873
_cell_length_b 15.428953
_cell_length_c 13.474645
_cell_angle_alpha 90.000000
_cell_angle_beta 149.579348
_cell_angle_gamma 90.000000
_cell_volume 1480.277574
_symmetry_space_group_name_H-M "P 2/C"
_symmetry_group_IT_number 13
_symmetry_cell_setting 'monoclinic'
loop_
_space_group_symop_operation_xyz
x,y,z
-x,y,1/2-z
-x,-y,-z
x,-y,1/2+z
loop_
_atom_site_type_symbol
_atom_site_label
_atom_site_fract_x
_atom_site_fract_y
_atom_site_fract_z
Si Si1 0.959935 0.330533 0.028268
Si Si2 0.500000 0.887124 0.750000
Si Si3 0.685099 0.423674 0.149272
Si Si4 0.048577 0.860932 0.028243
Si Si5 0.190370 0.776580 0.360389
Si Si6 0.367973 0.454207 0.726776
Si Si7 0.685131 0.976547 0.732921
Si Si8 0.132838 0.403039 0.773333
O O1 0.923955 0.228673 0.007190
O O2 0.816568 0.395582 0.954889
O O3 0.954515 0.365264 0.908298
O O4 0.174549 0.347286 0.247545
O O5 0.346258 0.830361 0.555814
O O6 0.605306 0.943097 0.763846
O O7 0.675742 0.455541 0.255418
O O8 0.770262 0.507603 0.168799
O O9 0.486972 0.406010 0.920267
O O10 0.115944 0.827689 0.197308
O O11 0.190570 0.938593 0.134274
O O12 0.837869 0.902858 0.833823
O O13 0.266481 0.678511 0.417103
O O14 0.000000 0.764845 0.250000
O O15 0.500000 0.463576 0.750000
O O16 0.500000 0.000000 0.500000
O O17 0.000000 0.417981 0.750000
#
# Coordination Sequence:
#
# PCOD9229042 Si02
#       8
#     4   2   4   4   4   4   4   4
#     4  10  22  41  62  86 124 167 210 258 314 380
#     4  12  22  38  64  96 126 160 208 260 320 396
#     4  10  22  39  60  91 122 167 210 257 318 365
#     4  10  22  42  64  88 127 164 207 260 319 379
#     4  10  19  37  58  93 129 157 201 258 320 374
#     4  10  22  39  59  87 122 161 213 261 301 371
#     4  11  23  40  67  96 122 166 202 260 328 384
#     4   9  19  34  59  90 122 159 204 255 311 375
#
# _framework density 20.266469000000001
#
# number of rings (size 3 to 8) (size 9 to 14) (size 15 to 20)
#    0.000    1.867    2.667    1.600    3.733    1.067 
#    7.200    0.000    2.933    0.000    0.000    0.000 
#    0.000    0.000    0.000    0.000    0.000    0.000 
#
# Total GULP energy -167145.915887 kJ/mol
# GULP energy per Si atom -5571.530530 kJ/mol
# Density = 2.022034 g / cm^3
# Si number density = 20.266469 Si / 1000 Ang^3
#
#
#
# Elastic Constant Matrix: (Units=GPa)
#
#
# Indices 1 2 3 4 5 6 
#
# 1 101.6205 19.0127 1.0154 0.0000 11.5482 0.0000
# 2 19.0127 51.5218 14.6990 0.0000 -0.8998 0.0000
# 3 1.0154 14.6990 73.7475 0.0000 16.6641 0.0000
# 4 0.0000 0.0000 0.0000 6.9445 0.0000 -3.7730
# 5 11.5482 -0.8998 16.6641 0.0000 21.6053 0.0000
# 6 0.0000 0.0000 0.0000 -3.7730 0.0000 13.8118
#
#
#
# Elastic Compliance Matrix: (Units=1/GPa)
#
#
# Indices 1 2 3 4 5 6 
#
# 1 0.011803 -0.005329 0.002877 0.000000 -0.008750 0.000000
# 2 -0.005329 0.023418 -0.006610 0.000000 0.008922 0.000000
# 3 0.002877 -0.006610 0.018466 0.000000 -0.016055 0.000000
# 4 0.000000 0.000000 0.000000 0.169095 0.000000 0.046192
# 5 -0.008750 0.008922 -0.016055 0.000000 0.063717 0.000000
# 6 0.000000 0.000000 0.000000 0.046192 0.000000 0.085020
#
#
# Mechanical properties :
#
#
# Convention : Reuss Voigt Hill
#
# Bulk Modulus (GPa) = 28.12057 32.92710 30.52384
# Shear Modulus (GPa) = 12.45339 21.28317 16.86828
#
# Velocity S-wave (km/s) = 2.48156 3.24414 2.88813
# Velocity P-wave (km/s) = 4.70281 5.50590 5.12013
#
# Compressibility (1/GPa) = 0.03556116
#
# Stress axis : x y z
#
# Youngs Moduli (GPa) = 84.72292 42.70303 54.15480
#
# Poissons Ratio (x) = 0.22757 -0.15579
# Poissons Ratio (y) = 0.45150 0.35797
# Poissons Ratio (z) = -0.24373 0.28227
#
# Static dielectric constant tensor:
#      x y z
#    x 1.759010 0.000000 0.007610 
#    y 0.000000 1.780410 0.000000 
#    z 0.007610 0.000000 1.808060 
# 
# From -- ./inp_files/53883.got.cif
#   From: 2010.05.17/outbox.cif.g08.bks.cpg/sg13_27_cif.got.tgz:53883.got - 2010.06.03 16:44:36.
