data_PCOD9229525
_publ_section_title
;
Structure prediction by ZEFSAII (Michael W. Deem and Ramdas Pophale) SiO2 
 PCOD9229525
Probable space group: P 2/C
;
_chemical_formula_sum "Si O2"
_cell_formula_units_Z 24
_cell_length_a 25.817388
_cell_length_b 7.392773
_cell_length_c 18.702517
_cell_angle_alpha 90.000000
_cell_angle_beta 163.902077
_cell_angle_gamma 90.000000
_cell_volume 989.778467
_symmetry_space_group_name_H-M "P 2/C"
_symmetry_group_IT_number 13
_symmetry_cell_setting 'monoclinic'
loop_
_space_group_symop_operation_xyz
x,y,z
-x,y,1/2-z
-x,-y,-z
x,-y,1/2+z
loop_
_atom_site_type_symbol
_atom_site_label
_atom_site_fract_x
_atom_site_fract_y
_atom_site_fract_z
Si Si1 0.229435 0.403481 0.723634
Si Si2 0.797029 0.681187 0.940714
Si Si3 0.781430 0.093245 0.882053
Si Si4 0.190873 0.433920 0.312268
Si Si5 0.769234 0.143192 0.023993
Si Si6 0.331351 0.734732 0.580281
O O1 0.224028 0.522814 0.644436
O O2 0.302012 0.207306 0.794247
O O3 0.295140 0.527894 0.876497
O O4 0.019493 0.361977 0.475174
O O5 0.000000 0.683759 0.250000
O O6 0.659986 0.664588 0.827104
O O7 0.765215 0.876754 0.861931
O O8 0.705449 0.164494 0.857491
O O9 0.003938 0.135644 0.177655
O O10 0.286507 0.297167 0.494483
O O11 0.169246 0.622658 0.326253
O O12 0.705983 0.946581 0.965419
O O13 0.500000 0.701940 0.750000
#
# Coordination Sequence:
#
# PCOD9229525 Si02
#       6
#     4   4   4   4   4   4
#     4  10  20  31  56  85 112 137 172 228 277 316
#     4  11  18  34  57  79 103 142 185 222 262 313
#     4   9  16  30  54  81 101 131 180 224 262 309
#     4  10  20  34  52  84 114 140 173 222 277 319
#     4   9  17  32  54  75 104 137 178 220 262 312
#     4  11  22  36  55  79 108 143 183 223 262 315
#
# _framework density 24.247851000000001
#
# number of rings (size 3 to 8) (size 9 to 14) (size 15 to 20)
#    0.000    2.000    5.000    1.000    2.333    2.000 
#    0.000    5.833    0.000    5.000    0.000    0.000 
#    0.000    0.000    0.000    0.000    0.000    0.000 
#
# Total GULP energy -134011.715735 kJ/mol
# GULP energy per Si atom -5583.821489 kJ/mol
# Density = 2.419266 g / cm^3
# Si number density = 24.247851 Si / 1000 Ang^3
#
#
#
# Elastic Constant Matrix: (Units=GPa)
#
#
# Indices 1 2 3 4 5 6 
#
# 1 130.2426 58.3467 14.8572 0.0000 -7.0808 0.0000
# 2 58.3467 102.3520 -3.2713 0.0000 -17.6471 0.0000
# 3 14.8572 -3.2713 33.0427 0.0000 5.8354 0.0000
# 4 0.0000 0.0000 0.0000 7.4984 0.0000 -1.0584
# 5 -7.0808 -17.6471 5.8354 0.0000 23.7960 0.0000
# 6 0.0000 0.0000 0.0000 -1.0584 0.0000 23.8030
#
#
#
# Elastic Compliance Matrix: (Units=1/GPa)
#
#
# Indices 1 2 3 4 5 6 
#
# 1 0.011301 -0.006654 -0.005710 0.000000 -0.000172 0.000000
# 2 -0.006654 0.015125 0.002988 0.000000 0.008504 0.000000
# 3 -0.005710 0.002988 0.034531 0.000000 -0.007951 0.000000
# 4 0.000000 0.000000 0.000000 0.134204 0.000000 0.005967
# 5 -0.000172 0.008504 -0.007951 0.000000 0.050229 0.000000
# 6 0.000000 0.000000 0.000000 0.005967 0.000000 0.042277
#
#
# Mechanical properties :
#
#
# Convention : Reuss Voigt Hill
#
# Bulk Modulus (GPa) = 23.69414 45.05585 34.37499
# Shear Modulus (GPa) = 15.60116 24.06647 19.83382
#
# Velocity S-wave (km/s) = 2.53929 3.15385 2.86311
# Velocity P-wave (km/s) = 4.28838 5.64660 5.01369
#
# Compressibility (1/GPa) = 0.04220453
#
# Stress axis : x y z
#
# Youngs Moduli (GPa) = 88.48746 66.11412 28.95928
#
# Poissons Ratio (x) = 0.43995 0.16535
# Poissons Ratio (y) = 0.58883 -0.08652
# Poissons Ratio (z) = 0.50525 -0.19753
#
# Static dielectric constant tensor:
#      x y z
#    x 1.943710 0.000000 0.022050 
#    y 0.000000 1.898010 0.000000 
#    z 0.022050 0.000000 2.100530 
# 
# From -- ./inp_files/71858.got.cif
#   From: 2010.05.17/outbox.cif.g08.bks.cpg/sg13_36_cif.got.tgz:71858.got - 2010.06.03 16:44:36.
