data_PCOD9229068
_publ_section_title
;
Structure prediction by ZEFSAII (Michael W. Deem and Ramdas Pophale) SiO2 
 PCOD9229068
Probable space group: P 2/C
;
_chemical_formula_sum "Si O2"
_cell_formula_units_Z 24
_cell_length_a 5.521254
_cell_length_b 9.462139
_cell_length_c 18.863346
_cell_angle_alpha 90.000000
_cell_angle_beta 69.923128
_cell_angle_gamma 90.000000
_cell_volume 925.590902
_symmetry_space_group_name_H-M "P 2/C"
_symmetry_group_IT_number 13
_symmetry_cell_setting 'monoclinic'
loop_
_space_group_symop_operation_xyz
x,y,z
-x,y,1/2-z
-x,-y,-z
x,-y,1/2+z
loop_
_atom_site_type_symbol
_atom_site_label
_atom_site_fract_x
_atom_site_fract_y
_atom_site_fract_z
Si Si1 0.271739 0.387664 0.515525
Si Si2 0.472112 0.721917 0.137945
Si Si3 0.828488 0.491830 0.653408
Si Si4 0.000000 0.279870 0.250000
Si Si5 0.580805 0.177188 0.402098
Si Si6 0.246521 0.093562 0.970114
Si Si7 0.000000 0.263047 0.750000
O O1 0.500000 0.500000 0.500000
O O2 0.340242 0.282166 0.574085
O O3 0.349356 0.293446 0.438029
O O4 0.015302 0.473116 0.566432
O O5 0.544071 0.566221 0.159921
O O6 0.741086 0.797723 0.095740
O O7 0.272000 0.806480 0.206360
O O8 0.869846 0.628092 0.698874
O O9 0.934940 0.369677 0.693940
O O10 0.235453 0.201546 0.184114
O O11 0.747110 0.182419 0.457822
O O12 0.465374 0.020318 0.425662
O O13 0.000000 0.000000 0.000000
#
# Coordination Sequence:
#
# PCOD9229068 Si02
#       7
#     4   4   4   2   4   4   2
#     4  10  19  37  60  91 126 167 215 257 322 390
#     4  10  21  37  64  91 123 171 216 269 316 391
#     4  10  20  37  61  92 132 164 213 265 327 397
#     4  11  22  41  64 102 142 169 209 280 358 391
#     4  10  22  42  65  93 133 174 214 274 330 388
#     4  10  22  44  67  91 124 173 233 269 314 397
#     4   9  20  37  54  88 124 165 207 256 330 377
#
# _framework density 25.929383000000001
#
# number of rings (size 3 to 8) (size 9 to 14) (size 15 to 20)
#    0.000    2.000    1.667    1.500    0.000    2.667 
#    3.000    5.833    0.000    0.000    0.000    0.000 
#    0.000    0.000    0.000    0.000    0.000    0.000 
#
# Total GULP energy -133683.860772 kJ/mol
# GULP energy per Si atom -5570.160865 kJ/mol
# Density = 2.587037 g / cm^3
# Si number density = 25.929383 Si / 1000 Ang^3
#
#
#
# Elastic Constant Matrix: (Units=GPa)
#
#
# Indices 1 2 3 4 5 6 
#
# 1 61.2290 6.2583 59.8431 0.0000 -21.9509 0.0000
# 2 6.2583 92.6792 58.0777 0.0000 -12.5329 0.0000
# 3 59.8431 58.0777 235.8089 0.0000 -26.6628 0.0000
# 4 0.0000 0.0000 0.0000 43.3599 0.0000 -8.9055
# 5 -21.9509 -12.5329 -26.6628 0.0000 46.9787 0.0000
# 6 0.0000 0.0000 0.0000 -8.9055 0.0000 38.7680
#
#
#
# Elastic Compliance Matrix: (Units=1/GPa)
#
#
# Indices 1 2 3 4 5 6 
#
# 1 0.025403 0.003452 -0.006252 0.000000 0.009242 0.000000
# 2 0.003452 0.013361 -0.003827 0.000000 0.003006 0.000000
# 3 -0.006252 -0.003827 0.006758 0.000000 -0.000107 0.000000
# 4 0.000000 0.000000 0.000000 0.024205 0.000000 0.005560
# 5 0.009242 0.003006 -0.000107 0.000000 0.026346 0.000000
# 6 0.000000 0.000000 0.000000 0.005560 0.000000 0.027072
#
#
# Mechanical properties :
#
#
# Convention : Reuss Voigt Hill
#
# Bulk Modulus (GPa) = 30.98962 70.89725 50.94343
# Shear Modulus (GPa) = 33.97781 43.52384 38.75082
#
# Velocity S-wave (km/s) = 3.62387 4.10146 3.87004
# Velocity P-wave (km/s) = 5.43023 7.05911 6.29756
#
# Compressibility (1/GPa) = 0.03226887
#
# Stress axis : x y z
#
# Youngs Moduli (GPa) = 39.36514 74.84199 147.97626
#
# Poissons Ratio (x) = -0.25838 0.92515
# Poissons Ratio (y) = -0.13590 0.56632
# Poissons Ratio (z) = 0.24611 0.28643
#
# Static dielectric constant tensor:
#      x y z
#    x 2.290910 0.000000 -0.039430 
#    y 0.000000 2.101960 0.000000 
#    z -0.039430 0.000000 2.152400 
# 
# From -- ./inp_files/73343.got.cif
#   From: 2010.05.17/outbox.cif.g08.bks.cpg/sg13_37_cif.got.tgz:73343.got - 2010.06.03 16:44:36.
