data_PCOD9229536
_publ_section_title
;
Structure prediction by ZEFSAII (Michael W. Deem and Ramdas Pophale) SiO2 
 PCOD9229536
Probable space group: P 2/C
;
_chemical_formula_sum "Si O2"
_cell_formula_units_Z 28
_cell_length_a 23.038162
_cell_length_b 6.946695
_cell_length_c 7.495704
_cell_angle_alpha 90.000000
_cell_angle_beta 57.864276
_cell_angle_gamma 90.000000
_cell_volume 1015.814547
_symmetry_space_group_name_H-M "P 2/C"
_symmetry_group_IT_number 13
_symmetry_cell_setting 'monoclinic'
loop_
_space_group_symop_operation_xyz
x,y,z
-x,y,1/2-z
-x,-y,-z
x,-y,1/2+z
loop_
_atom_site_type_symbol
_atom_site_label
_atom_site_fract_x
_atom_site_fract_y
_atom_site_fract_z
Si Si1 0.927808 0.084910 0.966362
Si Si2 0.929774 0.311805 0.336328
Si Si3 0.785508 0.423010 0.490796
Si Si4 0.511138 0.271530 0.020128
Si Si5 0.776625 0.810360 0.640803
Si Si6 0.369689 0.220435 0.160633
Si Si7 0.650069 0.664905 0.398434
O O1 0.000000 0.131087 0.750000
O O2 0.932628 0.854224 0.980560
O O3 0.927102 0.205517 0.149107
O O4 0.851545 0.094585 0.999190
O O5 0.859550 0.421788 0.461814
O O6 0.000000 0.426335 0.250000
O O7 0.770426 0.648384 0.498784
O O8 0.784605 0.308158 0.310157
O O9 0.725965 0.322931 0.699318
O O10 0.500000 0.244796 0.250000
O O11 0.450305 0.165571 0.010826
O O12 0.500000 0.500000 0.000000
O O13 0.592528 0.243192 0.861435
O O14 0.699381 0.897992 0.778016
O O15 0.362244 0.431606 0.080519
O O16 0.362533 0.256433 0.384448
#
# Coordination Sequence:
#
# PCOD9229536 Si02
#       7
#     4   4   4   4   4   4   4
#     4  10  21  36  54  73  94 121 156 194 233 279
#     4  10  21  36  54  73  94 121 156 194 233 279
#     4  10  20  32  47  71  99 126 156 192 233 278
#     4   8  14  22  34  56  85 118 155 188 224 268
#     4  10  20  32  47  71  99 126 156 192 233 278
#     4   9  15  24  39  60  89 123 155 190 229 271
#     4   9  15  24  39  60  89 123 155 190 229 271
#
# _framework density 27.564084999999999
#
# number of rings (size 3 to 8) (size 9 to 14) (size 15 to 20)
#    0.000    2.571    0.000    5.143    0.000    6.286 
#    0.000    2.857    0.000    0.000    0.000    1.000 
#    0.000    0.000    0.000    0.000    0.000    0.000 
#
# Total GULP energy -156434.068155 kJ/mol
# GULP energy per Si atom -5586.931006 kJ/mol
# Density = 2.750135 g / cm^3
# Si number density = 27.564085 Si / 1000 Ang^3
#
#
#
# Elastic Constant Matrix: (Units=GPa)
#
#
# Indices 1 2 3 4 5 6 
#
# 1 220.4414 13.6020 71.1484 0.0000 -84.2104 0.0000
# 2 13.6020 52.0126 -1.3653 0.0000 -8.6010 0.0000
# 3 71.1484 -1.3653 122.7868 0.0000 -32.1735 0.0000
# 4 0.0000 0.0000 0.0000 17.1402 0.0000 -6.7617
# 5 -84.2104 -8.6010 -32.1735 0.0000 80.5790 0.0000
# 6 0.0000 0.0000 0.0000 -6.7617 0.0000 31.2337
#
#
#
# Elastic Compliance Matrix: (Units=1/GPa)
#
#
# Indices 1 2 3 4 5 6 
#
# 1 0.008413 -0.001034 -0.002917 0.000000 0.007517 0.000000
# 2 -0.001034 0.019779 0.001216 0.000000 0.001517 0.000000
# 3 -0.002917 0.001216 0.010144 0.000000 0.001132 0.000000
# 4 0.000000 0.000000 0.000000 0.063790 0.000000 0.013810
# 5 0.007517 0.001517 0.001132 0.000000 0.020880 0.000000
# 6 0.000000 0.000000 0.000000 0.013810 0.000000 0.035006
#
#
# Mechanical properties :
#
#
# Convention : Reuss Voigt Hill
#
# Bulk Modulus (GPa) = 30.42413 62.44568 46.43490
# Shear Modulus (GPa) = 28.66341 46.58096 37.62219
#
# Velocity S-wave (km/s) = 3.22822 4.11532 3.69846
# Velocity P-wave (km/s) = 4.99567 6.72941 5.92629
#
# Compressibility (1/GPa) = 0.03286865
#
# Stress axis : x y z
#
# Youngs Moduli (GPa) = 118.85985 50.55832 98.57598
#
# Poissons Ratio (x) = 0.05226 0.28752
# Poissons Ratio (y) = 0.12286 -0.11989
# Poissons Ratio (z) = 0.34668 -0.06149
#
# Static dielectric constant tensor:
#      x y z
#    x 2.255080 0.000000 -0.068930 
#    y 0.000000 2.174840 0.000000 
#    z -0.068930 0.000000 2.167710 
# 
# From -- ./inp_files/23205.got.cif
#   From: 2010.05.17/outbox.cif.g08.bks.cpg/sg13_12_cif.got.tgz:23205.got - 2010.06.03 16:44:36.
