data_PCOD9229828
_publ_section_title
;
Structure prediction by ZEFSAII (Michael W. Deem and Ramdas Pophale) SiO2 
 PCOD9229828
Probable space group: P 2/C
;
_chemical_formula_sum "Si O2"
_cell_formula_units_Z 20
_cell_length_a 12.557829
_cell_length_b 16.638567
_cell_length_c 4.977880
_cell_angle_alpha 90.000000
_cell_angle_beta 84.622280
_cell_angle_gamma 90.000000
_cell_volume 1035.521534
_symmetry_space_group_name_H-M "P 2/C"
_symmetry_group_IT_number 13
_symmetry_cell_setting 'monoclinic'
loop_
_space_group_symop_operation_xyz
x,y,z
-x,y,1/2-z
-x,-y,-z
x,-y,1/2+z
loop_
_atom_site_type_symbol
_atom_site_label
_atom_site_fract_x
_atom_site_fract_y
_atom_site_fract_z
Si Si1 0.288842 0.054663 0.433932
Si Si2 0.127682 0.551761 0.212023
Si Si3 0.570383 0.797336 0.496815
Si Si4 0.121176 0.183879 0.301416
Si Si5 0.208613 0.725075 0.261425
O O1 0.382707 0.120049 0.390611
O O2 0.182468 0.104315 0.385358
O O3 0.293954 0.019740 0.731188
O O4 0.151383 0.478206 0.407207
O O5 0.189632 0.630655 0.291311
O O6 0.000000 0.568142 0.250000
O O7 0.500000 0.812686 0.250000
O O8 0.673905 0.747409 0.376332
O O9 0.500000 0.758371 0.750000
O O10 0.127640 0.244449 0.549903
O O11 0.000000 0.167648 0.250000
O O12 0.183011 0.225351 0.037540
#
# Coordination Sequence:
#
# PCOD9229828 Si02
#       5
#     4   4   4   4   4
#     4  11  23  38  56  84 115 144 189 242 291 343
#     4  10  20  34  57  89 120 149 179 219 278 337
#     4  11  23  40  61  82 107 149 199 244 291 332
#     4  11  22  37  59  84 115 157 192 225 280 346
#     4  11  22  39  60  85 118 150 193 238 274 337
#
# _framework density 19.313939000000001
#
# number of rings (size 3 to 8) (size 9 to 14) (size 15 to 20)
#    0.000    1.200    0.000    9.000    0.000    4.800 
#    0.000    0.000    0.000    3.600    0.000    0.000 
#    0.000    0.000    0.000    0.000    0.000    0.000 
#
# Total GULP energy -111771.445700 kJ/mol
# GULP energy per Si atom -5588.572285 kJ/mol
# Density = 1.926998 g / cm^3
# Si number density = 19.313939 Si / 1000 Ang^3
#
#
#
# Elastic Constant Matrix: (Units=GPa)
#
#
# Indices 1 2 3 4 5 6 
#
# 1 96.7804 27.6058 11.8416 0.0000 12.1900 0.0000
# 2 27.6058 68.4185 -0.2913 0.0000 -5.1196 0.0000
# 3 11.8416 -0.2913 84.7367 0.0000 4.7257 0.0000
# 4 0.0000 0.0000 0.0000 15.5751 0.0000 0.9526
# 5 12.1900 -5.1196 4.7257 0.0000 31.8580 0.0000
# 6 0.0000 0.0000 0.0000 0.9526 0.0000 7.6553
#
#
#
# Elastic Compliance Matrix: (Units=1/GPa)
#
#
# Indices 1 2 3 4 5 6 
#
# 1 0.012815 -0.005594 -0.001499 0.000000 -0.005580 0.000000
# 2 -0.005594 0.017237 0.000572 0.000000 0.004826 0.000000
# 3 -0.001499 0.000572 0.012075 0.000000 -0.001126 0.000000
# 4 0.000000 0.000000 0.000000 0.064697 0.000000 -0.008051
# 5 -0.005580 0.004826 -0.001126 0.000000 0.034467 0.000000
# 6 0.000000 0.000000 0.000000 -0.008051 0.000000 0.131630
#
#
# Mechanical properties :
#
#
# Convention : Reuss Voigt Hill
#
# Bulk Modulus (GPa) = 34.38294 36.47196 35.42745
# Shear Modulus (GPa) = 16.91138 25.06965 20.99052
#
# Velocity S-wave (km/s) = 2.96227 3.60670 3.30025
# Velocity P-wave (km/s) = 5.43515 6.02238 5.73629
#
# Compressibility (1/GPa) = 0.02908419
#
# Stress axis : x y z
#
# Youngs Moduli (GPa) = 78.03561 58.01562 82.81249
#
# Poissons Ratio (x) = 0.32456 0.12412
# Poissons Ratio (y) = 0.43657 -0.04736
# Poissons Ratio (z) = 0.11696 -0.03318
#
# Static dielectric constant tensor:
#      x y z
#    x 1.671340 0.000000 -0.009860 
#    y 0.000000 1.678160 0.000000 
#    z -0.009860 0.000000 1.674320 
# 
# From -- ./inp_files/3250.got.cif
#   From: 2010.05.17/outbox.cif.g08.bks.cpg/sg13_2_cif.got.tgz:3250.got - 2010.06.03 16:44:36.
