data_PCOD9229995
_publ_section_title
;
Structure prediction by ZEFSAII (Michael W. Deem and Ramdas Pophale) SiO2 
 PCOD9229995
Probable space group: P 2/C
;
_chemical_formula_sum "Si O2"
_cell_formula_units_Z 24
_cell_length_a 15.520288
_cell_length_b 5.907333
_cell_length_c 12.642072
_cell_angle_alpha 90.000000
_cell_angle_beta 115.422241
_cell_angle_gamma 90.000000
_cell_volume 1046.835344
_symmetry_space_group_name_H-M "P 2/C"
_symmetry_group_IT_number 13
_symmetry_cell_setting 'monoclinic'
loop_
_space_group_symop_operation_xyz
x,y,z
-x,y,1/2-z
-x,-y,-z
x,-y,1/2+z
loop_
_atom_site_type_symbol
_atom_site_label
_atom_site_fract_x
_atom_site_fract_y
_atom_site_fract_z
Si Si1 0.387935 0.414370 0.325730
Si Si2 0.899233 0.911870 0.078653
Si Si3 0.235585 0.482617 0.085122
Si Si4 0.570641 0.188974 0.490460
Si Si5 0.266248 0.863357 0.924990
Si Si6 0.932606 0.300417 0.920163
O O1 0.338229 0.438933 0.187717
O O2 0.496925 0.331097 0.381003
O O3 0.391238 0.643149 0.397910
O O4 0.318669 0.237371 0.350713
O O5 0.003999 0.801683 0.140128
O O6 0.827765 0.725175 0.990513
O O7 0.837631 0.021312 0.140872
O O8 0.916325 0.110787 0.001518
O O9 0.250743 0.659545 0.998555
O O10 0.171803 0.592857 0.146711
O O11 0.500000 0.000000 0.500000
O O12 0.659604 0.050744 0.491314
O O13 0.000000 0.500000 0.000000
#
# Coordination Sequence:
#
# PCOD9229995 Si02
#       6
#     4   4   4   4   4   4
#     4  10  21  39  58  82 116 149 191 243 292 345
#     4   9  17  33  56  81 112 150 189 234 288 341
#     4  10  20  35  60  87 111 150 196 238 287 348
#     4   9  20  39  56  75 111 151 186 240 296 341
#     4  10  20  35  57  82 113 154 194 233 287 349
#     4   8  16  31  55  82 112 148 188 236 288 337
#
# _framework density 22.926238999999999
#
# number of rings (size 3 to 8) (size 9 to 14) (size 15 to 20)
#    0.000    2.667    0.000    1.000    0.000    5.333 
#    0.000   20.000    0.000   71.000    0.000    0.000 
#    0.000    0.000    0.000    0.000    0.000    0.000 
#
# Total GULP energy -133810.295292 kJ/mol
# GULP energy per Si atom -5575.428970 kJ/mol
# Density = 2.287406 g / cm^3
# Si number density = 22.926239 Si / 1000 Ang^3
#
#
#
# Elastic Constant Matrix: (Units=GPa)
#
#
# Indices 1 2 3 4 5 6 
#
# 1 158.3007 43.2786 8.3091 0.0000 8.4105 0.0000
# 2 43.2786 112.9190 20.2669 0.0000 7.8917 0.0000
# 3 8.3091 20.2669 48.3664 0.0000 12.2192 0.0000
# 4 0.0000 0.0000 0.0000 3.8850 0.0000 12.9326
# 5 8.4105 7.8917 12.2192 0.0000 19.0705 0.0000
# 6 0.0000 0.0000 0.0000 12.9326 0.0000 68.9592
#
#
#
# Elastic Compliance Matrix: (Units=1/GPa)
#
#
# Indices 1 2 3 4 5 6 
#
# 1 0.007144 -0.002660 0.000483 0.000000 -0.002360 0.000000
# 2 -0.002660 0.010611 -0.003790 0.000000 -0.000789 0.000000
# 3 0.000483 -0.003790 0.026056 0.000000 -0.015340 0.000000
# 4 0.000000 0.000000 0.000000 0.685089 0.000000 -0.128482
# 5 -0.002360 -0.000789 -0.015340 0.000000 0.063633 0.000000
# 6 0.000000 0.000000 0.000000 -0.128482 0.000000 0.038597
#
#
# Mechanical properties :
#
#
# Convention : Reuss Voigt Hill
#
# Bulk Modulus (GPa) = 31.36928 51.47726 41.42327
# Shear Modulus (GPa) = 5.85693 34.89837 20.37765
#
# Velocity S-wave (km/s) = 1.60007 3.90577 2.98457
# Velocity P-wave (km/s) = 4.13836 6.54540 5.47578
#
# Compressibility (1/GPa) = 0.03187832
#
# Stress axis : x y z
#
# Youngs Moduli (GPa) = 139.97092 94.24351 38.37891
#
# Poissons Ratio (x) = 0.25069 -0.01855
# Poissons Ratio (y) = 0.37233 0.14545
# Poissons Ratio (z) = -0.06767 0.35716
#
# Static dielectric constant tensor:
#      x y z
#    x 1.901420 0.000000 -0.018310 
#    y 0.000000 1.900620 0.000000 
#    z -0.018310 0.000000 1.810340 
# 
# From -- ./inp_files/52327.got.cif
#   From: 2010.05.17/outbox.cif.g08.bks.cpg/sg13_27_cif.got.tgz:52327.got - 2010.06.03 16:44:36.
