data_PCOD9229598
_publ_section_title
;
Structure prediction by ZEFSAII (Michael W. Deem and Ramdas Pophale) SiO2 
 PCOD9229598
Probable space group: P 2/C
;
_chemical_formula_sum "Si O2"
_cell_formula_units_Z 20
_cell_length_a 8.167794
_cell_length_b 8.980258
_cell_length_c 13.325403
_cell_angle_alpha 90.000000
_cell_angle_beta 125.184734
_cell_angle_gamma 90.000000
_cell_volume 798.830467
_symmetry_space_group_name_H-M "P 2/C"
_symmetry_group_IT_number 13
_symmetry_cell_setting 'monoclinic'
loop_
_space_group_symop_operation_xyz
x,y,z
-x,y,1/2-z
-x,-y,-z
x,-y,1/2+z
loop_
_atom_site_type_symbol
_atom_site_label
_atom_site_fract_x
_atom_site_fract_y
_atom_site_fract_z
Si Si1 0.500000 0.552094 0.750000
Si Si2 0.886274 0.759953 0.879639
Si Si3 0.301038 0.140652 0.003011
Si Si4 0.623037 0.344414 0.639984
Si Si5 0.000000 0.560914 0.750000
Si Si6 0.689452 0.977320 0.202477
O O1 0.687433 0.658259 0.801801
O O2 0.464670 0.443437 0.642945
O O3 0.883133 0.796037 0.997463
O O4 0.032880 0.667240 0.859343
O O5 0.836877 0.918306 0.813878
O O6 0.467812 0.051575 0.124553
O O7 0.414729 0.274190 0.983099
O O8 0.244771 0.033163 0.891350
O O9 0.672844 0.196548 0.722569
O O10 0.814074 0.450535 0.697787
#
# Coordination Sequence:
#
# PCOD9229598 Si02
#       6
#     2   4   4   4   2   4
#     4  10  20  32  58  90 114 162 186 252 304 330
#     4  11  20  39  61  86 124 156 198 247 300 354
#     4   9  19  36  64  91 115 149 211 250 290 342
#     4   9  21  37  59  87 120 158 200 239 295 358
#     4  10  24  40  54  86 130 168 186 234 310 362
#     4   9  19  36  63  90 114 148 205 253 285 347
#
# _framework density 25.0366
#
# number of rings (size 3 to 8) (size 9 to 14) (size 15 to 20)
#    1.200    1.200    2.000    0.000    2.800    2.400 
#    0.000    1.000    0.000    0.000    0.000    0.000 
#    0.000    0.000    0.000    0.000    0.000    0.000 
#
# Total GULP energy -111560.413426 kJ/mol
# GULP energy per Si atom -5578.020671 kJ/mol
# Density = 2.497962 g / cm^3
# Si number density = 25.036600 Si / 1000 Ang^3
#
#
#
# Elastic Constant Matrix: (Units=GPa)
#
#
# Indices 1 2 3 4 5 6 
#
# 1 85.6093 50.2048 18.8669 0.0000 -19.3765 0.0000
# 2 50.2048 164.8310 19.9849 0.0000 -12.8353 0.0000
# 3 18.8669 19.9849 30.0176 0.0000 -20.4207 0.0000
# 4 0.0000 0.0000 0.0000 12.3628 0.0000 -34.5117
# 5 -19.3765 -12.8353 -20.4207 0.0000 28.8909 0.0000
# 6 0.0000 0.0000 0.0000 -34.5117 0.0000 -11.1552
#
#
#
# Elastic Compliance Matrix: (Units=1/GPa)
#
#
# Indices 1 2 3 4 5 6 
#
# 1 0.016292 -0.004084 -0.002546 0.000000 0.007313 0.000000
# 2 -0.004084 0.007625 -0.003984 0.000000 -0.002168 0.000000
# 3 -0.002546 -0.003984 0.067804 0.000000 0.044447 0.000000
# 4 0.000000 0.000000 0.000000 0.008394 0.000000 -0.025969
# 5 0.007313 -0.002168 0.044447 0.000000 0.069971 0.000000
# 6 0.000000 0.000000 0.000000 -0.025969 0.000000 -0.009303
#
#
# Mechanical properties :
#
#
# Convention : Reuss Voigt Hill
#
# Bulk Modulus (GPa) = 14.18604 50.95237 32.56921
# Shear Modulus (GPa) = 24.32970 18.77979 21.55475
#
# Velocity S-wave (km/s) = 3.12070 2.74175 2.93734
# Velocity P-wave (km/s) = 4.32012 5.51528 4.95387
#
# Compressibility (1/GPa) = 0.07049181
#
# Stress axis : x y z
#
# Youngs Moduli (GPa) = 61.37819 131.14618 14.74842
#
# Poissons Ratio (x) = 0.53563 0.03755
# Poissons Ratio (y) = 0.25068 0.05876
# Poissons Ratio (z) = 0.15629 0.52252
#
# Static dielectric constant tensor:
#      x y z
#    x 2.077330 0.000000 -0.099390 
#    y 0.000000 1.963010 0.000000 
#    z -0.099390 0.000000 2.036700 
# 
# From -- ./inp_files/63533.got.cif
#   From: 2010.05.17/outbox.cif.g08.bks.cpg/sg13_32_cif.got.tgz:63533.got - 2010.06.03 16:44:36.
