data_PCOD9229908
_publ_section_title
;
Structure prediction by ZEFSAII (Michael W. Deem and Ramdas Pophale) SiO2 
 PCOD9229908
Probable space group: P 2/C
;
_chemical_formula_sum "Si O2"
_cell_formula_units_Z 22
_cell_length_a 15.924240
_cell_length_b 11.828990
_cell_length_c 5.638244
_cell_angle_alpha 90.000000
_cell_angle_beta 92.868014
_cell_angle_gamma 90.000000
_cell_volume 1060.732626
_symmetry_space_group_name_H-M "P 2/C"
_symmetry_group_IT_number 13
_symmetry_cell_setting 'monoclinic'
loop_
_space_group_symop_operation_xyz
x,y,z
-x,y,1/2-z
-x,-y,-z
x,-y,1/2+z
loop_
_atom_site_type_symbol
_atom_site_label
_atom_site_fract_x
_atom_site_fract_y
_atom_site_fract_z
Si Si1 0.000000 0.387241 0.750000
Si Si2 0.310230 0.871331 0.763805
Si Si3 0.105556 0.763306 0.954375
Si Si4 0.826215 0.531510 0.678229
Si Si5 0.500000 0.067265 0.250000
Si Si6 0.000000 0.938810 0.750000
Si Si7 0.245775 0.133702 0.757379
O O1 0.975578 0.303609 0.959081
O O2 0.916711 0.462651 0.693329
O O3 0.410096 0.872379 0.740494
O O4 0.271937 0.820269 0.517469
O O5 0.270444 0.999893 0.770581
O O6 0.292448 0.824055 0.023944
O O7 0.151794 0.826422 0.179036
O O8 0.157576 0.663767 0.843462
O O9 0.081842 0.860180 0.770366
O O10 0.784963 0.496042 0.423618
O O11 0.500000 0.000000 0.500000
O O12 0.000000 0.000000 0.500000
#
# Coordination Sequence:
#
# PCOD9229908 Si02
#       7
#     2   4   4   4   2   2   4
#     4  10  20  40  62  80  96 132 192 250 294 328
#     4  10  20  35  50  78 104 148 176 216 250 320
#     4  11  23  39  57  75 106 144 187 237 286 324
#     4  10  20  36  60  79  95 121 176 243 294 330
#     4  12  16  32  58  78  98 142 192 218 252 296
#     4  12  28  38  48  70  98 146 194 222 244 314
#     4  10  21  32  52  70 109 138 177 210 275 310
#
# _framework density 20.740382
#
# number of rings (size 3 to 8) (size 9 to 14) (size 15 to 20)
#    0.000    1.455    3.636    4.364    5.091    5.818 
#    0.000    0.000    0.000    0.000    0.000    0.000 
#    0.000    0.000    0.000  111.273    0.000    0.000 
#
# Total GULP energy -122674.947710 kJ/mol
# GULP energy per Si atom -5576.133987 kJ/mol
# Density = 2.069318 g / cm^3
# Si number density = 20.740382 Si / 1000 Ang^3
#
#
#
# Elastic Constant Matrix: (Units=GPa)
#
#
# Indices 1 2 3 4 5 6 
#
# 1 44.9395 16.2450 19.7790 0.0000 2.2753 0.0000
# 2 16.2450 73.8603 36.4691 0.0000 4.3561 0.0000
# 3 19.7790 36.4691 200.2518 0.0000 -13.5977 0.0000
# 4 0.0000 0.0000 0.0000 20.3840 0.0000 0.2334
# 5 2.2753 4.3561 -13.5977 0.0000 38.5816 0.0000
# 6 0.0000 0.0000 0.0000 0.2334 0.0000 8.0295
#
#
#
# Elastic Compliance Matrix: (Units=1/GPa)
#
#
# Indices 1 2 3 4 5 6 
#
# 1 0.024715 -0.004490 -0.001729 0.000000 -0.001560 0.000000
# 2 -0.004490 0.015972 -0.002633 0.000000 -0.002466 0.000000
# 3 -0.001729 -0.002633 0.005810 0.000000 0.002447 0.000000
# 4 0.000000 0.000000 0.000000 0.049074 0.000000 -0.001427
# 5 -0.001560 -0.002466 0.002447 0.000000 0.027152 0.000000
# 6 0.000000 0.000000 0.000000 -0.001427 0.000000 0.124582
#
#
# Mechanical properties :
#
#
# Convention : Reuss Voigt Hill
#
# Bulk Modulus (GPa) = 34.73044 51.55976 43.14510
# Shear Modulus (GPa) = 18.20779 29.83624 24.02202
#
# Velocity S-wave (km/s) = 2.96614 3.79695 3.40696
# Velocity P-wave (km/s) = 5.33969 6.64349 6.02695
#
# Compressibility (1/GPa) = 0.02879319
#
# Stress axis : x y z
#
# Youngs Moduli (GPa) = 40.46063 62.60940 172.11252
#
# Poissons Ratio (x) = 0.28112 0.29765
# Poissons Ratio (y) = 0.18167 0.45313
# Poissons Ratio (z) = 0.06997 0.16484
#
# Static dielectric constant tensor:
#      x y z
#    x 1.884630 0.000000 -0.217500 
#    y 0.000000 1.776180 0.000000 
#    z -0.217500 0.000000 2.481160 
# 
# From -- ./inp_files/5980.got.cif
#   From: 2010.05.17/outbox.cif.g08.bks.cpg/sg13_3_cif.got.tgz:5980.got - 2010.06.03 16:44:36.
