data_PCOD9229511
_publ_section_title
;
Structure prediction by ZEFSAII (Michael W. Deem and Ramdas Pophale) SiO2 
 PCOD9229511
Probable space group: P 2/C
;
_chemical_formula_sum "Si O2"
_cell_formula_units_Z 18
_cell_length_a 7.859847
_cell_length_b 8.513832
_cell_length_c 20.559824
_cell_angle_alpha 90.000000
_cell_angle_beta 148.990318
_cell_angle_gamma 90.000000
_cell_volume 708.793967
_symmetry_space_group_name_H-M "P 2/C"
_symmetry_group_IT_number 13
_symmetry_cell_setting 'monoclinic'
loop_
_space_group_symop_operation_xyz
x,y,z
-x,y,1/2-z
-x,-y,-z
x,-y,1/2+z
loop_
_atom_site_type_symbol
_atom_site_label
_atom_site_fract_x
_atom_site_fract_y
_atom_site_fract_z
Si Si1 0.061160 0.667017 0.449191
Si Si2 0.774602 0.682459 0.545414
Si Si3 0.749832 0.882951 0.881802
Si Si4 0.369615 0.667096 0.303088
Si Si5 0.000000 0.386424 0.250000
O O1 0.195358 0.500090 0.467080
O O2 0.308648 0.763907 0.576530
O O3 0.279047 0.356681 0.619355
O O4 0.901636 0.745115 0.332457
O O5 0.466922 0.748185 0.402949
O O6 0.781499 0.701742 0.624642
O O7 0.084888 0.770324 0.617420
O O8 0.500000 0.968600 0.750000
O O9 0.000000 0.000000 0.000000
O O10 0.209884 0.503055 0.272890
#
# Coordination Sequence:
#
# PCOD9229511 Si02
#       5
#     4   4   4   4   2
#     4   9  20  35  63  88 119 151 199 258 305 352
#     4  10  21  36  62  88 124 154 200 253 303 364
#     4  11  25  39  62  90 119 160 208 255 303 355
#     4   9  17  32  54  88 124 148 190 240 308 352
#     4  10  20  30  56  96 126 156 190 248 306 370
#
# _framework density 25.395250999999998
#
# number of rings (size 3 to 8) (size 9 to 14) (size 15 to 20)
#    0.000    2.222    0.000    3.333   18.667    0.000 
#    0.000    0.000    0.000    6.667    0.000    0.000 
#    0.000    0.000    0.000    0.000    0.000    0.000 
#
# Total GULP energy -100259.529422 kJ/mol
# GULP energy per Si atom -5569.973857 kJ/mol
# Density = 2.533745 g / cm^3
# Si number density = 25.395251 Si / 1000 Ang^3
#
#
#
# Elastic Constant Matrix: (Units=GPa)
#
#
# Indices 1 2 3 4 5 6 
#
# 1 114.7565 15.1731 42.6354 0.0000 -38.9284 0.0000
# 2 15.1731 61.7221 8.4281 0.0000 -10.2738 0.0000
# 3 42.6354 8.4281 225.7774 0.0000 -82.0292 0.0000
# 4 0.0000 0.0000 0.0000 28.5789 0.0000 1.2722
# 5 -38.9284 -10.2738 -82.0292 0.0000 60.0168 0.0000
# 6 0.0000 0.0000 0.0000 1.2722 0.0000 -1.1544
#
#
#
# Elastic Compliance Matrix: (Units=1/GPa)
#
#
# Indices 1 2 3 4 5 6 
#
# 1 0.011434 -0.001530 0.000988 0.000000 0.008505 0.000000
# 2 -0.001530 0.016959 0.000695 0.000000 0.002861 0.000000
# 3 0.000988 0.000695 0.008924 0.000000 0.012957 0.000000
# 4 0.000000 0.000000 0.000000 0.033355 0.000000 0.036756
# 5 0.008505 0.002861 0.012957 0.000000 0.040378 0.000000
# 6 0.000000 0.000000 0.000000 0.036756 0.000000 -0.825710
#
#
# Mechanical properties :
#
#
# Convention : Reuss Voigt Hill
#
# Bulk Modulus (GPa) = 26.57893 59.41435 42.99664
# Shear Modulus (GPa) = -7.11820 39.88955 16.38568
#
# Velocity S-wave (km/s) = -1.67602 3.96757 2.54289
# Velocity P-wave (km/s) = 2.59681 6.66599 5.05860
#
# Compressibility (1/GPa) = 0.03762378
#
# Stress axis : x y z
#
# Youngs Moduli (GPa) = 87.45472 58.96545 112.05489
#
# Poissons Ratio (x) = 0.09023 -0.11069
# Poissons Ratio (y) = 0.13382 -0.07791
# Poissons Ratio (z) = -0.08639 -0.04100
#
# Static dielectric constant tensor:
#      x y z
#    x 2.119030 0.000000 0.107360 
#    y 0.000000 2.036960 0.000000 
#    z 0.107360 0.000000 2.418320 
# 
# From -- ./inp_files/75898.got.cif
#   From: 2010.05.17/outbox.cif.g08.bks.cpg/sg13_38_cif.got.tgz:75898.got - 2010.06.03 16:44:36.
