data_PCOD9229216
_publ_section_title
;
Structure prediction by ZEFSAII (Michael W. Deem and Ramdas Pophale) SiO2 
 PCOD9229216
Probable space group: P 2/C
;
_chemical_formula_sum "Si O2"
_cell_formula_units_Z 20
_cell_length_a 12.236368
_cell_length_b 7.270471
_cell_length_c 18.662653
_cell_angle_alpha 90.000000
_cell_angle_beta 154.301595
_cell_angle_gamma 90.000000
_cell_volume 719.965663
_symmetry_space_group_name_H-M "P 2/C"
_symmetry_group_IT_number 13
_symmetry_cell_setting 'monoclinic'
loop_
_space_group_symop_operation_xyz
x,y,z
-x,y,1/2-z
-x,-y,-z
x,-y,1/2+z
loop_
_atom_site_type_symbol
_atom_site_label
_atom_site_fract_x
_atom_site_fract_y
_atom_site_fract_z
Si Si1 0.682015 0.873316 0.767713
Si Si2 0.152599 0.969768 0.472659
Si Si3 0.258876 0.698036 0.897704
Si Si4 0.544836 0.552563 0.195087
Si Si5 0.198492 0.316952 0.779775
O O1 0.435860 0.003786 0.610445
O O2 0.780484 0.909998 0.906196
O O3 0.588235 0.663959 0.712994
O O4 0.908276 0.902469 0.844923
O O5 0.041401 0.809180 0.356638
O O6 0.000000 0.810534 0.750000
O O7 0.795814 0.517421 0.682256
O O8 0.315228 0.615800 0.009996
O O9 0.533543 0.769513 0.036701
O O10 0.500000 0.604339 0.250000
O O11 0.776585 0.650306 0.291800
#
# Coordination Sequence:
#
# PCOD9229216 Si02
#       5
#     4   4   4   4   4
#     4  10  21  38  60  86 128 162 207 258 314 365
#     4  10  20  41  58  88 123 171 202 256 315 377
#     4   9  19  38  60  88 126 161 199 261 317 374
#     4  10  19  38  60  96 118 161 207 265 312 373
#     4   9  21  38  62  88 121 162 212 251 322 374
#
# _framework density 27.779102999999999
#
# number of rings (size 3 to 8) (size 9 to 14) (size 15 to 20)
#    1.200    1.200    2.000    1.200    0.000    0.800 
#   10.800    1.000    0.000    1.200    0.000    0.000 
#    0.000    0.000    0.000    0.000    0.000    0.000 
#
# Total GULP energy -111840.451068 kJ/mol
# GULP energy per Si atom -5592.022553 kJ/mol
# Density = 2.771588 g / cm^3
# Si number density = 27.779103 Si / 1000 Ang^3
#
#
#
# Elastic Constant Matrix: (Units=GPa)
#
#
# Indices 1 2 3 4 5 6 
#
# 1 159.3789 22.3938 36.4223 0.0000 -2.5594 0.0000
# 2 22.3938 85.5135 41.3312 0.0000 6.0910 0.0000
# 3 36.4223 41.3312 183.8977 0.0000 37.4655 0.0000
# 4 0.0000 0.0000 0.0000 12.0665 0.0000 7.2644
# 5 -2.5594 6.0910 37.4655 0.0000 33.8647 0.0000
# 6 0.0000 0.0000 0.0000 7.2644 0.0000 40.5796
#
#
#
# Elastic Compliance Matrix: (Units=1/GPa)
#
#
# Indices 1 2 3 4 5 6 
#
# 1 0.006848 -0.001200 -0.001596 0.000000 0.002499 0.000000
# 2 -0.001200 0.013365 -0.002915 0.000000 0.000730 0.000000
# 3 -0.001596 -0.002915 0.008168 0.000000 -0.008632 0.000000
# 4 0.000000 0.000000 0.000000 0.092884 0.000000 -0.016628
# 5 0.002499 0.000730 -0.008632 0.000000 0.039137 0.000000
# 6 0.000000 0.000000 0.000000 -0.016628 0.000000 0.027620
#
#
# Mechanical properties :
#
#
# Convention : Reuss Voigt Hill
#
# Bulk Modulus (GPa) = 58.96424 69.89832 64.43128
# Shear Modulus (GPa) = 24.37885 39.21167 31.79526
#
# Velocity S-wave (km/s) = 2.96564 3.76114 3.38683
# Velocity P-wave (km/s) = 5.74447 6.63916 6.20795
#
# Compressibility (1/GPa) = 0.01695943
#
# Stress axis : x y z
#
# Youngs Moduli (GPa) = 146.03392 74.82129 122.43428
#
# Poissons Ratio (x) = 0.08979 0.19535
# Poissons Ratio (y) = 0.17524 0.35689
# Poissons Ratio (z) = 0.23301 0.21810
#
# Static dielectric constant tensor:
#      x y z
#    x 2.219920 0.000000 0.075440 
#    y 0.000000 2.193610 0.000000 
#    z 0.075440 0.000000 2.152840 
# 
# From -- ./inp_files/87352.got.cif
#   From: 2010.05.17/outbox.cif.g08.bks.cpg/sg13_44_cif.got.tgz:87352.got - 2010.06.03 16:44:36.
