data_PCOD9229834
_publ_section_title
;
Structure prediction by ZEFSAII (Michael W. Deem and Ramdas Pophale) SiO2 
 PCOD9229834
Probable space group: P 2/C
;
_chemical_formula_sum "Si O2"
_cell_formula_units_Z 32
_cell_length_a 21.032911
_cell_length_b 8.584432
_cell_length_c 25.455428
_cell_angle_alpha 90.000000
_cell_angle_beta 158.648985
_cell_angle_gamma 90.000000
_cell_volume 1673.358310
_symmetry_space_group_name_H-M "P 2/C"
_symmetry_group_IT_number 13
_symmetry_cell_setting 'monoclinic'
loop_
_space_group_symop_operation_xyz
x,y,z
-x,y,1/2-z
-x,-y,-z
x,-y,1/2+z
loop_
_atom_site_type_symbol
_atom_site_label
_atom_site_fract_x
_atom_site_fract_y
_atom_site_fract_z
Si Si1 0.820543 0.807417 0.017528
Si Si2 0.048600 0.220851 0.534059
Si Si3 0.240378 0.967735 0.632127
Si Si4 0.558475 0.665504 0.020542
Si Si5 0.893909 0.971302 0.716185
Si Si6 0.180207 0.742886 0.745941
Si Si7 0.088017 0.390184 0.664169
Si Si8 0.407679 0.813618 0.559240
O O1 0.907913 0.668735 0.051251
O O2 0.745456 0.936316 0.919092
O O3 0.680258 0.763283 0.953525
O O4 0.982043 0.885844 0.171850
O O5 0.083014 0.370196 0.597177
O O6 0.946360 0.109223 0.496345
O O7 0.917443 0.233564 0.384388
O O8 0.218957 0.139723 0.639923
O O9 0.400036 0.878073 0.781356
O O10 0.742307 0.710978 0.188027
O O11 0.500000 0.500000 0.000000
O O12 0.387705 0.768275 0.899976
O O13 0.586111 0.677290 0.979287
O O14 0.879405 0.856384 0.753963
O O15 0.000000 0.892764 0.750000
O O16 0.712534 0.046803 0.556988
O O17 0.132524 0.561908 0.719419
#
# Coordination Sequence:
#
# PCOD9229834 Si02
#       8
#     4   4   4   4   4   4   4   4
#     4  10  20  39  59  85 115 153 200 239 286 357
#     4  10  20  35  59  85 116 149 188 240 295 350
#     4  10  20  34  57  92 114 144 193 242 292 339
#     4  10  22  37  55  87 117 149 192 247 298 348
#     4  10  22  38  58  86 117 152 197 240 291 357
#     4  11  21  40  58  84 119 154 194 245 292 354
#     4  10  22  37  58  86 116 155 195 240 295 352
#     4  11  21  36  62  85 116 156 196 243 294 352
#
# _framework density 19.123218999999999
#
# number of rings (size 3 to 8) (size 9 to 14) (size 15 to 20)
#    0.000    1.750    3.750    0.750    1.750    0.500 
#    4.500    0.000    0.000    0.000    6.500    0.000 
#    0.000    0.000    0.000    0.000    0.000    0.000 
#
# Total GULP energy -178187.963648 kJ/mol
# GULP energy per Si atom -5568.373864 kJ/mol
# Density = 1.907969 g / cm^3
# Si number density = 19.123219 Si / 1000 Ang^3
#
#
#
# Elastic Constant Matrix: (Units=GPa)
#
#
# Indices 1 2 3 4 5 6 
#
# 1 132.5164 26.8685 23.1378 0.0000 7.8394 0.0000
# 2 26.8685 33.3969 5.9935 0.0000 10.8641 0.0000
# 3 23.1378 5.9935 75.8405 0.0000 -2.8556 0.0000
# 4 0.0000 0.0000 0.0000 22.7743 0.0000 -6.3189
# 5 7.8394 10.8641 -2.8556 0.0000 30.5401 0.0000
# 6 0.0000 0.0000 0.0000 -6.3189 0.0000 26.7045
#
#
#
# Elastic Compliance Matrix: (Units=1/GPa)
#
#
# Indices 1 2 3 4 5 6 
#
# 1 0.009398 -0.007115 -0.002308 0.000000 -0.000097 0.000000
# 2 -0.007115 0.040010 -0.001464 0.000000 -0.012543 0.000000
# 3 -0.002308 -0.001464 0.014097 0.000000 0.002431 0.000000
# 4 0.000000 0.000000 0.000000 0.046994 0.000000 0.011120
# 5 -0.000097 -0.012543 0.002431 0.000000 0.037458 0.000000
# 6 0.000000 0.000000 0.000000 0.011120 0.000000 0.040078
#
#
# Mechanical properties :
#
#
# Convention : Reuss Voigt Hill
#
# Bulk Modulus (GPa) = 23.96296 39.30592 31.63444
# Shear Modulus (GPa) = 22.34945 28.38737 25.36841
#
# Velocity S-wave (km/s) = 3.42235 3.85703 3.64617
# Velocity P-wave (km/s) = 5.30798 6.35879 5.85700
#
# Compressibility (1/GPa) = 0.04173108
#
# Stress axis : x y z
#
# Youngs Moduli (GPa) = 106.41021 24.99385 70.93672
#
# Poissons Ratio (x) = 0.17782 0.16376
# Poissons Ratio (y) = 0.75707 0.10382
# Poissons Ratio (z) = 0.24565 0.03658
#
# Static dielectric constant tensor:
#      x y z
#    x 1.709240 0.000000 -0.005650 
#    y 0.000000 1.721620 0.000000 
#    z -0.005650 0.000000 1.680190 
# 
# From -- ./inp_files/93603.got.cif
#   From: 2010.05.17/outbox.cif.g08.bks.cpg/sg13_47_cif.got.tgz:93603.got - 2010.06.03 16:44:36.
