data_PCOD9229291
_publ_section_title
;
Structure prediction by ZEFSAII (Michael W. Deem and Ramdas Pophale) SiO2 
 PCOD9229291
Probable space group: P 2/C
;
_chemical_formula_sum "Si O2"
_cell_formula_units_Z 28
_cell_length_a 5.199484
_cell_length_b 8.407189
_cell_length_c 27.428766
_cell_angle_alpha 90.000000
_cell_angle_beta 96.696546
_cell_angle_gamma 90.000000
_cell_volume 1190.814949
_symmetry_space_group_name_H-M "P 2/C"
_symmetry_group_IT_number 13
_symmetry_cell_setting 'monoclinic'
loop_
_space_group_symop_operation_xyz
x,y,z
-x,y,1/2-z
-x,-y,-z
x,-y,1/2+z
loop_
_atom_site_type_symbol
_atom_site_label
_atom_site_fract_x
_atom_site_fract_y
_atom_site_fract_z
Si Si1 0.969645 0.022088 0.890633
Si Si2 0.778153 0.299613 0.064788
Si Si3 0.334054 0.721534 0.370899
Si Si4 0.293937 0.453331 0.106142
Si Si5 0.734442 0.088543 0.979757
Si Si6 0.646956 0.116135 0.798011
Si Si7 0.087714 0.458226 0.699789
O O1 0.733099 0.055509 0.922363
O O2 0.863673 0.024147 0.833245
O O3 0.154569 0.175542 0.902046
O O4 0.110044 0.859769 0.907229
O O5 0.509298 0.343596 0.085102
O O6 0.011961 0.424827 0.076803
O O7 0.740912 0.258159 0.006958
O O8 0.578035 0.626847 0.397033
O O9 0.428069 0.841828 0.331956
O O10 0.159154 0.593423 0.338027
O O11 0.255071 0.440133 0.164447
O O12 0.500000 0.000000 0.000000
O O13 0.000000 0.000000 0.000000
O O14 0.500000 0.038055 0.750000
O O15 0.766015 0.289747 0.786257
O O16 0.000000 0.526328 0.750000
#
# Coordination Sequence:
#
# PCOD9229291 Si02
#       7
#     4   4   4   4   4   4   4
#     4  10  24  39  70 101 130 174 224 280 326 406
#     4  11  23  43  67  95 137 176 220 277 338 395
#     4  10  21  40  66  94 134 167 229 267 334 390
#     4  11  23  41  66  97 132 177 214 274 339 391
#     4  10  22  42  68  98 126 177 232 264 327 414
#     4  10  20  35  67  99 135 167 217 276 334 380
#     4  10  19  38  66  95 126 178 229 266 310 409
#
# _framework density 23.513311999999999
#
# number of rings (size 3 to 8) (size 9 to 14) (size 15 to 20)
#    0.000    1.714    2.857    1.714    6.000    0.000 
#    0.000    1.429    6.286    0.000    0.000    0.000 
#    0.000    0.000    0.000    0.000    0.000    0.000 
#
# Total GULP energy -156380.218131 kJ/mol
# GULP energy per Si atom -5585.007790 kJ/mol
# Density = 2.345979 g / cm^3
# Si number density = 23.513312 Si / 1000 Ang^3
#
#
#
# Elastic Constant Matrix: (Units=GPa)
#
#
# Indices 1 2 3 4 5 6 
#
# 1 121.8947 2.7175 26.2067 0.0000 -14.8100 0.0000
# 2 2.7175 21.6015 7.8911 0.0000 2.8025 0.0000
# 3 26.2067 7.8911 102.6355 0.0000 2.3975 0.0000
# 4 0.0000 0.0000 0.0000 29.5783 0.0000 -0.3914
# 5 -14.8100 2.8025 2.3975 0.0000 47.2191 0.0000
# 6 0.0000 0.0000 0.0000 -0.3914 0.0000 47.2199
#
#
#
# Elastic Compliance Matrix: (Units=1/GPa)
#
#
# Indices 1 2 3 4 5 6 
#
# 1 0.009087 -0.000679 -0.002338 0.000000 0.003009 0.000000
# 2 -0.000679 0.048014 -0.003451 0.000000 -0.002888 0.000000
# 3 -0.002338 -0.003451 0.010631 0.000000 -0.001068 0.000000
# 4 0.000000 0.000000 0.000000 0.033812 0.000000 0.000280
# 5 0.003009 -0.002888 -0.001068 0.000000 0.022347 0.000000
# 6 0.000000 0.000000 0.000000 0.000280 0.000000 0.021180
#
#
# Mechanical properties :
#
#
# Convention : Reuss Voigt Hill
#
# Bulk Modulus (GPa) = 18.24988 35.52914 26.88951
# Shear Modulus (GPa) = 28.36513 38.75789 33.56151
#
# Velocity S-wave (km/s) = 3.47701 4.06438 3.78212
# Velocity P-wave (km/s) = 4.88854 6.09660 5.52569
#
# Compressibility (1/GPa) = 0.05479487
#
# Stress axis : x y z
#
# Youngs Moduli (GPa) = 110.04365 20.82735 94.06844
#
# Poissons Ratio (x) = 0.01415 0.21997
# Poissons Ratio (y) = 0.07476 0.32459
# Poissons Ratio (z) = 0.25732 0.07187
#
# Static dielectric constant tensor:
#      x y z
#    x 1.931370 0.000000 0.015690 
#    y 0.000000 1.794840 0.000000 
#    z 0.015690 0.000000 1.946160 
# 
# From -- ./inp_files/90274.got.cif
#   From: 2010.05.17/outbox.cif.g08.bks.cpg/sg13_46_cif.got.tgz:90274.got - 2010.06.03 16:44:36.
