data_PCOD9229745
_publ_section_title
;
Structure prediction by ZEFSAII (Michael W. Deem and Ramdas Pophale) SiO2 
 PCOD9229745
Probable space group: P 2/C
;
_chemical_formula_sum "Si O2"
_cell_formula_units_Z 22
_cell_length_a 5.963997
_cell_length_b 5.739803
_cell_length_c 28.719022
_cell_angle_alpha 90.000000
_cell_angle_beta 107.693230
_cell_angle_gamma 90.000000
_cell_volume 936.610515
_symmetry_space_group_name_H-M "P 2/C"
_symmetry_group_IT_number 13
_symmetry_cell_setting 'monoclinic'
loop_
_space_group_symop_operation_xyz
x,y,z
-x,y,1/2-z
-x,-y,-z
x,-y,1/2+z
loop_
_atom_site_type_symbol
_atom_site_label
_atom_site_fract_x
_atom_site_fract_y
_atom_site_fract_z
Si Si1 0.574733 0.906345 0.884059
Si Si2 0.872950 0.540087 0.841430
Si Si3 0.185662 0.865423 0.795338
Si Si4 0.346826 0.347765 0.024872
Si Si5 0.500000 0.531701 0.750000
Si Si6 0.956061 0.284164 0.934630
O O1 0.708360 0.714403 0.861061
O O2 0.363391 0.005406 0.839486
O O3 0.497881 0.791195 0.928035
O O4 0.768433 0.088300 0.911776
O O5 0.686857 0.405241 0.795850
O O6 0.015890 0.388010 0.887611
O O7 0.043929 0.694671 0.820815
O O8 0.338795 0.700737 0.771271
O O9 0.000000 0.994189 0.750000
O O10 0.180259 0.515759 0.045095
O O11 0.500000 0.500000 0.000000
O O12 0.173475 0.203323 0.980007
#
# Coordination Sequence:
#
# PCOD9229745 Si02
#       6
#     4   4   4   4   2   4
#     4  10  20  34  54  79 108 141 182 228 274 328
#     4   9  18  34  53  75 106 142 180 223 274 327
#     4   9  17  33  57  79 106 145 181 224 280 330
#     4  10  21  36  54  78 109 143 181 225 275 329
#     4   8  16  32  54  76 104 140 178 224 272 324
#     4  10  21  35  53  79 108 140 182 227 272 328
#
# _framework density 23.488956999999999
#
# number of rings (size 3 to 8) (size 9 to 14) (size 15 to 20)
#    0.000    2.545    0.000    1.636    0.000    2.182 
#    0.000    5.455    0.000   19.636    0.000    0.000 
#    0.000    0.000    0.000    0.000    0.000    0.000 
#
# Total GULP energy -122811.919774 kJ/mol
# GULP energy per Si atom -5582.359990 kJ/mol
# Density = 2.343549 g / cm^3
# Si number density = 23.488957 Si / 1000 Ang^3
#
#
#
# Elastic Constant Matrix: (Units=GPa)
#
#
# Indices 1 2 3 4 5 6 
#
# 1 66.2661 -0.9151 65.4266 0.0000 6.5412 0.0000
# 2 -0.9151 17.0383 31.5001 0.0000 4.5423 0.0000
# 3 65.4266 31.5001 193.7363 0.0000 27.5352 0.0000
# 4 0.0000 0.0000 0.0000 -1.9878 0.0000 -2.2631
# 5 6.5412 4.5423 27.5352 0.0000 44.8486 0.0000
# 6 0.0000 0.0000 0.0000 -2.2631 0.0000 28.2157
#
#
#
# Elastic Compliance Matrix: (Units=1/GPa)
#
#
# Indices 1 2 3 4 5 6 
#
# 1 0.030494 0.029552 -0.015388 0.000000 0.002007 0.000000
# 2 0.029552 0.112557 -0.028538 0.000000 0.001811 0.000000
# 3 -0.015388 -0.028538 0.015633 0.000000 -0.004463 0.000000
# 4 0.000000 0.000000 0.000000 -0.460967 0.000000 -0.036973
# 5 0.002007 0.001811 -0.004463 0.000000 0.024561 0.000000
# 6 0.000000 0.000000 0.000000 -0.036973 0.000000 0.032476
#
#
# Mechanical properties :
#
#
# Convention : Reuss Voigt Hill
#
# Bulk Modulus (GPa) = 7.69617 52.11822 29.90719
# Shear Modulus (GPa) = -28.87082 26.28389 -1.29347
#
# Velocity S-wave (km/s) = -3.50969 3.34876 -0.74288
# Velocity P-wave (km/s) = 3.62495 6.09826 3.46760
#
# Compressibility (1/GPa) = 0.12993484
#
# Stress axis : x y z
#
# Youngs Moduli (GPa) = 32.79316 8.88441 63.96735
#
# Poissons Ratio (x) = -0.26256 0.98436
# Poissons Ratio (y) = -0.96912 1.82553
# Poissons Ratio (z) = 0.50464 0.25355
#
# Static dielectric constant tensor:
#      x y z
#    x 1.941430 0.000000 0.057940 
#    y 0.000000 1.892850 0.000000 
#    z 0.057940 0.000000 1.954320 
# 
# From -- ./inp_files/94661.got.cif
#   From: 2010.05.17/outbox.cif.g08.bks.cpg/sg13_48_cif.got.tgz:94661.got - 2010.06.03 16:44:36.
