data_PCOD9229702
_publ_section_title
;
Structure prediction by ZEFSAII (Michael W. Deem and Ramdas Pophale) SiO2 
 PCOD9229702
Probable space group: P 2/C
;
_chemical_formula_sum "Si O2"
_cell_formula_units_Z 28
_cell_length_a 15.158503
_cell_length_b 12.943994
_cell_length_c 7.709117
_cell_angle_alpha 90.000000
_cell_angle_beta 105.736514
_cell_angle_gamma 90.000000
_cell_volume 1455.923682
_symmetry_space_group_name_H-M "P 2/C"
_symmetry_group_IT_number 13
_symmetry_cell_setting 'monoclinic'
loop_
_space_group_symop_operation_xyz
x,y,z
-x,y,1/2-z
-x,-y,-z
x,-y,1/2+z
loop_
_atom_site_type_symbol
_atom_site_label
_atom_site_fract_x
_atom_site_fract_y
_atom_site_fract_z
Si Si1 0.107460 0.409037 0.358714
Si Si2 0.074666 0.046769 0.169881
Si Si3 0.589953 0.865604 0.537002
Si Si4 0.807061 0.155032 0.750738
Si Si5 0.787699 0.791658 0.658895
Si Si6 0.105848 0.364614 0.761215
Si Si7 0.603816 0.106034 0.631620
O O1 0.168745 0.322044 0.298544
O O2 0.111791 0.381845 0.560643
O O3 0.139263 0.527525 0.358388
O O4 0.000000 0.404807 0.250000
O O5 0.155191 0.129073 0.190683
O O6 0.000000 0.104823 0.250000
O O7 0.129252 0.943512 0.257986
O O8 0.000000 0.000000 0.000000
O O9 0.679132 0.800651 0.639333
O O10 0.482378 0.841746 0.512438
O O11 0.596334 0.869409 0.331309
O O12 0.599939 0.982451 0.610102
O O13 0.843736 0.257934 0.680531
O O14 0.704582 0.137727 0.630100
O O15 0.803342 0.170424 0.962581
O O16 0.000000 0.351275 0.750000
#
# Coordination Sequence:
#
# PCOD9229702 Si02
#       7
#     4   4   4   4   4   4   4
#     4  10  20  35  53  70 100 131 170 210 245 293
#     4  12  22  33  46  71 107 137 166 197 247 301
#     4   9  17  31  50  72  98 128 166 202 249 295
#     4  10  20  34  51  73 102 134 167 203 248 302
#     4  10  20  34  51  73 101 135 165 204 252 298
#     4  10  20  36  52  73  98 130 172 209 247 291
#     4   9  17  31  50  72  98 129 164 206 244 296
#
# _framework density 19.231777999999998
#
# number of rings (size 3 to 8) (size 9 to 14) (size 15 to 20)
#    0.000    2.000    2.857    2.571    2.000    0.000 
#    2.571    0.000    0.000    0.857    0.000    0.000 
#    0.000    0.000    0.000    0.000    0.000    1.143 
#
# Total GULP energy -155991.677098 kJ/mol
# GULP energy per Si atom -5571.131325 kJ/mol
# Density = 1.918801 g / cm^3
# Si number density = 19.231778 Si / 1000 Ang^3
#
#
#
# Elastic Constant Matrix: (Units=GPa)
#
#
# Indices 1 2 3 4 5 6 
#
# 1 131.3324 73.0594 26.3702 0.0000 47.4946 0.0000
# 2 73.0594 122.0649 15.1456 0.0000 27.4996 0.0000
# 3 26.3702 15.1456 31.9421 0.0000 17.3059 0.0000
# 4 0.0000 0.0000 0.0000 14.6912 0.0000 -0.0767
# 5 47.4946 27.4996 17.3059 0.0000 27.6232 0.0000
# 6 0.0000 0.0000 0.0000 -0.0767 0.0000 24.5023
#
#
#
# Elastic Compliance Matrix: (Units=1/GPa)
#
#
# Indices 1 2 3 4 5 6 
#
# 1 0.023654 -0.006370 0.003166 0.000000 -0.036312 0.000000
# 2 -0.006370 0.012299 0.000192 0.000000 -0.001413 0.000000
# 3 0.003166 0.000192 0.047921 0.000000 -0.035657 0.000000
# 4 0.000000 0.000000 0.000000 0.068069 0.000000 0.000213
# 5 -0.036312 -0.001413 -0.035657 0.000000 0.122381 0.000000
# 6 0.000000 0.000000 0.000000 0.000213 0.000000 0.040813
#
#
# Mechanical properties :
#
#
# Convention : Reuss Voigt Hill
#
# Bulk Modulus (GPa) = 12.84509 57.16552 35.00530
# Shear Modulus (GPa) = 14.40467 24.74761 19.57614
#
# Velocity S-wave (km/s) = 2.73976 3.59110 3.19393
# Velocity P-wave (km/s) = 4.08681 6.85447 5.64295
#
# Compressibility (1/GPa) = 0.07785077
#
# Stress axis : x y z
#
# Youngs Moduli (GPa) = 42.27678 81.30590 20.86789
#
# Poissons Ratio (x) = 0.51789 -0.06607
# Poissons Ratio (y) = 0.26929 -0.00401
# Poissons Ratio (z) = -0.13385 -0.01563
#
# Static dielectric constant tensor:
#      x y z
#    x 1.647070 0.000000 -0.042170 
#    y 0.000000 1.680180 0.000000 
#    z -0.042170 0.000000 1.778890 
# 
# From -- ./inp_files/18851.got.cif
#   From: 2010.05.17/outbox.cif.g08.bks.cpg/sg13_10_cif.got.tgz:18851.got - 2010.06.03 16:44:36.
