data_PCOD9229537
_publ_section_title
;
Structure prediction by ZEFSAII (Michael W. Deem and Ramdas Pophale) SiO2 
 PCOD9229537
Probable space group: P 2/C
;
_chemical_formula_sum "Si O2"
_cell_formula_units_Z 26
_cell_length_a 18.579092
_cell_length_b 5.909865
_cell_length_c 11.344619
_cell_angle_alpha 90.000000
_cell_angle_beta 62.464724
_cell_angle_gamma 90.000000
_cell_volume 1104.540353
_symmetry_space_group_name_H-M "P 2/C"
_symmetry_group_IT_number 13
_symmetry_cell_setting 'monoclinic'
loop_
_space_group_symop_operation_xyz
x,y,z
-x,y,1/2-z
-x,-y,-z
x,-y,1/2+z
loop_
_atom_site_type_symbol
_atom_site_label
_atom_site_fract_x
_atom_site_fract_y
_atom_site_fract_z
Si Si1 0.571063 0.378492 0.376393
Si Si2 0.880673 0.922988 0.163973
Si Si3 0.500000 0.024966 0.250000
Si Si4 0.190059 0.464658 0.952775
Si Si5 0.272448 0.147580 0.230163
Si Si6 0.345708 0.239674 0.847529
Si Si7 0.036102 0.691730 0.060944
O O1 0.500000 0.500000 0.500000
O O2 0.529034 0.181925 0.333790
O O3 0.648778 0.269501 0.382914
O O4 0.610620 0.562145 0.259194
O O5 0.844320 0.727171 0.108501
O O6 0.956670 0.814240 0.174282
O O7 0.801811 0.033325 0.286140
O O8 0.920402 0.116277 0.051480
O O9 0.577667 0.881321 0.150778
O O10 0.230195 0.663993 0.844850
O O11 0.265319 0.354042 0.965149
O O12 0.109844 0.568211 0.074438
O O13 0.309096 0.950054 0.286092
O O14 0.000000 0.500000 0.000000
#
# Coordination Sequence:
#
# PCOD9229537 Si02
#       7
#     4   4   2   4   4   4   4
#     4  10  20  33  49  69  93 125 173 217 258 311
#     4   8  12  19  31  50  79 113 153 189 228 286
#     4  10  20  32  48  68  90 124 170 218 268 308
#     4   8  13  22  35  54  80 113 155 191 231 288
#     4   8  15  25  39  58  82 117 159 198 244 291
#     4   9  17  30  45  62  88 119 162 205 249 301
#     4   8  12  17  29  50  77 112 154 185 224 285
#
# _framework density 23.539203000000001
#
# number of rings (size 3 to 8) (size 9 to 14) (size 15 to 20)
#    0.000    3.385    0.000    0.462    0.000    2.462 
#    0.000    0.000    0.000    0.000    0.000    0.000 
#    0.000    0.000    0.000    0.000    0.000 23561.539 
#
# Total GULP energy -144815.263874 kJ/mol
# GULP energy per Si atom -5569.817841 kJ/mol
# Density = 2.348563 g / cm^3
# Si number density = 23.539203 Si / 1000 Ang^3
#
#
#
# Elastic Constant Matrix: (Units=GPa)
#
#
# Indices 1 2 3 4 5 6 
#
# 1 187.1844 77.5738 74.2681 0.0000 -64.0910 0.0000
# 2 77.5738 128.3152 46.8859 0.0000 -32.3310 0.0000
# 3 74.2681 46.8859 87.9784 0.0000 -44.7047 0.0000
# 4 0.0000 0.0000 0.0000 33.5133 0.0000 -42.4190
# 5 -64.0910 -32.3310 -44.7047 0.0000 46.6854 0.0000
# 6 0.0000 0.0000 0.0000 -42.4190 0.0000 76.3750
#
#
#
# Elastic Compliance Matrix: (Units=1/GPa)
#
#
# Indices 1 2 3 4 5 6 
#
# 1 0.011450 -0.003269 -0.002116 0.000000 0.011428 0.000000
# 2 -0.003269 0.010903 -0.002911 0.000000 0.000275 0.000000
# 3 -0.002116 -0.002911 0.023769 0.000000 0.017840 0.000000
# 4 0.000000 0.000000 0.000000 0.100467 0.000000 0.055800
# 5 0.011428 0.000275 0.017840 0.000000 0.054382 0.000000
# 6 0.000000 0.000000 0.000000 0.055800 0.000000 0.044085
#
#
# Mechanical properties :
#
#
# Convention : Reuss Voigt Hill
#
# Bulk Modulus (GPa) = 33.86530 88.99262 61.42896
# Shear Modulus (GPa) = 18.41691 44.96475 31.69083
#
# Velocity S-wave (km/s) = 2.80016 4.37533 3.67318
# Velocity P-wave (km/s) = 4.98724 7.96322 6.64400
#
# Compressibility (1/GPa) = 0.02952875
#
# Stress axis : x y z
#
# Youngs Moduli (GPa) = 87.33843 91.72094 42.07173
#
# Poissons Ratio (x) = 0.29986 0.08903
# Poissons Ratio (y) = 0.28553 0.12246
# Poissons Ratio (z) = 0.18483 0.26698
#
# Static dielectric constant tensor:
#      x y z
#    x 2.019660 0.000000 0.035230 
#    y 0.000000 1.872900 0.000000 
#    z 0.035230 0.000000 1.971020 
# 
# From -- ./inp_files/54321.got.cif
#   From: 2010.05.17/outbox.cif.g08.bks.cpg/sg13_28_cif.got.tgz:54321.got - 2010.06.03 16:44:36.
