data_PCOD9229973
_publ_section_title
;
Structure prediction by ZEFSAII (Michael W. Deem and Ramdas Pophale) SiO2 
 PCOD9229973
Probable space group: P 2/C
;
_chemical_formula_sum "Si O2"
_cell_formula_units_Z 20
_cell_length_a 26.568355
_cell_length_b 4.875799
_cell_length_c 11.588737
_cell_angle_alpha 90.000000
_cell_angle_beta 30.668284
_cell_angle_gamma 90.000000
_cell_volume 765.726509
_symmetry_space_group_name_H-M "P 2/C"
_symmetry_group_IT_number 13
_symmetry_cell_setting 'monoclinic'
loop_
_space_group_symop_operation_xyz
x,y,z
-x,y,1/2-z
-x,-y,-z
x,-y,1/2+z
loop_
_atom_site_type_symbol
_atom_site_label
_atom_site_fract_x
_atom_site_fract_y
_atom_site_fract_z
Si Si1 0.987438 0.397552 0.657316
Si Si2 0.590448 0.677682 0.779808
Si Si3 0.209358 0.568051 0.052522
Si Si4 0.181824 0.937371 0.763209
Si Si5 0.606554 0.187371 0.601862
O O1 0.000000 0.572549 0.750000
O O2 0.000000 0.500000 0.500000
O O3 0.070411 0.162372 0.509665
O O4 0.870483 0.345897 0.883056
O O5 0.678337 0.636160 0.697029
O O6 0.617071 0.507842 0.611223
O O7 0.586760 0.991732 0.752607
O O8 0.500000 0.500000 0.000000
O O9 0.204337 0.254907 0.105481
O O10 0.182772 0.751434 0.217720
O O11 0.279568 0.901532 0.650037
O O12 0.500000 0.152125 0.750000
#
# Coordination Sequence:
#
# PCOD9229973 Si02
#       5
#     4   4   4   4   4
#     4  10  21  40  65  95 129 170 219 275 333 397
#     4  10  20  35  56  83 119 159 203 256 316 382
#     4   9  19  37  58  83 119 161 207 258 318 382
#     4   9  19  37  58  83 119 163 208 259 318 383
#     4  10  20  35  56  84 119 159 205 258 317 382
#
# _framework density 26.118984999999999
#
# number of rings (size 3 to 8) (size 9 to 14) (size 15 to 20)
#    0.000    2.400    0.000    1.800    0.000    1.600 
#    0.000   20.000    0.000    0.000    0.000    0.000 
#    0.000    0.000    0.000    0.000    0.000    0.000 
#
# Total GULP energy -111337.424602 kJ/mol
# GULP energy per Si atom -5566.871230 kJ/mol
# Density = 2.605954 g / cm^3
# Si number density = 26.118985 Si / 1000 Ang^3
#
#
#
# Elastic Constant Matrix: (Units=GPa)
#
#
# Indices 1 2 3 4 5 6 
#
# 1 184.1638 10.4803 85.5235 0.0000 -60.1099 0.0000
# 2 10.4803 98.1286 27.8704 0.0000 -3.8173 0.0000
# 3 85.5235 27.8704 135.2359 0.0000 -58.2684 0.0000
# 4 0.0000 0.0000 0.0000 41.2428 0.0000 -12.8055
# 5 -60.1099 -3.8173 -58.2684 0.0000 69.6401 0.0000
# 6 0.0000 0.0000 0.0000 -12.8055 0.0000 2.8474
#
#
#
# Elastic Compliance Matrix: (Units=1/GPa)
#
#
# Indices 1 2 3 4 5 6 
#
# 1 0.008486 0.000268 -0.003533 0.000000 0.004383 0.000000
# 2 0.000268 0.011012 -0.003251 0.000000 -0.001886 0.000000
# 3 -0.003533 -0.003251 0.013930 0.000000 0.008427 0.000000
# 4 0.000000 0.000000 0.000000 -0.061176 0.000000 -0.275121
# 5 0.004383 -0.001886 0.008427 0.000000 0.025091 0.000000
# 6 0.000000 0.000000 0.000000 -0.275121 0.000000 -0.886088
#
#
# Mechanical properties :
#
#
# Convention : Reuss Voigt Hill
#
# Bulk Modulus (GPa) = 49.03206 73.91963 61.47584
# Shear Modulus (GPa) = -5.75432 42.32300 18.28434
#
# Velocity S-wave (km/s) = -1.48590 4.02978 2.64870
# Velocity P-wave (km/s) = 3.98365 7.07211 5.73952
#
# Compressibility (1/GPa) = 0.02039482
#
# Stress axis : x y z
#
# Youngs Moduli (GPa) = 117.83869 90.80860 71.78723
#
# Poissons Ratio (x) = -0.02431 0.25364
# Poissons Ratio (y) = -0.03154 0.23340
# Poissons Ratio (z) = 0.41636 0.29524
#
# Static dielectric constant tensor:
#      x y z
#    x 2.084390 0.000000 -0.011680 
#    y 0.000000 1.961970 0.000000 
#    z -0.011680 0.000000 2.312850 
# 
# From -- ./inp_files/42030.got.cif
#   From: 2010.05.17/outbox.cif.g08.bks.cpg/sg13_22_cif.got.tgz:42030.got - 2010.06.03 16:44:36.
