data_PCOD9229461
_publ_section_title
;
Structure prediction by ZEFSAII (Michael W. Deem and Ramdas Pophale) SiO2 
 PCOD9229461
Probable space group: P 2/C
;
_chemical_formula_sum "Si O2"
_cell_formula_units_Z 20
_cell_length_a 11.429007
_cell_length_b 12.633412
_cell_length_c 15.434831
_cell_angle_alpha 90.000000
_cell_angle_beta 158.418315
_cell_angle_gamma 90.000000
_cell_volume 819.737919
_symmetry_space_group_name_H-M "P 2/C"
_symmetry_group_IT_number 13
_symmetry_cell_setting 'monoclinic'
loop_
_space_group_symop_operation_xyz
x,y,z
-x,y,1/2-z
-x,-y,-z
x,-y,1/2+z
loop_
_atom_site_type_symbol
_atom_site_label
_atom_site_fract_x
_atom_site_fract_y
_atom_site_fract_z
Si Si1 0.884739 0.424679 0.077847
Si Si2 0.951115 0.900764 0.906604
Si Si3 0.000000 0.105201 0.250000
Si Si4 0.597478 0.258675 0.679724
Si Si5 0.528177 0.282683 0.088746
Si Si6 0.500000 0.399365 0.250000
O O1 0.000000 0.468738 0.250000
O O2 0.161779 0.348316 0.233366
O O3 0.570942 0.356817 0.888691
O O4 0.799015 0.520309 0.955969
O O5 0.172561 0.807025 0.099002
O O6 0.019842 0.945228 0.857643
O O7 0.616526 0.839744 0.669552
O O8 0.000000 0.000000 0.000000
O O9 0.306587 0.179778 0.460660
O O10 0.706627 0.286945 0.656608
O O11 0.464840 0.334061 0.137895
#
# Coordination Sequence:
#
# PCOD9229461 Si02
#       6
#     4   4   2   4   4   2
#     4  10  20  38  66  88 118 174 223 252 310 383
#     4  11  23  41  65  95 124 169 206 265 324 375
#     4  10  20  38  66  98 118 154 220 258 308 382
#     4  10  19  41  68  88 125 163 218 263 297 378
#     4  10  23  41  56  97 126 165 220 253 318 382
#     4  12  24  36  58  94 140 164 198 278 318 374
#
# _framework density 24.398042
#
# number of rings (size 3 to 8) (size 9 to 14) (size 15 to 20)
#    0.000    1.600    5.000    2.400    0.000    8.000 
#    7.200    0.000    0.000    0.000    0.000    0.000 
#    0.000    0.000    0.000    0.000    0.000    0.000 
#
# Total GULP energy -111641.497917 kJ/mol
# GULP energy per Si atom -5582.074896 kJ/mol
# Density = 2.434251 g / cm^3
# Si number density = 24.398042 Si / 1000 Ang^3
#
#
#
# Elastic Constant Matrix: (Units=GPa)
#
#
# Indices 1 2 3 4 5 6 
#
# 1 143.9964 49.8357 46.6590 0.0000 -64.8771 0.0000
# 2 49.8357 70.4900 18.9819 0.0000 -23.4584 0.0000
# 3 46.6590 18.9819 87.2328 0.0000 -39.7439 0.0000
# 4 0.0000 0.0000 0.0000 18.7143 0.0000 -17.0853
# 5 -64.8771 -23.4584 -39.7439 0.0000 52.2688 0.0000
# 6 0.0000 0.0000 0.0000 -17.0853 0.0000 24.6130
#
#
#
# Elastic Compliance Matrix: (Units=1/GPa)
#
#
# Indices 1 2 3 4 5 6 
#
# 1 0.017811 -0.006173 0.000959 0.000000 0.020066 0.000000
# 2 -0.006173 0.018823 -0.000667 0.000000 0.000279 0.000000
# 3 0.000959 -0.000667 0.017598 0.000000 0.014272 0.000000
# 4 0.000000 0.000000 0.000000 0.145891 0.000000 0.101271
# 5 0.020066 0.000279 0.014272 0.000000 0.055015 0.000000
# 6 0.000000 0.000000 0.000000 0.101271 0.000000 0.110927
#
#
# Mechanical properties :
#
#
# Convention : Reuss Voigt Hill
#
# Bulk Modulus (GPa) = 23.54617 59.18583 41.36600
# Shear Modulus (GPa) = 12.75565 31.53539 22.14552
#
# Velocity S-wave (km/s) = 2.28899 3.59909 3.01603
# Velocity P-wave (km/s) = 4.08140 6.44844 5.39630
#
# Compressibility (1/GPa) = 0.04246975
#
# Stress axis : x y z
#
# Youngs Moduli (GPa) = 56.14568 53.12699 56.82360
#
# Poissons Ratio (x) = 0.32793 -0.05447
# Poissons Ratio (y) = 0.34656 0.03791
# Poissons Ratio (z) = -0.05382 0.03545
#
# Static dielectric constant tensor:
#      x y z
#    x 2.049830 0.000000 -0.032680 
#    y 0.000000 1.913190 0.000000 
#    z -0.032680 0.000000 2.046100 
# 
# From -- ./inp_files/50764.got.cif
#   From: 2010.05.17/outbox.cif.g08.bks.cpg/sg13_26_cif.got.tgz:50764.got - 2010.06.03 16:44:36.
