data_PCOD9229335
_publ_section_title
;
Structure prediction by ZEFSAII (Michael W. Deem and Ramdas Pophale) SiO2 
 PCOD9229335
Probable space group: P 2/C
;
_chemical_formula_sum "Si O2"
_cell_formula_units_Z 30
_cell_length_a 18.011373
_cell_length_b 6.146600
_cell_length_c 15.145610
_cell_angle_alpha 90.000000
_cell_angle_beta 123.735840
_cell_angle_gamma 90.000000
_cell_volume 1394.397579
_symmetry_space_group_name_H-M "P 2/C"
_symmetry_group_IT_number 13
_symmetry_cell_setting 'monoclinic'
loop_
_space_group_symop_operation_xyz
x,y,z
-x,y,1/2-z
-x,-y,-z
x,-y,1/2+z
loop_
_atom_site_type_symbol
_atom_site_label
_atom_site_fract_x
_atom_site_fract_y
_atom_site_fract_z
Si Si1 0.720667 0.576473 0.111374
Si Si2 0.000000 0.394717 0.750000
Si Si3 0.217947 0.914329 0.100195
Si Si4 0.315218 0.272216 0.248741
Si Si5 0.873361 0.884581 0.271442
Si Si6 0.153255 0.737425 0.880013
Si Si7 0.410179 0.885916 0.417159
Si Si8 0.408021 0.351548 0.739717
O O1 0.716783 0.456807 0.204359
O O2 0.798582 0.750918 0.169130
O O3 0.751786 0.386670 0.068157
O O4 0.635002 0.728653 0.040461
O O5 0.036344 0.238407 0.696175
O O6 0.077390 0.554514 0.835720
O O7 0.157567 0.864687 0.147351
O O8 0.313393 0.778250 0.157796
O O9 0.244910 0.163540 0.136800
O O10 0.163321 0.876413 0.975047
O O11 0.386750 0.392380 0.234041
O O12 0.347570 0.074149 0.333439
O O13 0.868765 0.121580 0.222481
O O14 0.431594 0.722992 0.353237
O O15 0.500000 0.000000 0.500000
O O16 0.500000 0.304696 0.750000
#
# Coordination Sequence:
#
# PCOD9229335 Si02
#       8
#     4   2   4   4   4   4   4   4
#     4  10  19  39  65  87 128 176 219 271 330 398
#     4  10  26  44  70 102 138 168 218 286 342 416
#     4  11  23  42  71  97 132 182 227 271 341 410
#     4  10  19  39  62  87 125 176 217 277 333 382
#     4  11  21  46  69  96 139 170 221 278 337 409
#     4  11  24  42  71 104 132 178 225 276 344 415
#     4  10  21  36  59  88 125 176 223 275 335 391
#     4  10  23  40  58  94 137 174 231 285 332 387
#
# _framework density 21.514669000000001
#
# number of rings (size 3 to 8) (size 9 to 14) (size 15 to 20)
#    0.000    1.600    5.333    0.400    0.000   10.133 
#    0.000    2.667    0.000    0.000    0.000    0.000 
#    0.000    0.000    0.000    0.000    0.000    0.000 
#
# Total GULP energy -167071.563248 kJ/mol
# GULP energy per Si atom -5569.052108 kJ/mol
# Density = 2.146570 g / cm^3
# Si number density = 21.514669 Si / 1000 Ang^3
#
#
#
# Elastic Constant Matrix: (Units=GPa)
#
#
# Indices 1 2 3 4 5 6 
#
# 1 130.0647 44.7244 22.6136 0.0000 1.2914 0.0000
# 2 44.7244 97.6315 11.3377 0.0000 7.9978 0.0000
# 3 22.6136 11.3377 53.3253 0.0000 1.5232 0.0000
# 4 0.0000 0.0000 0.0000 12.3782 0.0000 12.8165
# 5 1.2914 7.9978 1.5232 0.0000 15.5607 0.0000
# 6 0.0000 0.0000 0.0000 12.8165 0.0000 44.7798
#
#
#
# Elastic Compliance Matrix: (Units=1/GPa)
#
#
# Indices 1 2 3 4 5 6 
#
# 1 0.009681 -0.004193 -0.003262 0.000000 0.001671 0.000000
# 2 -0.004193 0.012754 -0.000758 0.000000 -0.006133 0.000000
# 3 -0.003262 -0.000758 0.020335 0.000000 -0.001330 0.000000
# 4 0.000000 0.000000 0.000000 0.114811 0.000000 -0.032860
# 5 0.001671 -0.006133 -0.001330 0.000000 0.067408 0.000000
# 6 0.000000 0.000000 0.000000 -0.032860 0.000000 0.031736
#
#
# Mechanical properties :
#
#
# Convention : Reuss Voigt Hill
#
# Bulk Modulus (GPa) = 37.95912 48.70810 43.33361
# Shear Modulus (GPa) = 17.73474 28.03344 22.88409
#
# Velocity S-wave (km/s) = 2.87419 3.61361 3.26490
# Velocity P-wave (km/s) = 5.35689 6.33242 5.86498
#
# Compressibility (1/GPa) = 0.02634413
#
# Stress axis : x y z
#
# Youngs Moduli (GPa) = 103.29827 78.40828 49.17581
#
# Poissons Ratio (x) = 0.32875 0.16039
# Poissons Ratio (y) = 0.43311 0.03730
# Poissons Ratio (z) = 0.33692 0.05947
#
# Static dielectric constant tensor:
#      x y z
#    x 1.910530 0.000000 0.016850 
#    y 0.000000 1.851950 0.000000 
#    z 0.016850 0.000000 1.796750 
# 
# From -- ./inp_files/69183.got.cif
#   From: 2010.05.17/outbox.cif.g08.bks.cpg/sg13_35_cif.got.tgz:69183.got - 2010.06.03 16:44:36.
