data_PCOD9229036
_publ_section_title
;
Structure prediction by ZEFSAII (Michael W. Deem and Ramdas Pophale) SiO2 
 PCOD9229036
Probable space group: P 2/C
;
_chemical_formula_sum "Si O2"
_cell_formula_units_Z 30
_cell_length_a 8.513284
_cell_length_b 14.891162
_cell_length_c 18.903045
_cell_angle_alpha 90.000000
_cell_angle_beta 140.370789
_cell_angle_gamma 90.000000
_cell_volume 1528.457576
_symmetry_space_group_name_H-M "P 2/C"
_symmetry_group_IT_number 13
_symmetry_cell_setting 'monoclinic'
loop_
_space_group_symop_operation_xyz
x,y,z
-x,y,1/2-z
-x,-y,-z
x,-y,1/2+z
loop_
_atom_site_type_symbol
_atom_site_label
_atom_site_fract_x
_atom_site_fract_y
_atom_site_fract_z
Si Si1 0.774867 0.866088 0.313018
Si Si2 0.365402 0.613454 0.091902
Si Si3 0.598651 0.886958 0.095889
Si Si4 0.618369 0.277557 0.044695
Si Si5 0.897707 0.982606 0.595662
Si Si6 0.871882 0.337758 0.843492
Si Si7 0.366920 0.561134 0.512460
Si Si8 0.000000 0.144746 0.250000
O O1 0.500000 0.859170 0.250000
O O2 0.736209 0.884348 0.216974
O O3 0.905336 0.769468 0.362230
O O4 0.937123 0.951106 0.394420
O O5 0.197896 0.634068 0.100941
O O6 0.639530 0.643174 0.211569
O O7 0.293578 0.668029 0.995299
O O8 0.353980 0.507138 0.072784
O O9 0.735944 0.952700 0.090073
O O10 0.588837 0.788478 0.058357
O O11 0.316193 0.920161 0.012007
O O12 0.796863 0.209694 0.146804
O O13 0.531522 0.350001 0.071840
O O14 0.061309 0.920118 0.704781
O O15 0.101878 0.398375 0.900025
O O16 0.500000 0.500000 0.500000
#
# Coordination Sequence:
#
# PCOD9229036 Si02
#       8
#     4   4   4   4   4   4   4   2
#     4  12  21  36  60  89 120 156 202 242 294 352
#     4  10  21  40  60  86 115 154 192 239 300 355
#     4  10  19  37  58  83 116 152 201 240 295 344
#     4  10  20  36  58  86 112 150 195 245 290 348
#     4  10  21  35  58  84 116 161 194 245 294 345
#     4  11  21  40  61  86 120 157 193 239 297 360
#     4  10  23  36  58  89 114 146 195 246 294 350
#     4  10  20  36  60  78 124 154 196 240 302 348
#
# _framework density 19.62763
#
# number of rings (size 3 to 8) (size 9 to 14) (size 15 to 20)
#    0.000    1.600    4.000    1.200    0.000    4.800 
#    0.000    0.000    0.000    0.000    0.000    0.000 
#    0.000    0.000    0.000    0.000    0.000    0.000 
#
# Total GULP energy -167160.892065 kJ/mol
# GULP energy per Si atom -5572.029736 kJ/mol
# Density = 1.958296 g / cm^3
# Si number density = 19.627630 Si / 1000 Ang^3
#
#
#
# Elastic Constant Matrix: (Units=GPa)
#
#
# Indices 1 2 3 4 5 6 
#
# 1 55.3330 31.2263 19.4691 0.0000 15.8363 0.0000
# 2 31.2263 147.4906 31.0673 0.0000 7.2993 0.0000
# 3 19.4691 31.0673 43.7284 0.0000 3.2363 0.0000
# 4 0.0000 0.0000 0.0000 31.3808 0.0000 6.6055
# 5 15.8363 7.2993 3.2363 0.0000 24.9928 0.0000
# 6 0.0000 0.0000 0.0000 6.6055 0.0000 32.9728
#
#
#
# Elastic Compliance Matrix: (Units=1/GPa)
#
#
# Indices 1 2 3 4 5 6 
#
# 1 0.027318 -0.003181 -0.008774 0.000000 -0.015244 0.000000
# 2 -0.003181 0.008408 -0.004569 0.000000 0.000151 0.000000
# 3 -0.008774 -0.004569 0.029796 0.000000 0.003036 0.000000
# 4 0.000000 0.000000 0.000000 0.033270 0.000000 -0.006665
# 5 -0.015244 0.000151 0.003036 0.000000 0.049233 0.000000
# 6 0.000000 0.000000 0.000000 -0.006665 0.000000 0.031663
#
#
# Mechanical properties :
#
#
# Convention : Reuss Voigt Hill
#
# Bulk Modulus (GPa) = 30.79381 45.56417 38.17899
# Shear Modulus (GPa) = 22.36517 28.85523 25.61020
#
# Velocity S-wave (km/s) = 3.37927 3.83839 3.61613
# Velocity P-wave (km/s) = 5.56319 6.55050 6.07693
#
# Compressibility (1/GPa) = 0.03247406
#
# Stress axis : x y z
#
# Youngs Moduli (GPa) = 36.60624 118.92826 33.56118
#
# Poissons Ratio (x) = 0.37830 0.29448
# Poissons Ratio (y) = 0.11644 0.15334
# Poissons Ratio (z) = 0.32120 0.54336
#
# Static dielectric constant tensor:
#      x y z
#    x 1.722900 0.000000 0.029880 
#    y 0.000000 1.720440 0.000000 
#    z 0.029880 0.000000 1.750620 
# 
# From -- ./inp_files/76568.got.cif
#   From: 2010.05.17/outbox.cif.g08.bks.cpg/sg13_39_cif.got.tgz:76568.got - 2010.06.03 16:44:36.
