data_PCOD9229735
_publ_section_title
;
Structure prediction by ZEFSAII (Michael W. Deem and Ramdas Pophale) SiO2 
 PCOD9229735
Probable space group: P 2/C
;
_chemical_formula_sum "Si O2"
_cell_formula_units_Z 30
_cell_length_a 10.759282
_cell_length_b 13.335988
_cell_length_c 13.467683
_cell_angle_alpha 90.000000
_cell_angle_beta 56.369435
_cell_angle_gamma 90.000000
_cell_volume 1608.982399
_symmetry_space_group_name_H-M "P 2/C"
_symmetry_group_IT_number 13
_symmetry_cell_setting 'monoclinic'
loop_
_space_group_symop_operation_xyz
x,y,z
-x,y,1/2-z
-x,-y,-z
x,-y,1/2+z
loop_
_atom_site_type_symbol
_atom_site_label
_atom_site_fract_x
_atom_site_fract_y
_atom_site_fract_z
Si Si1 0.776479 0.477026 0.426475
Si Si2 0.281306 0.687880 0.286616
Si Si3 0.241475 0.659459 0.944600
Si Si4 0.398284 0.718047 0.435432
Si Si5 0.878528 0.510894 0.660397
Si Si6 0.477042 0.112056 0.473094
Si Si7 0.155680 0.801678 0.153038
Si Si8 0.500000 0.196257 0.250000
O O1 0.690935 0.568640 0.518329
O O2 0.702882 0.369814 0.476090
O O3 0.791335 0.488675 0.302613
O O4 0.946427 0.489358 0.391923
O O5 0.315405 0.752077 0.370579
O O6 0.445590 0.667981 0.168620
O O7 0.188833 0.589689 0.358559
O O8 0.196580 0.741496 0.234846
O O9 0.156690 0.605694 0.892333
O O10 0.364637 0.731532 0.842582
O O11 0.143923 0.723812 0.066030
O O12 0.439875 0.806580 0.492845
O O13 0.299774 0.133445 0.562001
O O14 0.527496 0.131094 0.337121
O O15 0.500000 0.000000 0.500000
O O16 0.000000 0.853537 0.250000
#
# Coordination Sequence:
#
# PCOD9229735 Si02
#       8
#     4   4   4   4   4   4   4   2
#     4  11  22  33  52  82 127 171 208 242 296 372
#     4  10  20  34  53  85 122 156 214 242 290 364
#     4  11  21  34  57  84 128 164 198 258 290 366
#     4  10  22  36  56  90 115 161 208 256 304 369
#     4  11  22  33  50  81 125 177 207 239 297 355
#     4  10  23  46  71  90 121 157 206 276 327 371
#     4  10  21  38  63  92 118 160 214 252 307 383
#     4  10  24  40  64  96 112 160 208 250 324 366
#
# _framework density 18.645325
#
# number of rings (size 3 to 8) (size 9 to 14) (size 15 to 20)
#    0.000    1.600    2.667    2.000    3.733    2.667 
#    0.000    0.000    5.867    2.400    0.000    0.000 
#    0.000    0.000    0.000    0.000    0.000    0.000 
#
# Total GULP energy -167316.354475 kJ/mol
# GULP energy per Si atom -5577.211816 kJ/mol
# Density = 1.860289 g / cm^3
# Si number density = 18.645325 Si / 1000 Ang^3
#
#
#
# Elastic Constant Matrix: (Units=GPa)
#
#
# Indices 1 2 3 4 5 6 
#
# 1 84.0746 41.6333 52.1652 0.0000 16.8786 0.0000
# 2 41.6333 104.2809 52.6718 0.0000 7.2350 0.0000
# 3 52.1652 52.6718 122.3483 0.0000 20.0089 0.0000
# 4 0.0000 0.0000 0.0000 16.1992 0.0000 3.9965
# 5 16.8786 7.2350 20.0089 0.0000 31.2205 0.0000
# 6 0.0000 0.0000 0.0000 3.9965 0.0000 14.4230
#
#
#
# Elastic Compliance Matrix: (Units=1/GPa)
#
#
# Indices 1 2 3 4 5 6 
#
# 1 0.018303 -0.004397 -0.004982 0.000000 -0.005684 0.000000
# 2 -0.004397 0.013321 -0.004182 0.000000 0.001971 0.000000
# 3 -0.004982 -0.004182 0.012845 0.000000 -0.004570 0.000000
# 4 0.000000 0.000000 0.000000 0.066261 0.000000 -0.018361
# 5 -0.005684 0.001971 -0.004570 0.000000 0.037575 0.000000
# 6 0.000000 0.000000 0.000000 -0.018361 0.000000 0.074421
#
#
# Mechanical properties :
#
#
# Convention : Reuss Voigt Hill
#
# Bulk Modulus (GPa) = 57.64383 67.07159 62.35771
# Shear Modulus (GPa) = 19.55942 23.31744 21.43843
#
# Velocity S-wave (km/s) = 3.24238 3.54019 3.39455
# Velocity P-wave (km/s) = 6.70824 7.26368 6.99148
#
# Compressibility (1/GPa) = 0.01734791
#
# Stress axis : x y z
#
# Youngs Moduli (GPa) = 54.63440 75.07149 77.85033
#
# Poissons Ratio (x) = 0.33009 0.38781
# Poissons Ratio (y) = 0.24023 0.32558
# Poissons Ratio (z) = 0.27216 0.31396
#
# Static dielectric constant tensor:
#      x y z
#    x 1.696380 0.000000 0.010940 
#    y 0.000000 1.616360 0.000000 
#    z 0.010940 0.000000 1.687320 
# 
# From -- ./inp_files/51175.got.cif
#   From: 2010.05.17/outbox.cif.g08.bks.cpg/sg13_26_cif.got.tgz:51175.got - 2010.06.03 16:44:36.
