data_PCOD9229636
_publ_section_title
;
Structure prediction by ZEFSAII (Michael W. Deem and Ramdas Pophale) SiO2 
 PCOD9229636
Probable space group: P 2/C
;
_chemical_formula_sum "Si O2"
_cell_formula_units_Z 32
_cell_length_a 7.167698
_cell_length_b 12.953045
_cell_length_c 17.791307
_cell_angle_alpha 90.000000
_cell_angle_beta 49.620879
_cell_angle_gamma 90.000000
_cell_volume 1258.304708
_symmetry_space_group_name_H-M "P 2/C"
_symmetry_group_IT_number 13
_symmetry_cell_setting 'monoclinic'
loop_
_space_group_symop_operation_xyz
x,y,z
-x,y,1/2-z
-x,-y,-z
x,-y,1/2+z
loop_
_atom_site_type_symbol
_atom_site_label
_atom_site_fract_x
_atom_site_fract_y
_atom_site_fract_z
Si Si1 0.626865 0.452697 0.083552
Si Si2 0.775066 0.885757 0.476797
Si Si3 0.011299 0.518786 0.618146
Si Si4 0.655211 0.370504 0.786661
Si Si5 0.623139 0.110328 0.554121
Si Si6 0.192600 0.141969 0.758144
Si Si7 0.053110 0.755983 0.621842
Si Si8 0.399368 0.233980 0.167221
O O1 0.821707 0.458458 0.100032
O O2 0.510066 0.566552 0.112631
O O3 0.457622 0.356135 0.146288
O O4 0.775220 0.445450 0.968322
O O5 0.588450 0.874759 0.454448
O O6 0.651776 0.821578 0.576939
O O7 0.044546 0.857229 0.375171
O O8 0.766211 0.005294 0.500960
O O9 0.865059 0.452226 0.714961
O O10 0.086094 0.632931 0.621280
O O11 0.500000 0.356594 0.750000
O O12 0.756692 0.260006 0.779779
O O13 0.463125 0.097540 0.671906
O O14 0.818592 0.201423 0.487117
O O15 0.000000 0.091289 0.750000
O O16 0.215052 0.799417 0.648319
O O17 0.767746 0.781449 0.714557
#
# Coordination Sequence:
#
# PCOD9229636 Si02
#       8
#     4   4   4   4   4   4   4   4
#     4  10  20  34  53  76 104 142 180 212 256 313
#     4   9  19  34  54  80 107 136 173 218 266 315
#     4  10  20  34  53  76 104 142 180 212 256 313
#     4  10  20  34  51  74 106 140 171 208 257 310
#     4   9  19  34  54  80 107 136 173 218 266 315
#     4  10  20  34  55  80 104 136 177 218 261 310
#     4  10  20  33  52  80 109 138 174 218 264 307
#     4  10  20  33  52  80 109 138 174 218 264 307
#
# _framework density 25.431044
#
# number of rings (size 3 to 8) (size 9 to 14) (size 15 to 20)
#    0.000    2.250    1.250    1.500    1.750    1.500 
#    0.000    0.000    0.000    3.000    0.000    0.000 
#    0.000    0.000    0.000    0.000    0.000    0.000 
#
# Total GULP energy -178789.471692 kJ/mol
# GULP energy per Si atom -5587.170990 kJ/mol
# Density = 2.537316 g / cm^3
# Si number density = 25.431044 Si / 1000 Ang^3
#
#
#
# Elastic Constant Matrix: (Units=GPa)
#
#
# Indices 1 2 3 4 5 6 
#
# 1 91.3096 -13.4543 26.0659 0.0000 -4.2374 0.0000
# 2 -13.4543 77.5267 22.4717 0.0000 -8.7022 0.0000
# 3 26.0659 22.4717 160.3147 0.0000 -24.4618 0.0000
# 4 0.0000 0.0000 0.0000 -57.5213 0.0000 -132.0593
# 5 -4.2374 -8.7022 -24.4618 0.0000 29.6274 0.0000
# 6 0.0000 0.0000 0.0000 -132.0593 0.0000 -145.6007
#
#
#
# Elastic Compliance Matrix: (Units=1/GPa)
#
#
# Indices 1 2 3 4 5 6 
#
# 1 0.012041 0.002819 -0.002247 0.000000 0.000695 0.000000
# 2 0.002819 0.014302 -0.002014 0.000000 0.002941 0.000000
# 3 -0.002247 -0.002014 0.007718 0.000000 0.005460 0.000000
# 4 0.000000 0.000000 0.000000 0.016063 0.000000 -0.014569
# 5 0.000695 0.002941 0.005460 0.000000 0.039224 0.000000
# 6 0.000000 0.000000 0.000000 -0.014569 0.000000 0.006346
#
#
# Mechanical properties :
#
#
# Convention : Reuss Voigt Hill
#
# Bulk Modulus (GPa) = 32.07532 44.36862 38.22197
# Shear Modulus (GPa) = 45.88419 -15.09441 15.39489
#
# Velocity S-wave (km/s) = 4.25226 -2.43892 2.46307
# Velocity P-wave (km/s) = 6.06210 3.09086 4.81157
#
# Compressibility (1/GPa) = 0.03117662
#
# Stress axis : x y z
#
# Youngs Moduli (GPa) = 83.05133 69.92052 129.55916
#
# Poissons Ratio (x) = -0.19710 0.29110
# Poissons Ratio (y) = -0.23411 0.26098
# Poissons Ratio (z) = 0.18660 0.14084
#
# Static dielectric constant tensor:
#      x y z
#    x 2.076260 0.000000 -0.012180 
#    y 0.000000 1.928360 0.000000 
#    z -0.012180 0.000000 2.028050 
# 
# From -- ./inp_files/92362.got.cif
#   From: 2010.05.17/outbox.cif.g08.bks.cpg/sg13_47_cif.got.tgz:92362.got - 2010.06.03 16:44:36.
