data_PCOD9229984
_publ_section_title
;
Structure prediction by ZEFSAII (Michael W. Deem and Ramdas Pophale) SiO2 
 PCOD9229984
Probable space group: P 2/C
;
_chemical_formula_sum "Si O2"
_cell_formula_units_Z 24
_cell_length_a 13.474254
_cell_length_b 5.059260
_cell_length_c 17.138732
_cell_angle_alpha 90.000000
_cell_angle_beta 102.741236
_cell_angle_gamma 90.000000
_cell_volume 1139.573946
_symmetry_space_group_name_H-M "P 2/C"
_symmetry_group_IT_number 13
_symmetry_cell_setting 'monoclinic'
loop_
_space_group_symop_operation_xyz
x,y,z
-x,y,1/2-z
-x,-y,-z
x,-y,1/2+z
loop_
_atom_site_type_symbol
_atom_site_label
_atom_site_fract_x
_atom_site_fract_y
_atom_site_fract_z
Si Si1 0.895708 0.892494 0.880275
Si Si2 0.000000 0.129137 0.750000
Si Si3 0.704366 0.385575 0.292279
Si Si4 0.832003 0.250788 0.600482
Si Si5 0.674452 0.128747 0.695044
Si Si6 0.500000 0.609255 0.250000
Si Si7 0.100494 0.266597 0.482228
O O1 0.935805 0.952401 0.800124
O O2 0.788972 0.743462 0.860006
O O3 0.981208 0.719053 0.939119
O O4 0.888994 0.163105 0.928144
O O5 0.918847 0.287886 0.682881
O O6 0.692384 0.175303 0.219272
O O7 0.733307 0.675597 0.266037
O O8 0.589733 0.432817 0.302863
O O9 0.723146 0.208651 0.621979
O O10 0.861679 0.982829 0.562354
O O11 0.839518 0.486622 0.540882
O O12 0.559305 0.214945 0.696129
#
# Coordination Sequence:
#
# PCOD9229984 Si02
#       7
#     4   2   4   4   4   2   4
#     4  10  22  40  58  89 121 161 197 238 294 350
#     4  10  22  34  64  88 118 152 206 246 278 348
#     4  10  20  35  59  86 115 147 190 254 295 338
#     4  11  22  38  58  85 120 161 193 242 291 348
#     4  10  20  35  56  90 112 145 190 253 293 341
#     4   8  22  32  60  90 114 138 192 268 302 320
#     4  10  25  38  56  84 130 163 190 231 294 367
#
# _framework density 21.060503000000001
#
# number of rings (size 3 to 8) (size 9 to 14) (size 15 to 20)
#    1.000    1.000    1.667    1.500    4.667    8.000 
#    0.000    0.000    0.000    2.000    0.000    0.000 
#    0.000    0.000    0.000    0.000    0.000    0.000 
#
# Total GULP energy -133904.826372 kJ/mol
# GULP energy per Si atom -5579.367765 kJ/mol
# Density = 2.101257 g / cm^3
# Si number density = 21.060503 Si / 1000 Ang^3
#
#
#
# Elastic Constant Matrix: (Units=GPa)
#
#
# Indices 1 2 3 4 5 6 
#
# 1 124.1011 10.9894 33.0679 0.0000 -18.3694 0.0000
# 2 10.9894 66.2008 9.5334 0.0000 -7.8493 0.0000
# 3 33.0679 9.5334 79.7480 0.0000 -15.0733 0.0000
# 4 0.0000 0.0000 0.0000 24.0901 0.0000 3.9401
# 5 -18.3694 -7.8493 -15.0733 0.0000 28.2867 0.0000
# 6 0.0000 0.0000 0.0000 3.9401 0.0000 23.0151
#
#
#
# Elastic Compliance Matrix: (Units=1/GPa)
#
#
# Indices 1 2 3 4 5 6 
#
# 1 0.009584 -0.000626 -0.003064 0.000000 0.004417 0.000000
# 2 -0.000626 0.015758 -0.000973 0.000000 0.003448 0.000000
# 3 -0.003064 -0.000973 0.015011 0.000000 0.005739 0.000000
# 4 0.000000 0.000000 0.000000 0.042707 0.000000 -0.007311
# 5 0.004417 0.003448 0.005739 0.000000 0.042236 0.000000
# 6 0.000000 0.000000 0.000000 -0.007311 0.000000 0.044701
#
#
# Mechanical properties :
#
#
# Convention : Reuss Voigt Hill
#
# Bulk Modulus (GPa) = 32.22908 41.91458 37.07183
# Shear Modulus (GPa) = 26.36226 29.50900 27.93563
#
# Velocity S-wave (km/s) = 3.54183 3.74726 3.64599
# Velocity P-wave (km/s) = 5.66237 6.21834 5.94686
#
# Compressibility (1/GPa) = 0.03102788
#
# Stress axis : x y z
#
# Youngs Moduli (GPa) = 104.34405 63.45843 66.61713
#
# Poissons Ratio (x) = 0.03972 0.20413
# Poissons Ratio (y) = 0.06531 0.06479
# Poissons Ratio (z) = 0.31973 0.06172
#
# Static dielectric constant tensor:
#      x y z
#    x 1.790990 0.000000 0.008260 
#    y 0.000000 1.782110 0.000000 
#    z 0.008260 0.000000 1.781550 
# 
# From -- ./inp_files/51942.got.cif
#   From: 2010.05.17/outbox.cif.g08.bks.cpg/sg13_26_cif.got.tgz:51942.got - 2010.06.03 16:44:36.
