data_PCOD9229773
_publ_section_title
;
Structure prediction by ZEFSAII (Michael W. Deem and Ramdas Pophale) SiO2 
 PCOD9229773
Probable space group: P 2/C
;
_chemical_formula_sum "Si O2"
_cell_formula_units_Z 28
_cell_length_a 8.210845
_cell_length_b 19.393320
_cell_length_c 11.881945
_cell_angle_alpha 90.000000
_cell_angle_beta 143.736367
_cell_angle_gamma 90.000000
_cell_volume 1119.137423
_symmetry_space_group_name_H-M "P 2/C"
_symmetry_group_IT_number 13
_symmetry_cell_setting 'monoclinic'
loop_
_space_group_symop_operation_xyz
x,y,z
-x,y,1/2-z
-x,-y,-z
x,-y,1/2+z
loop_
_atom_site_type_symbol
_atom_site_label
_atom_site_fract_x
_atom_site_fract_y
_atom_site_fract_z
Si Si1 0.306006 0.691291 0.871547
Si Si2 0.144661 0.730924 0.211257
Si Si3 0.223496 0.016247 0.277272
Si Si4 0.293546 0.129110 0.738434
Si Si5 0.220667 0.407092 0.656528
Si Si6 0.726252 0.837536 0.676347
Si Si7 0.311456 0.450324 0.257231
O O1 0.310377 0.760446 0.796249
O O2 0.394464 0.618047 0.871066
O O3 0.000000 0.683397 0.750000
O O4 0.530324 0.714098 0.089103
O O5 0.109796 0.802380 0.126021
O O6 0.054961 0.659020 0.108075
O O7 0.000000 0.739286 0.250000
O O8 0.168620 0.947245 0.176392
O O9 0.000000 0.021900 0.250000
O O10 0.500000 0.000000 0.500000
O O11 0.244722 0.092498 0.235163
O O12 0.500000 0.128342 0.750000
O O13 0.468759 0.144551 0.950190
O O14 0.500000 0.387051 0.750000
O O15 0.301193 0.468897 0.787907
O O16 0.010194 0.437636 0.448609
O O17 0.000000 0.832535 0.750000
O O18 0.500000 0.451925 0.250000
#
# Coordination Sequence:
#
# PCOD9229773 Si02
#       7
#     4   4   4   4   4   4   4
#     4  10  20  35  56  79 105 142 182 215 263 325
#     4  11  22  35  54  82 110 139 179 225 269 317
#     4   9  17  34  56  76 107 146 179 219 270 319
#     4  10  20  34  55  82 109 140 181 225 269 317
#     4  10  21  37  56  78 108 142 177 221 272 319
#     4   8  17  34  53  75 105 142 176 214 262 315
#     4  10  21  37  55  78 108 142 177 220 272 319
#
# _framework density 25.019269000000001
#
# number of rings (size 3 to 8) (size 9 to 14) (size 15 to 20)
#    0.000    2.286    0.000    2.571    0.000    3.429 
#    0.000    7.143    0.000    1.714    0.000    0.000 
#    0.000    0.000    0.000    0.000    0.000    0.000 
#
# Total GULP energy -156214.413923 kJ/mol
# GULP energy per Si atom -5579.086212 kJ/mol
# Density = 2.496232 g / cm^3
# Si number density = 25.019269 Si / 1000 Ang^3
#
#
#
# Elastic Constant Matrix: (Units=GPa)
#
#
# Indices 1 2 3 4 5 6 
#
# 1 58.6649 51.2565 -9.3709 0.0000 13.8901 0.0000
# 2 51.2565 320.9890 0.2417 0.0000 -31.9675 0.0000
# 3 -9.3709 0.2417 70.3577 0.0000 9.4519 0.0000
# 4 0.0000 0.0000 0.0000 23.7267 0.0000 9.8906
# 5 13.8901 -31.9675 9.4519 0.0000 26.3541 0.0000
# 6 0.0000 0.0000 0.0000 9.8906 0.0000 21.8580
#
#
#
# Elastic Compliance Matrix: (Units=1/GPa)
#
#
# Indices 1 2 3 4 5 6 
#
# 1 0.032819 -0.008272 0.008480 0.000000 -0.030373 0.000000
# 2 -0.008272 0.005654 -0.002761 0.000000 0.012209 0.000000
# 3 0.008480 -0.002761 0.017233 0.000000 -0.013999 0.000000
# 4 0.000000 0.000000 0.000000 0.051945 0.000000 -0.023504
# 5 -0.030373 0.012209 -0.013999 0.000000 0.073783 0.000000
# 6 0.000000 0.000000 0.000000 -0.023504 0.000000 0.056385
#
#
# Mechanical properties :
#
#
# Convention : Reuss Voigt Hill
#
# Bulk Modulus (GPa) = 19.76305 59.36290 39.56297
# Shear Modulus (GPa) = 19.24619 41.58005 30.41312
#
# Velocity S-wave (km/s) = 2.77655 4.08109 3.49031
# Velocity P-wave (km/s) = 4.26559 6.78126 5.66483
#
# Compressibility (1/GPa) = 0.05059948
#
# Stress axis : x y z
#
# Youngs Moduli (GPa) = 30.46998 176.85973 58.02930
#
# Poissons Ratio (x) = 1.46297 -0.49208
# Poissons Ratio (y) = 0.25204 0.16023
# Poissons Ratio (z) = -0.25838 0.48836
#
# Static dielectric constant tensor:
#      x y z
#    x 2.129870 0.000000 -0.241740 
#    y 0.000000 2.171530 0.000000 
#    z -0.241740 0.000000 2.232860 
# 
# From -- ./inp_files/48114.got.cif
#   From: 2010.05.17/outbox.cif.g08.bks.cpg/sg13_25_cif.got.tgz:48114.got - 2010.06.03 16:44:36.
