data_PCOD9229705
_publ_section_title
;
Structure prediction by ZEFSAII (Michael W. Deem and Ramdas Pophale) SiO2 
 PCOD9229705
Probable space group: P 2/C
;
_chemical_formula_sum "Si O2"
_cell_formula_units_Z 30
_cell_length_a 9.728539
_cell_length_b 8.406373
_cell_length_c 18.988658
_cell_angle_alpha 90.000000
_cell_angle_beta 80.458720
_cell_angle_gamma 90.000000
_cell_volume 1531.442761
_symmetry_space_group_name_H-M "P 2/C"
_symmetry_group_IT_number 13
_symmetry_cell_setting 'monoclinic'
loop_
_space_group_symop_operation_xyz
x,y,z
-x,y,1/2-z
-x,-y,-z
x,-y,1/2+z
loop_
_atom_site_type_symbol
_atom_site_label
_atom_site_fract_x
_atom_site_fract_y
_atom_site_fract_z
Si Si1 0.923357 0.282491 0.959498
Si Si2 0.166870 0.486670 0.406432
Si Si3 0.749005 0.404166 0.838926
Si Si4 0.224589 0.914873 0.246730
Si Si5 0.526816 0.548823 0.668347
Si Si6 0.034485 0.001453 0.131466
Si Si7 0.500000 0.130705 0.250000
Si Si8 0.963099 0.326128 0.325585
O O1 0.829626 0.340572 0.900839
O O2 0.074851 0.367626 0.943284
O O3 0.941120 0.099146 0.940344
O O4 0.848293 0.346654 0.034915
O O5 0.326309 0.505644 0.373940
O O6 0.086066 0.436562 0.342648
O O7 0.752640 0.271697 0.776351
O O8 0.594457 0.467264 0.866106
O O9 0.833532 0.565765 0.817091
O O10 0.110511 0.943748 0.318639
O O11 0.153632 0.972274 0.179985
O O12 0.363951 0.018102 0.250963
O O13 0.500000 0.487685 0.750000
O O14 0.518900 0.741496 0.683319
O O15 0.047519 0.188468 0.116615
O O16 0.000000 0.240255 0.250000
#
# Coordination Sequence:
#
# PCOD9229705 Si02
#       8
#     4   4   4   4   4   4   2   4
#     4   9  22  39  57  84 114 160 193 248 274 356
#     4  10  21  39  59  82 119 150 203 236 291 338
#     4  10  22  34  57  82 115 151 199 228 301 344
#     4  10  20  34  51  83 115 147 180 246 280 349
#     4  10  22  34  56  88 111 155 183 247 289 351
#     4  10  20  34  57  81 112 151 191 232 302 332
#     4  10  22  34  52  82 124 140 186 234 308 324
#     4  11  20  34  59  85 112 151 185 249 285 355
#
# _framework density 19.589371
#
# number of rings (size 3 to 8) (size 9 to 14) (size 15 to 20)
#    0.400    1.600    1.333    2.400    8.400    1.067 
#    0.000    0.000    0.000    7.200    0.000    0.000 
#    0.000    0.000    0.000    0.000    0.000    0.000 
#
# Total GULP energy -167013.431018 kJ/mol
# GULP energy per Si atom -5567.114367 kJ/mol
# Density = 1.954478 g / cm^3
# Si number density = 19.589371 Si / 1000 Ang^3
#
#
#
# Elastic Constant Matrix: (Units=GPa)
#
#
# Indices 1 2 3 4 5 6 
#
# 1 149.5507 46.7578 16.7941 0.0000 -20.3175 0.0000
# 2 46.7578 57.1186 -8.1809 0.0000 -23.1833 0.0000
# 3 16.7941 -8.1809 42.2679 0.0000 -16.4930 0.0000
# 4 0.0000 0.0000 0.0000 23.1930 0.0000 3.5889
# 5 -20.3175 -23.1833 -16.4930 0.0000 5.4498 0.0000
# 6 0.0000 0.0000 0.0000 3.5889 0.0000 23.1639
#
#
#
# Elastic Compliance Matrix: (Units=1/GPa)
#
#
# Indices 1 2 3 4 5 6 
#
# 1 0.009503 -0.005222 -0.002046 0.000000 0.007023 0.000000
# 2 -0.005222 0.004183 -0.012336 0.000000 -0.039007 0.000000
# 3 -0.002046 -0.012336 0.007571 0.000000 -0.037192 0.000000
# 4 0.000000 0.000000 0.000000 0.044176 0.000000 -0.006844
# 5 0.007023 -0.039007 -0.037192 0.000000 -0.068816 0.000000
# 6 0.000000 0.000000 0.000000 -0.006844 0.000000 0.044231
#
#
# Mechanical properties :
#
#
# Convention : Reuss Voigt Hill
#
# Bulk Modulus (GPa) = -55.70757 39.96436 -7.87161
# Shear Modulus (GPa) = 67.50058 23.26576 45.38317
#
# Velocity S-wave (km/s) = 5.87644 3.45000 4.81846
# Velocity P-wave (km/s) = 4.18856 6.02622 5.18938
#
# Compressibility (1/GPa) = -0.01795088
#
# Stress axis : x y z
#
# Youngs Moduli (GPa) = 105.22692 239.06446 132.07655
#
# Poissons Ratio (x) = 1.24837 0.27024
# Poissons Ratio (y) = 0.54948 1.62934
# Poissons Ratio (z) = 0.21530 2.94917
#
# Static dielectric constant tensor:
#      x y z
#    x 1.716140 0.000000 0.005110 
#    y 0.000000 1.832240 0.000000 
#    z 0.005110 0.000000 1.698720 
# 
# From -- ./inp_files/75671.got.cif
#   From: 2010.05.17/outbox.cif.g08.bks.cpg/sg13_38_cif.got.tgz:75671.got - 2010.06.03 16:44:36.
