data_PCOD9229939
_publ_section_title
;
Structure prediction by ZEFSAII (Michael W. Deem and Ramdas Pophale) SiO2 
 PCOD9229939
Probable space group: P 2/C
;
_chemical_formula_sum "Si O2"
_cell_formula_units_Z 32
_cell_length_a 26.297022
_cell_length_b 12.812703
_cell_length_c 9.163332
_cell_angle_alpha 90.000000
_cell_angle_beta 29.406776
_cell_angle_gamma 90.000000
_cell_volume 1515.961747
_symmetry_space_group_name_H-M "P 2/C"
_symmetry_group_IT_number 13
_symmetry_cell_setting 'monoclinic'
loop_
_space_group_symop_operation_xyz
x,y,z
-x,y,1/2-z
-x,-y,-z
x,-y,1/2+z
loop_
_atom_site_type_symbol
_atom_site_label
_atom_site_fract_x
_atom_site_fract_y
_atom_site_fract_z
Si Si1 0.885051 0.665518 0.210067
Si Si2 0.323607 0.600083 0.611776
Si Si3 0.323628 0.399909 0.770073
Si Si4 0.394595 0.835068 0.090741
Si Si5 0.394590 0.835055 0.436275
Si Si6 0.885044 0.665516 0.864745
Si Si7 0.816779 0.099715 0.880116
Si Si8 0.816769 0.099704 0.536050
O O1 0.790921 0.617852 0.535347
O O2 0.876323 0.791064 0.248878
O O3 0.871024 0.643377 0.072462
O O4 0.000010 0.631510 0.967276
O O5 0.370785 0.499999 0.573000
O O6 0.316310 0.579121 0.459192
O O7 0.382477 0.709496 0.484845
O O8 0.382479 0.290487 0.602723
O O9 0.209097 0.382136 0.989843
O O10 0.394390 0.858178 0.264018
O O11 0.294539 0.882560 0.262018
O O12 0.500000 0.869044 0.750000
O O13 0.500000 0.868999 0.250000
O O14 0.294539 0.882551 0.765266
O O15 0.876304 0.791064 0.869587
O O16 0.866220 0.000001 0.834464
O O17 0.804488 0.080453 0.738797
#
# Coordination Sequence:
#
# PCOD9229939 Si02
#       8
#     4   4   4   4   4   4   4   4
#     4   9  19  36  56  78 106 140 177 217 261 309
#     4  10  21  36  55  79 107 139 175 216 261 311
#     4  10  21  36  55  79 107 139 175 216 261 311
#     4  10  21  37  56  79 106 137 175 217 262 311
#     4  10  21  37  56  79 106 137 175 217 262 311
#     4   9  19  36  56  78 106 140 177 217 261 309
#     4  10  20  35  55  79 108 140 175 216 261 310
#     4  10  20  35  55  79 108 140 175 216 261 310
#
# _framework density 21.108712000000001
#
# number of rings (size 3 to 8) (size 9 to 14) (size 15 to 20)
#    0.000    2.250    0.000    2.250    0.000    6.500 
#    0.000    5.000    0.000    0.000    0.000    0.000 
#    0.000    0.000    0.000    0.000    0.000    0.000 
#
# Total GULP energy -178893.228375 kJ/mol
# GULP energy per Si atom -5590.413387 kJ/mol
# Density = 2.106067 g / cm^3
# Si number density = 21.108712 Si / 1000 Ang^3
#
#
#
# Elastic Constant Matrix: (Units=GPa)
#
#
# Indices 1 2 3 4 5 6 
#
# 1 84.1065 28.4461 40.9836 0.0000 6.6919 0.0000
# 2 28.4461 88.3192 3.4236 0.0000 25.5065 0.0000
# 3 40.9836 3.4236 81.5423 0.0000 -4.1240 0.0000
# 4 0.0000 0.0000 0.0000 3.4925 0.0000 21.2892
# 5 6.6919 25.5065 -4.1240 0.0000 29.2908 0.0000
# 6 0.0000 0.0000 0.0000 21.2892 0.0000 24.3812
#
#
#
# Elastic Compliance Matrix: (Units=1/GPa)
#
#
# Indices 1 2 3 4 5 6 
#
# 1 0.018063 -0.005236 -0.008900 0.000000 -0.000820 0.000000
# 2 -0.005236 0.016785 0.001257 0.000000 -0.013243 0.000000
# 3 -0.008900 0.001257 0.016851 0.000000 0.003311 0.000000
# 4 0.000000 0.000000 0.000000 -0.066239 0.000000 0.057839
# 5 -0.000820 -0.013243 0.003311 0.000000 0.046326 0.000000
# 6 0.000000 0.000000 0.000000 0.057839 0.000000 -0.009489
#
#
# Mechanical properties :
#
#
# Convention : Reuss Voigt Hill
#
# Bulk Modulus (GPa) = 38.54845 44.40830 41.47838
# Shear Modulus (GPa) = 88.18055 23.50721 55.84388
#
# Velocity S-wave (km/s) = 6.47033 3.34072 5.14906
# Velocity P-wave (km/s) = 8.60940 5.99701 7.41909
#
# Compressibility (1/GPa) = 0.02594138
#
# Stress axis : x y z
#
# Youngs Moduli (GPa) = 55.36304 59.57782 59.34196
#
# Poissons Ratio (x) = 0.31193 0.52815
# Poissons Ratio (y) = 0.28986 -0.07459
# Poissons Ratio (z) = 0.49273 -0.07489
#
# Static dielectric constant tensor:
#      x y z
#    x 1.706400 0.000000 -0.015340 
#    y 0.000000 1.807470 0.000000 
#    z -0.015340 0.000000 1.721290 
# 
# From -- ./inp_files/24749.got.cif
#   From: 2010.05.17/outbox.cif.g08.bks.cpg/sg13_13_cif.got.tgz:24749.got - 2010.06.03 16:44:36.
