data_PCOD9229751
_publ_section_title
;
Structure prediction by ZEFSAII (Michael W. Deem and Ramdas Pophale) SiO2 
 PCOD9229751
Probable space group: P 2/C
;
_chemical_formula_sum "Si O2"
_cell_formula_units_Z 32
_cell_length_a 12.821099
_cell_length_b 11.725947
_cell_length_c 12.224772
_cell_angle_alpha 90.000000
_cell_angle_beta 89.999933
_cell_angle_gamma 90.000000
_cell_volume 1837.866445
_symmetry_space_group_name_H-M "P 2/C"
_symmetry_group_IT_number 13
_symmetry_cell_setting 'monoclinic'
loop_
_space_group_symop_operation_xyz
x,y,z
-x,y,1/2-z
-x,-y,-z
x,-y,1/2+z
loop_
_atom_site_type_symbol
_atom_site_label
_atom_site_fract_x
_atom_site_fract_y
_atom_site_fract_z
Si Si1 0.119653 0.298645 0.119765
Si Si2 0.708280 0.871843 0.962891
Si Si3 0.119654 0.701355 0.880234
Si Si4 0.708280 0.871843 0.537109
Si Si5 0.239874 0.500000 0.000000
Si Si6 0.621342 0.315922 0.620160
Si Si7 0.621343 0.315922 0.879840
Si Si8 0.500000 0.055349 0.373405
O O1 0.193384 0.193487 0.086476
O O2 0.120974 0.310345 0.250000
O O3 0.169030 0.411584 0.066617
O O4 1.000000 0.282894 0.083632
O O5 0.609053 0.877507 0.881047
O O6 0.668386 0.797111 0.065186
O O7 0.733421 1.000000 0.000001
O O8 0.193385 0.806512 0.913523
O O9 0.169030 0.588416 0.933382
O O10 0.668386 0.797112 0.434813
O O11 0.609052 0.877506 0.618953
O O12 0.313575 0.576642 0.076808
O O13 0.313577 0.423359 0.923193
O O14 0.627727 0.308838 0.750000
O O15 0.499999 0.325717 0.588087
O O16 0.500000 0.997406 0.250000
O O17 0.500000 0.000000 0.500000
#
# Coordination Sequence:
#
# PCOD9229751 Si02
#       8
#     4   4   4   4   4   4   4   4
#     4  10  21  37  57  79 105 142 186 232 280 330
#     4  10  21  36  55  82 115 147 186 225 278 334
#     4  10  21  37  57  79 105 142 186 232 280 330
#     4  10  21  36  55  82 115 147 186 225 278 334
#     4  10  20  36  56  78 108 139 187 232 288 330
#     4  10  20  34  54  81 114 148 184 228 282 344
#     4  10  20  34  54  81 114 148 184 228 282 344
#     4  10  20  34  54  81 112 149 188 229 277 333
#
# _framework density 17.411493
#
# number of rings (size 3 to 8) (size 9 to 14) (size 15 to 20)
#    0.000    2.000    1.250    2.250    0.000    5.500 
#    0.000    0.000    0.000    6.750    0.000    0.000 
#    0.000    0.000    0.000    0.000    0.000    0.000 
#
# Total GULP energy -178368.504893 kJ/mol
# GULP energy per Si atom -5574.015778 kJ/mol
# Density = 1.737186 g / cm^3
# Si number density = 17.411493 Si / 1000 Ang^3
#
#
#
# Elastic Constant Matrix: (Units=GPa)
#
#
# Indices 1 2 3 4 5 6 
#
# 1 161.5290 79.7538 58.8823 0.0000 0.0010 0.0000
# 2 79.7538 127.6326 42.7658 0.0000 0.0015 0.0000
# 3 58.8823 42.7658 88.2416 0.0000 0.0015 0.0000
# 4 0.0000 0.0000 0.0000 10.8023 0.0000 0.0000
# 5 0.0010 0.0015 0.0015 0.0000 21.0420 0.0000
# 6 0.0000 0.0000 0.0000 0.0000 0.0000 21.2274
#
#
#
# Elastic Compliance Matrix: (Units=1/GPa)
#
#
# Indices 1 2 3 4 5 6 
#
# 1 0.010235 -0.004904 -0.004453 0.000000 0.000000 0.000000
# 2 -0.004904 0.011703 -0.002400 0.000000 0.000000 0.000000
# 3 -0.004453 -0.002400 0.015467 0.000000 -0.000001 0.000000
# 4 0.000000 0.000000 0.000000 0.092572 0.000000 0.000000
# 5 0.000000 0.000000 -0.000001 0.000000 0.047524 0.000000
# 6 0.000000 0.000000 0.000000 0.000000 0.000000 0.047109
#
#
# Mechanical properties :
#
#
# Convention : Reuss Voigt Hill
#
# Bulk Modulus (GPa) = 71.98265 82.24522 77.11394
# Shear Modulus (GPa) = 19.78196 23.68110 21.73153
#
# Velocity S-wave (km/s) = 3.37433 3.69193 3.53670
# Velocity P-wave (km/s) = 7.52418 8.09398 7.81428
#
# Compressibility (1/GPa) = 0.01389224
#
# Stress axis : x y z
#
# Youngs Moduli (GPa) = 97.70072 85.44695 64.65264
#
# Poissons Ratio (x) = 0.41899 0.28792
# Poissons Ratio (y) = 0.47908 0.15515
# Poissons Ratio (z) = 0.43510 0.20506
#
# Static dielectric constant tensor:
#      x y z
#    x 1.590990 0.000000 0.000000 
#    y 0.000000 1.588300 0.000000 
#    z 0.000000 0.000000 1.594620 
# 
# From -- ./inp_files/33839.got.cif
#   From: 2010.05.17/outbox.cif.g08.bks.cpg/sg13_17_cif.got.tgz:33839.got - 2010.06.03 16:44:36.
