data_PCOD9229830
_publ_section_title
;
Structure prediction by ZEFSAII (Michael W. Deem and Ramdas Pophale) SiO2 
 PCOD9229830
Probable space group: P 2/C
;
_chemical_formula_sum "Si O2"
_cell_formula_units_Z 28
_cell_length_a 7.933325
_cell_length_b 11.025959
_cell_length_c 24.094809
_cell_angle_alpha 90.000000
_cell_angle_beta 42.293867
_cell_angle_gamma 90.000000
_cell_volume 1418.296895
_symmetry_space_group_name_H-M "P 2/C"
_symmetry_group_IT_number 13
_symmetry_cell_setting 'monoclinic'
loop_
_space_group_symop_operation_xyz
x,y,z
-x,y,1/2-z
-x,-y,-z
x,-y,1/2+z
loop_
_atom_site_type_symbol
_atom_site_label
_atom_site_fract_x
_atom_site_fract_y
_atom_site_fract_z
Si Si1 0.727033 0.388465 0.092279
Si Si2 0.821431 0.644295 0.094627
Si Si3 0.497718 0.866192 0.816667
Si Si4 0.000000 0.214479 0.750000
Si Si5 0.000000 0.219183 0.250000
Si Si6 0.337253 0.621545 0.588287
Si Si7 0.781338 0.350594 0.907839
Si Si8 0.488326 0.127910 0.686115
O O1 0.710387 0.509942 0.133208
O O2 0.645831 0.257982 0.134641
O O3 0.542291 0.412166 0.085379
O O4 0.007642 0.373133 0.001301
O O5 0.626554 0.750810 0.132831
O O6 0.006169 0.683065 0.099302
O O7 0.500000 0.872244 0.750000
O O8 0.772470 0.851744 0.776830
O O9 0.398125 0.998153 0.860106
O O10 0.855964 0.295283 0.830876
O O11 0.794093 0.137121 0.767339
O O12 0.129287 0.299299 0.169932
O O13 0.223585 0.496618 0.594196
O O14 0.506957 0.683686 0.499103
O O15 0.500000 0.132854 0.750000
#
# Coordination Sequence:
#
# PCOD9229830 Si02
#       8
#     4   4   4   2   2   4   4   4
#     4   9  20  38  60  89 121 157 194 251 308 355
#     4  10  20  37  62  89 122 155 201 249 300 362
#     4  10  23  40  61  86 120 157 200 247 304 358
#     4  12  22  38  62  84 117 166 201 248 305 348
#     4  10  20  40  62  84 117 160 197 254 301 358
#     4   9  19  35  57  88 126 153 201 247 301 361
#     4  10  20  34  57  90 126 158 197 250 300 360
#     4  11  23  41  60  86 119 160 203 248 295 362
#
# _framework density 19.741987999999999
#
# number of rings (size 3 to 8) (size 9 to 14) (size 15 to 20)
#    0.000    2.000    1.429    1.714    2.000    3.429 
#    0.000    0.000    0.000    3.429    0.000    0.000 
#    0.000    0.000    0.000    0.000    0.000    0.000 
#
# Total GULP energy -156125.406043 kJ/mol
# GULP energy per Si atom -5575.907359 kJ/mol
# Density = 1.969705 g / cm^3
# Si number density = 19.741988 Si / 1000 Ang^3
#
#
#
# Elastic Constant Matrix: (Units=GPa)
#
#
# Indices 1 2 3 4 5 6 
#
# 1 62.7732 31.5901 13.8888 0.0000 -2.4074 0.0000
# 2 31.5901 145.9252 54.4752 0.0000 -14.3270 0.0000
# 3 13.8888 54.4752 88.4861 0.0000 2.1089 0.0000
# 4 0.0000 0.0000 0.0000 21.1441 0.0000 -7.7134
# 5 -2.4074 -14.3270 2.1089 0.0000 22.4041 0.0000
# 6 0.0000 0.0000 0.0000 -7.7134 0.0000 38.5413
#
#
#
# Elastic Compliance Matrix: (Units=1/GPa)
#
#
# Indices 1 2 3 4 5 6 
#
# 1 0.017902 -0.003727 -0.000505 0.000000 -0.000412 0.000000
# 2 -0.003727 0.010632 -0.006126 0.000000 0.006975 0.000000
# 3 -0.000505 -0.006126 0.015281 0.000000 -0.005410 0.000000
# 4 0.000000 0.000000 0.000000 0.051019 0.000000 0.010211
# 5 -0.000412 0.006975 -0.005410 0.000000 0.049560 0.000000
# 6 0.000000 0.000000 0.000000 0.010211 0.000000 0.027990
#
#
# Mechanical properties :
#
#
# Convention : Reuss Voigt Hill
#
# Bulk Modulus (GPa) = 43.29646 55.23253 49.26450
# Shear Modulus (GPa) = 24.90031 29.56659 27.23345
#
# Velocity S-wave (km/s) = 3.55531 3.87415 3.71815
# Velocity P-wave (km/s) = 6.23157 6.93181 6.59099
#
# Compressibility (1/GPa) = 0.02309658
#
# Stress axis : x y z
#
# Youngs Moduli (GPa) = 55.85935 94.05998 65.44041
#
# Poissons Ratio (x) = 0.35059 0.03308
# Poissons Ratio (y) = 0.20820 0.40091
# Poissons Ratio (z) = 0.02824 0.57624
#
# Static dielectric constant tensor:
#      x y z
#    x 1.692720 0.000000 -0.001870 
#    y 0.000000 1.725130 0.000000 
#    z -0.001870 0.000000 1.711970 
# 
# From -- ./inp_files/85099.got.cif
#   From: 2010.05.17/outbox.cif.g08.bks.cpg/sg13_43_cif.got.tgz:85099.got - 2010.06.03 16:44:36.
