data_PCOD9229401
_publ_section_title
;
Structure prediction by ZEFSAII (Michael W. Deem and Ramdas Pophale) SiO2 
 PCOD9229401
Probable space group: P 2/C
;
_chemical_formula_sum "Si O2"
_cell_formula_units_Z 24
_cell_length_a 7.594526
_cell_length_b 14.524888
_cell_length_c 15.467583
_cell_angle_alpha 90.000000
_cell_angle_beta 143.912502
_cell_angle_gamma 90.000000
_cell_volume 1004.999836
_symmetry_space_group_name_H-M "P 2/C"
_symmetry_group_IT_number 13
_symmetry_cell_setting 'monoclinic'
loop_
_space_group_symop_operation_xyz
x,y,z
-x,y,1/2-z
-x,-y,-z
x,-y,1/2+z
loop_
_atom_site_type_symbol
_atom_site_label
_atom_site_fract_x
_atom_site_fract_y
_atom_site_fract_z
Si Si1 0.925495 0.924528 0.118561
Si Si2 0.606981 0.605100 0.422022
Si Si3 0.197609 0.700386 0.687142
Si Si4 0.939291 0.725780 0.329895
Si Si5 0.445137 0.590797 0.560604
Si Si6 0.331311 0.901044 0.774033
O O1 0.000000 0.919256 0.250000
O O2 0.077097 0.830421 0.142522
O O3 0.581290 0.921626 0.947742
O O4 0.083986 0.020567 0.160770
O O5 0.332219 0.655466 0.267027
O O6 0.494168 0.590690 0.476947
O O7 0.671676 0.497526 0.432418
O O8 0.884644 0.673058 0.521322
O O9 0.500000 0.697576 0.750000
O O10 0.243818 0.618808 0.773987
O O11 0.187549 0.800348 0.727868
O O12 0.000000 0.731700 0.250000
O O13 0.223733 0.676497 0.483011
O O14 0.500000 0.897199 0.750000
#
# Coordination Sequence:
#
# PCOD9229401 Si02
#       6
#     4   4   4   4   4   4
#     4  11  23  42  67  96 126 165 216 277 326 382
#     4  10  21  36  66  92 118 168 211 263 317 381
#     4  11  24  40  59  89 131 167 210 259 322 387
#     4   9  19  36  59  90 126 152 205 271 320 368
#     4  10  19  40  62  91 123 158 214 265 314 376
#     4  11  25  44  65  92 132 171 214 267 328 393
#
# _framework density 23.880603000000001
#
# number of rings (size 3 to 8) (size 9 to 14) (size 15 to 20)
#    0.000    1.667    1.667    2.500    2.333    4.667 
#    0.000    0.833    0.000    0.000    0.000    0.000 
#    0.000    0.000    0.000    0.000    0.000    0.000 
#
# Total GULP energy -133885.090091 kJ/mol
# GULP energy per Si atom -5578.545420 kJ/mol
# Density = 2.382625 g / cm^3
# Si number density = 23.880603 Si / 1000 Ang^3
#
#
#
# Elastic Constant Matrix: (Units=GPa)
#
#
# Indices 1 2 3 4 5 6 
#
# 1 50.3112 8.1644 1.2936 0.0000 2.4811 0.0000
# 2 8.1644 163.5741 23.6409 0.0000 17.0655 0.0000
# 3 1.2936 23.6409 98.7010 0.0000 -4.1066 0.0000
# 4 0.0000 0.0000 0.0000 34.6975 0.0000 -1.4579
# 5 2.4811 17.0655 -4.1066 0.0000 20.5282 0.0000
# 6 0.0000 0.0000 0.0000 -1.4579 0.0000 13.0791
#
#
#
# Elastic Compliance Matrix: (Units=1/GPa)
#
#
# Indices 1 2 3 4 5 6 
#
# 1 0.020098 -0.000794 -0.000148 0.000000 -0.001798 0.000000
# 2 -0.000794 0.007078 -0.001942 0.000000 -0.006177 0.000000
# 3 -0.000148 -0.001942 0.010756 0.000000 0.003784 0.000000
# 4 0.000000 0.000000 0.000000 0.028956 0.000000 0.003228
# 5 -0.001798 -0.006177 0.003784 0.000000 0.054823 0.000000
# 6 0.000000 0.000000 0.000000 0.003228 0.000000 0.076818
#
#
# Mechanical properties :
#
#
# Convention : Reuss Voigt Hill
#
# Bulk Modulus (GPa) = 31.09087 42.08710 36.58898
# Shear Modulus (GPa) = 23.25390 32.29345 27.77368
#
# Velocity S-wave (km/s) = 3.12389 3.68134 3.41401
# Velocity P-wave (km/s) = 5.10482 5.97761 5.55837
#
# Compressibility (1/GPa) = 0.03216379
#
# Stress axis : x y z
#
# Youngs Moduli (GPa) = 49.75710 141.27998 92.97036
#
# Poissons Ratio (x) = 0.11219 0.01376
# Poissons Ratio (y) = 0.03951 0.18054
# Poissons Ratio (z) = 0.00737 0.27436
#
# Static dielectric constant tensor:
#      x y z
#    x 2.083690 0.000000 -0.110590 
#    y 0.000000 1.965500 0.000000 
#    z -0.110590 0.000000 1.877800 
# 
# From -- ./inp_files/64704.got.cif
#   From: 2010.05.17/outbox.cif.g08.bks.cpg/sg13_33_cif.got.tgz:64704.got - 2010.06.03 16:44:36.
