data_PCOD9229508
_publ_section_title
;
Structure prediction by ZEFSAII (Michael W. Deem and Ramdas Pophale) SiO2 
 PCOD9229508
Probable space group: P 2/C
;
_chemical_formula_sum "Si O2"
_cell_formula_units_Z 24
_cell_length_a 10.124426
_cell_length_b 12.140275
_cell_length_c 23.297877
_cell_angle_alpha 90.000000
_cell_angle_beta 26.714343
_cell_angle_gamma 90.000000
_cell_volume 1287.318942
_symmetry_space_group_name_H-M "P 2/C"
_symmetry_group_IT_number 13
_symmetry_cell_setting 'monoclinic'
loop_
_space_group_symop_operation_xyz
x,y,z
-x,y,1/2-z
-x,-y,-z
x,-y,1/2+z
loop_
_atom_site_type_symbol
_atom_site_label
_atom_site_fract_x
_atom_site_fract_y
_atom_site_fract_z
Si Si1 0.620363 0.088825 0.098260
Si Si2 0.223659 0.109034 0.886776
Si Si3 0.364240 0.686491 0.738500
Si Si4 0.348650 0.465844 0.871292
Si Si5 0.351544 0.066714 0.611721
Si Si6 0.734083 0.255764 0.520427
O O1 0.488903 0.206900 0.159419
O O2 0.681231 0.012778 0.130207
O O3 0.416790 0.016959 0.137932
O O4 0.954766 0.104236 0.947335
O O5 0.500000 0.164247 0.750000
O O6 0.150988 0.175275 0.972905
O O7 0.500000 0.689513 0.750000
O O8 0.483568 0.571828 0.668116
O O9 0.015800 0.699246 0.877191
O O10 0.500000 0.445924 0.750000
O O11 0.387325 0.360888 0.897514
O O12 0.000000 0.500000 0.000000
O O13 0.523627 0.179984 0.562425
O O14 0.000000 0.085288 0.750000
O O15 0.500000 0.000000 0.500000
#
# Coordination Sequence:
#
# PCOD9229508 Si02
#       6
#     4   4   4   4   4   4
#     4  10  21  34  59  83 120 155 198 254 314 375
#     4  10  20  30  54  92 117 150 193 249 323 379
#     4  11  19  35  58  90 130 154 187 237 323 384
#     4  11  20  36  60  98 134 158 195 243 319 394
#     4  11  26  45  62  86 121 168 219 260 305 362
#     4  11  22  38  62  88 125 165 200 258 307 378
#
# _framework density 18.643398000000001
#
# number of rings (size 3 to 8) (size 9 to 14) (size 15 to 20)
#    0.000    1.333    5.000    2.000    9.333    0.000 
#    0.000    0.000    0.000    5.000    0.000    0.000 
#    0.000    0.000    0.000    0.000    0.000    0.000 
#
# Total GULP energy -133701.188340 kJ/mol
# GULP energy per Si atom -5570.882847 kJ/mol
# Density = 1.860097 g / cm^3
# Si number density = 18.643398 Si / 1000 Ang^3
#
#
#
# Elastic Constant Matrix: (Units=GPa)
#
#
# Indices 1 2 3 4 5 6 
#
# 1 47.1649 44.5497 45.0559 0.0000 -18.0296 0.0000
# 2 44.5497 181.3799 64.2537 0.0000 -4.7861 0.0000
# 3 45.0559 64.2537 134.0674 0.0000 -17.1019 0.0000
# 4 0.0000 0.0000 0.0000 11.9788 0.0000 3.9661
# 5 -18.0296 -4.7861 -17.1019 0.0000 25.7455 0.0000
# 6 0.0000 0.0000 0.0000 3.9661 0.0000 25.0593
#
#
#
# Elastic Compliance Matrix: (Units=1/GPa)
#
#
# Indices 1 2 3 4 5 6 
#
# 1 0.046414 -0.007648 -0.008705 0.000000 0.025299 0.000000
# 2 -0.007648 0.007923 -0.001882 0.000000 -0.005133 0.000000
# 3 -0.008705 -0.001882 0.011433 0.000000 0.001148 0.000000
# 4 0.000000 0.000000 0.000000 0.088097 0.000000 -0.013943
# 5 0.025299 -0.005133 0.001148 0.000000 0.056367 0.000000
# 6 0.000000 0.000000 0.000000 -0.013943 0.000000 0.042112
#
#
# Mechanical properties :
#
#
# Convention : Reuss Voigt Hill
#
# Bulk Modulus (GPa) = 34.13131 74.48119 54.30625
# Shear Modulus (GPa) = 16.74575 26.47357 21.60966
#
# Velocity S-wave (km/s) = 3.00027 3.77237 3.40826
# Velocity P-wave (km/s) = 5.50903 7.68190 6.68434
#
# Compressibility (1/GPa) = 0.02929861
#
# Stress axis : x y z
#
# Youngs Moduli (GPa) = 21.54533 126.21529 87.46761
#
# Poissons Ratio (x) = 0.96535 0.76144
# Poissons Ratio (y) = 0.16479 0.16458
# Poissons Ratio (z) = 0.18756 0.23748
#
# Static dielectric constant tensor:
#      x y z
#    x 1.651780 0.000000 0.016630 
#    y 0.000000 1.670750 0.000000 
#    z 0.016630 0.000000 1.787830 
# 
# From -- ./inp_files/85183.got.cif
#   From: 2010.05.17/outbox.cif.g08.bks.cpg/sg13_43_cif.got.tgz:85183.got - 2010.06.03 16:44:36.
