data_PCOD9229816
_publ_section_title
;
Structure prediction by ZEFSAII (Michael W. Deem and Ramdas Pophale) SiO2 
 PCOD9229816
Probable space group: P 2/C
;
_chemical_formula_sum "Si O2"
_cell_formula_units_Z 22
_cell_length_a 20.347155
_cell_length_b 8.693484
_cell_length_c 10.151089
_cell_angle_alpha 90.000000
_cell_angle_beta 34.913804
_cell_angle_gamma 90.000000
_cell_volume 1027.701302
_symmetry_space_group_name_H-M "P 2/C"
_symmetry_group_IT_number 13
_symmetry_cell_setting 'monoclinic'
loop_
_space_group_symop_operation_xyz
x,y,z
-x,y,1/2-z
-x,-y,-z
x,-y,1/2+z
loop_
_atom_site_type_symbol
_atom_site_label
_atom_site_fract_x
_atom_site_fract_y
_atom_site_fract_z
Si Si1 0.867957 0.384743 0.476827
Si Si2 0.876334 0.978577 0.903931
Si Si3 0.462520 0.096594 0.681883
Si Si4 0.756479 0.468358 0.396030
Si Si5 0.211883 0.122898 0.203505
Si Si6 0.500000 0.608976 0.250000
O O1 0.867707 0.203768 0.445025
O O2 0.789319 0.469935 0.496194
O O3 0.818111 0.407431 0.704088
O O4 0.000000 0.438348 0.250000
O O5 0.864883 0.985690 0.764724
O O6 0.000000 0.035896 0.750000
O O7 0.786784 0.060746 0.149922
O O8 0.500000 0.005678 0.750000
O O9 0.520266 0.265575 0.598877
O O10 0.500000 0.000000 0.500000
O O11 0.329127 0.120169 0.925794
O O12 0.810884 0.305104 0.256530
O O13 0.619351 0.472317 0.590148
#
# Coordination Sequence:
#
# PCOD9229816 Si02
#       6
#     4   4   4   4   4   2
#     4  10  22  39  60  83 114 155 198 240 289 340
#     4  10  21  36  54  83 115 143 183 236 284 337
#     4   9  17  32  54  79 110 145 180 226 278 338
#     4  10  21  39  59  81 118 152 193 241 282 353
#     4  10  20  34  57  81 111 144 182 233 284 332
#     4   8  20  36  58  82 118 152 186 236 298 328
#
# _framework density 21.406997
#
# number of rings (size 3 to 8) (size 9 to 14) (size 15 to 20)
#    0.545    1.818    0.000    2.182    0.000    2.909 
#    0.000    0.000    2.000    0.000    0.000    0.000 
#    0.000    0.000    0.000    0.000    0.000    0.000 
#
# Total GULP energy -122480.041527 kJ/mol
# GULP energy per Si atom -5567.274615 kJ/mol
# Density = 2.135827 g / cm^3
# Si number density = 21.406997 Si / 1000 Ang^3
#
#
#
# Elastic Constant Matrix: (Units=GPa)
#
#
# Indices 1 2 3 4 5 6 
#
# 1 66.8223 -4.0781 -4.1728 0.0000 -10.3407 0.0000
# 2 -4.0781 9.3117 8.8497 0.0000 2.4650 0.0000
# 3 -4.1728 8.8497 46.0930 0.0000 2.8706 0.0000
# 4 0.0000 0.0000 0.0000 6.6722 0.0000 5.7422
# 5 -10.3407 2.4650 2.8706 0.0000 37.5852 0.0000
# 6 0.0000 0.0000 0.0000 5.7422 0.0000 9.3767
#
#
#
# Elastic Compliance Matrix: (Units=1/GPa)
#
#
# Indices 1 2 3 4 5 6 
#
# 1 0.015946 0.005859 0.000070 0.000000 0.003997 0.000000
# 2 0.005859 0.135226 -0.025100 0.000000 -0.005340 0.000000
# 3 0.000070 -0.025100 0.026543 0.000000 -0.000362 0.000000
# 4 0.000000 0.000000 0.000000 0.316892 0.000000 -0.194063
# 5 0.003997 -0.005340 -0.000362 0.000000 0.028084 0.000000
# 6 0.000000 0.000000 0.000000 -0.194063 0.000000 0.225490
#
#
# Mechanical properties :
#
#
# Convention : Reuss Voigt Hill
#
# Bulk Modulus (GPa) = 7.17503 13.71384 10.44444
# Shear Modulus (GPa) = 6.00254 18.83536 12.41895
#
# Velocity S-wave (km/s) = 1.67633 2.96948 2.41121
# Velocity P-wave (km/s) = 2.66567 4.26347 3.55549
#
# Compressibility (1/GPa) = 0.13937230
#
# Stress axis : x y z
#
# Youngs Moduli (GPa) = 62.71332 7.39503 37.67445
#
# Poissons Ratio (x) = -0.04333 -0.00263
# Poissons Ratio (y) = -0.36744 0.94562
# Poissons Ratio (z) = -0.00437 0.18561
#
# Static dielectric constant tensor:
#      x y z
#    x 2.039780 0.000000 -0.203280 
#    y 0.000000 1.785040 0.000000 
#    z -0.203280 0.000000 1.979290 
# 
# From -- ./inp_files/22666.got.cif
#   From: 2010.05.17/outbox.cif.g08.bks.cpg/sg13_12_cif.got.tgz:22666.got - 2010.06.03 16:44:36.
