data_PCOD9229083
_publ_section_title
;
Structure prediction by ZEFSAII (Michael W. Deem and Ramdas Pophale) SiO2 
 PCOD9229083
Probable space group: P 2/C
;
_chemical_formula_sum "Si O2"
_cell_formula_units_Z 32
_cell_length_a 18.628763
_cell_length_b 14.442318
_cell_length_c 13.696987
_cell_angle_alpha 90.000000
_cell_angle_beta 157.110415
_cell_angle_gamma 90.000000
_cell_volume 1433.332643
_symmetry_space_group_name_H-M "P 2/C"
_symmetry_group_IT_number 13
_symmetry_cell_setting 'monoclinic'
loop_
_space_group_symop_operation_xyz
x,y,z
-x,y,1/2-z
-x,-y,-z
x,-y,1/2+z
loop_
_atom_site_type_symbol
_atom_site_label
_atom_site_fract_x
_atom_site_fract_y
_atom_site_fract_z
Si Si1 0.751558 0.310050 0.231911
Si Si2 0.886259 0.641716 0.197510
Si Si3 0.778968 0.821406 0.453941
Si Si4 0.817328 0.943124 0.320417
Si Si5 0.238592 0.111274 0.359188
Si Si6 0.691694 0.201774 0.524041
Si Si7 0.222056 0.504966 0.294412
Si Si8 0.385763 0.669378 0.384818
O O1 0.752377 0.211178 0.181297
O O2 0.711129 0.400011 0.114644
O O3 0.956917 0.325704 0.529748
O O4 0.600145 0.322010 0.126743
O O5 0.775885 0.736334 0.043804
O O6 0.756820 0.563616 0.080468
O O7 0.000000 0.604858 0.250000
O O8 0.732515 0.890499 0.306963
O O9 0.694119 0.864076 0.447001
O O10 0.712426 0.721465 0.329761
O O11 0.000000 0.813945 0.750000
O O12 0.814191 0.878004 0.220957
O O13 0.035048 0.936813 0.620370
O O14 0.702695 0.034281 0.146905
O O15 0.659009 0.271785 0.573755
O O16 0.500000 0.160512 0.250000
O O17 0.314014 0.566470 0.323130
O O18 0.000000 0.500000 0.000000
#
# Coordination Sequence:
#
# PCOD9229083 Si02
#       8
#     4   4   4   4   4   4   4   4
#     4  11  21  39  60  89 123 163 202 260 315 374
#     4  10  20  38  59  90 119 156 205 253 313 376
#     4   9  20  38  65  88 119 169 207 250 318 375
#     4   9  19  40  60  91 122 164 213 265 311 373
#     4  10  20  39  64  88 128 164 212 261 318 381
#     4  10  19  37  61  88 119 164 202 255 312 368
#     4   9  21  38  63  86 121 162 202 254 315 371
#     4  10  21  39  62  89 127 157 205 258 310 375
#
# _framework density 22.325593000000001
#
# number of rings (size 3 to 8) (size 9 to 14) (size 15 to 20)
#    0.000    2.250    1.250    1.125    5.250    0.500 
#   11.250    1.250    8.250    0.000    0.000    0.000 
#    0.000    0.000    0.000    0.000    0.000    0.000 
#
# Total GULP energy -178163.295187 kJ/mol
# GULP energy per Si atom -5567.602975 kJ/mol
# Density = 2.227478 g / cm^3
# Si number density = 22.325593 Si / 1000 Ang^3
#
#
#
# Elastic Constant Matrix: (Units=GPa)
#
#
# Indices 1 2 3 4 5 6 
#
# 1 83.1117 51.1476 9.6417 0.0000 5.0719 0.0000
# 2 51.1476 162.2131 4.6353 0.0000 -5.7320 0.0000
# 3 9.6417 4.6353 36.8402 0.0000 1.4992 0.0000
# 4 0.0000 0.0000 0.0000 3.4601 0.0000 10.4751
# 5 5.0719 -5.7320 1.4992 0.0000 30.9925 0.0000
# 6 0.0000 0.0000 0.0000 10.4751 0.0000 15.7611
#
#
#
# Elastic Compliance Matrix: (Units=1/GPa)
#
#
# Indices 1 2 3 4 5 6 
#
# 1 0.015678 -0.004965 -0.003343 0.000000 -0.003322 0.000000
# 2 -0.004965 0.007803 0.000226 0.000000 0.002245 0.000000
# 3 -0.003343 0.000226 0.028022 0.000000 -0.000767 0.000000
# 4 0.000000 0.000000 0.000000 -0.285564 0.000000 0.189790
# 5 -0.003322 0.002245 -0.000767 0.000000 0.033262 0.000000
# 6 0.000000 0.000000 0.000000 0.189790 0.000000 -0.062690
#
#
# Mechanical properties :
#
#
# Convention : Reuss Voigt Hill
#
# Bulk Modulus (GPa) = 28.29748 45.89045 37.09397
# Shear Modulus (GPa) = -21.22744 24.49210 1.63233
#
# Velocity S-wave (km/s) = -3.08687 3.31575 0.85600
# Velocity P-wave (km/s) = 0.05087 5.93790 4.19858
#
# Compressibility (1/GPa) = 0.03533883
#
# Stress axis : x y z
#
# Youngs Moduli (GPa) = 63.78212 128.15185 35.68625
#
# Poissons Ratio (x) = 0.63633 0.11931
# Poissons Ratio (y) = 0.31671 -0.00808
# Poissons Ratio (z) = 0.21324 -0.02901
#
# Static dielectric constant tensor:
#      x y z
#    x 1.908820 0.000000 0.042080 
#    y 0.000000 1.900200 0.000000 
#    z 0.042080 0.000000 1.927560 
# 
# From -- ./inp_files/57870.got.cif
#   From: 2010.05.17/outbox.cif.g08.bks.cpg/sg13_29_cif.got.tgz:57870.got - 2010.06.03 16:44:36.
