data_PCOD9229323
_publ_section_title
;
Structure prediction by ZEFSAII (Michael W. Deem and Ramdas Pophale) SiO2 
 PCOD9229323
Probable space group: P 2/C
;
_chemical_formula_sum "Si O2"
_cell_formula_units_Z 26
_cell_length_a 7.679886
_cell_length_b 11.034877
_cell_length_c 17.415900
_cell_angle_alpha 90.000000
_cell_angle_beta 128.742169
_cell_angle_gamma 90.000000
_cell_volume 1151.187606
_symmetry_space_group_name_H-M "P 2/C"
_symmetry_group_IT_number 13
_symmetry_cell_setting 'monoclinic'
loop_
_space_group_symop_operation_xyz
x,y,z
-x,y,1/2-z
-x,-y,-z
x,-y,1/2+z
loop_
_atom_site_type_symbol
_atom_site_label
_atom_site_fract_x
_atom_site_fract_y
_atom_site_fract_z
Si Si1 0.000000 0.486466 0.250000
Si Si2 0.119272 0.891526 0.159340
Si Si3 0.306892 0.823328 0.041710
Si Si4 0.363668 0.902316 0.535389
Si Si5 0.239138 0.744079 0.823207
Si Si6 0.818097 0.162750 0.344991
Si Si7 0.639931 0.670788 0.210379
O O1 0.171380 0.388345 0.334842
O O2 0.170756 0.570531 0.250744
O O3 0.218244 0.852882 0.103869
O O4 0.224720 0.796248 0.244971
O O5 0.195789 0.028131 0.195112
O O6 0.852723 0.885891 0.077652
O O7 0.463126 0.705839 0.094862
O O8 0.414603 0.954206 0.050484
O O9 0.076803 0.804670 0.932110
O O10 0.572744 0.814924 0.579685
O O11 0.283689 0.859620 0.598683
O O12 0.290927 0.744078 0.745354
O O13 0.000000 0.811264 0.750000
O O14 0.500000 0.646235 0.250000
#
# Coordination Sequence:
#
# PCOD9229323 Si02
#       7
#     2   4   4   4   4   4   4
#     4  10  26  42  50  80 108 146 212 236 254 318
#     4   8  16  31  59  91 110 132 174 220 284 350
#     4   8  16  31  59  91 110 132 174 220 284 350
#     4   9  16  33  59  86 111 136 171 225 282 342
#     4  10  22  37  47  71 113 145 188 224 265 316
#     4   9  16  33  59  86 111 136 171 225 282 342
#     4  10  19  39  60  78 111 149 183 232 278 322
#
# _framework density 22.585370999999999
#
# number of rings (size 3 to 8) (size 9 to 14) (size 15 to 20)
#    0.462    2.462    0.000    3.231    0.000    3.692 
#    8.308    4.615    0.000    5.538    0.000    0.000 
#    0.000    0.000    0.000    0.000    0.000    0.000 
#
# Total GULP energy -144936.046369 kJ/mol
# GULP energy per Si atom -5574.463322 kJ/mol
# Density = 2.253397 g / cm^3
# Si number density = 22.585371 Si / 1000 Ang^3
#
#
#
# Elastic Constant Matrix: (Units=GPa)
#
#
# Indices 1 2 3 4 5 6 
#
# 1 99.9420 44.8649 21.3869 0.0000 22.5042 0.0000
# 2 44.8649 100.7006 42.6082 0.0000 16.1726 0.0000
# 3 21.3869 42.6082 86.2907 0.0000 13.6798 0.0000
# 4 0.0000 0.0000 0.0000 31.9396 0.0000 14.8707
# 5 22.5042 16.1726 13.6798 0.0000 36.1319 0.0000
# 6 0.0000 0.0000 0.0000 14.8707 0.0000 21.9672
#
#
#
# Elastic Compliance Matrix: (Units=1/GPa)
#
#
# Indices 1 2 3 4 5 6 
#
# 1 0.013705 -0.005159 0.000147 0.000000 -0.006282 0.000000
# 2 -0.005159 0.014921 -0.005893 0.000000 -0.001234 0.000000
# 3 0.000147 -0.005893 0.014956 0.000000 -0.003116 0.000000
# 4 0.000000 0.000000 0.000000 0.045719 0.000000 -0.030949
# 5 -0.006282 -0.001234 -0.003116 0.000000 0.033321 0.000000
# 6 0.000000 0.000000 0.000000 -0.030949 0.000000 0.066473
#
#
# Mechanical properties :
#
#
# Convention : Reuss Voigt Hill
#
# Bulk Modulus (GPa) = 45.93328 56.07259 51.00294
# Shear Modulus (GPa) = 22.91866 29.87930 26.39898
#
# Velocity S-wave (km/s) = 3.18898 3.64118 3.42256
# Velocity P-wave (km/s) = 5.82591 6.52369 6.18465
#
# Compressibility (1/GPa) = 0.02177071
#
# Stress axis : x y z
#
# Youngs Moduli (GPa) = 72.96629 67.02150 66.86156
#
# Poissons Ratio (x) = 0.34577 -0.00980
# Poissons Ratio (y) = 0.37644 0.39402
# Poissons Ratio (z) = -0.01070 0.39497
#
# Static dielectric constant tensor:
#      x y z
#    x 2.101460 0.000000 -0.050490 
#    y 0.000000 1.790920 0.000000 
#    z -0.050490 0.000000 1.869490 
# 
# From -- ./inp_files/85152.got.cif
#   From: 2010.05.17/outbox.cif.g08.bks.cpg/sg13_43_cif.got.tgz:85152.got - 2010.06.03 16:44:36.
