data_PCOD9229666
_publ_section_title
;
Structure prediction by ZEFSAII (Michael W. Deem and Ramdas Pophale) SiO2 
 PCOD9229666
Probable space group: P 2/C
;
_chemical_formula_sum "Si O2"
_cell_formula_units_Z 24
_cell_length_a 11.290311
_cell_length_b 6.946872
_cell_length_c 17.318321
_cell_angle_alpha 90.000000
_cell_angle_beta 115.566989
_cell_angle_gamma 90.000000
_cell_volume 1225.311976
_symmetry_space_group_name_H-M "P 2/C"
_symmetry_group_IT_number 13
_symmetry_cell_setting 'monoclinic'
loop_
_space_group_symop_operation_xyz
x,y,z
-x,y,1/2-z
-x,-y,-z
x,-y,1/2+z
loop_
_atom_site_type_symbol
_atom_site_label
_atom_site_fract_x
_atom_site_fract_y
_atom_site_fract_z
Si Si1 0.978143 0.799438 0.535026
Si Si2 0.252149 0.163326 0.412634
Si Si3 0.189193 0.516175 0.121907
Si Si4 0.585755 0.444437 0.928632
Si Si5 0.658653 0.269615 0.576734
Si Si6 0.154504 0.480845 0.286861
O O1 0.890091 0.840296 0.585870
O O2 0.895517 0.664024 0.453554
O O3 0.113076 0.687401 0.590963
O O4 0.000000 0.000000 0.500000
O O5 0.338665 0.289138 0.496194
O O6 0.231145 0.284151 0.328620
O O7 0.317980 0.956657 0.419288
O O8 0.334390 0.524296 0.126974
O O9 0.185381 0.560069 0.211081
O O10 0.439965 0.357800 0.886582
O O11 0.598875 0.643053 0.980869
O O12 0.797483 0.370738 0.633793
O O13 0.000000 0.450413 0.250000
#
# Coordination Sequence:
#
# PCOD9229666 Si02
#       6
#     4   4   4   4   4   4
#     4  10  20  33  57  84 110 153 195 239 293 341
#     4  10  20  36  58  86 117 148 196 246 289 352
#     4  10  21  37  54  80 121 148 190 246 285 351
#     4   9  20  39  60  84 111 149 201 244 288 348
#     4  10  21  37  62  85 111 155 194 241 299 348
#     4  11  23  37  54  86 122 155 192 238 296 356
#
# _framework density 19.586849999999998
#
# number of rings (size 3 to 8) (size 9 to 14) (size 15 to 20)
#    0.000    2.000    1.667    1.500    4.667    2.667 
#    0.000    0.000    0.000    6.000    0.000    0.000 
#    0.000    0.000    0.000    0.000    0.000    0.000 
#
# Total GULP energy -133885.953098 kJ/mol
# GULP energy per Si atom -5578.581379 kJ/mol
# Density = 1.954227 g / cm^3
# Si number density = 19.586850 Si / 1000 Ang^3
#
#
#
# Elastic Constant Matrix: (Units=GPa)
#
#
# Indices 1 2 3 4 5 6 
#
# 1 91.3929 32.3955 15.6960 0.0000 -6.4023 0.0000
# 2 32.3955 73.6578 0.5143 0.0000 6.7815 0.0000
# 3 15.6960 0.5143 44.4494 0.0000 -2.9913 0.0000
# 4 0.0000 0.0000 0.0000 11.3391 0.0000 0.4409
# 5 -6.4023 6.7815 -2.9913 0.0000 32.4119 0.0000
# 6 0.0000 0.0000 0.0000 0.4409 0.0000 26.0534
#
#
#
# Elastic Compliance Matrix: (Units=1/GPa)
#
#
# Indices 1 2 3 4 5 6 
#
# 1 0.014375 -0.006638 -0.004744 0.000000 0.003791 0.000000
# 2 -0.006638 0.016914 0.001833 0.000000 -0.004681 0.000000
# 3 -0.004744 0.001833 0.024213 0.000000 0.000914 0.000000
# 4 0.000000 0.000000 0.000000 0.088249 0.000000 -0.001493
# 5 0.003791 -0.004681 0.000914 0.000000 0.032665 0.000000
# 6 0.000000 0.000000 0.000000 -0.001493 0.000000 0.038408
#
#
# Mechanical properties :
#
#
# Convention : Reuss Voigt Hill
#
# Bulk Modulus (GPa) = 27.46948 34.07909 30.77428
# Shear Modulus (GPa) = 20.32049 24.68716 22.50383
#
# Velocity S-wave (km/s) = 3.22445 3.55405 3.39326
# Velocity P-wave (km/s) = 5.28372 5.85478 5.57656
#
# Compressibility (1/GPa) = 0.03640404
#
# Stress axis : x y z
#
# Youngs Moduli (GPa) = 69.56474 59.12257 41.29999
#
# Poissons Ratio (x) = 0.39247 0.19594
# Poissons Ratio (y) = 0.46178 -0.07572
# Poissons Ratio (z) = 0.33003 -0.10839
#
# Static dielectric constant tensor:
#      x y z
#    x 1.763350 0.000000 0.011360 
#    y 0.000000 1.669890 0.000000 
#    z 0.011360 0.000000 1.677560 
# 
# From -- ./inp_files/77305.got.cif
#   From: 2010.05.17/outbox.cif.g08.bks.cpg/sg13_39_cif.got.tgz:77305.got - 2010.06.03 16:44:36.
