data_PCOD9229966
_publ_section_title
;
Structure prediction by ZEFSAII (Michael W. Deem and Ramdas Pophale) SiO2 
 PCOD9229966
Probable space group: P 2/C
;
_chemical_formula_sum "Si O2"
_cell_formula_units_Z 28
_cell_length_a 9.541061
_cell_length_b 28.973582
_cell_length_c 5.309930
_cell_angle_alpha 90.000000
_cell_angle_beta 63.775979
_cell_angle_gamma 90.000000
_cell_volume 1316.787020
_symmetry_space_group_name_H-M "P 2/C"
_symmetry_group_IT_number 13
_symmetry_cell_setting 'monoclinic'
loop_
_space_group_symop_operation_xyz
x,y,z
-x,y,1/2-z
-x,-y,-z
x,-y,1/2+z
loop_
_atom_site_type_symbol
_atom_site_label
_atom_site_fract_x
_atom_site_fract_y
_atom_site_fract_z
Si Si1 0.081157 0.679104 0.435243
Si Si2 0.682543 0.528032 0.600605
Si Si3 0.808878 0.972961 0.895730
Si Si4 0.190193 0.187955 0.595690
Si Si5 0.811028 0.867540 0.904112
Si Si6 0.602613 0.723338 0.420701
Si Si7 0.948588 0.575827 0.538927
O O1 0.265217 0.686359 0.268180
O O2 0.000000 0.698488 0.250000
O O3 0.034277 0.625045 0.474023
O O4 0.000000 0.699595 0.750000
O O5 0.500000 0.536141 0.750000
O O6 0.717173 0.510023 0.290793
O O7 0.765213 0.574497 0.638714
O O8 0.755485 0.920032 0.916855
O O9 0.000000 0.972339 0.750000
O O10 0.759977 0.002815 0.693657
O O11 0.233959 0.165684 0.291768
O O12 0.291466 0.233122 0.576289
O O13 0.000000 0.195050 0.750000
O O14 0.229355 0.152914 0.791912
O O15 0.000000 0.869166 0.750000
O O16 0.500000 0.732709 0.250000
O O17 0.500000 0.710512 0.750000
O O18 0.000000 0.552442 0.750000
O O19 0.000000 0.549885 0.250000
#
# Coordination Sequence:
#
# PCOD9229966 Si02
#       7
#     4   4   4   4   4   4   4
#     4  10  22  43  66  90 122 161 206 248 298 368
#     4  10  21  37  59  90 127 163 201 251 308 356
#     4   9  15  23  38  64 104 148 184 227 285 346
#     4  10  20  35  56  80 112 151 190 239 296 363
#     4   9  17  29  47  75 109 149 193 234 290 356
#     4  12  25  41  63  92 123 153 196 253 314 371
#     4  10  21  38  60  89 120 158 206 251 294 356
#
# _framework density 21.263881000000001
#
# number of rings (size 3 to 8) (size 9 to 14) (size 15 to 20)
#    0.000    2.000    0.000    3.857    0.000    6.857 
#    0.000    8.571    0.000    0.000    0.000    0.000 
#    0.000   40.000    0.000    0.000    0.000    0.000 
#
# Total GULP energy -156083.259435 kJ/mol
# GULP energy per Si atom -5574.402123 kJ/mol
# Density = 2.121548 g / cm^3
# Si number density = 21.263881 Si / 1000 Ang^3
#
#
#
# Elastic Constant Matrix: (Units=GPa)
#
#
# Indices 1 2 3 4 5 6 
#
# 1 136.7900 51.8255 63.1998 0.0000 21.3163 0.0000
# 2 51.8255 102.8763 22.1386 0.0000 3.2674 0.0000
# 3 63.1998 22.1386 140.0300 0.0000 35.9969 0.0000
# 4 0.0000 0.0000 0.0000 3.8058 0.0000 -1.6485
# 5 21.3163 3.2674 35.9969 0.0000 40.8093 0.0000
# 6 0.0000 0.0000 0.0000 -1.6485 0.0000 5.8214
#
#
#
# Elastic Compliance Matrix: (Units=1/GPa)
#
#
# Indices 1 2 3 4 5 6 
#
# 1 0.011176 -0.004757 -0.003736 0.000000 -0.002161 0.000000
# 2 -0.004757 0.012107 -0.000202 0.000000 0.001694 0.000000
# 3 -0.003736 -0.000202 0.010804 0.000000 -0.007562 0.000000
# 4 0.000000 0.000000 0.000000 0.299494 0.000000 0.084813
# 5 -0.002161 0.001694 -0.007562 0.000000 0.032167 0.000000
# 6 0.000000 0.000000 0.000000 0.084813 0.000000 0.195799
#
#
# Mechanical properties :
#
#
# Convention : Reuss Voigt Hill
#
# Bulk Modulus (GPa) = 59.90245 72.66935 66.28590
# Shear Modulus (GPa) = 8.55427 26.25612 17.40519
#
# Velocity S-wave (km/s) = 2.00790 3.51775 2.86411
# Velocity P-wave (km/s) = 5.79721 7.12381 6.49447
#
# Compressibility (1/GPa) = 0.01669381
#
# Stress axis : x y z
#
# Youngs Moduli (GPa) = 89.47804 82.59852 92.56245
#
# Poissons Ratio (x) = 0.39295 0.34585
# Poissons Ratio (y) = 0.42568 0.01874
# Poissons Ratio (z) = 0.33432 0.01672
#
# Static dielectric constant tensor:
#      x y z
#    x 1.861180 0.000000 -0.045620 
#    y 0.000000 1.789600 0.000000 
#    z -0.045620 0.000000 1.794880 
# 
# From -- ./inp_files/2670.got.cif
#   From: 2010.05.17/outbox.cif.g08.bks.cpg/sg13_2_cif.got.tgz:2670.got - 2010.06.03 16:44:36.
