data_PCOD9229769
_publ_section_title
;
Structure prediction by ZEFSAII (Michael W. Deem and Ramdas Pophale) SiO2 
 PCOD9229769
Probable space group: P 2/C
;
_chemical_formula_sum "Si O2"
_cell_formula_units_Z 32
_cell_length_a 8.227764
_cell_length_b 16.276622
_cell_length_c 19.321730
_cell_angle_alpha 90.000000
_cell_angle_beta 42.310869
_cell_angle_gamma 90.000000
_cell_volume 1741.830037
_symmetry_space_group_name_H-M "P 2/C"
_symmetry_group_IT_number 13
_symmetry_cell_setting 'monoclinic'
loop_
_space_group_symop_operation_xyz
x,y,z
-x,y,1/2-z
-x,-y,-z
x,-y,1/2+z
loop_
_atom_site_type_symbol
_atom_site_label
_atom_site_fract_x
_atom_site_fract_y
_atom_site_fract_z
Si Si1 0.597152 0.613424 0.519769
Si Si2 0.324372 0.353394 0.244303
Si Si3 0.785950 0.948863 0.372616
Si Si4 0.899897 0.469065 0.361027
Si Si5 0.575546 0.204391 0.010970
Si Si6 0.887769 0.950536 0.630782
Si Si7 0.462255 0.057869 0.377654
Si Si8 0.977218 0.199913 0.332796
O O1 0.502206 0.613270 0.628652
O O2 0.802015 0.550397 0.429813
O O3 0.342653 0.587456 0.563249
O O4 0.689280 0.706090 0.478990
O O5 0.500000 0.327548 0.250000
O O6 0.124863 0.422450 0.325403
O O7 0.161114 0.275859 0.272018
O O8 0.690050 0.859034 0.421221
O O9 0.000000 0.943277 0.250000
O O10 0.575776 0.004444 0.404545
O O11 0.910799 0.988973 0.401261
O O12 0.000000 0.481856 0.250000
O O13 0.571765 0.150350 0.082803
O O14 0.300505 0.223600 0.077763
O O15 0.773416 0.966991 0.592088
O O16 0.669092 0.950124 0.754791
O O17 0.981418 0.858194 0.614539
O O18 0.000000 0.154725 0.250000
#
# Coordination Sequence:
#
# PCOD9229769 Si02
#       8
#     4   4   4   4   4   4   4   4
#     4  10  20  36  60  86 111 150 191 235 285 345
#     4  11  22  35  58  90 124 149 180 237 299 352
#     4  10  22  40  53  76 113 157 200 244 282 337
#     4   9  19  39  61  84 113 148 191 231 282 347
#     4  12  21  35  58  84 113 146 192 243 288 338
#     4  10  20  34  55  79 114 151 192 237 291 343
#     4  10  20  34  55  81 109 152 193 241 291 336
#     4  12  19  34  56  84 119 142 183 244 291 336
#
# _framework density 18.371480999999999
#
# number of rings (size 3 to 8) (size 9 to 14) (size 15 to 20)
#    0.000    1.500    5.000    1.125    3.500    1.500 
#    0.000    0.000    0.000    0.000    6.500    0.000 
#    0.000    0.000    0.000    0.000    0.000    0.000 
#
# Total GULP energy -178268.950953 kJ/mol
# GULP energy per Si atom -5570.904717 kJ/mol
# Density = 1.832967 g / cm^3
# Si number density = 18.371481 Si / 1000 Ang^3
#
#
#
# Elastic Constant Matrix: (Units=GPa)
#
#
# Indices 1 2 3 4 5 6 
#
# 1 122.7465 40.7279 34.0871 0.0000 -1.0282 0.0000
# 2 40.7279 126.4648 47.4065 0.0000 -6.9680 0.0000
# 3 34.0871 47.4065 70.0697 0.0000 -7.9208 0.0000
# 4 0.0000 0.0000 0.0000 22.8501 0.0000 1.4683
# 5 -1.0282 -6.9680 -7.9208 0.0000 23.3306 0.0000
# 6 0.0000 0.0000 0.0000 1.4683 0.0000 12.2903
#
#
#
# Elastic Compliance Matrix: (Units=1/GPa)
#
#
# Indices 1 2 3 4 5 6 
#
# 1 0.009764 -0.001851 -0.003652 0.000000 -0.001362 0.000000
# 2 -0.001851 0.010958 -0.006398 0.000000 0.001019 0.000000
# 3 -0.003652 -0.006398 0.020946 0.000000 0.005039 0.000000
# 4 0.000000 0.000000 0.000000 0.044102 0.000000 -0.005269
# 5 -0.001362 0.001019 0.005039 0.000000 0.044817 0.000000
# 6 0.000000 0.000000 0.000000 -0.005269 0.000000 0.081994
#
#
# Mechanical properties :
#
#
# Convention : Reuss Voigt Hill
#
# Bulk Modulus (GPa) = 55.96940 62.63599 59.30270
# Shear Modulus (GPa) = 20.63232 24.83152 22.73192
#
# Velocity S-wave (km/s) = 3.35485 3.68045 3.52141
# Velocity P-wave (km/s) = 6.74820 7.22697 6.99168
#
# Compressibility (1/GPa) = 0.01786691
#
# Stress axis : x y z
#
# Youngs Moduli (GPa) = 102.42160 91.25836 47.74078
#
# Poissons Ratio (x) = 0.16888 0.17433
# Poissons Ratio (y) = 0.18953 0.30546
# Poissons Ratio (z) = 0.37401 0.58390
#
# Static dielectric constant tensor:
#      x y z
#    x 1.696780 0.000000 0.010500 
#    y 0.000000 1.655330 0.000000 
#    z 0.010500 0.000000 1.664280 
# 
# From -- ./inp_files/76613.got.cif
#   From: 2010.05.17/outbox.cif.g08.bks.cpg/sg13_39_cif.got.tgz:76613.got - 2010.06.03 16:44:36.
