data_PCOD9229336
_publ_section_title
;
Structure prediction by ZEFSAII (Michael W. Deem and Ramdas Pophale) SiO2 
 PCOD9229336
Probable space group: P 2/C
;
_chemical_formula_sum "Si O2"
_cell_formula_units_Z 32
_cell_length_a 27.308312
_cell_length_b 9.537241
_cell_length_c 20.474207
_cell_angle_alpha 90.000000
_cell_angle_beta 18.583688
_cell_angle_gamma 90.000000
_cell_volume 1699.387482
_symmetry_space_group_name_H-M "P 2/C"
_symmetry_group_IT_number 13
_symmetry_cell_setting 'monoclinic'
loop_
_space_group_symop_operation_xyz
x,y,z
-x,y,1/2-z
-x,-y,-z
x,-y,1/2+z
loop_
_atom_site_type_symbol
_atom_site_label
_atom_site_fract_x
_atom_site_fract_y
_atom_site_fract_z
Si Si1 0.874367 0.227901 0.509363
Si Si2 0.180994 0.954658 0.007480
Si Si3 0.821799 0.635041 0.495236
Si Si4 0.190519 0.394946 0.093394
Si Si5 0.163724 0.572033 0.781625
Si Si6 0.330651 0.894255 0.438204
Si Si7 0.324149 0.476151 0.704655
Si Si8 0.922884 0.870322 0.632316
O O1 0.728033 0.323871 0.705193
O O2 0.020905 0.320190 0.295454
O O3 0.942476 0.192442 0.493547
O O4 0.825420 0.084541 0.535580
O O5 0.237227 0.795319 0.925521
O O6 0.000000 0.940833 0.250000
O O7 0.275877 0.008248 0.949227
O O8 0.767536 0.520178 0.509274
O O9 0.785489 0.573685 0.612195
O O10 0.000000 0.642573 0.250000
O O11 0.195141 0.440342 0.163998
O O12 0.307637 0.264925 0.941524
O O13 0.284106 0.504382 0.679610
O O14 0.145128 0.738180 0.820934
O O15 0.000000 0.500000 0.000000
O O16 0.500000 0.917933 0.250000
O O17 0.210831 0.914788 0.648805
O O18 0.500000 0.500000 0.500000
O O19 0.000000 0.000000 0.500000
#
# Coordination Sequence:
#
# PCOD9229336 Si02
#       8
#     4   4   4   4   4   4   4   4
#     4  10  20  40  62  91 119 167 207 250 310 385
#     4  11  21  38  66  94 123 163 211 260 312 383
#     4  11  23  38  66  98 124 161 215 269 311 373
#     4  10  20  38  68  91 118 168 218 254 308 376
#     4  10  19  39  62  89 123 163 211 257 310 367
#     4  10  22  40  61  91 124 162 211 260 318 367
#     4  12  25  41  62  97 131 165 207 271 323 369
#     4  10  22  36  63  91 116 170 210 249 309 384
#
# _framework density 18.830314000000001
#
# number of rings (size 3 to 8) (size 9 to 14) (size 15 to 20)
#    0.000    1.750    6.250    0.750    1.750    5.000 
#    2.250    1.250    0.000    0.000    0.000    0.000 
#    0.000    0.000    0.000    0.000    0.000    0.000 
#
# Total GULP energy -178201.401840 kJ/mol
# GULP energy per Si atom -5568.793807 kJ/mol
# Density = 1.878746 g / cm^3
# Si number density = 18.830314 Si / 1000 Ang^3
#
#
#
# Elastic Constant Matrix: (Units=GPa)
#
#
# Indices 1 2 3 4 5 6 
#
# 1 77.8119 32.2958 7.3369 0.0000 -7.2918 0.0000
# 2 32.2958 110.9589 1.4012 0.0000 9.4066 0.0000
# 3 7.3369 1.4012 33.8120 0.0000 -19.5972 0.0000
# 4 0.0000 0.0000 0.0000 17.1542 0.0000 3.7347
# 5 -7.2918 9.4066 -19.5972 0.0000 30.2053 0.0000
# 6 0.0000 0.0000 0.0000 3.7347 0.0000 25.6493
#
#
#
# Elastic Compliance Matrix: (Units=1/GPa)
#
#
# Indices 1 2 3 4 5 6 
#
# 1 0.015387 -0.004913 -0.000153 0.000000 0.005145 0.000000
# 2 -0.004913 0.011060 -0.003327 0.000000 -0.006789 0.000000
# 3 -0.000153 -0.003327 0.048601 0.000000 0.032532 0.000000
# 4 0.000000 0.000000 0.000000 0.060203 0.000000 -0.008766
# 5 0.005145 -0.006789 0.032532 0.000000 0.057570 0.000000
# 6 0.000000 0.000000 0.000000 -0.008766 0.000000 0.040264
#
#
# Mechanical properties :
#
#
# Convention : Reuss Voigt Hill
#
# Bulk Modulus (GPa) = 17.16375 33.85008 25.50692
# Shear Modulus (GPa) = 18.56719 26.70501 22.63610
#
# Velocity S-wave (km/s) = 3.14351 3.76997 3.47091
# Velocity P-wave (km/s) = 4.72338 6.07994 5.44408
#
# Compressibility (1/GPa) = 0.05826231
#
# Stress axis : x y z
#
# Youngs Moduli (GPa) = 64.98907 90.41725 20.57550
#
# Poissons Ratio (x) = 0.44421 0.00315
# Poissons Ratio (y) = 0.31928 0.06846
# Poissons Ratio (z) = 0.00996 0.30082
#
# Static dielectric constant tensor:
#      x y z
#    x 1.657240 0.000000 0.014480 
#    y 0.000000 1.656800 0.000000 
#    z 0.014480 0.000000 1.633960 
# 
# From -- ./inp_files/82504.got.cif
#   From: 2010.05.17/outbox.cif.g08.bks.cpg/sg13_42_cif.got.tgz:82504.got - 2010.06.03 16:44:36.
