data_PCOD9229523
_publ_section_title
;
Structure prediction by ZEFSAII (Michael W. Deem and Ramdas Pophale) SiO2 
 PCOD9229523
Probable space group: P 2/C
;
_chemical_formula_sum "Si O2"
_cell_formula_units_Z 30
_cell_length_a 9.780727
_cell_length_b 8.502751
_cell_length_c 15.244385
_cell_angle_alpha 90.000000
_cell_angle_beta 64.724542
_cell_angle_gamma 90.000000
_cell_volume 1146.400794
_symmetry_space_group_name_H-M "P 2/C"
_symmetry_group_IT_number 13
_symmetry_cell_setting 'monoclinic'
loop_
_space_group_symop_operation_xyz
x,y,z
-x,y,1/2-z
-x,-y,-z
x,-y,1/2+z
loop_
_atom_site_type_symbol
_atom_site_label
_atom_site_fract_x
_atom_site_fract_y
_atom_site_fract_z
Si Si1 0.595292 0.238933 0.335490
Si Si2 0.678297 0.446180 0.464976
Si Si3 0.141192 0.789957 0.878156
Si Si4 0.086885 0.118631 0.817572
Si Si5 0.500000 0.646232 0.250000
Si Si6 0.308902 0.240902 0.495908
Si Si7 0.819508 0.567547 0.117165
Si Si8 0.585523 0.891642 0.356236
O O1 0.690590 0.305913 0.391797
O O2 0.711539 0.225623 0.225097
O O3 0.431471 0.321240 0.393923
O O4 0.525335 0.064589 0.360936
O O5 0.500000 0.500000 0.500000
O O6 0.755759 0.615268 0.427427
O O7 0.758499 0.406322 0.534910
O O8 0.190164 0.834456 0.963650
O O9 0.096661 0.602551 0.896357
O O10 0.051173 0.943013 0.866552
O O11 0.090729 0.277735 0.875228
O O12 0.261161 0.108947 0.740515
O O13 0.000000 0.139483 0.750000
O O14 0.659621 0.558518 0.216602
O O15 0.486369 0.758550 0.338525
O O16 0.381238 0.137811 0.551795
#
# Coordination Sequence:
#
# PCOD9229523 Si02
#       8
#     4   4   4   4   2   4   4   4
#     4  10  20  31  55  85 127 164 187 233 303 382
#     4   9  19  32  51  86 125 160 192 225 308 377
#     4  10  23  37  61  90 120 160 207 250 306 367
#     4  10  24  45  64  84 117 163 225 266 299 355
#     4  10  20  32  56  88 130 150 198 234 308 394
#     4  10  20  33  55  87 127 156 192 242 303 376
#     4  10  22  36  62  91 123 165 192 254 314 371
#     4  10  22  35  58  89 119 163 197 253 308 366
#
# _framework density 26.168859000000001
#
# number of rings (size 3 to 8) (size 9 to 14) (size 15 to 20)
#    0.000    2.133    0.000    2.400   16.800    0.533 
#    0.000    0.667    0.000    1.600    0.000    0.000 
#    0.000    0.000    0.000    0.000    0.000    0.000 
#
# Total GULP energy -167039.347929 kJ/mol
# GULP energy per Si atom -5567.978264 kJ/mol
# Density = 2.610930 g / cm^3
# Si number density = 26.168859 Si / 1000 Ang^3
#
#
#
# Elastic Constant Matrix: (Units=GPa)
#
#
# Indices 1 2 3 4 5 6 
#
# 1 80.7580 56.2012 38.5166 0.0000 9.4946 0.0000
# 2 56.2012 178.2044 63.2254 0.0000 45.8555 0.0000
# 3 38.5166 63.2254 97.7463 0.0000 30.8371 0.0000
# 4 0.0000 0.0000 0.0000 31.9328 0.0000 6.8283
# 5 9.4946 45.8555 30.8371 0.0000 56.4024 0.0000
# 6 0.0000 0.0000 0.0000 6.8283 0.0000 20.8790
#
#
#
# Elastic Compliance Matrix: (Units=1/GPa)
#
#
# Indices 1 2 3 4 5 6 
#
# 1 0.017637 -0.004701 -0.005049 0.000000 0.003613 0.000000
# 2 -0.004701 0.009388 -0.002492 0.000000 -0.005479 0.000000
# 3 -0.005049 -0.002492 0.015619 0.000000 -0.005664 0.000000
# 4 0.000000 0.000000 0.000000 0.033670 0.000000 -0.011012
# 5 0.003613 -0.005479 -0.005664 0.000000 0.024672 0.000000
# 6 0.000000 0.000000 0.000000 -0.011012 0.000000 0.051496
#
#
# Mechanical properties :
#
#
# Convention : Reuss Voigt Hill
#
# Bulk Modulus (GPa) = 55.06421 74.73278 64.89849
# Shear Modulus (GPa) = 27.31950 35.09389 31.20669
#
# Velocity S-wave (km/s) = 3.23456 3.66601 3.45702
# Velocity P-wave (km/s) = 5.91924 6.82198 6.38658
#
# Compressibility (1/GPa) = 0.01816062
#
# Stress axis : x y z
#
# Youngs Moduli (GPa) = 56.69768 106.52102 64.02620
#
# Poissons Ratio (x) = 0.50073 0.32329
# Poissons Ratio (y) = 0.26652 0.15953
# Poissons Ratio (z) = 0.28628 0.26541
#
# Static dielectric constant tensor:
#      x y z
#    x 2.125850 0.000000 -0.047380 
#    y 0.000000 2.163130 0.000000 
#    z -0.047380 0.000000 2.136440 
# 
# From -- ./inp_files/50037.got.cif
#   From: 2010.05.17/outbox.cif.g08.bks.cpg/sg13_26_cif.got.tgz:50037.got - 2010.06.03 16:44:36.
