data_PCOD9229281
_publ_section_title
;
Structure prediction by ZEFSAII (Michael W. Deem and Ramdas Pophale) SiO2 
 PCOD9229281
Probable space group: P 2/C
;
_chemical_formula_sum "Si O2"
_cell_formula_units_Z 30
_cell_length_a 14.735208
_cell_length_b 15.821514
_cell_length_c 19.700012
_cell_angle_alpha 90.000000
_cell_angle_beta 162.124839
_cell_angle_gamma 90.000000
_cell_volume 1409.710786
_symmetry_space_group_name_H-M "P 2/C"
_symmetry_group_IT_number 13
_symmetry_cell_setting 'monoclinic'
loop_
_space_group_symop_operation_xyz
x,y,z
-x,y,1/2-z
-x,-y,-z
x,-y,1/2+z
loop_
_atom_site_type_symbol
_atom_site_label
_atom_site_fract_x
_atom_site_fract_y
_atom_site_fract_z
Si Si1 0.575940 0.880059 0.918477
Si Si2 0.091501 0.319250 0.388873
Si Si3 0.195573 0.607335 0.694603
Si Si4 0.298535 0.053659 0.725641
Si Si5 0.500000 0.180355 0.750000
Si Si6 0.818188 0.835299 0.227961
Si Si7 0.221696 0.256043 0.097702
Si Si8 0.551532 0.526438 0.212834
O O1 0.306848 0.836913 0.686657
O O2 0.542075 0.979731 0.901151
O O3 0.599679 0.835345 0.008785
O O4 0.872110 0.862325 0.086793
O O5 0.252214 0.243880 0.543726
O O6 0.319049 0.397582 0.540467
O O7 0.000000 0.288180 0.250000
O O8 0.823086 0.357185 0.242678
O O9 0.210972 0.683870 0.653511
O O10 0.434722 0.538506 0.839987
O O11 0.874412 0.566891 0.451673
O O12 0.369096 0.120411 0.716139
O O13 0.287999 0.100679 0.790124
O O14 0.000000 0.000000 0.500000
O O15 0.919733 0.750844 0.340076
O O16 0.500000 0.281152 0.250000
O O17 0.500000 0.483341 0.250000
#
# Coordination Sequence:
#
# PCOD9229281 Si02
#       8
#     4   4   4   4   2   4   4   4
#     4  10  22  39  56  85 115 149 196 252 298 363
#     4  11  24  43  64  92 130 166 210 259 315 376
#     4  10  19  38  65  92 121 165 200 249 308 367
#     4  12  23  39  63  83 115 159 205 252 308 368
#     4  12  26  46  60  90 128 164 216 264 316 376
#     4  10  21  38  58  80 116 152 188 249 304 352
#     4  10  20  36  60  84 117 152 195 243 304 360
#     4   9  19  38  66  92 125 160 204 249 304 373
#
# _framework density 21.28096
#
# number of rings (size 3 to 8) (size 9 to 14) (size 15 to 20)
#    0.000    1.600    3.333    2.400    0.933    1.600 
#    4.800    0.000    5.867    0.000    0.000    0.000 
#    0.000    0.000    0.000    0.000    0.000    0.000 
#
# Total GULP energy -167472.743951 kJ/mol
# GULP energy per Si atom -5582.424798 kJ/mol
# Density = 2.123252 g / cm^3
# Si number density = 21.280960 Si / 1000 Ang^3
#
#
#
# Elastic Constant Matrix: (Units=GPa)
#
#
# Indices 1 2 3 4 5 6 
#
# 1 146.4299 45.9397 20.5401 0.0000 -7.8067 0.0000
# 2 45.9397 90.7617 10.1077 0.0000 5.1455 0.0000
# 3 20.5401 10.1077 29.5857 0.0000 -12.7247 0.0000
# 4 0.0000 0.0000 0.0000 27.8109 0.0000 5.8456
# 5 -7.8067 5.1455 -12.7247 0.0000 34.6380 0.0000
# 6 0.0000 0.0000 0.0000 5.8456 0.0000 36.9780
#
#
#
# Elastic Compliance Matrix: (Units=1/GPa)
#
#
# Indices 1 2 3 4 5 6 
#
# 1 0.008737 -0.004003 -0.004270 0.000000 0.000995 0.000000
# 2 -0.004003 0.013708 -0.003762 0.000000 -0.004321 0.000000
# 3 -0.004270 -0.003762 0.044984 0.000000 0.016122 0.000000
# 4 0.000000 0.000000 0.000000 0.037193 0.000000 -0.005880
# 5 0.000995 -0.004321 0.016122 0.000000 0.035659 0.000000
# 6 0.000000 0.000000 0.000000 -0.005880 0.000000 0.027973
#
#
# Mechanical properties :
#
#
# Convention : Reuss Voigt Hill
#
# Bulk Modulus (GPa) = 23.06385 46.66137 34.86261
# Shear Modulus (GPa) = 24.18056 32.56471 28.37263
#
# Velocity S-wave (km/s) = 3.37449 3.91606 3.65532
# Velocity P-wave (km/s) = 5.10336 6.51316 5.85088
#
# Compressibility (1/GPa) = 0.04335790
#
# Stress axis : x y z
#
# Youngs Moduli (GPa) = 114.45315 72.94958 22.23010
#
# Poissons Ratio (x) = 0.29204 0.09493
# Poissons Ratio (y) = 0.45819 0.08364
# Poissons Ratio (z) = 0.48873 0.27446
#
# Static dielectric constant tensor:
#      x y z
#    x 1.801630 0.000000 0.010700 
#    y 0.000000 1.779330 0.000000 
#    z 0.010700 0.000000 1.800200 
# 
# From -- ./inp_files/80323.got.cif
#   From: 2010.05.17/outbox.cif.g08.bks.cpg/sg13_41_cif.got.tgz:80323.got - 2010.06.03 16:44:36.
