data_PCOD9229222
_publ_section_title
;
Structure prediction by ZEFSAII (Michael W. Deem and Ramdas Pophale) SiO2 
 PCOD9229222
Probable space group: P 2/C
;
_chemical_formula_sum "Si O2"
_cell_formula_units_Z 24
_cell_length_a 11.821714
_cell_length_b 11.378610
_cell_length_c 11.029338
_cell_angle_alpha 90.000000
_cell_angle_beta 137.703750
_cell_angle_gamma 90.000000
_cell_volume 998.414790
_symmetry_space_group_name_H-M "P 2/C"
_symmetry_group_IT_number 13
_symmetry_cell_setting 'monoclinic'
loop_
_space_group_symop_operation_xyz
x,y,z
-x,y,1/2-z
-x,-y,-z
x,-y,1/2+z
loop_
_atom_site_type_symbol
_atom_site_label
_atom_site_fract_x
_atom_site_fract_y
_atom_site_fract_z
Si Si1 0.324912 0.521142 0.561339
Si Si2 0.667612 0.096883 0.463486
Si Si3 0.345845 0.165735 0.529252
Si Si4 0.891997 0.274046 0.539001
Si Si5 0.869290 0.682079 0.496325
Si Si6 0.415427 0.690495 0.426769
O O1 0.500000 0.471929 0.750000
O O2 0.266640 0.637934 0.586309
O O3 0.167056 0.433599 0.450619
O O4 0.380808 0.574627 0.477415
O O5 0.500000 0.100514 0.250000
O O6 0.822339 0.142096 0.503035
O O7 0.650285 0.196725 0.550650
O O8 0.678603 0.968205 0.530650
O O9 0.500000 0.160672 0.750000
O O10 0.173747 0.208442 0.453180
O O11 0.405098 0.264376 0.479886
O O12 0.000000 0.300126 0.750000
O O13 0.984343 0.299921 0.485278
O O14 0.709091 0.675910 0.282144
#
# Coordination Sequence:
#
# PCOD9229222 Si02
#       6
#     4   4   4   4   4   4
#     4  11  23  39  65  88 116 162 206 249 295 361
#     4  10  20  38  66  90 116 161 203 248 299 359
#     4   9  20  35  60  95 121 154 202 250 298 362
#     4  11  21  41  62  86 122 162 200 245 312 360
#     4  11  22  38  61  90 123 157 201 249 308 362
#     4  10  19  38  61  88 123 156 200 250 298 356
#
# _framework density 24.038105999999999
#
# number of rings (size 3 to 8) (size 9 to 14) (size 15 to 20)
#    0.000    1.667    3.333    4.500    0.000    3.333 
#    0.000    0.000    3.667    0.000    0.000    0.000 
#    0.000    0.000    0.000    0.000    0.000    0.000 
#
# Total GULP energy -133881.353397 kJ/mol
# GULP energy per Si atom -5578.389725 kJ/mol
# Density = 2.398339 g / cm^3
# Si number density = 24.038106 Si / 1000 Ang^3
#
#
#
# Elastic Constant Matrix: (Units=GPa)
#
#
# Indices 1 2 3 4 5 6 
#
# 1 197.1740 50.8266 18.9665 0.0000 7.0354 0.0000
# 2 50.8266 84.2069 24.8382 0.0000 -12.1253 0.0000
# 3 18.9665 24.8382 60.5994 0.0000 5.2492 0.0000
# 4 0.0000 0.0000 0.0000 9.4002 0.0000 -13.4957
# 5 7.0354 -12.1253 5.2492 0.0000 21.2841 0.0000
# 6 0.0000 0.0000 0.0000 -13.4957 0.0000 24.1296
#
#
#
# Elastic Compliance Matrix: (Units=1/GPa)
#
#
# Indices 1 2 3 4 5 6 
#
# 1 0.006418 -0.004670 0.000327 0.000000 -0.004862 0.000000
# 2 -0.004670 0.018965 -0.007542 0.000000 0.014208 0.000000
# 3 0.000327 -0.007542 0.020306 0.000000 -0.009413 0.000000
# 4 0.000000 0.000000 0.000000 0.539943 0.000000 0.301991
# 5 -0.004862 0.014208 -0.009413 0.000000 0.059006 0.000000
# 6 0.000000 0.000000 0.000000 0.301991 0.000000 0.210347
#
#
# Mechanical properties :
#
#
# Convention : Reuss Voigt Hill
#
# Bulk Modulus (GPa) = 45.62567 59.02700 52.32634
# Shear Modulus (GPa) = 5.64294 27.45269 16.54782
#
# Velocity S-wave (km/s) = 1.53382 3.38309 2.62658
# Velocity P-wave (km/s) = 4.70729 6.31421 5.56901
#
# Compressibility (1/GPa) = 0.02191748
#
# Stress axis : x y z
#
# Youngs Moduli (GPa) = 155.82201 52.72875 49.24577
#
# Poissons Ratio (x) = 0.24625 -0.01609
# Poissons Ratio (y) = 0.72771 0.37143
# Poissons Ratio (z) = -0.05092 0.39770
#
# Static dielectric constant tensor:
#      x y z
#    x 2.023710 0.000000 -0.025690 
#    y 0.000000 1.951190 0.000000 
#    z -0.025690 0.000000 1.918500 
# 
# From -- ./inp_files/33933.got.cif
#   From: 2010.05.17/outbox.cif.g08.bks.cpg/sg13_17_cif.got.tgz:33933.got - 2010.06.03 16:44:36.
