data_PCOD9229116
_publ_section_title
;
Structure prediction by ZEFSAII (Michael W. Deem and Ramdas Pophale) SiO2 
 PCOD9229116
Probable space group: P 2/C
;
_chemical_formula_sum "Si O2"
_cell_formula_units_Z 22
_cell_length_a 17.893066
_cell_length_b 7.820985
_cell_length_c 15.593287
_cell_angle_alpha 90.000000
_cell_angle_beta 30.155810
_cell_angle_gamma 90.000000
_cell_volume 1096.208274
_symmetry_space_group_name_H-M "P 2/C"
_symmetry_group_IT_number 13
_symmetry_cell_setting 'monoclinic'
loop_
_space_group_symop_operation_xyz
x,y,z
-x,y,1/2-z
-x,-y,-z
x,-y,1/2+z
loop_
_atom_site_type_symbol
_atom_site_label
_atom_site_fract_x
_atom_site_fract_y
_atom_site_fract_z
Si Si1 0.880450 0.412604 0.683288
Si Si2 0.271353 0.717224 0.596618
Si Si3 0.500000 0.842416 0.250000
Si Si4 0.782652 0.969494 0.544139
Si Si5 0.824972 0.025532 0.689778
Si Si6 0.000000 0.220965 0.250000
Si Si7 0.000000 0.297328 0.750000
O O1 0.752697 0.555272 0.819241
O O2 0.815992 0.228518 0.717483
O O3 0.000000 0.500000 0.500000
O O4 0.958347 0.380058 0.699073
O O5 0.430741 0.728979 0.394294
O O6 0.141135 0.692798 0.654259
O O7 0.234298 0.899111 0.677779
O O8 0.363189 0.957951 0.355647
O O9 0.854246 0.812414 0.421864
O O10 0.750374 0.957316 0.676456
O O11 0.917746 0.106082 0.402344
O O12 0.000000 0.000000 0.500000
#
# Coordination Sequence:
#
# PCOD9229116 Si02
#       7
#     4   4   2   4   4   2   2
#     4  12  22  36  64 101 126 162 221 283 331 377
#     4  11  22  39  59  92 128 166 215 263 325 394
#     4  10  24  40  60  88 136 182 208 258 336 408
#     4  10  19  37  62  91 122 168 219 263 328 392
#     4  12  20  38  64  94 125 160 215 286 331 377
#     4   9  15  32  58  79 117 160 205 265 300 361
#     4  11  21  38  68  99 127 174 231 281 326 385
#
# _framework density 20.069178000000001
#
# number of rings (size 3 to 8) (size 9 to 14) (size 15 to 20)
#    0.000    1.091    5.455    2.727    0.000    2.182 
#    0.000    4.545    0.000    0.000    0.000    0.000 
#    0.000    0.000    0.000    0.000    0.000    0.000 
#
# Total GULP energy -122543.346790 kJ/mol
# GULP energy per Si atom -5570.152127 kJ/mol
# Density = 2.002350 g / cm^3
# Si number density = 20.069178 Si / 1000 Ang^3
#
#
#
# Elastic Constant Matrix: (Units=GPa)
#
#
# Indices 1 2 3 4 5 6 
#
# 1 77.9269 14.7655 26.7735 0.0000 19.3070 0.0000
# 2 14.7655 128.3252 70.4754 0.0000 19.2839 0.0000
# 3 26.7735 70.4754 144.2140 0.0000 14.5217 0.0000
# 4 0.0000 0.0000 0.0000 31.6630 0.0000 -9.6440
# 5 19.3070 19.2839 14.5217 0.0000 34.7430 0.0000
# 6 0.0000 0.0000 0.0000 -9.6440 0.0000 38.9074
#
#
#
# Elastic Compliance Matrix: (Units=1/GPa)
#
#
# Indices 1 2 3 4 5 6 
#
# 1 0.015516 0.000764 -0.002446 0.000000 -0.008024 0.000000
# 2 0.000764 0.011221 -0.005173 0.000000 -0.004490 0.000000
# 3 -0.002446 -0.005173 0.009907 0.000000 0.000089 0.000000
# 4 0.000000 0.000000 0.000000 0.034162 0.000000 0.008468
# 5 -0.008024 -0.004490 0.000089 0.000000 0.035697 0.000000
# 6 0.000000 0.000000 0.000000 0.008468 0.000000 0.027801
#
#
# Mechanical properties :
#
#
# Convention : Reuss Voigt Hill
#
# Bulk Modulus (GPa) = 43.60392 63.83274 53.71833
# Shear Modulus (GPa) = 32.12170 36.95946 34.54058
#
# Velocity S-wave (km/s) = 4.00503 4.29605 4.15309
# Velocity P-wave (km/s) = 6.56970 7.51554 7.05848
#
# Compressibility (1/GPa) = 0.02293372
#
# Stress axis : x y z
#
# Youngs Moduli (GPa) = 64.44887 89.12233 100.93717
#
# Poissons Ratio (x) = -0.06806 0.24687
# Poissons Ratio (y) = -0.04922 0.52214
# Poissons Ratio (z) = 0.15763 0.46103
#
# Static dielectric constant tensor:
#      x y z
#    x 1.717930 0.000000 0.074710 
#    y 0.000000 1.803030 0.000000 
#    z 0.074710 0.000000 1.711140 
# 
# From -- ./inp_files/55039.got.cif
#   From: 2010.05.17/outbox.cif.g08.bks.cpg/sg13_28_cif.got.tgz:55039.got - 2010.06.03 16:44:36.
