data_PCOD9229795
_publ_section_title
;
Structure prediction by ZEFSAII (Michael W. Deem and Ramdas Pophale) SiO2 
 PCOD9229795
Probable space group: P 2/C
;
_chemical_formula_sum "Si O2"
_cell_formula_units_Z 22
_cell_length_a 10.197504
_cell_length_b 19.785913
_cell_length_c 5.414501
_cell_angle_alpha 90.000000
_cell_angle_beta 83.224734
_cell_angle_gamma 90.000000
_cell_volume 1084.838015
_symmetry_space_group_name_H-M "P 2/C"
_symmetry_group_IT_number 13
_symmetry_cell_setting 'monoclinic'
loop_
_space_group_symop_operation_xyz
x,y,z
-x,y,1/2-z
-x,-y,-z
x,-y,1/2+z
loop_
_atom_site_type_symbol
_atom_site_label
_atom_site_fract_x
_atom_site_fract_y
_atom_site_fract_z
Si Si1 0.890201 0.653766 0.981032
Si Si2 0.000000 0.220125 0.750000
Si Si3 0.500000 0.804860 0.250000
Si Si4 0.631518 0.295128 0.324538
Si Si5 0.658984 0.038487 0.244171
Si Si6 0.000000 0.544563 0.250000
Si Si7 0.734903 0.169535 0.014255
O O1 0.746041 0.658092 0.898502
O O2 0.000000 0.635079 0.750000
O O3 0.934249 0.727685 0.068542
O O4 0.112221 0.600108 0.293532
O O5 0.118946 0.175238 0.621843
O O6 0.424175 0.756269 0.457185
O O7 0.615049 0.847614 0.353300
O O8 0.500000 0.329886 0.250000
O O9 0.698189 0.245067 0.111123
O O10 0.500000 0.044005 0.250000
O O11 0.720291 0.113381 0.226269
O O12 0.698938 0.000719 0.485408
O O13 0.000000 0.500000 0.500000
#
# Coordination Sequence:
#
# PCOD9229795 Si02
#       7
#     4   2   2   4   4   2   4
#     4  11  21  39  66  96 132 167 215 256 315 385
#     4  11  22  36  60  92 128 165 202 266 336 389
#     4  10  20  34  56  84 126 154 206 254 334 384
#     4  10  21  35  59  95 127 160 204 264 334 381
#     4  10  23  39  60  85 115 164 222 269 316 384
#     4  11  24  42  66 100 132 177 220 264 296 361
#     4  11  22  36  58  88 123 164 205 270 329 391
#
# _framework density 20.279526000000001
#
# number of rings (size 3 to 8) (size 9 to 14) (size 15 to 20)
#    0.000    1.455    4.545    1.636    6.364    0.000 
#    0.000    0.909    0.000    1.091    0.000    0.000 
#    0.000    0.000    0.000    0.000    0.000    0.000 
#
# Total GULP energy -122744.382861 kJ/mol
# GULP energy per Si atom -5579.290130 kJ/mol
# Density = 2.023337 g / cm^3
# Si number density = 20.279526 Si / 1000 Ang^3
#
#
#
# Elastic Constant Matrix: (Units=GPa)
#
#
# Indices 1 2 3 4 5 6 
#
# 1 142.3022 32.5190 41.5293 0.0000 6.6914 0.0000
# 2 32.5190 65.5371 19.3738 0.0000 12.1650 0.0000
# 3 41.5293 19.3738 84.7215 0.0000 4.5684 0.0000
# 4 0.0000 0.0000 0.0000 -6.7674 0.0000 10.8053
# 5 6.6914 12.1650 4.5684 0.0000 27.8832 0.0000
# 6 0.0000 0.0000 0.0000 10.8053 0.0000 4.9691
#
#
#
# Elastic Compliance Matrix: (Units=1/GPa)
#
#
# Indices 1 2 3 4 5 6 
#
# 1 0.008829 -0.003310 -0.003566 0.000000 -0.000090 0.000000
# 2 -0.003310 0.018899 -0.002318 0.000000 -0.007071 0.000000
# 3 -0.003566 -0.002318 0.014105 0.000000 -0.000444 0.000000
# 4 0.000000 0.000000 0.000000 -0.033043 0.000000 0.071852
# 5 -0.000090 -0.007071 -0.000444 0.000000 0.039043 0.000000
# 6 0.000000 0.000000 0.000000 0.071852 0.000000 0.045001
#
#
# Mechanical properties :
#
#
# Convention : Reuss Voigt Hill
#
# Bulk Modulus (GPa) = 42.65259 53.26723 47.95991
# Shear Modulus (GPa) = 42.00396 18.49289 30.24843
#
# Velocity S-wave (km/s) = 4.55604 3.02304 3.86628
# Velocity P-wave (km/s) = 6.98245 6.20553 6.60542
#
# Compressibility (1/GPa) = 0.02344523
#
# Stress axis : x y z
#
# Youngs Moduli (GPa) = 113.26871 52.91404 70.89511
#
# Poissons Ratio (x) = 0.17513 0.25280
# Poissons Ratio (y) = 0.37489 0.16433
# Poissons Ratio (z) = 0.40390 0.12265
#
# Static dielectric constant tensor:
#      x y z
#    x 1.704740 0.000000 0.037990 
#    y 0.000000 1.720120 0.000000 
#    z 0.037990 0.000000 1.831420 
# 
# From -- ./inp_files/2114.got.cif
#   From: 2010.05.17/outbox.cif.g08.bks.cpg/sg13_2_cif.got.tgz:2114.got - 2010.06.03 16:44:36.
