data_PCOD9229086
_publ_section_title
;
Structure prediction by ZEFSAII (Michael W. Deem and Ramdas Pophale) SiO2 
 PCOD9229086
Probable space group: P 2/C
;
_chemical_formula_sum "Si O2"
_cell_formula_units_Z 28
_cell_length_a 5.478657
_cell_length_b 9.771908
_cell_length_c 28.703535
_cell_angle_alpha 90.000000
_cell_angle_beta 57.080019
_cell_angle_gamma 90.000000
_cell_volume 1289.952014
_symmetry_space_group_name_H-M "P 2/C"
_symmetry_group_IT_number 13
_symmetry_cell_setting 'monoclinic'
loop_
_space_group_symop_operation_xyz
x,y,z
-x,y,1/2-z
-x,-y,-z
x,-y,1/2+z
loop_
_atom_site_type_symbol
_atom_site_label
_atom_site_fract_x
_atom_site_fract_y
_atom_site_fract_z
Si Si1 0.279418 0.658933 0.127305
Si Si2 0.404363 0.591490 0.308760
Si Si3 0.257965 0.149786 0.482155
Si Si4 0.868257 0.813732 0.607851
Si Si5 0.768265 0.061029 0.916678
Si Si6 0.307737 0.687558 0.694012
Si Si7 0.316123 0.606150 0.585153
O O1 0.444007 0.647742 0.159818
O O2 0.279008 0.815893 0.113198
O O3 0.415955 0.551393 0.075507
O O4 0.942896 0.608349 0.158017
O O5 0.500000 0.657975 0.250000
O O6 0.533138 0.436867 0.295889
O O7 0.089927 0.151515 0.450989
O O8 0.119358 0.132499 0.547091
O O9 0.446907 0.289249 0.459998
O O10 0.468157 0.018869 0.455709
O O11 0.543839 0.805921 0.661349
O O12 0.014429 0.663329 0.595832
O O13 0.026847 0.935074 0.618717
O O14 0.271001 0.637007 0.644778
O O15 0.000000 0.718340 0.750000
#
# Coordination Sequence:
#
# PCOD9229086 Si02
#       7
#     4   4   4   4   4   4   4
#     4  11  23  39  66  97 128 166 210 269 325 374
#     4  11  22  41  66  94 125 165 212 260 324 393
#     4   9  20  39  62  87 123 175 220 254 318 384
#     4  10  19  37  61  88 126 161 216 267 311 385
#     4  10  22  38  62  90 126 175 213 258 324 390
#     4  10  20  34  64  93 119 158 215 267 319 371
#     4   9  19  37  57  93 126 156 211 272 309 376
#
# _framework density 21.706233000000001
#
# number of rings (size 3 to 8) (size 9 to 14) (size 15 to 20)
#    0.000    2.000    1.429    2.571    2.000    0.571 
#    0.000    0.714    9.429    0.000    0.000    0.000 
#    0.000    0.000    0.000    0.000    0.000    0.000 
#
# Total GULP energy -155966.049993 kJ/mol
# GULP energy per Si atom -5570.216071 kJ/mol
# Density = 2.165683 g / cm^3
# Si number density = 21.706233 Si / 1000 Ang^3
#
#
#
# Elastic Constant Matrix: (Units=GPa)
#
#
# Indices 1 2 3 4 5 6 
#
# 1 97.0658 29.4283 20.8085 0.0000 14.9680 0.0000
# 2 29.4283 83.4635 14.5953 0.0000 11.2161 0.0000
# 3 20.8085 14.5953 30.3577 0.0000 11.7026 0.0000
# 4 0.0000 0.0000 0.0000 3.3191 0.0000 3.7518
# 5 14.9680 11.2161 11.7026 0.0000 32.4110 0.0000
# 6 0.0000 0.0000 0.0000 3.7518 0.0000 3.8186
#
#
#
# Elastic Compliance Matrix: (Units=1/GPa)
#
#
# Indices 1 2 3 4 5 6 
#
# 1 0.013028 -0.003119 -0.006421 0.000000 -0.002619 0.000000
# 2 -0.003119 0.014022 -0.003820 0.000000 -0.002033 0.000000
# 3 -0.006421 -0.003820 0.043593 0.000000 -0.011453 0.000000
# 4 0.000000 0.000000 0.000000 -2.724268 0.000000 2.676622
# 5 -0.002619 -0.002033 -0.011453 0.000000 0.036902 0.000000
# 6 0.000000 0.000000 0.000000 2.676622 0.000000 -2.367932
#
#
# Mechanical properties :
#
#
# Convention : Reuss Voigt Hill
#
# Bulk Modulus (GPa) = 22.76675 37.83904 30.30289
# Shear Modulus (GPa) = -1.01147 17.64672 8.31762
#
# Velocity S-wave (km/s) = -0.68337 2.85437 1.95965
# Velocity P-wave (km/s) = 3.14463 5.32292 4.37162
#
# Compressibility (1/GPa) = 0.04392371
#
# Stress axis : x y z
#
# Youngs Moduli (GPa) = 76.75644 71.31572 22.93925
#
# Poissons Ratio (x) = 0.22242 0.14729
# Poissons Ratio (y) = 0.23939 0.08763
# Poissons Ratio (z) = 0.49286 0.27244
#
# Static dielectric constant tensor:
#      x y z
#    x 1.877270 0.000000 -0.002600 
#    y 0.000000 1.838040 0.000000 
#    z -0.002600 0.000000 1.825460 
# 
# From -- ./inp_files/94980.got.cif
#   From: 2010.05.17/outbox.cif.g08.bks.cpg/sg13_48_cif.got.tgz:94980.got - 2010.06.03 16:44:36.
