data_PCOD9229974
_publ_section_title
;
Structure prediction by ZEFSAII (Michael W. Deem and Ramdas Pophale) SiO2 
 PCOD9229974
Probable space group: P 2/C
;
_chemical_formula_sum "Si O2"
_cell_formula_units_Z 20
_cell_length_a 16.942764
_cell_length_b 6.834839
_cell_length_c 7.950727
_cell_angle_alpha 90.000000
_cell_angle_beta 70.615306
_cell_angle_gamma 90.000000
_cell_volume 868.509264
_symmetry_space_group_name_H-M "P 2/C"
_symmetry_group_IT_number 13
_symmetry_cell_setting 'monoclinic'
loop_
_space_group_symop_operation_xyz
x,y,z
-x,y,1/2-z
-x,-y,-z
x,-y,1/2+z
loop_
_atom_site_type_symbol
_atom_site_label
_atom_site_fract_x
_atom_site_fract_y
_atom_site_fract_z
Si Si1 0.312128 0.375648 0.281698
Si Si2 0.005499 0.230058 0.545482
Si Si3 0.178419 0.140635 0.282695
Si Si4 0.437005 0.388263 0.922360
Si Si5 0.825495 0.287850 0.592640
O O1 0.250758 0.199374 0.362824
O O2 0.368345 0.291775 0.088795
O O3 0.379517 0.455989 0.363833
O O4 0.245181 0.555702 0.299971
O O5 0.925297 0.338280 0.522495
O O6 0.000000 0.253026 0.750000
O O7 0.097104 0.257288 0.404371
O O8 0.000000 0.000000 0.500000
O O9 0.194231 0.220109 0.083901
O O10 0.173203 0.906790 0.292478
O O11 0.500000 0.721021 0.250000
O O12 0.500000 0.500000 0.000000
#
# Coordination Sequence:
#
# PCOD9229974 Si02
#       5
#     4   4   4   4   4
#     4  11  22  39  66  93 118 158 203 247 302 357
#     4  10  20  35  56  83 125 169 201 243 296 341
#     4  11  23  38  61  90 126 164 203 249 291 350
#     4   9  20  40  66  90 116 157 195 244 314 373
#     4  11  23  38  61  90 126 163 205 247 292 351
#
# _framework density 23.027961999999999
#
# number of rings (size 3 to 8) (size 9 to 14) (size 15 to 20)
#    0.000    1.600    2.000    5.400    5.600    0.800 
#    0.000    0.000    0.000   24.000    0.000    0.000 
#    0.000    0.000    0.000    0.000    0.000    0.000 
#
# Total GULP energy -111372.375993 kJ/mol
# GULP energy per Si atom -5568.618800 kJ/mol
# Density = 2.297555 g / cm^3
# Si number density = 23.027962 Si / 1000 Ang^3
#
#
#
# Elastic Constant Matrix: (Units=GPa)
#
#
# Indices 1 2 3 4 5 6 
#
# 1 177.3534 10.2483 27.9723 0.0000 -15.1447 0.0000
# 2 10.2483 47.4807 19.0309 0.0000 -20.2923 0.0000
# 3 27.9723 19.0309 79.6719 0.0000 -17.5066 0.0000
# 4 0.0000 0.0000 0.0000 2.8419 0.0000 3.3466
# 5 -15.1447 -20.2923 -17.5066 0.0000 43.6003 0.0000
# 6 0.0000 0.0000 0.0000 3.3466 0.0000 15.0051
#
#
#
# Elastic Compliance Matrix: (Units=1/GPa)
#
#
# Indices 1 2 3 4 5 6 
#
# 1 0.006042 0.000013 -0.001823 0.000000 0.001373 0.000000
# 2 0.000013 0.027468 -0.004119 0.000000 0.011135 0.000000
# 3 -0.001823 -0.004119 0.014933 0.000000 0.003445 0.000000
# 4 0.000000 0.000000 0.000000 0.477213 0.000000 -0.106433
# 5 0.001373 0.011135 0.003445 0.000000 0.029978 0.000000
# 6 0.000000 0.000000 0.000000 -0.106433 0.000000 0.090382
#
#
# Mechanical properties :
#
#
# Convention : Reuss Voigt Hill
#
# Bulk Modulus (GPa) = 27.33330 46.55658 36.94494
# Shear Modulus (GPa) = 7.46192 28.77309 18.11750
#
# Velocity S-wave (km/s) = 1.80206 3.53864 2.80797
# Velocity P-wave (km/s) = 4.02806 6.07925 5.15667
#
# Compressibility (1/GPa) = 0.03658541
#
# Stress axis : x y z
#
# Youngs Moduli (GPa) = 165.49559 36.40586 66.96801
#
# Poissons Ratio (x) = -0.00048 0.12208
# Poissons Ratio (y) = -0.00220 0.27585
# Poissons Ratio (z) = 0.30169 0.14996
#
# Static dielectric constant tensor:
#      x y z
#    x 1.933450 0.000000 -0.001320 
#    y 0.000000 1.749120 0.000000 
#    z -0.001320 0.000000 1.951470 
# 
# From -- ./inp_files/17871.got.cif
#   From: 2010.05.17/outbox.cif.g08.bks.cpg/sg13_9_cif.got.tgz:17871.got - 2010.06.03 16:44:36.
