data_PCOD9229902
_publ_section_title
;
Structure prediction by ZEFSAII (Michael W. Deem and Ramdas Pophale) SiO2 
 PCOD9229902
Probable space group: P 2/C
;
_chemical_formula_sum "Si O2"
_cell_formula_units_Z 24
_cell_length_a 14.480827
_cell_length_b 8.878941
_cell_length_c 8.568807
_cell_angle_alpha 90.000000
_cell_angle_beta 100.332320
_cell_angle_gamma 90.000000
_cell_volume 1083.863673
_symmetry_space_group_name_H-M "P 2/C"
_symmetry_group_IT_number 13
_symmetry_cell_setting 'monoclinic'
loop_
_space_group_symop_operation_xyz
x,y,z
-x,y,1/2-z
-x,-y,-z
x,-y,1/2+z
loop_
_atom_site_type_symbol
_atom_site_label
_atom_site_fract_x
_atom_site_fract_y
_atom_site_fract_z
Si Si1 0.172401 0.538043 0.373467
Si Si2 0.369504 0.639058 0.958785
Si Si3 0.179709 0.841895 0.217373
Si Si4 0.500000 0.491006 0.250000
Si Si5 0.749502 0.091963 0.098816
Si Si6 0.108209 0.720956 0.656208
Si Si7 0.000000 0.028690 0.250000
O O1 0.273342 0.460425 0.436955
O O2 0.182375 0.664219 0.241641
O O3 0.131268 0.630911 0.506706
O O4 0.104631 0.406753 0.289825
O O5 0.441567 0.590766 0.112471
O O6 0.422426 0.606622 0.814599
O O7 0.341944 0.812495 0.962275
O O8 0.260587 0.922559 0.344834
O O9 0.087990 0.917496 0.267994
O O10 0.190263 0.888878 0.041039
O O11 0.803737 0.178762 0.256143
O O12 0.025004 0.845222 0.623772
#
# Coordination Sequence:
#
# PCOD9229902 Si02
#       7
#     4   4   4   2   4   4   2
#     4  11  21  38  62  87 117 161 201 237 295 363
#     4  10  20  38  61  90 118 144 195 239 291 362
#     4  11  22  37  62  85 118 166 200 245 298 339
#     4  10  20  34  66  94 114 146 180 250 302 334
#     4  10  21  38  58  84 117 158 197 234 292 364
#     4  10  22  37  57  83 117 156 198 251 294 332
#     4  10  24  40  54  86 124 152 210 256 290 338
#
# _framework density 22.143004999999999
#
# number of rings (size 3 to 8) (size 9 to 14) (size 15 to 20)
#    0.000    1.667    0.000    7.000    0.000    7.333 
#    0.000    0.000    0.000   17.000    0.000    0.000 
#    0.000    0.000    0.000    0.000    0.000    0.000 
#
# Total GULP energy -133976.239269 kJ/mol
# GULP energy per Si atom -5582.343303 kJ/mol
# Density = 2.209261 g / cm^3
# Si number density = 22.143005 Si / 1000 Ang^3
#
#
#
# Elastic Constant Matrix: (Units=GPa)
#
#
# Indices 1 2 3 4 5 6 
#
# 1 79.3517 23.5998 9.8411 0.0000 -8.7265 0.0000
# 2 23.5998 105.0552 -1.9015 0.0000 5.7942 0.0000
# 3 9.8411 -1.9015 70.5193 0.0000 -13.3869 0.0000
# 4 0.0000 0.0000 0.0000 27.6135 0.0000 -11.0058
# 5 -8.7265 5.7942 -13.3869 0.0000 19.6907 0.0000
# 6 0.0000 0.0000 0.0000 -11.0058 0.0000 12.5117
#
#
#
# Elastic Compliance Matrix: (Units=1/GPa)
#
#
# Indices 1 2 3 4 5 6 
#
# 1 0.014562 -0.003671 -0.000805 0.000000 0.006987 0.000000
# 2 -0.003671 0.010608 -0.000118 0.000000 -0.004829 0.000000
# 3 -0.000805 -0.000118 0.016337 0.000000 0.010785 0.000000
# 4 0.000000 0.000000 0.000000 0.055765 0.000000 0.049054
# 5 0.006987 -0.004829 0.010785 0.000000 0.062635 0.000000
# 6 0.000000 0.000000 0.000000 0.049054 0.000000 0.123075
#
#
# Mechanical properties :
#
#
# Convention : Reuss Voigt Hill
#
# Bulk Modulus (GPa) = 30.94238 35.33387 33.13813
# Shear Modulus (GPa) = 16.50471 26.85563 21.68017
#
# Velocity S-wave (km/s) = 2.73311 3.48634 3.13245
# Velocity P-wave (km/s) = 4.89531 5.67432 5.29915
#
# Compressibility (1/GPa) = 0.03231813
#
# Stress axis : x y z
#
# Youngs Moduli (GPa) = 68.67126 94.27115 61.21073
#
# Poissons Ratio (x) = 0.34609 0.04926
# Poissons Ratio (y) = 0.25210 0.00724
# Poissons Ratio (z) = 0.05527 0.01116
#
# Static dielectric constant tensor:
#      x y z
#    x 1.836680 0.000000 -0.024430 
#    y 0.000000 1.813670 0.000000 
#    z -0.024430 0.000000 1.879920 
# 
# From -- ./inp_files/18080.got.cif
#   From: 2010.05.17/outbox.cif.g08.bks.cpg/sg13_10_cif.got.tgz:18080.got - 2010.06.03 16:44:36.
