data_PCOD9229778
_publ_section_title
;
Structure prediction by ZEFSAII (Michael W. Deem and Ramdas Pophale) SiO2 
 PCOD9229778
Probable space group: P 2/C
;
_chemical_formula_sum "Si O2"
_cell_formula_units_Z 20
_cell_length_a 14.295208
_cell_length_b 5.394317
_cell_length_c 19.979839
_cell_angle_alpha 90.000000
_cell_angle_beta 140.816452
_cell_angle_gamma 90.000000
_cell_volume 973.426566
_symmetry_space_group_name_H-M "P 2/C"
_symmetry_group_IT_number 13
_symmetry_cell_setting 'monoclinic'
loop_
_space_group_symop_operation_xyz
x,y,z
-x,y,1/2-z
-x,-y,-z
x,-y,1/2+z
loop_
_atom_site_type_symbol
_atom_site_label
_atom_site_fract_x
_atom_site_fract_y
_atom_site_fract_z
Si Si1 0.001243 0.743444 0.332213
Si Si2 0.886626 0.760753 0.624728
Si Si3 0.595285 0.625128 0.737113
Si Si4 0.445145 0.374732 0.536394
Si Si5 0.296693 0.870586 0.254881
O O1 0.843316 0.813959 0.275827
O O2 0.000000 0.721148 0.250000
O O3 0.057402 0.474950 0.386365
O O4 0.106520 0.974671 0.407370
O O5 0.723561 0.704607 0.560309
O O6 0.000000 0.784025 0.750000
O O7 0.500000 0.668512 0.750000
O O8 0.476239 0.572587 0.612323
O O9 0.684601 0.362964 0.785691
O O10 0.696729 0.860482 0.775083
O O11 0.500000 0.500000 0.500000
O O12 0.555861 0.152872 0.617612
#
# Coordination Sequence:
#
# PCOD9229778 Si02
#       5
#     4   4   4   4   4
#     4  10  20  34  55  85 127 157 190 241 316 364
#     4  10  21  34  54  85 129 158 184 245 317 359
#     4  10  23  41  64  88 123 162 209 259 301 357
#     4  10  23  37  65  96 123 152 217 256 307 357
#     4  10  22  38  65  89 120 162 211 245 305 364
#
# _framework density 20.545977000000001
#
# number of rings (size 3 to 8) (size 9 to 14) (size 15 to 20)
#    1.200    0.800    0.000    4.200    8.400    0.800 
#    0.000    0.000    0.000    7.200    0.000    0.000 
#    0.000    0.000    0.000    0.000    0.000    0.000 
#
# Total GULP energy -111429.769166 kJ/mol
# GULP energy per Si atom -5571.488458 kJ/mol
# Density = 2.049921 g / cm^3
# Si number density = 20.545977 Si / 1000 Ang^3
#
#
#
# Elastic Constant Matrix: (Units=GPa)
#
#
# Indices 1 2 3 4 5 6 
#
# 1 84.5855 -16.1368 9.5430 0.0000 6.1233 0.0000
# 2 -16.1368 108.3092 -12.1060 0.0000 -9.0451 0.0000
# 3 9.5430 -12.1060 29.6202 0.0000 20.7944 0.0000
# 4 0.0000 0.0000 0.0000 -170.8546 0.0000 35.6784
# 5 6.1233 -9.0451 20.7944 0.0000 28.5657 0.0000
# 6 0.0000 0.0000 0.0000 35.6784 0.0000 12.6923
#
#
#
# Elastic Compliance Matrix: (Units=1/GPa)
#
#
# Indices 1 2 3 4 5 6 
#
# 1 0.012495 0.001482 -0.003822 0.000000 0.000573 0.000000
# 2 0.001482 0.009853 0.003236 0.000000 0.000446 0.000000
# 3 -0.003822 0.003236 0.071623 0.000000 -0.050294 0.000000
# 4 0.000000 0.000000 0.000000 -0.003688 0.000000 0.010367
# 5 0.000573 0.000446 -0.050294 0.000000 0.071637 0.000000
# 6 0.000000 0.000000 0.000000 0.010367 0.000000 0.049646
#
#
# Mechanical properties :
#
#
# Convention : Reuss Voigt Hill
#
# Bulk Modulus (GPa) = 10.44258 20.56837 15.50547
# Shear Modulus (GPa) = 20.68729 -9.83834 5.42448
#
# Velocity S-wave (km/s) = 3.17658 -2.19063 1.62662
# Velocity P-wave (km/s) = 4.30671 1.90635 3.33031
#
# Compressibility (1/GPa) = 0.09576182
#
# Stress axis : x y z
#
# Youngs Moduli (GPa) = 80.03289 101.49572 13.96201
#
# Poissons Ratio (x) = -0.15044 0.05337
# Poissons Ratio (y) = -0.11863 -0.04518
# Poissons Ratio (z) = 0.30592 -0.32843
#
# Static dielectric constant tensor:
#      x y z
#    x 1.669980 0.000000 -0.006120 
#    y 0.000000 1.874680 0.000000 
#    z -0.006120 0.000000 1.722700 
# 
# From -- ./inp_files/58154.got.cif
#   From: 2010.05.17/outbox.cif.g08.bks.cpg/sg13_30_cif.got.tgz:58154.got - 2010.06.03 16:44:36.
