data_PCOD9229309
_publ_section_title
;
Structure prediction by ZEFSAII (Michael W. Deem and Ramdas Pophale) SiO2 
 PCOD9229309
Probable space group: P 2/C
;
_chemical_formula_sum "Si O2"
_cell_formula_units_Z 22
_cell_length_a 6.026080
_cell_length_b 20.199421
_cell_length_c 10.045995
_cell_angle_alpha 90.000000
_cell_angle_beta 107.078689
_cell_angle_gamma 90.000000
_cell_volume 1168.907877
_symmetry_space_group_name_H-M "P 2/C"
_symmetry_group_IT_number 13
_symmetry_cell_setting 'monoclinic'
loop_
_space_group_symop_operation_xyz
x,y,z
-x,y,1/2-z
-x,-y,-z
x,-y,1/2+z
loop_
_atom_site_type_symbol
_atom_site_label
_atom_site_fract_x
_atom_site_fract_y
_atom_site_fract_z
Si Si1 0.000000 0.481467 0.250000
Si Si2 0.500000 0.330028 0.250000
Si Si3 0.500000 0.448818 0.750000
Si Si4 0.055154 0.743770 0.601989
Si Si5 0.753280 0.380902 0.036293
Si Si6 0.964223 0.106019 0.402547
Si Si7 0.648823 0.015559 0.898741
O O1 0.748805 0.517031 0.242375
O O2 0.944794 0.435294 0.111880
O O3 0.687524 0.285044 0.358128
O O4 0.621503 0.370318 0.153709
O O5 0.412429 0.407232 0.607604
O O6 0.050676 0.818632 0.549839
O O7 0.000000 0.746623 0.750000
O O8 0.877425 0.688183 0.517957
O O9 0.000000 0.109093 0.250000
O O10 0.160252 0.067905 0.520583
O O11 0.751066 0.055862 0.377840
O O12 0.500000 0.041770 0.750000
O O13 0.500000 0.000000 0.000000
#
# Coordination Sequence:
#
# PCOD9229309 Si02
#       7
#     2   2   2   4   4   4   4
#     4  12  24  44  68 100 126 176 222 266 324 404
#     4  10  19  38  70  88 123 168 214 258 316 383
#     4  12  29  40  70  98 137 170 214 272 342 387
#     4   9  20  37  65  91 122 162 217 261 310 384
#     4  11  23  43  65  95 128 165 214 269 318 385
#     4  10  21  37  61  94 118 160 217 257 309 382
#     4  11  22  37  61  88 127 161 204 260 317 374
#
# _framework density 18.820986000000001
#
# number of rings (size 3 to 8) (size 9 to 14) (size 15 to 20)
#    0.000    1.455    4.545    1.636    3.818    1.455 
#    1.636    0.000    4.000    0.000    0.000    0.000 
#    0.000    0.000    0.000    0.000    0.000    0.000 
#
# Total GULP energy -122493.782862 kJ/mol
# GULP energy per Si atom -5567.899221 kJ/mol
# Density = 1.877815 g / cm^3
# Si number density = 18.820986 Si / 1000 Ang^3
#
#
#
# Elastic Constant Matrix: (Units=GPa)
#
#
# Indices 1 2 3 4 5 6 
#
# 1 101.6595 64.5060 36.1531 0.0000 15.2508 0.0000
# 2 64.5060 148.1964 52.3310 0.0000 18.3212 0.0000
# 3 36.1531 52.3310 102.2186 0.0000 26.1353 0.0000
# 4 0.0000 0.0000 0.0000 8.1965 0.0000 -15.3598
# 5 15.2508 18.3212 26.1353 0.0000 31.0951 0.0000
# 6 0.0000 0.0000 0.0000 -15.3598 0.0000 -20.7671
#
#
#
# Elastic Compliance Matrix: (Units=1/GPa)
#
#
# Indices 1 2 3 4 5 6 
#
# 1 0.014136 -0.005258 -0.001691 0.000000 -0.002414 0.000000
# 2 -0.005258 0.010261 -0.003193 0.000000 -0.000783 0.000000
# 3 -0.001691 -0.003193 0.014422 0.000000 -0.009411 0.000000
# 4 0.000000 0.000000 0.000000 0.051133 0.000000 -0.037819
# 5 -0.002414 -0.000783 -0.009411 0.000000 0.041715 0.000000
# 6 0.000000 0.000000 0.000000 -0.037819 0.000000 -0.020181
#
#
# Mechanical properties :
#
#
# Convention : Reuss Voigt Hill
#
# Bulk Modulus (GPa) = 53.95039 73.11719 63.53379
# Shear Modulus (GPa) = 36.24579 16.97719 26.61149
#
# Velocity S-wave (km/s) = 4.39318 3.00665 3.76430
# Velocity P-wave (km/s) = 7.37974 7.14047 7.26109
#
# Compressibility (1/GPa) = 0.01853555
#
# Stress axis : x y z
#
# Youngs Moduli (GPa) = 70.73929 97.45905 69.33894
#
# Poissons Ratio (x) = 0.51241 0.11724
# Poissons Ratio (y) = 0.37192 0.22141
# Poissons Ratio (z) = 0.11961 0.31121
#
# Static dielectric constant tensor:
#      x y z
#    x 1.709820 0.000000 -0.001260 
#    y 0.000000 1.692880 0.000000 
#    z -0.001260 0.000000 1.611330 
# 
# From -- ./inp_files/10038.got.cif
#   From: 2010.05.17/outbox.cif.g08.bks.cpg/sg13_6_cif.got.tgz:10038.got - 2010.06.03 16:44:36.
