data_PCOD9229177
_publ_section_title
;
Structure prediction by ZEFSAII (Michael W. Deem and Ramdas Pophale) SiO2 
 PCOD9229177
Probable space group: P 2/C
;
_chemical_formula_sum "Si O2"
_cell_formula_units_Z 28
_cell_length_a 11.556147
_cell_length_b 7.715582
_cell_length_c 15.679118
_cell_angle_alpha 90.000000
_cell_angle_beta 124.697127
_cell_angle_gamma 90.000000
_cell_volume 1149.387234
_symmetry_space_group_name_H-M "P 2/C"
_symmetry_group_IT_number 13
_symmetry_cell_setting 'monoclinic'
loop_
_space_group_symop_operation_xyz
x,y,z
-x,y,1/2-z
-x,-y,-z
x,-y,1/2+z
loop_
_atom_site_type_symbol
_atom_site_label
_atom_site_fract_x
_atom_site_fract_y
_atom_site_fract_z
Si Si1 0.856855 0.777396 0.227596
Si Si2 0.091803 0.673425 0.565733
Si Si3 0.628242 0.151175 0.366101
Si Si4 0.149838 0.635636 0.784674
Si Si5 0.354979 0.376364 0.518412
Si Si6 0.592644 0.233124 0.526182
Si Si7 0.807051 0.188984 0.907262
O O1 0.853196 0.572394 0.204428
O O2 0.731017 0.854568 0.121075
O O3 0.836030 0.784999 0.319469
O O4 0.000000 0.849745 0.250000
O O5 0.228672 0.727954 0.568395
O O6 0.158885 0.662100 0.687915
O O7 0.000000 0.500000 0.500000
O O8 0.965114 0.813769 0.512779
O O9 0.500000 0.206739 0.250000
O O10 0.553539 0.126876 0.426366
O O11 0.704177 0.974054 0.370983
O O12 0.265669 0.695016 0.900132
O O13 0.000000 0.707405 0.750000
O O14 0.499326 0.273628 0.569126
O O15 0.388154 0.575490 0.509615
O O16 0.274807 0.336899 0.572330
#
# Coordination Sequence:
#
# PCOD9229177 Si02
#       7
#     4   4   4   4   4   4   4
#     4  10  22  40  69 103 138 181 236 299 367 428
#     4  12  23  45  78 105 136 186 250 312 356 427
#     4  12  29  48  68 103 152 194 240 295 376 452
#     4  10  19  37  67 106 134 166 234 304 360 403
#     4  10  22  42  72 104 136 187 246 302 361 425
#     4  10  23  45  68  99 141 190 244 300 357 426
#     4  12  25  44  71 107 145 193 241 294 374 451
#
# _framework density 24.360806
#
# number of rings (size 3 to 8) (size 9 to 14) (size 15 to 20)
#    0.000    1.143    2.857    3.000    4.000    0.571 
#    2.571    1.429    0.000    0.000    0.000    0.000 
#    0.000    0.000    0.000    0.000    0.000    0.000 
#
# Total GULP energy -156217.529779 kJ/mol
# GULP energy per Si atom -5579.197492 kJ/mol
# Density = 2.430536 g / cm^3
# Si number density = 24.360806 Si / 1000 Ang^3
#
#
#
# Elastic Constant Matrix: (Units=GPa)
#
#
# Indices 1 2 3 4 5 6 
#
# 1 116.1780 27.7038 -9.8102 0.0000 -8.2931 0.0000
# 2 27.7038 78.9874 -10.3939 0.0000 4.3290 0.0000
# 3 -9.8102 -10.3939 68.1963 0.0000 -11.0091 0.0000
# 4 0.0000 0.0000 0.0000 -51.8614 0.0000 73.8529
# 5 -8.2931 4.3290 -11.0091 0.0000 44.7220 0.0000
# 6 0.0000 0.0000 0.0000 73.8529 0.0000 -63.4788
#
#
#
# Elastic Compliance Matrix: (Units=1/GPa)
#
#
# Indices 1 2 3 4 5 6 
#
# 1 0.009691 -0.003365 0.001275 0.000000 0.002437 0.000000
# 2 -0.003365 0.014115 0.001402 0.000000 -0.001645 0.000000
# 3 0.001275 0.001402 0.015701 0.000000 0.003966 0.000000
# 4 0.000000 0.000000 0.000000 0.029359 0.000000 0.034157
# 5 0.002437 -0.001645 0.003966 0.000000 0.023948 0.000000
# 6 0.000000 0.000000 0.000000 0.034157 0.000000 0.023986
#
#
# Mechanical properties :
#
#
# Convention : Reuss Voigt Hill
#
# Bulk Modulus (GPa) = 26.22612 30.92899 28.57755
# Shear Modulus (GPa) = 38.20074 2.93382 20.56728
#
# Velocity S-wave (km/s) = 3.96425 1.09861 2.90880
# Velocity P-wave (km/s) = 5.63407 3.78590 4.79978
#
# Compressibility (1/GPa) = 0.03812992
#
# Stress axis : x y z
#
# Youngs Moduli (GPa) = 103.18359 70.84616 63.69127
#
# Poissons Ratio (x) = 0.23840 -0.08118
# Poissons Ratio (y) = 0.34721 -0.08927
# Poissons Ratio (z) = -0.13152 -0.09930
#
# Static dielectric constant tensor:
#      x y z
#    x 1.992630 0.000000 0.053670 
#    y 0.000000 2.060970 0.000000 
#    z 0.053670 0.000000 2.033470 
# 
# From -- ./inp_files/50426.got.cif
#   From: 2010.05.17/outbox.cif.g08.bks.cpg/sg13_26_cif.got.tgz:50426.got - 2010.06.03 16:44:36.
