data_PCOD9229744
_publ_section_title
;
Structure prediction by ZEFSAII (Michael W. Deem and Ramdas Pophale) SiO2 
 PCOD9229744
Probable space group: P 2/C
;
_chemical_formula_sum "Si O2"
_cell_formula_units_Z 22
_cell_length_a 11.055263
_cell_length_b 11.860328
_cell_length_c 14.227477
_cell_angle_alpha 90.000000
_cell_angle_beta 153.081716
_cell_angle_gamma 90.000000
_cell_volume 844.544726
_symmetry_space_group_name_H-M "P 2/C"
_symmetry_group_IT_number 13
_symmetry_cell_setting 'monoclinic'
loop_
_space_group_symop_operation_xyz
x,y,z
-x,y,1/2-z
-x,-y,-z
x,-y,1/2+z
loop_
_atom_site_type_symbol
_atom_site_label
_atom_site_fract_x
_atom_site_fract_y
_atom_site_fract_z
Si Si1 0.500000 0.037526 0.250000
Si Si2 0.515602 0.650778 0.108349
Si Si3 0.068895 0.625906 0.507162
Si Si4 0.358323 0.120354 0.475910
Si Si5 0.373961 0.399031 0.031620
Si Si6 0.061989 0.922650 0.189883
O O1 0.571689 0.960851 0.388688
O O2 0.794897 0.095060 0.442722
O O3 0.307033 0.751523 0.967251
O O4 0.401793 0.533988 0.068153
O O5 0.798071 0.688059 0.349967
O O6 0.616171 0.619489 0.072847
O O7 0.347682 0.659354 0.746388
O O8 0.148294 0.633180 0.451003
O O9 0.000000 0.500000 0.500000
O O10 0.649767 0.128233 0.630830
O O11 0.144283 0.055735 0.262501
O O12 0.000000 0.876865 0.250000
#
# Coordination Sequence:
#
# PCOD9229744 Si02
#       6
#     2   4   4   4   4   4
#     4  10  20  38  60  82 110 146 182 226 286 338
#     4  10  20  34  54  79 107 147 184 221 271 322
#     4   9  18  33  52  73 104 142 181 224 267 314
#     4  10  21  36  58  85 113 144 186 232 277 333
#     4   9  19  35  51  75 110 143 181 225 269 317
#     4   9  20  39  58  82 115 146 180 229 283 337
#
# _framework density 26.049538999999999
#
# number of rings (size 3 to 8) (size 9 to 14) (size 15 to 20)
#    0.000    2.545    0.000    1.091    0.000    5.818 
#    0.000   16.364    0.000    0.000    0.000    0.000 
#    0.000    0.000    0.000    0.000    0.000    0.000 
#
# Total GULP energy -122640.669175 kJ/mol
# GULP energy per Si atom -5574.575872 kJ/mol
# Density = 2.599025 g / cm^3
# Si number density = 26.049539 Si / 1000 Ang^3
#
#
#
# Elastic Constant Matrix: (Units=GPa)
#
#
# Indices 1 2 3 4 5 6 
#
# 1 66.7423 -19.3891 13.0989 0.0000 9.5896 0.0000
# 2 -19.3891 89.2877 22.9115 0.0000 4.6533 0.0000
# 3 13.0989 22.9115 143.8781 0.0000 32.5656 0.0000
# 4 0.0000 0.0000 0.0000 21.7419 0.0000 -18.9170
# 5 9.5896 4.6533 32.5656 0.0000 35.6558 0.0000
# 6 0.0000 0.0000 0.0000 -18.9170 0.0000 -8.5831
#
#
#
# Elastic Compliance Matrix: (Units=1/GPa)
#
#
# Indices 1 2 3 4 5 6 
#
# 1 0.017043 0.004249 -0.001343 0.000000 -0.003912 0.000000
# 2 0.004249 0.012738 -0.002244 0.000000 -0.000755 0.000000
# 3 -0.001343 -0.002244 0.009180 0.000000 -0.007730 0.000000
# 4 0.000000 0.000000 0.000000 0.015764 0.000000 -0.034744
# 5 -0.003912 -0.000755 -0.007730 0.000000 0.036257 0.000000
# 6 0.000000 0.000000 0.000000 -0.034744 0.000000 -0.039933
#
#
# Mechanical properties :
#
#
# Convention : Reuss Voigt Hill
#
# Bulk Modulus (GPa) = 24.82318 37.01677 30.91997
# Shear Modulus (GPa) = 79.17346 28.64870 53.91108
#
# Velocity S-wave (km/s) = 5.51900 3.31989 4.55418
# Velocity P-wave (km/s) = 7.08254 5.37927 6.28884
#
# Compressibility (1/GPa) = 0.04028493
#
# Stress axis : x y z
#
# Youngs Moduli (GPa) = 58.67475 78.50657 108.93753
#
# Poissons Ratio (x) = -0.33361 0.14629
# Poissons Ratio (y) = -0.24933 0.24449
# Poissons Ratio (z) = 0.07880 0.17619
#
# Static dielectric constant tensor:
#      x y z
#    x 2.117510 0.000000 -0.005070 
#    y 0.000000 2.110520 0.000000 
#    z -0.005070 0.000000 2.147930 
# 
# From -- ./inp_files/51359.got.cif
#   From: 2010.05.17/outbox.cif.g08.bks.cpg/sg13_26_cif.got.tgz:51359.got - 2010.06.03 16:44:36.
