data_PCOD9229641
_publ_section_title
;
Structure prediction by ZEFSAII (Michael W. Deem and Ramdas Pophale) SiO2 
 PCOD9229641
Probable space group: P 2/C
;
_chemical_formula_sum "Si O2"
_cell_formula_units_Z 28
_cell_length_a 19.181229
_cell_length_b 11.726660
_cell_length_c 10.501092
_cell_angle_alpha 90.000000
_cell_angle_beta 144.080086
_cell_angle_gamma 90.000000
_cell_volume 1385.693444
_symmetry_space_group_name_H-M "P 2/C"
_symmetry_group_IT_number 13
_symmetry_cell_setting 'monoclinic'
loop_
_space_group_symop_operation_xyz
x,y,z
-x,y,1/2-z
-x,-y,-z
x,-y,1/2+z
loop_
_atom_site_type_symbol
_atom_site_label
_atom_site_fract_x
_atom_site_fract_y
_atom_site_fract_z
Si Si1 0.990058 0.401581 0.590387
Si Si2 0.357698 0.008558 0.805373
Si Si3 0.740693 0.356127 0.113889
Si Si4 0.561122 0.620823 0.564163
Si Si5 0.599836 0.238462 0.508572
Si Si6 0.754306 0.386218 0.560899
Si Si7 0.354719 0.880813 0.045335
O O1 0.113832 0.335276 0.753632
O O2 0.000000 0.445010 0.750000
O O3 0.000000 0.500000 0.500000
O O4 0.862375 0.345631 0.375779
O O5 0.320067 0.026221 0.602829
O O6 0.336849 0.123406 0.856203
O O7 0.500000 0.000000 0.000000
O O8 0.317620 0.910546 0.844353
O O9 0.620419 0.377148 0.015716
O O10 0.757697 0.475217 0.064662
O O11 0.711298 0.234827 0.009616
O O12 0.500000 0.500000 0.500000
O O13 0.466994 0.715203 0.465556
O O14 0.670952 0.643132 0.820515
O O15 0.500000 0.218148 0.250000
O O16 0.687516 0.335565 0.584920
O O17 0.500000 0.872175 0.250000
#
# Coordination Sequence:
#
# PCOD9229641 Si02
#       7
#     4   4   4   4   4   4   4
#     4  10  21  42  60  84 120 166 212 245 289 360
#     4  10  20  38  57  84 122 158 204 240 304 367
#     4  11  22  35  58  86 119 160 205 243 303 359
#     4  11  20  30  51  84 127 155 192 236 301 360
#     4  10  20  33  53  86 121 159 192 241 306 363
#     4  10  22  35  54  85 125 163 194 242 297 362
#     4  10  22  36  60  87 119 158 199 255 302 365
#
# _framework density 20.206486999999999
#
# number of rings (size 3 to 8) (size 9 to 14) (size 15 to 20)
#    0.000    1.714    2.857    3.000    4.000    1.143 
#    2.571    0.000    0.000    0.857    0.000    0.000 
#    0.000    0.000    0.000    0.000    0.000    0.000 
#
# Total GULP energy -155991.754346 kJ/mol
# GULP energy per Si atom -5571.134084 kJ/mol
# Density = 2.016050 g / cm^3
# Si number density = 20.206487 Si / 1000 Ang^3
#
#
#
# Elastic Constant Matrix: (Units=GPa)
#
#
# Indices 1 2 3 4 5 6 
#
# 1 83.2479 10.3283 32.4142 0.0000 -2.5982 0.0000
# 2 10.3283 53.0974 10.3596 0.0000 -1.1727 0.0000
# 3 32.4142 10.3596 87.9295 0.0000 2.5221 0.0000
# 4 0.0000 0.0000 0.0000 16.4350 0.0000 -8.1101
# 5 -2.5982 -1.1727 2.5221 0.0000 29.1613 0.0000
# 6 0.0000 0.0000 0.0000 -8.1101 0.0000 19.2371
#
#
#
# Elastic Compliance Matrix: (Units=1/GPa)
#
#
# Indices 1 2 3 4 5 6 
#
# 1 0.014266 -0.001744 -0.005101 0.000000 0.001642 0.000000
# 2 -0.001744 0.019517 -0.001679 0.000000 0.000775 0.000000
# 3 -0.005101 -0.001679 0.013499 0.000000 -0.001689 0.000000
# 4 0.000000 0.000000 0.000000 0.076829 0.000000 0.032390
# 5 0.001642 0.000775 -0.001689 0.000000 0.034616 0.000000
# 6 0.000000 0.000000 0.000000 0.032390 0.000000 0.065638
#
#
# Mechanical properties :
#
#
# Convention : Reuss Voigt Hill
#
# Bulk Modulus (GPa) = 33.07304 36.71991 34.89647
# Shear Modulus (GPa) = 19.88150 24.37820 22.12985
#
# Velocity S-wave (km/s) = 3.14015 3.47717 3.31295
# Velocity P-wave (km/s) = 5.43603 5.85942 5.65169
#
# Compressibility (1/GPa) = 0.03023611
#
# Stress axis : x y z
#
# Youngs Moduli (GPa) = 70.09711 51.23705 74.07788
#
# Poissons Ratio (x) = 0.08933 0.37785
# Poissons Ratio (y) = 0.12222 0.12437
# Poissons Ratio (z) = 0.35754 0.08602
#
# Static dielectric constant tensor:
#      x y z
#    x 1.766680 0.000000 -0.035200 
#    y 0.000000 1.809200 0.000000 
#    z -0.035200 0.000000 1.762270 
# 
# From -- ./inp_files/40813.got.cif
#   From: 2010.05.17/outbox.cif.g08.bks.cpg/sg13_21_cif.got.tgz:40813.got - 2010.06.03 16:44:36.
