data_PCOD9229727
_publ_section_title
;
Structure prediction by ZEFSAII (Michael W. Deem and Ramdas Pophale) SiO2 
 PCOD9229727
Probable space group: P 2/C
;
_chemical_formula_sum "Si O2"
_cell_formula_units_Z 32
_cell_length_a 9.250855
_cell_length_b 11.598217
_cell_length_c 32.137835
_cell_angle_alpha 90.000000
_cell_angle_beta 30.282634
_cell_angle_gamma 90.000000
_cell_volume 1738.798795
_symmetry_space_group_name_H-M "P 2/C"
_symmetry_group_IT_number 13
_symmetry_cell_setting 'monoclinic'
loop_
_space_group_symop_operation_xyz
x,y,z
-x,y,1/2-z
-x,-y,-z
x,-y,1/2+z
loop_
_atom_site_type_symbol
_atom_site_label
_atom_site_fract_x
_atom_site_fract_y
_atom_site_fract_z
Si Si1 0.231361 0.943256 0.617854
Si Si2 0.787271 0.842891 0.432373
Si Si3 0.857621 0.426671 0.572486
Si Si4 0.792534 0.573330 0.427515
Si Si5 0.561510 0.056745 0.117855
Si Si6 0.881507 0.842891 0.067627
Si Si7 0.327235 0.205774 0.250000
Si Si8 0.324766 0.527702 0.750000
O O1 0.508862 0.893055 0.525129
O O2 0.308895 0.943216 0.647035
O O3 0.970741 0.860384 0.671857
O O4 0.166930 0.071554 0.617399
O O5 0.738487 0.709278 0.434245
O O6 0.047302 0.849737 0.400900
O O7 0.843953 0.290723 0.565756
O O8 0.538341 0.469689 0.663761
O O9 0.000000 0.500000 0.500000
O O10 0.054280 0.439208 0.565240
O O11 0.500000 0.500000 0.500000
O O12 0.020909 0.530312 0.336239
O O13 0.498108 0.139615 0.171859
O O14 0.628675 0.928446 0.117399
O O15 0.840364 0.106947 0.025130
O O16 0.500000 0.201783 0.250000
O O17 0.280654 0.338812 0.250000
O O18 0.500000 0.523277 0.750000
#
# Coordination Sequence:
#
# PCOD9229727 Si02
#       8
#     4   4   4   4   4   4   4   4
#     4  10  20  34  53  78 107 137 174 222 270 320
#     4   9  19  35  55  79 106 139 178 220 272 329
#     4  10  20  36  57  81 111 147 186 227 273 325
#     4  10  20  36  57  81 111 147 186 227 273 325
#     4  10  20  34  53  78 107 137 174 222 270 320
#     4   9  19  35  55  79 106 139 178 220 272 329
#     4  11  21  34  53  76 104 139 178 217 266 323
#     4   9  20  36  55  80 108 141 182 225 270 329
#
# _framework density 18.403510000000001
#
# number of rings (size 3 to 8) (size 9 to 14) (size 15 to 20)
#    0.000    2.250    0.000    2.625    0.000    3.000 
#    0.000    4.375    0.000    0.000    0.000    0.000 
#    0.000    0.000    0.000    0.000    0.000    0.000 
#
# Total GULP energy -178548.648261 kJ/mol
# GULP energy per Si atom -5579.645258 kJ/mol
# Density = 1.836162 g / cm^3
# Si number density = 18.403510 Si / 1000 Ang^3
#
#
#
# Elastic Constant Matrix: (Units=GPa)
#
#
# Indices 1 2 3 4 5 6 
#
# 1 65.8123 63.5943 28.2834 0.0000 -0.6177 0.0000
# 2 63.5943 187.3355 57.0577 0.0000 0.2176 0.0000
# 3 28.2834 57.0577 79.1817 0.0000 0.1758 0.0000
# 4 0.0000 0.0000 0.0000 23.9209 0.0000 0.0144
# 5 -0.6177 0.2176 0.1758 0.0000 28.0580 0.0000
# 6 0.0000 0.0000 0.0000 0.0144 0.0000 24.3506
#
#
#
# Elastic Compliance Matrix: (Units=1/GPa)
#
#
# Indices 1 2 3 4 5 6 
#
# 1 0.023299 -0.006886 -0.003362 0.000000 0.000587 0.000000
# 2 -0.006886 0.008874 -0.003935 0.000000 -0.000196 0.000000
# 3 -0.003362 -0.003935 0.016665 0.000000 -0.000148 0.000000
# 4 0.000000 0.000000 0.000000 0.041805 0.000000 -0.000025
# 5 0.000587 -0.000196 -0.000148 0.000000 0.035656 0.000000
# 6 0.000000 0.000000 0.000000 -0.000025 0.000000 0.041067
#
#
# Mechanical properties :
#
#
# Convention : Reuss Voigt Hill
#
# Bulk Modulus (GPa) = 48.84193 70.02223 59.43208
# Shear Modulus (GPa) = 24.68470 27.49218 26.08844
#
# Velocity S-wave (km/s) = 3.66635 3.86924 3.76916
# Velocity P-wave (km/s) = 6.67233 7.62182 7.16283
#
# Compressibility (1/GPa) = 0.02047421
#
# Stress axis : x y z
#
# Youngs Moduli (GPa) = 42.92053 112.68619 60.00436
#
# Poissons Ratio (x) = 0.77596 0.20171
# Poissons Ratio (y) = 0.29555 0.23609
# Poissons Ratio (z) = 0.14428 0.44337
#
# Static dielectric constant tensor:
#      x y z
#    x 1.624350 0.000000 -0.000470 
#    y 0.000000 1.604410 0.000000 
#    z -0.000470 0.000000 1.638660 
# 
# From -- ./inp_files/96120.got.cif
#   From: 2010.05.17/outbox.cif.g08.bks.cpg/sg13_49_cif.got.tgz:96120.got - 2010.06.03 16:44:36.
