data_PCOD9229262
_publ_section_title
;
Structure prediction by ZEFSAII (Michael W. Deem and Ramdas Pophale) SiO2 
 PCOD9229262
Probable space group: P 2/C
;
_chemical_formula_sum "Si O2"
_cell_formula_units_Z 28
_cell_length_a 17.970926
_cell_length_b 5.144915
_cell_length_c 16.798109
_cell_angle_alpha 90.000000
_cell_angle_beta 138.181053
_cell_angle_gamma 90.000000
_cell_volume 1035.597368
_symmetry_space_group_name_H-M "P 2/C"
_symmetry_group_IT_number 13
_symmetry_cell_setting 'monoclinic'
loop_
_space_group_symop_operation_xyz
x,y,z
-x,y,1/2-z
-x,-y,-z
x,-y,1/2+z
loop_
_atom_site_type_symbol
_atom_site_label
_atom_site_fract_x
_atom_site_fract_y
_atom_site_fract_z
Si Si1 0.466868 0.374466 0.595987
Si Si2 0.115541 0.931226 0.317537
Si Si3 0.130676 0.336704 0.475762
Si Si4 0.347132 0.431925 0.160219
Si Si5 0.280631 0.980410 0.709302
Si Si6 0.070712 0.195395 0.111556
Si Si7 0.353579 0.854066 0.441988
O O1 0.595964 0.389583 0.725603
O O2 0.406003 0.476395 0.627568
O O3 0.428577 0.598182 0.504963
O O4 0.417970 0.098445 0.531889
O O5 0.092206 0.051514 0.212234
O O6 0.237177 0.810610 0.396783
O O7 0.000000 0.780882 0.250000
O O8 0.123500 0.160971 0.390478
O O9 0.216549 0.567791 0.533100
O O10 0.200195 0.167826 0.595393
O O11 0.014918 0.415299 0.425546
O O12 0.364430 0.151431 0.213241
O O13 0.190720 0.755114 0.668845
O O14 0.327864 0.073220 0.830774
O O15 0.000000 0.000000 0.000000
#
# Coordination Sequence:
#
# PCOD9229262 Si02
#       7
#     4   4   4   4   4   4   4
#     4  11  27  45  69  97 135 184 232 288 339 407
#     4   9  17  36  69  95 136 181 226 277 343 415
#     4  10  19  38  63  93 135 173 230 278 340 413
#     4  11  25  40  67  96 129 182 233 284 343 409
#     4  10  23  39  66  96 134 176 225 286 353 410
#     4   8  17  35  62  97 135 175 219 283 348 418
#     4  11  24  46  67  98 141 175 229 288 348 408
#
# _framework density 27.037533
#
# number of rings (size 3 to 8) (size 9 to 14) (size 15 to 20)
#    0.000    2.000    1.429    0.857    4.000    2.857 
#    0.000    0.714   15.714    0.000    0.000    0.000 
#    0.000    0.000    0.000    0.000    0.000    0.000 
#
# Total GULP energy -156529.880780 kJ/mol
# GULP energy per Si atom -5590.352885 kJ/mol
# Density = 2.697599 g / cm^3
# Si number density = 27.037533 Si / 1000 Ang^3
#
#
#
# Elastic Constant Matrix: (Units=GPa)
#
#
# Indices 1 2 3 4 5 6 
#
# 1 116.9093 43.2975 56.0471 0.0000 -26.0157 0.0000
# 2 43.2975 72.0313 32.9821 0.0000 -1.2484 0.0000
# 3 56.0471 32.9821 159.4619 0.0000 -16.8815 0.0000
# 4 0.0000 0.0000 0.0000 20.4829 0.0000 -23.3894
# 5 -26.0157 -1.2484 -16.8815 0.0000 44.4116 0.0000
# 6 0.0000 0.0000 0.0000 -23.3894 0.0000 20.2978
#
#
#
# Elastic Compliance Matrix: (Units=1/GPa)
#
#
# Indices 1 2 3 4 5 6 
#
# 1 0.014033 -0.007063 -0.002732 0.000000 0.006983 0.000000
# 2 -0.007063 0.018918 -0.001888 0.000000 -0.004323 0.000000
# 3 -0.002732 -0.001888 0.007759 0.000000 0.001296 0.000000
# 4 0.000000 0.000000 0.000000 -0.154585 0.000000 -0.178130
# 5 0.006983 -0.004323 0.001296 0.000000 0.026978 0.000000
# 6 0.000000 0.000000 0.000000 -0.178130 0.000000 -0.155995
#
#
# Mechanical properties :
#
#
# Convention : Reuss Voigt Hill
#
# Bulk Modulus (GPa) = 57.65824 68.11733 62.88778
# Shear Modulus (GPa) = -23.39264 31.44351 4.02544
#
# Velocity S-wave (km/s) = -2.94460 3.41392 1.22150
# Velocity P-wave (km/s) = 3.13219 6.38655 5.02985
#
# Compressibility (1/GPa) = 0.01734358
#
# Stress axis : x y z
#
# Youngs Moduli (GPa) = 71.25862 52.85933 128.88142
#
# Poissons Ratio (x) = 0.37336 0.35212
# Poissons Ratio (y) = 0.50332 0.24333
# Poissons Ratio (z) = 0.19469 0.09980
#
# Static dielectric constant tensor:
#      x y z
#    x 2.255710 0.000000 0.101360 
#    y 0.000000 2.037990 0.000000 
#    z 0.101360 0.000000 2.136250 
# 
# From -- ./inp_files/70330.got.cif
#   From: 2010.05.17/outbox.cif.g08.bks.cpg/sg13_36_cif.got.tgz:70330.got - 2010.06.03 16:44:36.
