data_PCOD9229677
_publ_section_title
;
Structure prediction by ZEFSAII (Michael W. Deem and Ramdas Pophale) SiO2 
 PCOD9229677
Probable space group: P 2/C
;
_chemical_formula_sum "Si O2"
_cell_formula_units_Z 30
_cell_length_a 7.156708
_cell_length_b 8.699373
_cell_length_c 21.357921
_cell_angle_alpha 90.000000
_cell_angle_beta 62.788872
_cell_angle_gamma 90.000000
_cell_volume 1182.556737
_symmetry_space_group_name_H-M "P 2/C"
_symmetry_group_IT_number 13
_symmetry_cell_setting 'monoclinic'
loop_
_space_group_symop_operation_xyz
x,y,z
-x,y,1/2-z
-x,-y,-z
x,-y,1/2+z
loop_
_atom_site_type_symbol
_atom_site_label
_atom_site_fract_x
_atom_site_fract_y
_atom_site_fract_z
Si Si1 0.241398 0.131927 0.930091
Si Si2 0.000000 0.850499 0.750000
Si Si3 0.385433 0.865825 0.977413
Si Si4 0.519460 0.369297 0.351951
Si Si5 0.954322 0.271890 0.658963
Si Si6 0.149392 0.379958 0.313590
Si Si7 0.705247 0.870554 0.298948
Si Si8 0.499877 0.367136 0.950096
O O1 0.086786 0.191321 0.900907
O O2 0.473448 0.121728 0.861717
O O3 0.287449 0.267264 0.973504
O O4 0.216679 0.964509 0.964503
O O5 0.011137 0.750639 0.684575
O O6 0.798666 0.960383 0.772179
O O7 0.512083 0.763199 0.906681
O O8 0.336867 0.745374 0.039856
O O9 0.500000 0.000000 0.000000
O O10 0.297273 0.349653 0.349975
O O11 0.696228 0.375063 0.270988
O O12 0.531678 0.538164 0.381677
O O13 0.961511 0.456619 0.658403
O O14 0.742800 0.229421 0.731517
O O15 0.134646 0.199680 0.674621
O O16 0.500000 0.500000 0.000000
#
# Coordination Sequence:
#
# PCOD9229677 Si02
#       8
#     4   2   4   4   4   4   4   4
#     4  11  19  36  63  84 113 161 199 243 295 356
#     4  10  22  38  48  84 132 160 184 242 296 364
#     4   9  20  34  57  86 111 155 201 249 292 342
#     4  10  20  33  59  90 113 153 197 238 302 369
#     4  10  21  36  56  88 123 160 192 237 300 370
#     4  11  21  35  56  90 125 149 192 242 308 363
#     4  10  23  36  55  87 126 160 194 234 299 369
#     4   9  18  35  56  88 115 146 205 252 290 349
#
# _framework density 25.368760999999999
#
# number of rings (size 3 to 8) (size 9 to 14) (size 15 to 20)
#    0.000    2.133    1.333    2.800    5.600    0.000 
#    0.000    0.000    0.000    8.000   13.867    0.000 
#    0.000    0.000    0.000    0.000    0.000    0.000 
#
# Total GULP energy -167583.012652 kJ/mol
# GULP energy per Si atom -5586.100422 kJ/mol
# Density = 2.531102 g / cm^3
# Si number density = 25.368761 Si / 1000 Ang^3
#
#
#
# Elastic Constant Matrix: (Units=GPa)
#
#
# Indices 1 2 3 4 5 6 
#
# 1 117.4366 26.2613 24.6319 0.0000 31.3906 0.0000
# 2 26.2613 168.0660 46.3200 0.0000 20.5242 0.0000
# 3 24.6319 46.3200 110.0085 0.0000 30.6377 0.0000
# 4 0.0000 0.0000 0.0000 54.2467 0.0000 12.6471
# 5 31.3906 20.5242 30.6377 0.0000 38.7192 0.0000
# 6 0.0000 0.0000 0.0000 12.6471 0.0000 19.3367
#
#
#
# Elastic Compliance Matrix: (Units=1/GPa)
#
#
# Indices 1 2 3 4 5 6 
#
# 1 0.010947 -0.000724 0.000280 0.000000 -0.008713 0.000000
# 2 -0.000724 0.006867 -0.002410 0.000000 -0.001146 0.000000
# 3 0.000280 -0.002410 0.012506 0.000000 -0.008845 0.000000
# 4 0.000000 0.000000 0.000000 0.021751 0.000000 -0.014226
# 5 -0.008713 -0.001146 -0.008845 0.000000 0.040498 0.000000
# 6 0.000000 0.000000 0.000000 -0.014226 0.000000 0.061020
#
#
# Mechanical properties :
#
#
# Convention : Reuss Voigt Hill
#
# Bulk Modulus (GPa) = 40.62910 65.54862 53.08886
# Shear Modulus (GPa) = 29.85065 42.34706 36.09885
#
# Velocity S-wave (km/s) = 3.43398 4.09009 3.77631
# Velocity P-wave (km/s) = 5.63677 6.94259 6.32348
#
# Compressibility (1/GPa) = 0.02461290
#
# Stress axis : x y z
#
# Youngs Moduli (GPa) = 91.34601 145.61546 79.96357
#
# Poissons Ratio (x) = 0.10539 -0.02241
# Poissons Ratio (y) = 0.06611 0.19273
# Poissons Ratio (z) = -0.02560 0.35097
#
# Static dielectric constant tensor:
#      x y z
#    x 2.175170 0.000000 -0.129790 
#    y 0.000000 2.048680 0.000000 
#    z -0.129790 0.000000 2.101740 
# 
# From -- ./inp_files/75666.got.cif
#   From: 2010.05.17/outbox.cif.g08.bks.cpg/sg13_38_cif.got.tgz:75666.got - 2010.06.03 16:44:36.
