data_PCOD9229406
_publ_section_title
;
Structure prediction by ZEFSAII (Michael W. Deem and Ramdas Pophale) SiO2 
 PCOD9229406
Probable space group: P 2/C
;
_chemical_formula_sum "Si O2"
_cell_formula_units_Z 28
_cell_length_a 12.158488
_cell_length_b 8.282337
_cell_length_c 31.651296
_cell_angle_alpha 90.000000
_cell_angle_beta 25.572822
_cell_angle_gamma 90.000000
_cell_volume 1375.826528
_symmetry_space_group_name_H-M "P 2/C"
_symmetry_group_IT_number 13
_symmetry_cell_setting 'monoclinic'
loop_
_space_group_symop_operation_xyz
x,y,z
-x,y,1/2-z
-x,-y,-z
x,-y,1/2+z
loop_
_atom_site_type_symbol
_atom_site_label
_atom_site_fract_x
_atom_site_fract_y
_atom_site_fract_z
Si Si1 0.755264 0.847353 0.266151
Si Si2 0.893852 0.869549 0.618573
Si Si3 0.778304 0.748095 0.171274
Si Si4 0.661442 0.159208 0.951161
Si Si5 0.562810 0.705309 0.050950
Si Si6 0.304904 0.655141 0.971819
Si Si7 0.526486 0.164033 0.169489
O O1 0.566389 0.989630 0.315962
O O2 0.753110 0.713833 0.229780
O O3 0.654500 0.785590 0.345095
O O4 0.053146 0.889219 0.162214
O O5 0.701694 0.789724 0.719338
O O6 0.778209 0.842480 0.611815
O O7 0.175306 0.803590 0.530109
O O8 0.863695 0.063344 0.635878
O O9 0.500000 0.728470 0.250000
O O10 0.998409 0.646626 0.073317
O O11 0.531996 0.285215 0.964153
O O12 0.656939 0.229262 0.000261
O O13 0.500000 0.000000 0.000000
O O14 0.597024 0.521662 0.052457
O O15 0.427171 0.727585 0.887354
#
# Coordination Sequence:
#
# PCOD9229406 Si02
#       7
#     4   4   4   4   4   4   4
#     4  10  21  39  67  94 120 163 216 270 311 371
#     4  10  21  40  67  92 127 168 216 278 299 376
#     4  10  19  40  63  92 121 164 219 267 312 366
#     4  11  23  46  71  93 120 166 227 273 309 368
#     4  12  25  41  60  96 136 170 206 253 338 391
#     4  11  26  39  62  93 134 172 203 264 331 391
#     4  10  20  41  64  96 122 163 224 261 320 364
#
# _framework density 20.351403000000001
#
# number of rings (size 3 to 8) (size 9 to 14) (size 15 to 20)
#    0.000    1.429    2.857    5.143    2.000    4.000 
#    2.571    6.429    0.000    0.000    0.000    0.000 
#    0.000    0.000    0.000    0.000    0.000    0.000 
#
# Total GULP energy -156308.975283 kJ/mol
# GULP energy per Si atom -5582.463403 kJ/mol
# Density = 2.030508 g / cm^3
# Si number density = 20.351403 Si / 1000 Ang^3
#
#
#
# Elastic Constant Matrix: (Units=GPa)
#
#
# Indices 1 2 3 4 5 6 
#
# 1 126.5050 34.3295 62.0280 0.0000 1.6674 0.0000
# 2 34.3295 29.1486 14.2440 0.0000 12.8685 0.0000
# 3 62.0280 14.2440 91.4247 -0.0001 -1.2700 0.0000
# 4 0.0000 0.0000 -0.0001 -11.0033 0.0000 0.0488
# 5 1.6674 12.8685 -1.2700 0.0000 36.3242 0.0000
# 6 0.0000 0.0000 0.0000 0.0488 0.0000 22.1132
#
#
#
# Elastic Compliance Matrix: (Units=1/GPa)
#
#
# Indices 1 2 3 4 5 6 
#
# 1 0.016991 -0.018159 -0.008624 0.000000 0.005352 0.000000
# 2 -0.018159 0.064398 0.001982 0.000000 -0.021911 0.000000
# 3 -0.008624 0.001982 0.016484 0.000000 0.000270 0.000000
# 4 0.000000 0.000000 0.000000 -0.090881 0.000000 0.000201
# 5 0.005352 -0.021911 0.000270 0.000000 0.035056 0.000000
# 6 0.000000 0.000000 0.000000 0.000201 0.000000 0.045221
#
#
# Mechanical properties :
#
#
# Convention : Reuss Voigt Hill
#
# Bulk Modulus (GPa) = 20.71603 52.03127 36.37365
# Shear Modulus (GPa) = 32.68819 18.58527 25.63673
#
# Velocity S-wave (km/s) = 4.01208 3.02523 3.55308
# Velocity P-wave (km/s) = 5.62704 6.15017 5.89441
#
# Compressibility (1/GPa) = 0.04827180
#
# Stress axis : x y z
#
# Youngs Moduli (GPa) = 58.85639 15.52840 60.66568
#
# Poissons Ratio (x) = 0.28198 0.52317
# Poissons Ratio (y) = 1.06877 -0.12027
# Poissons Ratio (z) = 0.50757 -0.03078
#
# Static dielectric constant tensor:
#      x y z
#    x 1.758470 0.000000 -0.002590 
#    y 0.000000 1.731060 0.000000 
#    z -0.002590 0.000000 1.732760 
# 
# From -- ./inp_files/96537.got.cif
#   From: 2010.05.17/outbox.cif.g08.bks.cpg/sg13_49_cif.got.tgz:96537.got - 2010.06.03 16:44:36.
