data_PCOD9229017
_publ_section_title
;
Structure prediction by ZEFSAII (Michael W. Deem and Ramdas Pophale) SiO2 
 PCOD9229017
Probable space group: P 2/C
;
_chemical_formula_sum "Si O2"
_cell_formula_units_Z 28
_cell_length_a 24.789898
_cell_length_b 9.629358
_cell_length_c 9.646363
_cell_angle_alpha 90.000000
_cell_angle_beta 137.772287
_cell_angle_gamma 90.000000
_cell_volume 1547.589899
_symmetry_space_group_name_H-M "P 2/C"
_symmetry_group_IT_number 13
_symmetry_cell_setting 'monoclinic'
loop_
_space_group_symop_operation_xyz
x,y,z
-x,y,1/2-z
-x,-y,-z
x,-y,1/2+z
loop_
_atom_site_type_symbol
_atom_site_label
_atom_site_fract_x
_atom_site_fract_y
_atom_site_fract_z
Si Si1 0.640409 0.877386 0.629425
Si Si2 0.040568 0.697724 0.687093
Si Si3 0.174211 0.139907 0.030248
Si Si4 0.906100 0.039847 0.347970
Si Si5 0.070163 0.389605 0.772705
Si Si6 0.423380 0.916688 0.293849
Si Si7 0.510704 0.357114 0.934377
O O1 0.731946 0.853502 0.761261
O O2 0.592912 0.926865 0.401118
O O3 0.592653 0.739602 0.595299
O O4 0.643642 0.002363 0.747304
O O5 0.098345 0.808678 0.729427
O O6 0.084961 0.552971 0.798699
O O7 0.000000 0.751407 0.750000
O O8 0.967897 0.659740 0.444595
O O9 0.122430 0.059970 0.049156
O O10 0.143087 0.296255 0.956670
O O11 0.150421 0.065301 0.841517
O O12 0.000000 0.000000 0.500000
O O13 0.000000 0.364758 0.750000
O O14 0.442693 0.754332 0.352800
O O15 0.500000 0.000000 0.500000
O O16 0.500000 0.387254 0.750000
O O17 0.500000 0.500000 0.000000
#
# Coordination Sequence:
#
# PCOD9229017 Si02
#       7
#     4   4   4   4   4   4   4
#     4  10  21  37  56  89 116 151 184 238 297 338
#     4  10  20  34  58  79 101 141 214 241 274 344
#     4  12  23  37  55  81 122 147 189 253 300 332
#     4  12  22  37  57  82 109 158 201 245 291 350
#     4  10  19  37  56  76 106 153 197 240 289 341
#     4   9  18  37  62  84 113 147 190 225 277 361
#     4   9  19  36  62  87 113 147 187 224 269 351
#
# _framework density 18.092649000000002
#
# number of rings (size 3 to 8) (size 9 to 14) (size 15 to 20)
#    0.000    1.714    2.857    3.429    0.000    2.286 
#    0.000    4.286    0.000    0.000    0.000    0.000 
#    0.000    0.000    0.000    0.000    0.000    0.000 
#
# Total GULP energy -155976.048843 kJ/mol
# GULP energy per Si atom -5570.573173 kJ/mol
# Density = 1.805147 g / cm^3
# Si number density = 18.092649 Si / 1000 Ang^3
#
#
#
# Elastic Constant Matrix: (Units=GPa)
#
#
# Indices 1 2 3 4 5 6 
#
# 1 70.0061 46.7129 30.7238 0.0000 -0.0739 0.0000
# 2 46.7129 102.6838 31.9564 0.0000 -4.0634 0.0000
# 3 30.7238 31.9564 64.7409 0.0000 0.5703 0.0000
# 4 0.0000 0.0000 0.0000 22.4185 0.0000 5.0710
# 5 -0.0739 -4.0634 0.5703 0.0000 33.8832 0.0000
# 6 0.0000 0.0000 0.0000 5.0710 0.0000 -21.4469
#
#
#
# Elastic Compliance Matrix: (Units=1/GPa)
#
#
# Indices 1 2 3 4 5 6 
#
# 1 0.022764 -0.008305 -0.006696 0.000000 -0.000834 0.000000
# 2 -0.008305 0.014610 -0.003286 0.000000 0.001789 0.000000
# 3 -0.006696 -0.003286 0.020253 0.000000 -0.000750 0.000000
# 4 0.000000 0.000000 0.000000 0.042342 0.000000 0.010011
# 5 -0.000834 0.001789 -0.000750 0.000000 0.029739 0.000000
# 6 0.000000 0.000000 0.000000 0.010011 0.000000 -0.044260
#
#
# Mechanical properties :
#
#
# Convention : Reuss Voigt Hill
#
# Bulk Modulus (GPa) = 47.50121 50.69079 49.09600
# Shear Modulus (GPa) = 38.74787 15.50681 27.12734
#
# Velocity S-wave (km/s) = 4.63280 2.93077 3.87635
# Velocity P-wave (km/s) = 7.41138 6.28734 6.87238
#
# Compressibility (1/GPa) = 0.02105209
#
# Stress axis : x y z
#
# Youngs Moduli (GPa) = 43.92910 68.44554 49.37598
#
# Poissons Ratio (x) = 0.56842 0.33064
# Poissons Ratio (y) = 0.36482 0.16226
# Poissons Ratio (z) = 0.29417 0.22493
#
# Static dielectric constant tensor:
#      x y z
#    x 1.678470 0.000000 0.021660 
#    y 0.000000 1.652300 0.000000 
#    z 0.021660 0.000000 1.492790 
# 
# From -- ./inp_files/24582.got.cif
#   From: 2010.05.17/outbox.cif.g08.bks.cpg/sg13_13_cif.got.tgz:24582.got - 2010.06.03 16:44:36.
