data_PCOD9229247
_publ_section_title
;
Structure prediction by ZEFSAII (Michael W. Deem and Ramdas Pophale) SiO2 
 PCOD9229247
Probable space group: P 2/C
;
_chemical_formula_sum "Si O2"
_cell_formula_units_Z 30
_cell_length_a 8.937240
_cell_length_b 15.236089
_cell_length_c 11.787346
_cell_angle_alpha 90.000000
_cell_angle_beta 112.125443
_cell_angle_gamma 90.000000
_cell_volume 1486.871501
_symmetry_space_group_name_H-M "P 2/C"
_symmetry_group_IT_number 13
_symmetry_cell_setting 'monoclinic'
loop_
_space_group_symop_operation_xyz
x,y,z
-x,y,1/2-z
-x,-y,-z
x,-y,1/2+z
loop_
_atom_site_type_symbol
_atom_site_label
_atom_site_fract_x
_atom_site_fract_y
_atom_site_fract_z
Si Si1 0.036126 0.404186 0.886103
Si Si2 0.700202 0.725494 0.965768
Si Si3 0.500000 0.044191 0.250000
Si Si4 0.596293 0.166762 0.074038
Si Si5 0.787335 0.296302 0.242450
Si Si6 0.931830 0.112493 0.602001
Si Si7 0.101780 0.389817 0.424023
Si Si8 0.764127 0.053345 0.944722
O O1 0.051584 0.509491 0.891060
O O2 0.000000 0.372739 0.750000
O O3 0.207208 0.361988 0.969296
O O4 0.898459 0.379475 0.939829
O O5 0.530458 0.753428 0.972119
O O6 0.679262 0.713532 0.824182
O O7 0.822100 0.804903 0.034146
O O8 0.518239 0.102789 0.143836
O O9 0.336852 0.989788 0.186122
O O10 0.762987 0.203990 0.173460
O O11 0.639061 0.115080 0.974216
O O12 0.763869 0.365185 0.131343
O O13 0.956340 0.325027 0.345814
O O14 0.000000 0.117577 0.750000
O O15 0.084703 0.105689 0.561638
O O16 0.830550 0.023334 0.546991
#
# Coordination Sequence:
#
# PCOD9229247 Si02
#       8
#     4   4   2   4   4   4   4   4
#     4  10  19  38  62  93 127 163 205 264 325 390
#     4  11  23  38  62  94 128 168 215 265 334 379
#     4  12  22  46  62  86 130 176 218 266 330 392
#     4  12  23  40  64  93 127 172 213 266 330 386
#     4  10  19  38  62  90 125 156 222 267 313 400
#     4  11  24  44  61  97 128 173 225 279 322 390
#     4   9  20  35  66  95 119 162 213 261 329 384
#     4  11  26  39  68  91 128 175 227 271 327 384
#
# _framework density 20.176593
#
# number of rings (size 3 to 8) (size 9 to 14) (size 15 to 20)
#    0.000    1.333    4.000    1.600    7.467    1.067 
#    0.000    0.667    0.000    0.000    0.000    0.000 
#    0.000    0.000    0.000    0.000    0.000    0.000 
#
# Total GULP energy -167133.013361 kJ/mol
# GULP energy per Si atom -5571.100445 kJ/mol
# Density = 2.013067 g / cm^3
# Si number density = 20.176593 Si / 1000 Ang^3
#
#
#
# Elastic Constant Matrix: (Units=GPa)
#
#
# Indices 1 2 3 4 5 6 
#
# 1 75.6918 30.0242 27.7811 0.0000 -0.4860 0.0000
# 2 30.0242 32.7882 10.0378 0.0000 4.9770 0.0000
# 3 27.7811 10.0378 108.9361 0.0000 -19.4050 0.0000
# 4 0.0000 0.0000 0.0000 12.4846 0.0000 -10.7457
# 5 -0.4860 4.9770 -19.4050 0.0000 36.7665 0.0000
# 6 0.0000 0.0000 0.0000 -10.7457 0.0000 17.0759
#
#
#
# Elastic Compliance Matrix: (Units=1/GPa)
#
#
# Indices 1 2 3 4 5 6 
#
# 1 0.022284 -0.019410 -0.003724 0.000000 0.000957 0.000000
# 2 -0.019410 0.049706 -0.000965 0.000000 -0.007494 0.000000
# 3 -0.003724 -0.000965 0.011295 0.000000 0.006043 0.000000
# 4 0.000000 0.000000 0.000000 0.174749 0.000000 0.109968
# 5 0.000957 -0.007494 0.006043 0.000000 0.031415 0.000000
# 6 0.000000 0.000000 0.000000 0.109968 0.000000 0.127764
#
#
# Mechanical properties :
#
#
# Convention : Reuss Voigt Hill
#
# Bulk Modulus (GPa) = 28.50161 39.23357 33.86759
# Shear Modulus (GPa) = 10.47985 23.23695 16.85840
#
# Velocity S-wave (km/s) = 2.28152 3.39732 2.89371
# Velocity P-wave (km/s) = 4.59317 5.90562 5.29025
#
# Compressibility (1/GPa) = 0.03508574
#
# Stress axis : x y z
#
# Youngs Moduli (GPa) = 44.87563 20.11831 88.53736
#
# Poissons Ratio (x) = 0.39051 0.32970
# Poissons Ratio (y) = 0.87106 0.08544
# Poissons Ratio (z) = 0.16711 0.01941
#
# Static dielectric constant tensor:
#      x y z
#    x 1.790690 0.000000 -0.035360 
#    y 0.000000 1.709450 0.000000 
#    z -0.035360 0.000000 1.789310 
# 
# From -- ./inp_files/30458.got.cif
#   From: 2010.05.17/outbox.cif.g08.bks.cpg/sg13_16_cif.got.tgz:30458.got - 2010.06.03 16:44:36.
