data_PCOD9229188
_publ_section_title
;
Structure prediction by ZEFSAII (Michael W. Deem and Ramdas Pophale) SiO2 
 PCOD9229188
Probable space group: P 2/C
;
_chemical_formula_sum "Si O2"
_cell_formula_units_Z 26
_cell_length_a 15.160707
_cell_length_b 8.704509
_cell_length_c 20.227899
_cell_angle_alpha 90.000000
_cell_angle_beta 152.175750
_cell_angle_gamma 90.000000
_cell_volume 1245.974237
_symmetry_space_group_name_H-M "P 2/C"
_symmetry_group_IT_number 13
_symmetry_cell_setting 'monoclinic'
loop_
_space_group_symop_operation_xyz
x,y,z
-x,y,1/2-z
-x,-y,-z
x,-y,1/2+z
loop_
_atom_site_type_symbol
_atom_site_label
_atom_site_fract_x
_atom_site_fract_y
_atom_site_fract_z
Si Si1 0.895720 0.586450 0.352865
Si Si2 0.715263 0.583553 0.374398
Si Si3 0.290484 0.188273 0.862557
Si Si4 0.000000 0.983315 0.750000
Si Si5 0.578342 0.936328 0.650930
Si Si6 0.866075 0.125751 0.443254
Si Si7 0.729329 0.903055 0.461562
O O1 0.754027 0.557354 0.321266
O O2 0.778641 0.649345 0.212089
O O3 0.076917 0.474846 0.460003
O O4 0.011165 0.732652 0.455264
O O5 0.500000 0.520979 0.250000
O O6 0.706131 0.756794 0.398547
O O7 0.142523 0.100812 0.810312
O O8 0.315251 0.068186 0.819179
O O9 0.477983 0.175106 0.031488
O O10 0.898077 0.883582 0.626290
O O11 0.710571 0.837752 0.785648
O O12 0.444671 0.039964 0.609285
O O13 0.774490 0.048642 0.446052
O O14 0.000000 0.000000 0.500000
#
# Coordination Sequence:
#
# PCOD9229188 Si02
#       7
#     4   4   4   2   4   4   4
#     4  11  23  40  66  90 127 170 208 267 322 369
#     4  11  24  41  62  90 127 171 220 259 310 389
#     4  10  19  38  55  94 123 152 199 262 317 372
#     4  10  20  34  62  92 118 158 200 260 320 382
#     4  10  21  32  62  95 121 154 204 266 321 372
#     4  12  19  35  62  94 119 153 209 266 313 374
#     4  11  20  36  62  89 122 161 212 256 321 375
#
# _framework density 20.867205999999999
#
# number of rings (size 3 to 8) (size 9 to 14) (size 15 to 20)
#    0.000    1.231    4.615    2.308    0.000    1.231 
#    0.000    0.769    0.000    1.846    0.000    0.000 
#    0.000    0.000    0.000    0.000    0.000    0.000 
#
# Total GULP energy -144831.662559 kJ/mol
# GULP energy per Si atom -5570.448560 kJ/mol
# Density = 2.081971 g / cm^3
# Si number density = 20.867206 Si / 1000 Ang^3
#
#
#
# Elastic Constant Matrix: (Units=GPa)
#
#
# Indices 1 2 3 4 5 6 
#
# 1 74.3065 11.5250 11.2859 0.0000 -13.4745 0.0000
# 2 11.5250 44.2775 14.5706 0.0000 -3.4823 0.0000
# 3 11.2859 14.5706 114.1010 0.0000 -25.5134 0.0000
# 4 0.0000 0.0000 0.0000 142.8790 0.0000 5.9896
# 5 -13.4745 -3.4823 -25.5134 0.0000 6.1067 0.0000
# 6 0.0000 0.0000 0.0000 5.9896 0.0000 17.6649
#
#
#
# Elastic Compliance Matrix: (Units=1/GPa)
#
#
# Indices 1 2 3 4 5 6 
#
# 1 -0.004431 0.000416 -0.026570 0.000000 -0.120551 0.000000
# 2 0.000416 0.023606 0.002427 0.000000 0.024518 0.000000
# 3 -0.026570 0.002427 -0.026106 0.000000 -0.166315 0.000000
# 4 0.000000 0.000000 0.000000 0.007100 0.000000 -0.002407
# 5 -0.120551 0.024518 -0.166315 0.000000 -0.783118 0.000000
# 6 0.000000 0.000000 0.000000 -0.002407 0.000000 0.057426
#
#
# Mechanical properties :
#
#
# Convention : Reuss Voigt Hill
#
# Bulk Modulus (GPa) = -18.38686 34.16088 7.88701
# Shear Modulus (GPa) = -7.18186 46.35035 19.58425
#
# Velocity S-wave (km/s) = -1.85719 4.71808 3.06685
# Velocity P-wave (km/s) = 3.66461 6.78870 4.04086
#
# Compressibility (1/GPa) = -0.05438667
#
# Stress axis : x y z
#
# Youngs Moduli (GPa) = -225.65855 42.36166 -38.30481
#
# Poissons Ratio (x) = -0.01763 -1.01777
# Poissons Ratio (y) = 0.09391 0.09296
# Poissons Ratio (z) = -5.99584 -0.10280
#
# Static dielectric constant tensor:
#      x y z
#    x 1.669560 0.000000 0.032500 
#    y 0.000000 1.734160 0.000000 
#    z 0.032500 0.000000 1.887310 
# 
# From -- ./inp_files/79859.got.cif
#   From: 2010.05.17/outbox.cif.g08.bks.cpg/sg13_40_cif.got.tgz:79859.got - 2010.06.03 16:44:36.
