data_PCOD9229692
_publ_section_title
;
Structure prediction by ZEFSAII (Michael W. Deem and Ramdas Pophale) SiO2 
 PCOD9229692
Probable space group: P 2/C
;
_chemical_formula_sum "Si O2"
_cell_formula_units_Z 20
_cell_length_a 10.588274
_cell_length_b 5.126442
_cell_length_c 25.992540
_cell_angle_alpha 90.000000
_cell_angle_beta 33.006934
_cell_angle_gamma 90.000000
_cell_volume 768.563274
_symmetry_space_group_name_H-M "P 2/C"
_symmetry_group_IT_number 13
_symmetry_cell_setting 'monoclinic'
loop_
_space_group_symop_operation_xyz
x,y,z
-x,y,1/2-z
-x,-y,-z
x,-y,1/2+z
loop_
_atom_site_type_symbol
_atom_site_label
_atom_site_fract_x
_atom_site_fract_y
_atom_site_fract_z
Si Si1 0.199384 0.736069 0.577788
Si Si2 0.463404 0.498417 0.705265
Si Si3 0.658202 0.993050 0.302192
Si Si4 0.240540 0.758183 0.126100
Si Si5 0.838581 0.188250 0.521731
O O1 0.478907 0.726837 0.474904
O O2 0.147621 0.516906 0.637961
O O3 0.153794 0.018709 0.617028
O O4 0.084265 0.712582 0.560801
O O5 0.500000 0.594512 0.750000
O O6 0.338745 0.216742 0.745076
O O7 0.716040 0.427045 0.594454
O O8 0.318341 0.711209 0.723177
O O9 0.783225 0.861504 0.307678
O O10 0.387276 0.990897 0.412100
O O11 0.000000 0.000000 0.500000
#
# Coordination Sequence:
#
# PCOD9229692 Si02
#       5
#     4   4   4   4   4
#     4   9  17  26  46  70 104 131 163 214 269 311
#     4  10  20  34  50  74 106 142 184 220 265 330
#     4   9  19  32  52  74 105 137 175 226 271 314
#     4   9  16  28  45  72 102 127 168 217 269 302
#     4   9  21  34  50  77 112 143 173 219 278 335
#
# _framework density 26.022580000000001
#
# number of rings (size 3 to 8) (size 9 to 14) (size 15 to 20)
#    1.200    1.600    0.000    1.800    8.400    0.800 
#    0.000    0.000    0.000    0.000    0.000    1.400 
#    0.000    0.000    0.000    0.000    0.000    0.000 
#
# Total GULP energy -111755.818391 kJ/mol
# GULP energy per Si atom -5587.790920 kJ/mol
# Density = 2.596335 g / cm^3
# Si number density = 26.022580 Si / 1000 Ang^3
#
#
#
# Elastic Constant Matrix: (Units=GPa)
#
#
# Indices 1 2 3 4 5 6 
#
# 1 168.0892 75.9664 46.5780 0.0000 21.6621 0.0000
# 2 75.9664 154.3285 25.7034 0.0000 1.3841 0.0000
# 3 46.5780 25.7034 89.2064 0.0000 13.0186 0.0000
# 4 0.0000 0.0000 0.0000 27.2724 0.0000 2.6836
# 5 21.6621 1.3841 13.0186 0.0000 39.7578 0.0000
# 6 0.0000 0.0000 0.0000 2.6836 0.0000 35.0982
#
#
#
# Elastic Compliance Matrix: (Units=1/GPa)
#
#
# Indices 1 2 3 4 5 6 
#
# 1 0.009051 -0.003914 -0.003044 0.000000 -0.003799 0.000000
# 2 -0.003914 0.008506 -0.000709 0.000000 0.002069 0.000000
# 3 -0.003044 -0.000709 0.013398 0.000000 -0.002704 0.000000
# 4 0.000000 0.000000 0.000000 0.036945 0.000000 -0.002825
# 5 -0.003799 0.002069 -0.002704 0.000000 0.028035 0.000000
# 6 0.000000 0.000000 0.000000 -0.002825 0.000000 0.028707
#
#
# Mechanical properties :
#
#
# Convention : Reuss Voigt Hill
#
# Bulk Modulus (GPa) = 64.01548 78.67999 71.34773
# Shear Modulus (GPa) = 34.43892 37.98411 36.21151
#
# Velocity S-wave (km/s) = 3.64184 3.82469 3.73438
# Velocity P-wave (km/s) = 6.50672 7.05729 6.78759
#
# Compressibility (1/GPa) = 0.01562122
#
# Stress axis : x y z
#
# Youngs Moduli (GPa) = 110.48174 117.56391 74.63728
#
# Poissons Ratio (x) = 0.46019 0.22718
# Poissons Ratio (y) = 0.43247 0.05291
# Poissons Ratio (z) = 0.33628 0.08335
#
# Static dielectric constant tensor:
#      x y z
#    x 2.058270 0.000000 -0.070960 
#    y 0.000000 1.946570 0.000000 
#    z -0.070960 0.000000 2.291480 
# 
# From -- ./inp_files/90633.got.cif
#   From: 2010.05.17/outbox.cif.g08.bks.cpg/sg13_46_cif.got.tgz:90633.got - 2010.06.03 16:44:36.
