data_PCOD9229711
_publ_section_title
;
Structure prediction by ZEFSAII (Michael W. Deem and Ramdas Pophale) SiO2 
 PCOD9229711
Probable space group: P 2/C
;
_chemical_formula_sum "Si O2"
_cell_formula_units_Z 26
_cell_length_a 21.344515
_cell_length_b 10.859516
_cell_length_c 8.248586
_cell_angle_alpha 90.000000
_cell_angle_beta 45.973128
_cell_angle_gamma 90.000000
_cell_volume 1374.717836
_symmetry_space_group_name_H-M "P 2/C"
_symmetry_group_IT_number 13
_symmetry_cell_setting 'monoclinic'
loop_
_space_group_symop_operation_xyz
x,y,z
-x,y,1/2-z
-x,-y,-z
x,-y,1/2+z
loop_
_atom_site_type_symbol
_atom_site_label
_atom_site_fract_x
_atom_site_fract_y
_atom_site_fract_z
Si Si1 0.801585 0.576808 0.916799
Si Si2 0.691306 0.037243 0.441801
Si Si3 0.896408 0.350216 0.928689
Si Si4 0.693474 0.618728 0.420959
Si Si5 0.500000 0.320911 0.250000
Si Si6 0.566361 0.105544 0.934842
Si Si7 0.227986 0.166525 0.508491
O O1 0.861741 0.474625 0.900701
O O2 0.857121 0.651169 0.682927
O O3 0.732989 0.502161 0.931102
O O4 0.746223 0.641862 0.158528
O O5 0.639497 0.116741 0.666229
O O6 0.725652 0.121784 0.237787
O O7 0.620187 0.943722 0.492947
O O8 0.767155 0.954521 0.386604
O O9 0.000000 0.351233 0.750000
O O10 0.859648 0.235612 0.889605
O O11 0.590076 0.606745 0.593099
O O12 0.716118 0.730507 0.499722
O O13 0.485034 0.228177 0.428169
O O14 0.500000 0.000000 0.000000
#
# Coordination Sequence:
#
# PCOD9229711 Si02
#       7
#     4   4   4   4   2   4   4
#     4   9  21  39  61  82 116 143 184 236 299 335
#     4  10  20  34  52  77 115 153 187 226 290 322
#     4  10  20  38  64  90 109 139 188 239 289 350
#     4  10  21  38  56  82 112 154 189 234 276 338
#     4  12  20  30  54  78 116 144 202 224 266 316
#     4  11  18  31  50  78 107 149 200 245 258 311
#     4  10  21  36  57  83 114 153 187 229 290 341
#
# _framework density 18.912973000000001
#
# number of rings (size 3 to 8) (size 9 to 14) (size 15 to 20)
#    0.000    1.846    3.077    1.385    2.154    0.615 
#    0.000    0.769    0.000    0.000    0.000    0.000 
#    0.000    0.000    0.000    0.000    0.000    0.000 
#
# Total GULP energy -144988.844448 kJ/mol
# GULP energy per Si atom -5576.494017 kJ/mol
# Density = 1.886993 g / cm^3
# Si number density = 18.912973 Si / 1000 Ang^3
#
#
#
# Elastic Constant Matrix: (Units=GPa)
#
#
# Indices 1 2 3 4 5 6 
#
# 1 105.5997 28.7627 73.4010 0.0000 -13.5025 0.0000
# 2 28.7627 42.6087 42.1634 0.0000 -3.2965 0.0000
# 3 73.4010 42.1634 118.6417 0.0000 -4.0306 0.0000
# 4 0.0000 0.0000 0.0000 21.1395 0.0000 9.1842
# 5 -13.5025 -3.2965 -4.0306 0.0000 44.4694 0.0000
# 6 0.0000 0.0000 0.0000 9.1842 0.0000 26.6525
#
#
#
# Elastic Compliance Matrix: (Units=1/GPa)
#
#
# Indices 1 2 3 4 5 6 
#
# 1 0.017459 -0.001403 -0.010158 0.000000 0.004277 0.000000
# 2 -0.001403 0.036416 -0.012033 0.000000 0.001183 0.000000
# 3 -0.010158 -0.012033 0.018913 0.000000 -0.002262 0.000000
# 4 0.000000 0.000000 0.000000 0.055634 0.000000 -0.019171
# 5 0.004277 0.001183 -0.002262 0.000000 0.023669 0.000000
# 6 0.000000 0.000000 0.000000 -0.019171 0.000000 0.044126
#
#
# Mechanical properties :
#
#
# Convention : Reuss Voigt Hill
#
# Bulk Modulus (GPa) = 39.06381 61.72269 50.39325
# Shear Modulus (GPa) = 19.84627 26.62049 23.23338
#
# Velocity S-wave (km/s) = 3.24288 3.75577 3.50871
# Velocity P-wave (km/s) = 5.89245 7.17730 6.56638
#
# Compressibility (1/GPa) = 0.02559914
#
# Stress axis : x y z
#
# Youngs Moduli (GPa) = 57.27640 27.46081 52.87501
#
# Poissons Ratio (x) = 0.03854 0.53708
# Poissons Ratio (y) = 0.08038 0.63625
# Poissons Ratio (z) = 0.58179 0.33044
#
# Static dielectric constant tensor:
#      x y z
#    x 1.675920 0.000000 0.024420 
#    y 0.000000 1.692820 0.000000 
#    z 0.024420 0.000000 1.656140 
# 
# From -- ./inp_files/23323.got.cif
#   From: 2010.05.17/outbox.cif.g08.bks.cpg/sg13_12_cif.got.tgz:23323.got - 2010.06.03 16:44:36.
