data_PCOD9229718
_publ_section_title
;
Structure prediction by ZEFSAII (Michael W. Deem and Ramdas Pophale) SiO2 
 PCOD9229718
Probable space group: P 2/C
;
_chemical_formula_sum "Si O2"
_cell_formula_units_Z 26
_cell_length_a 22.206833
_cell_length_b 6.391774
_cell_length_c 26.524767
_cell_angle_alpha 90.000000
_cell_angle_beta 161.665974
_cell_angle_gamma 90.000000
_cell_volume 1184.289581
_symmetry_space_group_name_H-M "P 2/C"
_symmetry_group_IT_number 13
_symmetry_cell_setting 'monoclinic'
loop_
_space_group_symop_operation_xyz
x,y,z
-x,y,1/2-z
-x,-y,-z
x,-y,1/2+z
loop_
_atom_site_type_symbol
_atom_site_label
_atom_site_fract_x
_atom_site_fract_y
_atom_site_fract_z
Si Si1 0.968747 0.652781 0.049137
Si Si2 0.217926 0.023573 0.264635
Si Si3 0.536737 0.846556 0.350024
Si Si4 0.462735 0.248290 0.533277
Si Si5 0.500000 0.775875 0.750000
Si Si6 0.279451 0.599345 0.738515
Si Si7 0.770885 0.395482 0.961522
O O1 0.025563 0.884098 0.113043
O O2 0.131397 0.579745 0.139079
O O3 0.773031 0.642970 0.861169
O O4 0.963623 0.471708 0.087700
O O5 0.382092 0.852901 0.381655
O O6 0.269904 0.155836 0.355590
O O7 0.230725 0.190090 0.229591
O O8 0.524140 0.837130 0.399560
O O9 0.359963 0.721619 0.184091
O O10 0.728122 0.738553 0.477770
O O11 0.514434 0.074642 0.309390
O O12 0.517138 0.494405 0.584256
O O13 0.678009 0.622438 0.895643
#
# Coordination Sequence:
#
# PCOD9229718 Si02
#       7
#     4   4   4   4   2   4   4
#     4  10  20  34  52  81 111 139 186 235 285 349
#     4  10  22  33  53  82 112 148 185 226 292 344
#     4   9  18  32  53  77 105 139 180 233 285 332
#     4  10  20  36  53  80 112 145 191 231 273 360
#     4   8  18  30  52  82 100 136 178 236 292 310
#     4  10  20  35  54  76 110 150 180 231 292 335
#     4   9  18  33  51  80 105 133 184 236 280 338
#
# _framework density 21.954091999999999
#
# number of rings (size 3 to 8) (size 9 to 14) (size 15 to 20)
#    0.000    2.769    1.538    0.923    2.154    2.462 
#    0.000    0.000    0.000    5.538    0.000    0.000 
#    0.000    0.000    0.000    0.000    0.000    0.000 
#
# Total GULP energy -144769.650518 kJ/mol
# GULP energy per Si atom -5568.063481 kJ/mol
# Density = 2.190412 g / cm^3
# Si number density = 21.954092 Si / 1000 Ang^3
#
#
#
# Elastic Constant Matrix: (Units=GPa)
#
#
# Indices 1 2 3 4 5 6 
#
# 1 73.0615 12.3384 19.3839 0.0000 -7.4126 0.0000
# 2 12.3384 108.6579 48.9384 0.0000 -2.3168 0.0000
# 3 19.3839 48.9384 46.0919 0.0000 -10.6031 0.0000
# 4 0.0000 0.0000 0.0000 7.4897 0.0000 7.6610
# 5 -7.4126 -2.3168 -10.6031 0.0000 10.8310 0.0000
# 6 0.0000 0.0000 0.0000 7.6610 0.0000 32.7694
#
#
#
# Elastic Compliance Matrix: (Units=1/GPa)
#
#
# Indices 1 2 3 4 5 6 
#
# 1 0.015793 0.001706 -0.007593 0.000000 0.003740 0.000000
# 2 0.001706 0.021384 -0.028525 0.000000 -0.022183 0.000000
# 3 -0.007593 -0.028525 0.067858 0.000000 0.055132 0.000000
# 4 0.000000 0.000000 0.000000 0.175480 0.000000 -0.041025
# 5 0.003740 -0.022183 0.055132 0.000000 0.144114 0.000000
# 6 0.000000 0.000000 0.000000 -0.041025 0.000000 0.040107
#
#
# Mechanical properties :
#
#
# Convention : Reuss Voigt Hill
#
# Bulk Modulus (GPa) = 27.61525 43.23695 35.42610
# Shear Modulus (GPa) = 9.16372 20.02808 14.59590
#
# Velocity S-wave (km/s) = 2.04526 3.02366 2.58124
# Velocity P-wave (km/s) = 4.26420 5.65040 5.00552
#
# Compressibility (1/GPa) = 0.03621187
#
# Stress axis : x y z
#
# Youngs Moduli (GPa) = 63.31965 46.76431 14.73659
#
# Poissons Ratio (x) = -0.07979 0.11189
# Poissons Ratio (y) = -0.10803 0.42036
# Poissons Ratio (z) = 0.48077 1.33395
#
# Static dielectric constant tensor:
#      x y z
#    x 1.878880 0.000000 0.090940 
#    y 0.000000 1.833290 0.000000 
#    z 0.090940 0.000000 1.920060 
# 
# From -- ./inp_files/93763.got.cif
#   From: 2010.05.17/outbox.cif.g08.bks.cpg/sg13_47_cif.got.tgz:93763.got - 2010.06.03 16:44:36.
