data_PCOD9229927
_publ_section_title
;
Structure prediction by ZEFSAII (Michael W. Deem and Ramdas Pophale) SiO2 
 PCOD9229927
Probable space group: P 2/C
;
_chemical_formula_sum "Si O2"
_cell_formula_units_Z 30
_cell_length_a 8.320278
_cell_length_b 19.786763
_cell_length_c 10.238620
_cell_angle_alpha 90.000000
_cell_angle_beta 135.794583
_cell_angle_gamma 90.000000
_cell_volume 1175.254366
_symmetry_space_group_name_H-M "P 2/C"
_symmetry_group_IT_number 13
_symmetry_cell_setting 'monoclinic'
loop_
_space_group_symop_operation_xyz
x,y,z
-x,y,1/2-z
-x,-y,-z
x,-y,1/2+z
loop_
_atom_site_type_symbol
_atom_site_label
_atom_site_fract_x
_atom_site_fract_y
_atom_site_fract_z
Si Si1 0.358768 0.151755 0.803127
Si Si2 0.689445 0.862086 0.743484
Si Si3 0.205880 0.525281 0.474241
Si Si4 0.500000 0.625488 0.750000
Si Si5 0.881195 0.393680 0.962110
Si Si6 0.398120 0.703589 0.337833
Si Si7 0.666812 0.008157 0.721504
Si Si8 0.807639 0.716459 0.787107
O O1 0.500000 0.154358 0.750000
O O2 0.257084 0.226002 0.768275
O O3 0.216369 0.081807 0.722946
O O4 0.545318 0.142999 0.026299
O O5 0.500000 0.856425 0.750000
O O6 0.800005 0.936990 0.809189
O O7 0.849669 0.795864 0.832114
O O8 0.429040 0.573360 0.592363
O O9 0.264461 0.447491 0.539745
O O10 0.000000 0.524967 0.250000
O O11 0.095278 0.560917 0.538708
O O12 0.703484 0.680452 0.854126
O O13 0.762681 0.361543 0.765754
O O14 0.969871 0.330342 0.098221
O O15 0.500000 0.702923 0.250000
O O16 0.601492 0.706416 0.562314
O O17 0.500000 0.010606 0.750000
O O18 0.500000 0.000000 0.500000
#
# Coordination Sequence:
#
# PCOD9229927 Si02
#       8
#     4   4   4   2   4   4   4   4
#     4   8  15  28  44  71 106 139 175 217 263 312
#     4   9  15  26  48  75 101 137 181 218 259 315
#     4  10  22  38  56  77 105 133 171 215 266 318
#     4  10  20  36  58  76 102 138 166 216 268 316
#     4  10  23  37  53  81 103 134 175 216 263 317
#     4  10  21  34  54  77 105 141 177 213 260 314
#     4   8  13  22  41  69 101 134 174 217 255 306
#     4  10  20  35  54  77 107 134 173 218 264 311
#
# _framework density 25.526389000000002
#
# number of rings (size 3 to 8) (size 9 to 14) (size 15 to 20)
#    0.000    2.667    0.667    0.800    2.800    0.000 
#    0.000    4.000    0.000    0.800    0.000    0.000 
#    0.000   20.000    0.000    0.000    0.000    3.200 
#
# Total GULP energy -167167.819974 kJ/mol
# GULP energy per Si atom -5572.260666 kJ/mol
# Density = 2.546829 g / cm^3
# Si number density = 25.526389 Si / 1000 Ang^3
#
#
#
# Elastic Constant Matrix: (Units=GPa)
#
#
# Indices 1 2 3 4 5 6 
#
# 1 27.6655 5.9282 9.1562 0.0000 -9.9839 0.0000
# 2 5.9282 256.7632 35.0620 0.0000 20.6507 0.0000
# 3 9.1562 35.0620 142.7998 0.0000 -1.1875 0.0000
# 4 0.0000 0.0000 0.0000 25.0025 0.0000 -11.4139
# 5 -9.9839 20.6507 -1.1875 0.0000 33.0408 0.0000
# 6 0.0000 0.0000 0.0000 -11.4139 0.0000 -7.5501
#
#
#
# Elastic Compliance Matrix: (Units=1/GPa)
#
#
# Indices 1 2 3 4 5 6 
#
# 1 0.042222 -0.001791 -0.002153 0.000000 0.013800 0.000000
# 2 -0.001791 0.004334 -0.000977 0.000000 -0.003285 0.000000
# 3 -0.002153 -0.000977 0.007382 0.000000 0.000225 0.000000
# 4 0.000000 0.000000 0.000000 0.023664 0.000000 -0.035775
# 5 0.013800 -0.003285 0.000225 0.000000 0.036497 0.000000
# 6 0.000000 0.000000 0.000000 -0.035775 0.000000 -0.078366
#
#
# Mechanical properties :
#
#
# Convention : Reuss Voigt Hill
#
# Bulk Modulus (GPa) = 22.67661 58.61347 40.64504
# Shear Modulus (GPa) = 82.95565 35.23746 59.09656
#
# Velocity S-wave (km/s) = 5.70689 3.71945 4.81679
# Velocity P-wave (km/s) = 7.23378 6.43875 6.84781
#
# Compressibility (1/GPa) = 0.04409830
#
# Stress axis : x y z
#
# Youngs Moduli (GPa) = 23.68406 230.75990 135.45580
#
# Poissons Ratio (x) = 0.41324 0.29161
# Poissons Ratio (y) = 0.04241 0.13227
# Poissons Ratio (z) = 0.05099 0.22534
#
# Static dielectric constant tensor:
#      x y z
#    x 2.137050 0.000000 0.061020 
#    y 0.000000 2.131320 0.000000 
#    z 0.061020 0.000000 2.041170 
# 
# From -- ./inp_files/34765.got.cif
#   From: 2010.05.17/outbox.cif.g08.bks.cpg/sg13_18_cif.got.tgz:34765.got - 2010.06.03 16:44:36.
