data_PCOD9229388
_publ_section_title
;
Structure prediction by ZEFSAII (Michael W. Deem and Ramdas Pophale) SiO2 
 PCOD9229388
Probable space group: P 2/C
;
_chemical_formula_sum "Si O2"
_cell_formula_units_Z 22
_cell_length_a 17.702792
_cell_length_b 13.413865
_cell_length_c 11.984479
_cell_angle_alpha 90.000000
_cell_angle_beta 159.415358
_cell_angle_gamma 90.000000
_cell_volume 1000.581040
_symmetry_space_group_name_H-M "P 2/C"
_symmetry_group_IT_number 13
_symmetry_cell_setting 'monoclinic'
loop_
_space_group_symop_operation_xyz
x,y,z
-x,y,1/2-z
-x,-y,-z
x,-y,1/2+z
loop_
_atom_site_type_symbol
_atom_site_label
_atom_site_fract_x
_atom_site_fract_y
_atom_site_fract_z
Si Si1 0.062093 0.594621 0.157146
Si Si2 0.354702 0.594272 0.766650
Si Si3 0.500000 0.108596 0.750000
Si Si4 0.498104 0.183023 0.992801
Si Si5 0.815849 0.954537 0.074644
Si Si6 0.744475 0.796950 0.145142
O O1 0.258255 0.573177 0.511755
O O2 0.139726 0.690784 0.196855
O O3 0.000000 0.500000 0.000000
O O4 0.850432 0.612139 0.937861
O O5 0.467243 0.701502 0.926284
O O6 0.500000 0.500000 0.000000
O O7 0.479865 0.172061 0.609009
O O8 0.307570 0.034880 0.521089
O O9 0.660870 0.104263 0.273601
O O10 0.283350 0.161505 0.768403
O O11 0.879861 0.868708 0.251304
O O12 0.000000 0.994604 0.250000
O O13 0.500000 0.794213 0.750000
#
# Coordination Sequence:
#
# PCOD9229388 Si02
#       6
#     4   4   2   4   4   4
#     4  11  23  39  68 105 130 180 247 283 344 435
#     4  11  24  43  68  98 142 190 226 290 366 422
#     4  12  26  44  64 106 138 184 234 300 344 428
#     4  11  23  43  69  96 142 181 235 288 363 419
#     4  11  22  42  71  98 136 185 237 286 360 423
#     4  10  19  39  69  97 135 187 231 292 356 425
#
# _framework density 21.987223
#
# number of rings (size 3 to 8) (size 9 to 14) (size 15 to 20)
#    0.000    1.091    6.364    2.727    0.000    2.182 
#    3.273    0.000    4.000    0.000    0.000    0.000 
#    0.000    0.000    0.000    0.000    0.000    0.000 
#
# Total GULP energy -122794.893393 kJ/mol
# GULP energy per Si atom -5581.586063 kJ/mol
# Density = 2.193718 g / cm^3
# Si number density = 21.987223 Si / 1000 Ang^3
#
#
#
# Elastic Constant Matrix: (Units=GPa)
#
#
# Indices 1 2 3 4 5 6 
#
# 1 198.6748 47.7352 49.8548 0.0000 -3.8349 0.0000
# 2 47.7352 110.0168 49.7815 0.0000 -7.3295 0.0000
# 3 49.8548 49.7815 46.2462 0.0000 -1.2250 0.0000
# 4 0.0000 0.0000 0.0000 29.1558 0.0000 -3.2337
# 5 -3.8349 -7.3295 -1.2250 0.0000 39.4320 0.0000
# 6 0.0000 0.0000 0.0000 -3.2337 0.0000 42.5201
#
#
#
# Elastic Compliance Matrix: (Units=1/GPa)
#
#
# Indices 1 2 3 4 5 6 
#
# 1 0.006942 0.000790 -0.008319 0.000000 0.000563 0.000000
# 2 0.000790 0.018104 -0.020264 0.000000 0.002812 0.000000
# 3 -0.008319 -0.020264 0.052327 0.000000 -0.002950 0.000000
# 4 0.000000 0.000000 0.000000 0.034590 0.000000 0.002631
# 5 0.000563 0.002812 -0.002950 0.000000 0.025846 0.000000
# 6 0.000000 0.000000 0.000000 0.002631 0.000000 0.023718
#
#
# Mechanical properties :
#
#
# Convention : Reuss Voigt Hill
#
# Bulk Modulus (GPa) = 45.90249 72.18675 59.04462
# Shear Modulus (GPa) = 22.28403 36.05931 29.17167
#
# Velocity S-wave (km/s) = 3.18700 4.05410 3.64642
# Velocity P-wave (km/s) = 5.87068 7.40384 6.68138
#
# Compressibility (1/GPa) = 0.02178531
#
# Stress axis : x y z
#
# Youngs Moduli (GPa) = 144.05113 55.23722 19.11071
#
# Poissons Ratio (x) = -0.04362 0.15898
# Poissons Ratio (y) = -0.11375 0.38727
# Poissons Ratio (z) = 1.19832 1.11935
#
# Static dielectric constant tensor:
#      x y z
#    x -72.230830 0.000000 -15.935470 
#    y 0.000000 1.847940 0.000000 
#    z -15.935470 0.000000 -1.534090 
# 
# From -- ./inp_files/39428.got.cif
#   From: 2010.05.17/outbox.cif.g08.bks.cpg/sg13_20_cif.got.tgz:39428.got - 2010.06.03 16:44:36.
