data_PCOD9229961
_publ_section_title
;
Structure prediction by ZEFSAII (Michael W. Deem and Ramdas Pophale) SiO2 
 PCOD9229961
Probable space group: P 2/C
;
_chemical_formula_sum "Si O2"
_cell_formula_units_Z 20
_cell_length_a 5.355059
_cell_length_b 10.286595
_cell_length_c 17.456315
_cell_angle_alpha 90.000000
_cell_angle_beta 63.575668
_cell_angle_gamma 90.000000
_cell_volume 861.122914
_symmetry_space_group_name_H-M "P 2/C"
_symmetry_group_IT_number 13
_symmetry_cell_setting 'monoclinic'
loop_
_space_group_symop_operation_xyz
x,y,z
-x,y,1/2-z
-x,-y,-z
x,-y,1/2+z
loop_
_atom_site_type_symbol
_atom_site_label
_atom_site_fract_x
_atom_site_fract_y
_atom_site_fract_z
Si Si1 0.227861 0.186071 0.775453
Si Si2 0.677360 0.296223 0.301835
Si Si3 0.704849 0.572136 0.529814
Si Si4 0.457533 0.978572 0.624997
Si Si5 0.848640 0.863932 0.463884
O O1 0.500000 0.272692 0.750000
O O2 0.000000 0.245363 0.750000
O O3 0.125226 0.147934 0.873939
O O4 0.332608 0.058308 0.714099
O O5 0.500000 0.259741 0.250000
O O6 0.480945 0.401666 0.369579
O O7 0.689275 0.162517 0.349751
O O8 0.000000 0.338198 0.250000
O O9 0.500000 0.500000 0.500000
O O10 0.774392 0.714706 0.488669
O O11 0.000000 0.500000 0.500000
O O12 0.771577 0.934027 0.555522
O O13 0.354244 0.070068 0.570414
#
# Coordination Sequence:
#
# PCOD9229961 Si02
#       5
#     4   4   4   4   4
#     4  10  20  35  55  88 124 156 196 246 315 390
#     4  11  22  41  68  99 134 174 225 284 347 413
#     4  11  25  46  67  92 130 180 236 283 329 398
#     4   9  19  37  64  97 130 163 206 267 343 415
#     4   9  20  39  64  92 126 168 211 267 335 397
#
# _framework density 23.225486
#
# number of rings (size 3 to 8) (size 9 to 14) (size 15 to 20)
#    0.000    2.000    0.000    3.600    0.000    4.000 
#    0.000   24.000    0.000    0.000    0.000    0.000 
#    0.000    0.000    0.000    0.000    0.000    0.000 
#
# Total GULP energy -111350.659765 kJ/mol
# GULP energy per Si atom -5567.532988 kJ/mol
# Density = 2.317262 g / cm^3
# Si number density = 23.225486 Si / 1000 Ang^3
#
#
#
# Elastic Constant Matrix: (Units=GPa)
#
#
# Indices 1 2 3 4 5 6 
#
# 1 149.1306 38.5560 38.5664 0.0000 -25.4084 0.0000
# 2 38.5560 47.4183 34.4798 0.0000 -0.5033 0.0000
# 3 38.5664 34.4798 143.5668 0.0000 -35.2850 0.0000
# 4 0.0000 0.0000 0.0000 25.6246 0.0000 -1.6739
# 5 -25.4084 -0.5033 -35.2850 0.0000 56.2947 0.0000
# 6 0.0000 0.0000 0.0000 -1.6739 0.0000 16.7525
#
#
#
# Elastic Compliance Matrix: (Units=1/GPa)
#
#
# Indices 1 2 3 4 5 6 
#
# 1 0.009397 -0.007944 0.000483 0.000000 0.004473 0.000000
# 2 -0.007944 0.033169 -0.007850 0.000000 -0.008209 0.000000
# 3 0.000483 -0.007850 0.010352 0.000000 0.006636 0.000000
# 4 0.000000 0.000000 0.000000 0.039281 0.000000 0.003925
# 5 0.004473 -0.008209 0.006636 0.000000 0.023869 0.000000
# 6 0.000000 0.000000 0.000000 0.003925 0.000000 0.060085
#
#
# Mechanical properties :
#
#
# Convention : Reuss Voigt Hill
#
# Bulk Modulus (GPa) = 44.85115 62.59111 53.72113
# Shear Modulus (GPa) = 23.34207 34.96860 29.15534
#
# Velocity S-wave (km/s) = 3.17364 3.88443 3.54689
# Velocity P-wave (km/s) = 5.72560 6.86486 6.32095
#
# Compressibility (1/GPa) = 0.02229597
#
# Stress axis : x y z
#
# Youngs Moduli (GPa) = 106.42203 30.14874 96.60089
#
# Poissons Ratio (x) = 0.23951 -0.04666
# Poissons Ratio (y) = 0.84543 0.75827
# Poissons Ratio (z) = -0.05140 0.23665
#
# Static dielectric constant tensor:
#      x y z
#    x 2.082230 0.000000 -0.068000 
#    y 0.000000 1.837400 0.000000 
#    z -0.068000 0.000000 1.979470 
# 
# From -- ./inp_files/60903.got.cif
#   From: 2010.05.17/outbox.cif.g08.bks.cpg/sg13_31_cif.got.tgz:60903.got - 2010.06.03 16:44:36.
