data_PCOD9229405
_publ_section_title
;
Structure prediction by ZEFSAII (Michael W. Deem and Ramdas Pophale) SiO2 
 PCOD9229405
Probable space group: P 2/C
;
_chemical_formula_sum "Si O2"
_cell_formula_units_Z 30
_cell_length_a 11.564929
_cell_length_b 13.787334
_cell_length_c 24.281283
_cell_angle_alpha 90.000000
_cell_angle_beta 158.245315
_cell_angle_gamma 90.000000
_cell_volume 1434.958803
_symmetry_space_group_name_H-M "P 2/C"
_symmetry_group_IT_number 13
_symmetry_cell_setting 'monoclinic'
loop_
_space_group_symop_operation_xyz
x,y,z
-x,y,1/2-z
-x,-y,-z
x,-y,1/2+z
loop_
_atom_site_type_symbol
_atom_site_label
_atom_site_fract_x
_atom_site_fract_y
_atom_site_fract_z
Si Si1 0.740227 0.312041 0.677767
Si Si2 0.000000 0.044111 0.250000
Si Si3 0.612128 0.104498 0.855341
Si Si4 0.860061 0.758767 0.918376
Si Si5 0.112246 0.398344 0.445299
Si Si6 0.548361 0.901244 0.455606
Si Si7 0.475178 0.492802 0.300201
Si Si8 0.826149 0.702202 0.335912
O O1 0.421657 0.374780 0.546752
O O2 0.606697 0.204846 0.606758
O O3 0.929525 0.302716 0.818824
O O4 0.000000 0.346631 0.750000
O O5 0.148616 0.096683 0.369905
O O6 0.288133 0.977872 0.358813
O O7 0.500000 0.049767 0.750000
O O8 0.604238 0.072971 0.915683
O O9 0.394070 0.202492 0.758178
O O10 0.963324 0.139439 0.001252
O O11 0.500000 0.770207 0.750000
O O12 0.025621 0.695555 0.943618
O O13 0.925592 0.709227 0.006132
O O14 0.207221 0.488371 0.527029
O O15 0.778966 0.435242 0.275918
O O16 0.500000 0.448128 0.250000
O O17 0.367142 0.603812 0.243469
#
# Coordination Sequence:
#
# PCOD9229405 Si02
#       8
#     4   2   4   4   4   4   4   4
#     4  10  20  40  62  77 108 158 196 226 282 352
#     4  10  22  36  66 100 116 138 186 242 288 334
#     4   9  17  37  60  79 116 165 193 224 286 364
#     4  11  19  31  50  86 116 141 192 245 290 335
#     4  11  22  32  52  80 111 151 200 242 294 341
#     4  10  19  40  63  91 120 144 184 238 286 346
#     4  11  18  31  49  79 112 145 189 251 297 329
#     4   9  18  34  54  77 110 150 199 235 285 347
#
# _framework density 20.906523
#
# number of rings (size 3 to 8) (size 9 to 14) (size 15 to 20)
#    0.000    1.867    6.000    1.200    1.867    0.000 
#    2.400    4.667    0.000    0.000    0.000    0.000 
#    0.000    0.000    0.000    0.000    0.000    0.000 
#
# Total GULP energy -167091.850252 kJ/mol
# GULP energy per Si atom -5569.728342 kJ/mol
# Density = 2.085894 g / cm^3
# Si number density = 20.906523 Si / 1000 Ang^3
#
#
#
# Elastic Constant Matrix: (Units=GPa)
#
#
# Indices 1 2 3 4 5 6 
#
# 1 126.4329 5.1608 39.3132 0.0000 5.4752 0.0000
# 2 5.1608 26.5732 6.6023 0.0000 -2.8107 0.0000
# 3 39.3132 6.6023 114.8680 0.0000 -0.5075 0.0000
# 4 0.0000 0.0000 0.0000 19.7406 0.0000 -3.4960
# 5 5.4752 -2.8107 -0.5075 0.0000 36.2342 0.0000
# 6 0.0000 0.0000 0.0000 -3.4960 0.0000 19.5341
#
#
#
# Elastic Compliance Matrix: (Units=1/GPa)
#
#
# Indices 1 2 3 4 5 6 
#
# 1 0.008955 -0.001149 -0.003005 0.000000 -0.001484 0.000000
# 2 -0.001149 0.038638 -0.001814 0.000000 0.003145 0.000000
# 3 -0.003005 -0.001814 0.009840 0.000000 0.000451 0.000000
# 4 0.000000 0.000000 0.000000 0.052315 0.000000 0.009363
# 5 -0.001484 0.003145 0.000451 0.000000 0.028073 0.000000
# 6 0.000000 0.000000 0.000000 0.009363 0.000000 0.052868
#
#
# Mechanical properties :
#
#
# Convention : Reuss Voigt Hill
#
# Bulk Modulus (GPa) = 21.97933 41.11407 31.54670
# Shear Modulus (GPa) = 22.95760 29.55495 26.25627
#
# Velocity S-wave (km/s) = 3.31736 3.76396 3.54770
# Velocity P-wave (km/s) = 5.02087 6.21275 5.64834
#
# Compressibility (1/GPa) = 0.04549729
#
# Stress axis : x y z
#
# Youngs Moduli (GPa) = 111.66929 25.88092 101.62161
#
# Poissons Ratio (x) = 0.02975 0.30540
# Poissons Ratio (y) = 0.12836 0.18429
# Poissons Ratio (z) = 0.33560 0.04694
#
# Static dielectric constant tensor:
#      x y z
#    x 1.834460 0.000000 -0.042520 
#    y 0.000000 1.792760 0.000000 
#    z -0.042520 0.000000 1.769900 
# 
# From -- ./inp_files/92435.got.cif
#   From: 2010.05.17/outbox.cif.g08.bks.cpg/sg13_47_cif.got.tgz:92435.got - 2010.06.03 16:44:36.
