data_PCOD9229701
_publ_section_title
;
Structure prediction by ZEFSAII (Michael W. Deem and Ramdas Pophale) SiO2 
 PCOD9229701
Probable space group: P 2/C
;
_chemical_formula_sum "Si O2"
_cell_formula_units_Z 28
_cell_length_a 26.941636
_cell_length_b 9.778229
_cell_length_c 7.801866
_cell_angle_alpha 90.000000
_cell_angle_beta 136.662206
_cell_angle_gamma 90.000000
_cell_volume 1410.572964
_symmetry_space_group_name_H-M "P 2/C"
_symmetry_group_IT_number 13
_symmetry_cell_setting 'monoclinic'
loop_
_space_group_symop_operation_xyz
x,y,z
-x,y,1/2-z
-x,-y,-z
x,-y,1/2+z
loop_
_atom_site_type_symbol
_atom_site_label
_atom_site_fract_x
_atom_site_fract_y
_atom_site_fract_z
Si Si1 0.129168 0.168035 0.337879
Si Si2 0.005414 0.340912 0.470102
Si Si3 0.419361 0.381467 0.114039
Si Si4 0.867232 0.854878 0.241555
Si Si5 0.292552 0.187725 0.734339
Si Si6 0.294982 0.119686 0.146139
Si Si7 0.420159 0.308712 0.514758
O O1 0.063697 0.265406 0.122761
O O2 0.132450 0.165964 0.552964
O O3 0.208655 0.216167 0.475936
O O4 0.112354 0.012662 0.240333
O O5 0.000000 0.329961 0.250000
O O6 0.000000 0.500000 0.500000
O O7 0.077969 0.256045 0.698974
O O8 0.500000 0.347661 0.250000
O O9 0.416836 0.340790 0.305177
O O10 0.411259 0.544856 0.082282
O O11 0.353866 0.301461 0.855957
O O12 0.783786 0.846812 0.973853
O O13 0.309589 0.041397 0.694010
O O14 0.292939 0.161523 0.941134
O O15 0.356976 0.203781 0.396426
O O16 0.500000 0.252857 0.750000
#
# Coordination Sequence:
#
# PCOD9229701 Si02
#       7
#     4   4   4   4   4   4   4
#     4   9  18  34  53  74  99 129 164 202 242 289
#     4  10  21  34  50  74 104 132 163 202 242 286
#     4  10  20  34  51  72  98 130 165 202 243 291
#     4   9  18  34  53  74  99 129 164 202 242 289
#     4   9  19  34  52  74 100 128 162 202 245 290
#     4   9  19  34  52  74 100 128 162 202 245 290
#     4  10  20  34  51  72  98 130 165 202 243 291
#
# _framework density 19.850090999999999
#
# number of rings (size 3 to 8) (size 9 to 14) (size 15 to 20)
#    0.000    2.571    0.000    2.143    0.000    5.143 
#    0.000    2.857    0.000    0.000    0.000    0.000 
#    0.000    0.000    0.000    0.000    0.000    0.000 
#
# Total GULP energy -156213.962470 kJ/mol
# GULP energy per Si atom -5579.070088 kJ/mol
# Density = 1.980491 g / cm^3
# Si number density = 19.850091 Si / 1000 Ang^3
#
#
#
# Elastic Constant Matrix: (Units=GPa)
#
#
# Indices 1 2 3 4 5 6 
#
# 1 47.2192 39.5985 18.6853 0.0000 26.7830 0.0000
# 2 39.5985 92.2333 42.2537 0.0000 52.9675 0.0000
# 3 18.6853 42.2537 55.4258 0.0000 32.9850 0.0000
# 4 0.0000 0.0000 0.0000 18.4030 0.0000 -6.3227
# 5 26.7830 52.9675 32.9850 0.0000 38.6960 0.0000
# 6 0.0000 0.0000 0.0000 -6.3227 0.0000 20.7833
#
#
#
# Elastic Compliance Matrix: (Units=1/GPa)
#
#
# Indices 1 2 3 4 5 6 
#
# 1 0.036060 -0.004637 0.004981 0.000000 -0.022857 0.000000
# 2 -0.004637 0.052080 0.004820 0.000000 -0.072186 0.000000
# 3 0.004981 0.004820 0.037885 0.000000 -0.042339 0.000000
# 4 0.000000 0.000000 0.000000 0.060681 0.000000 0.018461
# 5 -0.022857 -0.072186 -0.042339 0.000000 0.176563 0.000000
# 6 0.000000 0.000000 0.000000 0.018461 0.000000 0.053732
#
#
# Mechanical properties :
#
#
# Convention : Reuss Voigt Hill
#
# Bulk Modulus (GPa) = 7.33389 43.99480 25.66435
# Shear Modulus (GPa) = 11.05889 21.86586 16.46237
#
# Velocity S-wave (km/s) = 2.36290 3.32256 2.88294
# Velocity P-wave (km/s) = 3.33872 6.07708 4.90295
#
# Compressibility (1/GPa) = 0.13635331
#
# Stress axis : x y z
#
# Youngs Moduli (GPa) = 27.73127 19.20126 26.39542
#
# Poissons Ratio (x) = 0.08905 -0.13148
# Poissons Ratio (y) = 0.12860 -0.12723
# Poissons Ratio (z) = -0.13814 -0.09255
#
# Static dielectric constant tensor:
#      x y z
#    x 1.727790 0.000000 -0.004730 
#    y 0.000000 1.664470 0.000000 
#    z -0.004730 0.000000 1.740060 
# 
# From -- ./inp_files/24886.got.cif
#   From: 2010.05.17/outbox.cif.g08.bks.cpg/sg13_13_cif.got.tgz:24886.got - 2010.06.03 16:44:36.
