data_PCOD9229352
_publ_section_title
;
Structure prediction by ZEFSAII (Michael W. Deem and Ramdas Pophale) SiO2 
 PCOD9229352
Probable space group: P 2/C
;
_chemical_formula_sum "Si O2"
_cell_formula_units_Z 30
_cell_length_a 8.216038
_cell_length_b 9.986402
_cell_length_c 29.267393
_cell_angle_alpha 90.000000
_cell_angle_beta 144.629811
_cell_angle_gamma 90.000000
_cell_volume 1390.038406
_symmetry_space_group_name_H-M "P 2/C"
_symmetry_group_IT_number 13
_symmetry_cell_setting 'monoclinic'
loop_
_space_group_symop_operation_xyz
x,y,z
-x,y,1/2-z
-x,-y,-z
x,-y,1/2+z
loop_
_atom_site_type_symbol
_atom_site_label
_atom_site_fract_x
_atom_site_fract_y
_atom_site_fract_z
Si Si1 0.670743 0.096111 0.743484
Si Si2 0.592100 0.239642 0.071107
Si Si3 0.699630 0.539083 0.951152
Si Si4 0.339898 0.312405 0.831150
Si Si5 0.500000 0.356950 0.250000
Si Si6 0.081358 0.516749 0.899621
Si Si7 0.136211 0.823960 0.735621
Si Si8 0.241891 0.224650 0.903137
O O1 0.500000 0.064887 0.750000
O O2 0.561706 0.222798 0.689049
O O3 0.975344 0.135833 0.831682
O O4 0.705919 0.964413 0.720353
O O5 0.386983 0.304840 0.062492
O O6 0.772427 0.369924 0.097069
O O7 0.843135 0.143101 0.142531
O O8 0.417910 0.188349 0.988094
O O9 0.474813 0.457384 0.869718
O O10 0.000000 0.500000 0.000000
O O11 0.745892 0.488046 0.013779
O O12 0.412123 0.235605 0.894890
O O13 0.000000 0.320584 0.750000
O O14 0.246140 0.444766 0.170887
O O15 0.654561 0.267022 0.246587
O O16 0.118824 0.373300 0.885089
O O17 0.000000 0.760005 0.750000
#
# Coordination Sequence:
#
# PCOD9229352 Si02
#       8
#     4   4   4   4   2   4   4   4
#     4  11  25  42  63  92 125 169 227 278 320 379
#     4  10  21  40  65  91 126 169 206 265 330 396
#     4  11  22  35  59  98 135 163 206 266 329 394
#     4  10  21  38  62  89 124 172 219 267 324 397
#     4  10  24  40  66  98 128 176 210 272 332 386
#     4  10  20  38  62  91 135 162 205 264 328 396
#     4  11  24  46  67  90 131 175 226 269 323 396
#     4  10  19  39  64  90 124 164 214 261 327 389
#
# _framework density 21.582136999999999
#
# number of rings (size 3 to 8) (size 9 to 14) (size 15 to 20)
#    0.000    1.600    3.333    2.000    6.533    2.133 
#    0.000    0.000    0.000    2.400    0.000    0.000 
#    0.000    0.000    0.000    0.000    0.000    0.000 
#
# Total GULP energy -167356.589159 kJ/mol
# GULP energy per Si atom -5578.552972 kJ/mol
# Density = 2.153301 g / cm^3
# Si number density = 21.582137 Si / 1000 Ang^3
#
#
#
# Elastic Constant Matrix: (Units=GPa)
#
#
# Indices 1 2 3 4 5 6 
#
# 1 110.8359 18.9531 10.0094 0.0000 -1.0921 0.0000
# 2 18.9531 52.7009 15.7966 0.0000 -6.9048 0.0000
# 3 10.0094 15.7966 82.3791 0.0000 -0.2720 0.0000
# 4 0.0000 0.0000 0.0000 20.2047 0.0000 4.0487
# 5 -1.0921 -6.9048 -0.2720 0.0000 25.6044 0.0000
# 6 0.0000 0.0000 0.0000 4.0487 0.0000 15.0711
#
#
#
# Elastic Compliance Matrix: (Units=1/GPa)
#
#
# Indices 1 2 3 4 5 6 
#
# 1 0.009642 -0.003376 -0.000526 0.000000 -0.000505 0.000000
# 2 -0.003376 0.022086 -0.003806 0.000000 0.005772 0.000000
# 3 -0.000526 -0.003806 0.012930 0.000000 -0.000911 0.000000
# 4 0.000000 0.000000 0.000000 0.052309 0.000000 -0.014052
# 5 -0.000505 0.005772 -0.000911 0.000000 0.040581 0.000000
# 6 0.000000 0.000000 0.000000 -0.014052 0.000000 0.070127
#
#
# Mechanical properties :
#
#
# Convention : Reuss Voigt Hill
#
# Bulk Modulus (GPa) = 34.19705 37.27044 35.73374
# Shear Modulus (GPa) = 21.47409 25.58649 23.53029
#
# Velocity S-wave (km/s) = 3.15777 3.44690 3.30550
# Velocity P-wave (km/s) = 5.40137 5.75744 5.58225
#
# Compressibility (1/GPa) = 0.02924229
#
# Stress axis : x y z
#
# Youngs Moduli (GPa) = 103.71087 45.27719 77.34145
#
# Poissons Ratio (x) = 0.15286 0.04067
# Poissons Ratio (y) = 0.35015 0.29435
# Poissons Ratio (z) = 0.05453 0.17232
#
# Static dielectric constant tensor:
#      x y z
#    x 1.877690 0.000000 -0.013250 
#    y 0.000000 1.792050 0.000000 
#    z -0.013250 0.000000 1.817720 
# 
# From -- ./inp_files/96101.got.cif
#   From: 2010.05.17/outbox.cif.g08.bks.cpg/sg13_49_cif.got.tgz:96101.got - 2010.06.03 16:44:36.
