data_PCOD9229672
_publ_section_title
;
Structure prediction by ZEFSAII (Michael W. Deem and Ramdas Pophale) SiO2 
 PCOD9229672
Probable space group: P 2/C
;
_chemical_formula_sum "Si O2"
_cell_formula_units_Z 28
_cell_length_a 15.580911
_cell_length_b 8.698615
_cell_length_c 13.209113
_cell_angle_alpha 90.000000
_cell_angle_beta 122.587426
_cell_angle_gamma 90.000000
_cell_volume 1508.422216
_symmetry_space_group_name_H-M "P 2/C"
_symmetry_group_IT_number 13
_symmetry_cell_setting 'monoclinic'
loop_
_space_group_symop_operation_xyz
x,y,z
-x,y,1/2-z
-x,-y,-z
x,-y,1/2+z
loop_
_atom_site_type_symbol
_atom_site_label
_atom_site_fract_x
_atom_site_fract_y
_atom_site_fract_z
Si Si1 0.172730 0.811501 0.503243
Si Si2 0.102013 0.864656 0.879892
Si Si3 0.356589 0.596370 0.615975
Si Si4 0.262368 0.637410 0.891523
Si Si5 0.012194 0.316657 0.507897
Si Si6 0.550137 0.602945 0.619247
Si Si7 0.896934 0.614261 0.233392
O O1 0.281580 0.736755 0.594166
O O2 0.141334 0.721938 0.380602
O O3 0.096335 0.761715 0.543540
O O4 0.152576 0.987915 0.465313
O O5 0.189961 0.778052 0.873827
O O6 0.000000 0.903843 0.750000
O O7 0.065663 0.747342 0.943684
O O8 0.305090 0.460790 0.515982
O O9 0.449406 0.669732 0.609575
O O10 0.396224 0.528102 0.747775
O O11 0.357664 0.684096 0.882047
O O12 0.186724 0.512328 0.792615
O O13 0.075203 0.287479 0.650719
O O14 0.000000 0.500000 0.500000
O O15 0.500000 0.500000 0.500000
O O16 0.000000 0.541255 0.250000
#
# Coordination Sequence:
#
# PCOD9229672 Si02
#       7
#     4   4   4   4   4   4   4
#     4  10  22  38  55  78 118 157 189 228 283 341
#     4  12  24  36  52  86 125 158 192 226 277 348
#     4   9  19  38  61  84 112 147 194 240 294 340
#     4  10  20  33  58  87 114 148 191 239 288 335
#     4  11  21  34  57  82 113 153 195 236 277 329
#     4   9  19  36  62  89 110 139 190 253 296 332
#     4   9  18  35  52  79 113 149 190 234 276 333
#
# _framework density 18.562442999999998
#
# number of rings (size 3 to 8) (size 9 to 14) (size 15 to 20)
#    0.000    2.000    0.000    5.571    6.000    0.000 
#    0.000    0.714    0.000    6.857    0.000    0.000 
#    0.000    0.000    0.000    0.000    0.000    0.000 
#
# Total GULP energy -155930.381685 kJ/mol
# GULP energy per Si atom -5568.942203 kJ/mol
# Density = 1.852019 g / cm^3
# Si number density = 18.562443 Si / 1000 Ang^3
#
#
#
# Elastic Constant Matrix: (Units=GPa)
#
#
# Indices 1 2 3 4 5 6 
#
# 1 124.0291 29.5645 25.5214 0.0000 9.3248 0.0000
# 2 29.5645 71.5645 2.4087 0.0000 6.0854 0.0000
# 3 25.5214 2.4087 84.8595 0.0000 0.7526 0.0000
# 4 0.0000 0.0000 0.0000 12.1637 0.0000 1.7136
# 5 9.3248 6.0854 0.7526 0.0000 27.6425 0.0000
# 6 0.0000 0.0000 0.0000 1.7136 0.0000 8.4978
#
#
#
# Elastic Compliance Matrix: (Units=1/GPa)
#
#
# Indices 1 2 3 4 5 6 
#
# 1 0.009700 -0.003711 -0.002791 0.000000 -0.002379 0.000000
# 2 -0.003711 0.015672 0.000691 0.000000 -0.002217 0.000000
# 3 -0.002791 0.000691 0.012600 0.000000 0.000446 0.000000
# 4 0.000000 0.000000 0.000000 0.084616 0.000000 -0.017063
# 5 -0.002379 -0.002217 0.000446 0.000000 0.037455 0.000000
# 6 0.000000 0.000000 0.000000 -0.017063 0.000000 0.121118
#
#
# Mechanical properties :
#
#
# Convention : Reuss Voigt Hill
#
# Bulk Modulus (GPa) = 37.95079 43.93804 40.94442
# Shear Modulus (GPa) = 16.58008 24.52470 20.55239
#
# Velocity S-wave (km/s) = 2.99190 3.63877 3.33108
# Velocity P-wave (km/s) = 5.69426 6.43242 6.07456
#
# Compressibility (1/GPa) = 0.02634991
#
# Stress axis : x y z
#
# Youngs Moduli (GPa) = 103.08837 63.80884 79.36520
#
# Poissons Ratio (x) = 0.23680 0.22150
# Poissons Ratio (y) = 0.38258 -0.05484
# Poissons Ratio (z) = 0.28771 -0.04409
#
# Static dielectric constant tensor:
#      x y z
#    x 1.683660 0.000000 0.021240 
#    y 0.000000 1.613830 0.000000 
#    z 0.021240 0.000000 1.716790 
# 
# From -- ./inp_files/52812.got.cif
#   From: 2010.05.17/outbox.cif.g08.bks.cpg/sg13_27_cif.got.tgz:52812.got - 2010.06.03 16:44:36.
