data_PCOD9229297
_publ_section_title
;
Structure prediction by ZEFSAII (Michael W. Deem and Ramdas Pophale) SiO2 
 PCOD9229297
Probable space group: P 2/C
;
_chemical_formula_sum "Si O2"
_cell_formula_units_Z 24
_cell_length_a 8.770410
_cell_length_b 10.431430
_cell_length_c 17.711477
_cell_angle_alpha 90.000000
_cell_angle_beta 46.159209
_cell_angle_gamma 90.000000
_cell_volume 1168.731519
_symmetry_space_group_name_H-M "P 2/C"
_symmetry_group_IT_number 13
_symmetry_cell_setting 'monoclinic'
loop_
_space_group_symop_operation_xyz
x,y,z
-x,y,1/2-z
-x,-y,-z
x,-y,1/2+z
loop_
_atom_site_type_symbol
_atom_site_label
_atom_site_fract_x
_atom_site_fract_y
_atom_site_fract_z
Si Si1 0.775806 0.201875 0.870849
Si Si2 0.155109 0.044173 0.061427
Si Si3 0.328707 0.690802 0.494909
Si Si4 0.741441 0.364623 0.650910
Si Si5 0.261346 0.064117 0.847486
Si Si6 0.907221 0.538974 0.366876
O O1 0.566851 0.254545 0.899269
O O2 0.807260 0.321240 0.916228
O O3 0.000000 0.189509 0.750000
O O4 0.739906 0.068534 0.925787
O O5 0.906296 0.015012 0.143271
O O6 0.209436 0.185948 0.069381
O O7 0.222870 0.042999 0.949878
O O8 0.235502 0.644760 0.446848
O O9 0.270609 0.569433 0.565736
O O10 0.500000 0.401199 0.750000
O O11 0.897729 0.458847 0.641512
O O12 0.769383 0.214070 0.663397
O O13 0.500000 0.028287 0.750000
O O14 0.000000 0.537488 0.250000
#
# Coordination Sequence:
#
# PCOD9229297 Si02
#       6
#     4   4   4   4   4   4
#     4  11  23  40  65  89 118 165 212 252 306 375
#     4  10  21  38  62  94 122 161 210 252 316 369
#     4  11  24  40  61  93 129 159 203 266 315 365
#     4  10  19  38  67  90 117 168 216 250 298 378
#     4   9  19  37  64  93 126 161 207 261 301 369
#     4  11  23  41  62  91 126 164 206 259 315 369
#
# _framework density 20.535084999999999
#
# number of rings (size 3 to 8) (size 9 to 14) (size 15 to 20)
#    0.000    1.667    1.667    3.500    4.667    0.667 
#    3.000    0.833    0.000    0.000    0.000    0.000 
#    0.000    0.000    0.000    0.000    0.000    0.000 
#
# Total GULP energy -133789.407141 kJ/mol
# GULP energy per Si atom -5574.558631 kJ/mol
# Density = 2.048835 g / cm^3
# Si number density = 20.535085 Si / 1000 Ang^3
#
#
#
# Elastic Constant Matrix: (Units=GPa)
#
#
# Indices 1 2 3 4 5 6 
#
# 1 99.5054 30.7169 35.2346 0.0000 -15.1294 0.0000
# 2 30.7169 106.8258 45.1106 0.0000 -6.4286 0.0000
# 3 35.2346 45.1106 71.2240 0.0000 -18.9393 0.0000
# 4 0.0000 0.0000 0.0000 21.4539 0.0000 -2.5377
# 5 -15.1294 -6.4286 -18.9393 0.0000 32.7045 0.0000
# 6 0.0000 0.0000 0.0000 -2.5377 0.0000 23.0727
#
#
#
# Elastic Compliance Matrix: (Units=1/GPa)
#
#
# Indices 1 2 3 4 5 6 
#
# 1 0.012548 -0.001555 -0.004445 0.000000 0.002925 0.000000
# 2 -0.001555 0.013157 -0.008354 0.000000 -0.002971 0.000000
# 3 -0.004445 -0.008354 0.024287 0.000000 0.010366 0.000000
# 4 0.000000 0.000000 0.000000 0.047226 0.000000 0.005194
# 5 0.002925 -0.002971 0.010366 0.000000 0.037349 0.000000
# 6 0.000000 0.000000 0.000000 0.005194 0.000000 0.043913
#
#
# Mechanical properties :
#
#
# Convention : Reuss Voigt Hill
#
# Bulk Modulus (GPa) = 46.98297 55.51994 51.25145
# Shear Modulus (GPa) = 23.33367 26.54577 24.93972
#
# Velocity S-wave (km/s) = 3.37454 3.59932 3.48874
# Velocity P-wave (km/s) = 6.17352 6.66099 6.42188
#
# Compressibility (1/GPa) = 0.02128431
#
# Stress axis : x y z
#
# Youngs Moduli (GPa) = 79.69089 76.00451 41.17494
#
# Poissons Ratio (x) = 0.11820 0.18302
# Poissons Ratio (y) = 0.12393 0.34397
# Poissons Ratio (z) = 0.35422 0.63493
#
# Static dielectric constant tensor:
#      x y z
#    x 1.834420 0.000000 -0.004980 
#    y 0.000000 1.733180 0.000000 
#    z -0.004980 0.000000 1.748900 
# 
# From -- ./inp_files/75619.got.cif
#   From: 2010.05.17/outbox.cif.g08.bks.cpg/sg13_38_cif.got.tgz:75619.got - 2010.06.03 16:44:36.
