data_PCOD9229547
_publ_section_title
;
Structure prediction by ZEFSAII (Michael W. Deem and Ramdas Pophale) SiO2 
 PCOD9229547
Probable space group: P 2/C
;
_chemical_formula_sum "Si O2"
_cell_formula_units_Z 30
_cell_length_a 5.557148
_cell_length_b 9.931321
_cell_length_c 27.384370
_cell_angle_alpha 90.000000
_cell_angle_beta 100.487344
_cell_angle_gamma 90.000000
_cell_volume 1486.091767
_symmetry_space_group_name_H-M "P 2/C"
_symmetry_group_IT_number 13
_symmetry_cell_setting 'monoclinic'
loop_
_space_group_symop_operation_xyz
x,y,z
-x,y,1/2-z
-x,-y,-z
x,-y,1/2+z
loop_
_atom_site_type_symbol
_atom_site_label
_atom_site_fract_x
_atom_site_fract_y
_atom_site_fract_z
Si Si1 0.000000 0.216314 0.750000
Si Si2 0.215629 0.274439 0.659886
Si Si3 0.982919 0.116325 0.569060
Si Si4 0.480076 0.476860 0.193447
Si Si5 0.981397 0.685977 0.692844
Si Si6 0.283135 0.880467 0.883488
Si Si7 0.340320 0.090881 0.030193
Si Si8 0.552039 0.972621 0.201115
O O1 0.929538 0.303502 0.794978
O O2 0.789611 0.118237 0.721273
O O3 0.064325 0.238673 0.606201
O O4 0.407758 0.393368 0.659045
O O5 0.347980 0.134895 0.678815
O O6 0.849122 0.160225 0.513938
O O7 0.197107 0.015131 0.559190
O O8 0.817395 0.018205 0.596437
O O9 0.500000 0.527699 0.250000
O O10 0.734049 0.406999 0.186818
O O11 0.238447 0.383148 0.188173
O O12 0.927978 0.789333 0.646839
O O13 0.000000 0.739923 0.750000
O O14 0.473665 0.822922 0.930110
O O15 0.425298 0.922416 0.840427
O O16 0.500000 0.000000 0.000000
O O17 0.500000 0.044788 0.250000
#
# Coordination Sequence:
#
# PCOD9229547 Si02
#       8
#     2   4   4   4   4   4   4   4
#     4  10  20  32  48  86 120 148 178 242 312 350
#     4  11  21  34  61  85 119 155 202 249 302 360
#     4  10  20  36  61  92 113 151 194 253 322 364
#     4  10  23  42  57  83 122 169 216 244 286 352
#     4  10  25  40  60  85 123 174 209 243 287 357
#     4  11  21  36  60  85 124 155 201 247 301 375
#     4   9  20  38  57  86 120 149 190 247 317 380
#     4  10  21  31  50  87 119 150 184 242 310 363
#
# _framework density 20.187176000000001
#
# number of rings (size 3 to 8) (size 9 to 14) (size 15 to 20)
#    0.000    1.867    2.667    1.200    7.467    1.600 
#    0.000    0.000    0.000    1.600    0.000    0.000 
#    0.000    0.000    0.000    0.000    0.000    0.000 
#
# Total GULP energy -167271.161102 kJ/mol
# GULP energy per Si atom -5575.705370 kJ/mol
# Density = 2.014123 g / cm^3
# Si number density = 20.187176 Si / 1000 Ang^3
#
#
#
# Elastic Constant Matrix: (Units=GPa)
#
#
# Indices 1 2 3 4 5 6 
#
# 1 61.8513 -0.0997 28.2666 0.0000 6.1885 0.0000
# 2 -0.0997 27.8443 31.6475 0.0000 13.2083 0.0000
# 3 28.2666 31.6475 141.0816 0.0000 25.3373 0.0000
# 4 0.0000 0.0000 0.0000 20.4918 0.0000 15.2271
# 5 6.1885 13.2083 25.3373 0.0000 36.2121 0.0000
# 6 0.0000 0.0000 0.0000 15.2271 0.0000 25.4722
#
#
#
# Elastic Compliance Matrix: (Units=1/GPa)
#
#
# Indices 1 2 3 4 5 6 
#
# 1 0.018595 0.006577 -0.004803 0.000000 -0.002216 0.000000
# 2 0.006577 0.055077 -0.011280 0.000000 -0.013321 0.000000
# 3 -0.004803 -0.011280 0.011088 0.000000 -0.002823 0.000000
# 4 0.000000 0.000000 0.000000 0.087803 0.000000 -0.052488
# 5 -0.002216 -0.013321 -0.002823 0.000000 0.034827 0.000000
# 6 0.000000 0.000000 0.000000 -0.052488 0.000000 0.070635
#
#
# Mechanical properties :
#
#
# Convention : Reuss Voigt Hill
#
# Bulk Modulus (GPa) = 15.20979 38.93402 27.07191
# Shear Modulus (GPa) = 15.67622 27.83274 21.75448
#
# Velocity S-wave (km/s) = 2.78968 3.71716 3.28630
# Velocity P-wave (km/s) = 4.23404 6.14422 5.27629
#
# Compressibility (1/GPa) = 0.06574714
#
# Stress axis : x y z
#
# Youngs Moduli (GPa) = 53.77747 18.15625 90.18933
#
# Poissons Ratio (x) = -0.11941 0.43318
# Poissons Ratio (y) = -0.35368 1.01738
# Poissons Ratio (z) = 0.25829 0.20481
#
# Static dielectric constant tensor:
#      x y z
#    x 1.854680 0.000000 0.024460 
#    y 0.000000 1.713330 0.000000 
#    z 0.024460 0.000000 1.801920 
# 
# From -- ./inp_files/83687.got.cif
#   From: 2010.05.17/outbox.cif.g08.bks.cpg/sg13_42_cif.got.tgz:83687.got - 2010.06.03 16:44:36.
