data_PCOD9229057
_publ_section_title
;
Structure prediction by ZEFSAII (Michael W. Deem and Ramdas Pophale) SiO2 
 PCOD9229057
Probable space group: P 2/C
;
_chemical_formula_sum "Si O2"
_cell_formula_units_Z 22
_cell_length_a 7.540992
_cell_length_b 15.878178
_cell_length_c 14.501247
_cell_angle_alpha 90.000000
_cell_angle_beta 144.012079
_cell_angle_gamma 90.000000
_cell_volume 1020.298236
_symmetry_space_group_name_H-M "P 2/C"
_symmetry_group_IT_number 13
_symmetry_cell_setting 'monoclinic'
loop_
_space_group_symop_operation_xyz
x,y,z
-x,y,1/2-z
-x,-y,-z
x,-y,1/2+z
loop_
_atom_site_type_symbol
_atom_site_label
_atom_site_fract_x
_atom_site_fract_y
_atom_site_fract_z
Si Si1 0.974695 0.321766 0.027468
Si Si2 0.706350 0.421277 0.063207
Si Si3 0.472436 0.709647 0.597977
Si Si4 0.500000 0.809747 0.250000
Si Si5 0.328671 0.118809 0.367713
Si Si6 0.710694 0.938368 0.193340
O O1 0.805254 0.402355 0.000007
O O2 0.234326 0.300079 0.212210
O O3 0.177409 0.330162 0.021050
O O4 0.726662 0.249984 0.903212
O O5 0.542903 0.337431 0.032713
O O6 0.000000 0.432070 0.250000
O O7 0.500000 0.500000 0.000000
O O8 0.448721 0.809166 0.572680
O O9 0.695432 0.872667 0.269009
O O10 0.432483 0.083068 0.509628
O O11 0.000000 0.156786 0.250000
O O12 0.306672 0.037898 0.291731
O O13 0.000000 0.927826 0.250000
#
# Coordination Sequence:
#
# PCOD9229057 Si02
#       6
#     4   4   4   2   4   4
#     4  10  23  37  58  88 115 150 191 235 291 352
#     4  10  22  41  64  88 114 149 192 238 294 356
#     4  10  20  40  61  81 115 153 192 239 288 347
#     4  12  22  36  58  90 124 154 198 248 296 344
#     4  10  19  37  60  80 114 162 202 240 291 346
#     4  10  22  36  53  84 121 155 198 249 292 340
#
# _framework density 21.562322999999999
#
# number of rings (size 3 to 8) (size 9 to 14) (size 15 to 20)
#    0.000    1.818    0.000    4.909    0.000    3.636 
#    0.000   12.727    0.000    0.000    0.000    0.000 
#    0.000    0.000    0.000    0.000    0.000    0.000 
#
# Total GULP energy -122780.131740 kJ/mol
# GULP energy per Si atom -5580.915079 kJ/mol
# Density = 2.151325 g / cm^3
# Si number density = 21.562323 Si / 1000 Ang^3
#
#
#
# Elastic Constant Matrix: (Units=GPa)
#
#
# Indices 1 2 3 4 5 6 
#
# 1 108.0235 54.0930 34.2154 0.0000 27.1609 0.0000
# 2 54.0930 102.0277 36.8963 0.0000 19.3009 0.0000
# 3 34.2154 36.8963 25.8723 0.0000 15.0937 0.0000
# 4 0.0000 0.0000 0.0000 20.2942 0.0000 7.5954
# 5 27.1609 19.3009 15.0937 0.0000 23.4055 0.0000
# 6 0.0000 0.0000 0.0000 7.5954 0.0000 43.1312
#
#
#
# Elastic Compliance Matrix: (Units=1/GPa)
#
#
# Indices 1 2 3 4 5 6 
#
# 1 0.017126 -0.002232 -0.014340 0.000000 -0.008786 0.000000
# 2 -0.002232 0.020669 -0.029004 0.000000 0.004249 0.000000
# 3 -0.014340 -0.029004 0.120741 0.000000 -0.037305 0.000000
# 4 0.000000 0.000000 0.000000 0.052752 0.000000 -0.009290
# 5 -0.008786 0.004249 -0.037305 0.000000 0.073474 0.000000
# 6 0.000000 0.000000 0.000000 -0.009290 0.000000 0.024821
#
#
# Mechanical properties :
#
#
# Convention : Reuss Voigt Hill
#
# Bulk Modulus (GPa) = 14.84010 54.03701 34.43855
# Shear Modulus (GPa) = 11.81483 24.74742 18.28112
#
# Velocity S-wave (km/s) = 2.34335 3.39147 2.91491
# Velocity P-wave (km/s) = 3.77082 6.36014 5.22831
#
# Compressibility (1/GPa) = 0.06738499
#
# Stress axis : x y z
#
# Youngs Moduli (GPa) = 58.39048 48.38066 8.28216
#
# Poissons Ratio (x) = 0.10799 0.11877
# Poissons Ratio (y) = 0.13033 0.24021
# Poissons Ratio (z) = 0.83733 1.40322
#
# Static dielectric constant tensor:
#      x y z
#    x 1.817350 0.000000 0.020290 
#    y 0.000000 1.802770 0.000000 
#    z 0.020290 0.000000 1.805300 
# 
# From -- ./inp_files/64702.got.cif
#   From: 2010.05.17/outbox.cif.g08.bks.cpg/sg13_33_cif.got.tgz:64702.got - 2010.06.03 16:44:36.
