data_PCOD9229699
_publ_section_title
;
Structure prediction by ZEFSAII (Michael W. Deem and Ramdas Pophale) SiO2 
 PCOD9229699
Probable space group: P 2/C
;
_chemical_formula_sum "Si O2"
_cell_formula_units_Z 30
_cell_length_a 23.340381
_cell_length_b 15.133866
_cell_length_c 9.070834
_cell_angle_alpha 90.000000
_cell_angle_beta 150.246399
_cell_angle_gamma 90.000000
_cell_volume 1590.098405
_symmetry_space_group_name_H-M "P 2/C"
_symmetry_group_IT_number 13
_symmetry_cell_setting 'monoclinic'
loop_
_space_group_symop_operation_xyz
x,y,z
-x,y,1/2-z
-x,-y,-z
x,-y,1/2+z
loop_
_atom_site_type_symbol
_atom_site_label
_atom_site_fract_x
_atom_site_fract_y
_atom_site_fract_z
Si Si1 0.500000 0.009989 0.750000
Si Si2 0.722390 0.723658 0.363078
Si Si3 0.937228 0.619264 0.862216
Si Si4 0.630318 0.747425 0.824023
Si Si5 0.212774 0.374470 0.969223
Si Si6 0.425727 0.878091 0.340592
Si Si7 0.824417 0.504864 0.863247
Si Si8 0.463773 0.412215 0.000917
O O1 0.580331 0.070624 0.826377
O O2 0.427215 0.947857 0.477556
O O3 0.858477 0.706599 0.676844
O O4 0.667866 0.801775 0.338661
O O5 0.681418 0.743631 0.104036
O O6 0.665034 0.629099 0.281676
O O7 0.899827 0.566162 0.924463
O O8 0.897547 0.557014 0.637729
O O9 0.073788 0.634019 0.163777
O O10 0.553936 0.833945 0.631020
O O11 0.537761 0.668758 0.603488
O O12 0.727557 0.719083 0.924939
O O13 0.239870 0.436370 0.887837
O O14 0.247759 0.429926 0.191960
O O15 0.500000 0.424148 0.250000
O O16 0.500000 0.500000 0.000000
#
# Coordination Sequence:
#
# PCOD9229699 Si02
#       8
#     2   4   4   4   4   4   4   4
#     4  10  20  36  70  82 104 124 164 198 268 326
#     4  10  20  34  51  71 110 132 169 217 253 302
#     4  11  20  32  49  70  98 143 186 229 262 287
#     4  10  20  34  51  71 110 132 169 217 253 302
#     4  11  20  32  49  70  98 143 186 229 262 287
#     4  10  20  40  57  89 103 130 157 211 258 321
#     4  10  21  32  44  67 100 139 200 236 245 278
#     4   9  20  33  43  62  95 144 173 198 253 295
#
# _framework density 18.866757
#
# number of rings (size 3 to 8) (size 9 to 14) (size 15 to 20)
#    0.000    1.867    2.667    4.000    3.733    1.067 
#    4.800    0.000    0.000    0.000    0.000    5.600 
#    0.000    0.000    0.000    0.000    0.000    0.000 
#
# Total GULP energy -167554.265105 kJ/mol
# GULP energy per Si atom -5585.142170 kJ/mol
# Density = 1.882382 g / cm^3
# Si number density = 18.866757 Si / 1000 Ang^3
#
#
#
# Elastic Constant Matrix: (Units=GPa)
#
#
# Indices 1 2 3 4 5 6 
#
# 1 98.1189 46.4832 28.2864 0.0000 -7.8591 0.0000
# 2 46.4832 94.4134 23.4260 0.0000 0.1683 0.0000
# 3 28.2864 23.4260 50.7759 0.0000 8.7954 0.0000
# 4 0.0000 0.0000 0.0000 12.6803 0.0000 0.0876
# 5 -7.8591 0.1683 8.7954 0.0000 30.5831 0.0000
# 6 0.0000 0.0000 0.0000 0.0876 0.0000 41.8618
#
#
#
# Elastic Compliance Matrix: (Units=1/GPa)
#
#
# Indices 1 2 3 4 5 6 
#
# 1 0.015469 -0.005907 -0.006932 0.000000 0.006001 0.000000
# 2 -0.005907 0.014291 -0.003185 0.000000 -0.000681 0.000000
# 3 -0.006932 -0.003185 0.026659 0.000000 -0.009431 0.000000
# 4 0.000000 0.000000 0.000000 0.078863 0.000000 -0.000165
# 5 0.006001 -0.000681 -0.009431 0.000000 0.036956 0.000000
# 6 0.000000 0.000000 0.000000 -0.000165 0.000000 0.023888
#
#
# Mechanical properties :
#
#
# Convention : Reuss Voigt Hill
#
# Bulk Modulus (GPa) = 41.03063 48.85551 44.94307
# Shear Modulus (GPa) = 21.15966 26.69921 23.92944
#
# Velocity S-wave (km/s) = 3.35256 3.76592 3.56524
# Velocity P-wave (km/s) = 6.06473 6.69782 6.38912
#
# Compressibility (1/GPa) = 0.02437203
#
# Stress axis : x y z
#
# Youngs Moduli (GPa) = 64.64514 69.97257 37.51064
#
# Poissons Ratio (x) = 0.41331 0.26002
# Poissons Ratio (y) = 0.38184 0.11947
# Poissons Ratio (z) = 0.44812 0.22287
#
# Static dielectric constant tensor:
#      x y z
#    x 1.726330 0.000000 0.028360 
#    y 0.000000 1.662410 0.000000 
#    z 0.028360 0.000000 1.726920 
# 
# From -- ./inp_files/24242.got.cif
#   From: 2010.05.17/outbox.cif.g08.bks.cpg/sg13_13_cif.got.tgz:24242.got - 2010.06.03 16:44:36.
