data_PCOD9229584
_publ_section_title
;
Structure prediction by ZEFSAII (Michael W. Deem and Ramdas Pophale) SiO2 
 PCOD9229584
Probable space group: P 2/C
;
_chemical_formula_sum "Si O2"
_cell_formula_units_Z 30
_cell_length_a 11.720914
_cell_length_b 10.763519
_cell_length_c 11.051457
_cell_angle_alpha 90.000000
_cell_angle_beta 78.039882
_cell_angle_gamma 90.000000
_cell_volume 1363.966926
_symmetry_space_group_name_H-M "P 2/C"
_symmetry_group_IT_number 13
_symmetry_cell_setting 'monoclinic'
loop_
_space_group_symop_operation_xyz
x,y,z
-x,y,1/2-z
-x,-y,-z
x,-y,1/2+z
loop_
_atom_site_type_symbol
_atom_site_label
_atom_site_fract_x
_atom_site_fract_y
_atom_site_fract_z
Si Si1 0.962313 0.807789 0.438242
Si Si2 0.094909 0.936445 0.628294
Si Si3 0.407073 0.656974 0.670735
Si Si4 0.359821 0.620367 0.120552
Si Si5 0.500000 0.818943 0.250000
Si Si6 0.676759 0.179610 0.518724
Si Si7 0.228499 0.637781 0.908492
Si Si8 0.167481 0.368171 0.855630
O O1 0.858661 0.743482 0.532455
O O2 0.042382 0.882761 0.515463
O O3 0.045406 0.700732 0.369160
O O4 0.909852 0.913927 0.364251
O O5 0.230599 0.897487 0.582990
O O6 0.000000 0.891981 0.750000
O O7 0.500000 0.694870 0.750000
O O8 0.420017 0.511810 0.634064
O O9 0.403395 0.744412 0.556462
O O10 0.282877 0.664264 0.766107
O O11 0.428322 0.728865 0.174792
O O12 0.233582 0.618803 0.213961
O O13 0.331622 0.631967 0.985506
O O14 0.405468 0.884803 0.360218
O O15 0.751204 0.282617 0.576308
O O16 0.165281 0.504333 0.915250
#
# Coordination Sequence:
#
# PCOD9229584 Si02
#       8
#     4   4   4   4   2   4   4   4
#     4  10  22  39  60  87 117 157 203 250 304 360
#     4  10  22  41  64  86 114 162 209 255 297 356
#     4  11  21  34  58  85 126 164 196 243 302 370
#     4  10  20  32  55  90 124 160 198 240 303 373
#     4  10  20  36  60  86 124 162 202 258 300 362
#     4  10  20  38  60  89 122 158 206 250 303 353
#     4  11  21  34  56  91 125 158 192 247 305 367
#     4   9  20  35  55  90 124 156 193 243 303 370
#
# _framework density 21.994668999999998
#
# number of rings (size 3 to 8) (size 9 to 14) (size 15 to 20)
#    0.000    1.867    2.000    2.000    1.867    1.067 
#    0.000    0.000    1.467    1.600    0.000    0.000 
#    0.000    0.000    0.000    0.000    0.000    0.000 
#
# Total GULP energy -167422.721580 kJ/mol
# GULP energy per Si atom -5580.757386 kJ/mol
# Density = 2.194461 g / cm^3
# Si number density = 21.994669 Si / 1000 Ang^3
#
#
#
# Elastic Constant Matrix: (Units=GPa)
#
#
# Indices 1 2 3 4 5 6 
#
# 1 63.0425 16.3771 18.5164 0.0000 -18.9926 0.0000
# 2 16.3771 46.5966 15.1917 0.0000 -17.4262 0.0000
# 3 18.5164 15.1917 101.7803 0.0000 -25.6940 0.0000
# 4 0.0000 0.0000 0.0000 11.4578 0.0000 4.3383
# 5 -18.9926 -17.4262 -25.6940 0.0000 45.3863 0.0000
# 6 0.0000 0.0000 0.0000 4.3383 0.0000 26.7410
#
#
#
# Elastic Compliance Matrix: (Units=1/GPa)
#
#
# Indices 1 2 3 4 5 6 
#
# 1 0.019037 -0.004141 -0.001441 0.000000 0.005560 0.000000
# 2 -0.004141 0.026166 -0.001229 0.000000 0.007618 0.000000
# 3 -0.001441 -0.001229 0.011667 0.000000 0.005530 0.000000
# 4 0.000000 0.000000 0.000000 0.092988 0.000000 -0.015086
# 5 0.005560 0.007618 0.005530 0.000000 0.030415 0.000000
# 6 0.000000 0.000000 0.000000 -0.015086 0.000000 0.039843
#
#
# Mechanical properties :
#
#
# Convention : Reuss Voigt Hill
#
# Bulk Modulus (GPa) = 23.12388 34.62110 28.87249
# Shear Modulus (GPa) = 20.14870 27.47263 23.81067
#
# Velocity S-wave (km/s) = 3.02995 3.53804 3.29381
# Velocity P-wave (km/s) = 4.77253 5.69782 5.25558
#
# Compressibility (1/GPa) = 0.04324535
#
# Stress axis : x y z
#
# Youngs Moduli (GPa) = 52.53036 38.21760 85.71394
#
# Poissons Ratio (x) = 0.15828 0.12356
# Poissons Ratio (y) = 0.21755 0.10535
# Poissons Ratio (z) = 0.07572 0.04697
#
# Static dielectric constant tensor:
#      x y z
#    x 1.836850 0.000000 -0.038640 
#    y 0.000000 1.777300 0.000000 
#    z -0.038640 0.000000 1.841490 
# 
# From -- ./inp_files/33826.got.cif
#   From: 2010.05.17/outbox.cif.g08.bks.cpg/sg13_17_cif.got.tgz:33826.got - 2010.06.03 16:44:36.
