data_PCOD9229465
_publ_section_title
;
Structure prediction by ZEFSAII (Michael W. Deem and Ramdas Pophale) SiO2 
 PCOD9229465
Probable space group: P 2/C
;
_chemical_formula_sum "Si O2"
_cell_formula_units_Z 26
_cell_length_a 14.594737
_cell_length_b 8.621833
_cell_length_c 15.207821
_cell_angle_alpha 90.000000
_cell_angle_beta 33.684443
_cell_angle_gamma 90.000000
_cell_volume 1061.346605
_symmetry_space_group_name_H-M "P 2/C"
_symmetry_group_IT_number 13
_symmetry_cell_setting 'monoclinic'
loop_
_space_group_symop_operation_xyz
x,y,z
-x,y,1/2-z
-x,-y,-z
x,-y,1/2+z
loop_
_atom_site_type_symbol
_atom_site_label
_atom_site_fract_x
_atom_site_fract_y
_atom_site_fract_z
Si Si1 0.500000 0.863923 0.250000
Si Si2 0.770948 0.580823 0.589180
Si Si3 0.044588 0.783701 0.828921
Si Si4 0.407250 0.110386 0.204529
Si Si5 0.734045 0.354665 0.472453
Si Si6 0.267747 0.052569 0.645417
Si Si7 0.885798 0.676649 0.129226
O O1 0.369932 0.974298 0.304147
O O2 0.423041 0.752608 0.385321
O O3 0.664869 0.727972 0.704548
O O4 0.709966 0.513987 0.544145
O O5 0.779829 0.448488 0.658511
O O6 0.967808 0.613686 0.425441
O O7 0.191864 0.662859 0.683850
O O8 0.106313 0.953141 0.751096
O O9 0.881356 0.726841 0.909870
O O10 0.993596 0.771883 0.970888
O O11 0.342046 0.061981 0.160950
O O12 0.604848 0.093388 0.033099
O O13 0.227120 0.210897 0.725975
#
# Coordination Sequence:
#
# PCOD9229465 Si02
#       7
#     2   4   4   4   4   4   4
#     4  12  24  44  62  94 130 182 218 270 338 396
#     4  10  22  41  61  96 130 175 213 273 332 399
#     4  10  19  41  69  99 123 173 230 269 323 395
#     4  11  24  40  65  99 136 169 225 272 332 397
#     4  10  23  40  68  90 136 178 216 268 338 394
#     4  11  22  41  69 103 126 175 221 284 318 397
#     4  10  21  39  68  97 132 169 220 278 336 385
#
# _framework density 24.497183
#
# number of rings (size 3 to 8) (size 9 to 14) (size 15 to 20)
#    0.000    1.538    3.077    2.308    2.154    1.231 
#    0.000   13.846    0.000    0.000    0.000    0.000 
#    0.000    0.000    0.000    0.000    0.000    0.000 
#
# Total GULP energy -145289.027287 kJ/mol
# GULP energy per Si atom -5588.039511 kJ/mol
# Density = 2.444143 g / cm^3
# Si number density = 24.497183 Si / 1000 Ang^3
#
#
#
# Elastic Constant Matrix: (Units=GPa)
#
#
# Indices 1 2 3 4 5 6 
#
# 1 48.8656 7.1676 -1.4286 0.0000 5.6458 0.0000
# 2 7.1676 105.4023 34.6760 0.0000 -7.8602 0.0000
# 3 -1.4286 34.6760 83.2584 0.0000 8.5742 0.0000
# 4 0.0000 0.0000 0.0000 43.4589 0.0000 -2.3868
# 5 5.6458 -7.8602 8.5742 0.0000 21.6100 0.0000
# 6 0.0000 0.0000 0.0000 -2.3868 0.0000 37.1309
#
#
#
# Elastic Compliance Matrix: (Units=1/GPa)
#
#
# Indices 1 2 3 4 5 6 
#
# 1 0.021832 -0.002826 0.002340 0.000000 -0.007660 0.000000
# 2 -0.002826 0.012178 -0.005894 0.000000 0.007506 0.000000
# 3 0.002340 -0.005894 0.015419 0.000000 -0.008873 0.000000
# 4 0.000000 0.000000 0.000000 0.023092 0.000000 0.001484
# 5 -0.007660 0.007506 -0.008873 0.000000 0.054527 0.000000
# 6 0.000000 0.000000 0.000000 0.001484 0.000000 0.027027
#
#
# Mechanical properties :
#
#
# Convention : Reuss Voigt Hill
#
# Bulk Modulus (GPa) = 27.26887 35.37291 31.32089
# Shear Modulus (GPa) = 27.92389 33.58071 30.75230
#
# Velocity S-wave (km/s) = 3.37988 3.70645 3.54692
# Velocity P-wave (km/s) = 5.13683 5.72607 5.43944
#
# Compressibility (1/GPa) = 0.03667185
#
# Stress axis : x y z
#
# Youngs Moduli (GPa) = 45.80372 82.11305 64.85355
#
# Poissons Ratio (x) = 0.23204 -0.15179
# Poissons Ratio (y) = 0.12944 0.38222
# Poissons Ratio (z) = -0.10720 0.48394
#
# Static dielectric constant tensor:
#      x y z
#    x 2.052340 0.000000 -0.017130 
#    y 0.000000 1.993120 0.000000 
#    z -0.017130 0.000000 1.965700 
# 
# From -- ./inp_files/69654.got.cif
#   From: 2010.05.17/outbox.cif.g08.bks.cpg/sg13_35_cif.got.tgz:69654.got - 2010.06.03 16:44:36.
