data_PCOD9229715
_publ_section_title
;
Structure prediction by ZEFSAII (Michael W. Deem and Ramdas Pophale) SiO2 
 PCOD9229715
Probable space group: P 2/C
;
_chemical_formula_sum "Si O2"
_cell_formula_units_Z 32
_cell_length_a 24.860035
_cell_length_b 10.369013
_cell_length_c 5.488447
_cell_angle_alpha 90.000000
_cell_angle_beta 98.807375
_cell_angle_gamma 90.000000
_cell_volume 1398.096969
_symmetry_space_group_name_H-M "P 2/C"
_symmetry_group_IT_number 13
_symmetry_cell_setting 'monoclinic'
loop_
_space_group_symop_operation_xyz
x,y,z
-x,y,1/2-z
-x,-y,-z
x,-y,1/2+z
loop_
_atom_site_type_symbol
_atom_site_label
_atom_site_fract_x
_atom_site_fract_y
_atom_site_fract_z
Si Si1 0.735626 0.358796 0.187807
Si Si2 0.555567 0.076161 0.223222
Si Si3 0.364525 0.456207 0.889074
Si Si4 0.764374 0.858795 0.312195
Si Si5 0.944433 0.423839 0.776778
Si Si6 0.663313 0.192948 0.505342
Si Si7 0.864525 0.956207 0.889076
Si Si8 0.836687 0.307052 0.494660
O O1 0.694804 0.475365 0.098989
O O2 0.750000 0.250000 0.000001
O O3 0.700862 0.276217 0.354343
O O4 0.794493 0.402539 0.332668
O O5 0.500000 0.152517 0.250000
O O6 0.613088 0.138580 0.323215
O O7 0.553541 0.967016 0.439191
O O8 0.391055 0.523366 0.673160
O O9 0.359119 0.304492 0.830412
O O10 0.705507 0.902538 0.167334
O O11 0.799138 0.776217 0.145660
O O12 0.805195 0.975364 0.401014
O O13 0.946460 0.532984 0.560809
O O14 0.886912 0.361420 0.676786
O O15 0.000000 0.347483 0.750000
O O16 0.859119 0.804492 0.830413
O O17 0.891055 0.976634 0.173162
#
# Coordination Sequence:
#
# PCOD9229715 Si02
#       8
#     4   4   4   4   4   4   4   4
#     4  10  20  35  53  88 123 164 195 239 296 373
#     4  10  24  44  65  90 118 156 211 266 311 362
#     4  10  20  34  52  79 119 150 191 234 283 351
#     4  10  20  35  53  88 123 164 195 239 296 373
#     4  10  24  44  65  90 118 156 211 266 311 362
#     4  10  22  36  59  85 119 163 197 253 307 361
#     4  10  20  34  52  79 119 150 191 234 283 351
#     4  10  22  36  59  85 119 163 197 253 307 361
#
# _framework density 22.888252000000001
#
# number of rings (size 3 to 8) (size 9 to 14) (size 15 to 20)
#    0.000    2.000    2.500    0.000    3.500    6.000 
#    0.000    0.000    0.000    6.000    0.000    0.000 
#    0.000    0.000    0.000    0.000    0.000    0.000 
#
# Total GULP energy -178234.381697 kJ/mol
# GULP energy per Si atom -5569.824428 kJ/mol
# Density = 2.283616 g / cm^3
# Si number density = 22.888252 Si / 1000 Ang^3
#
#
#
# Elastic Constant Matrix: (Units=GPa)
#
#
# Indices 1 2 3 4 5 6 
#
# 1 70.8090 5.7505 17.1889 0.0000 22.1665 0.0000
# 2 5.7505 19.8906 8.9008 0.0000 -2.6953 0.0000
# 3 17.1889 8.9008 104.5515 0.0000 -0.1907 0.0000
# 4 0.0000 0.0000 0.0000 37.8310 0.0000 3.4289
# 5 22.1665 -2.6953 -0.1907 0.0000 31.5542 0.0000
# 6 0.0000 0.0000 0.0000 3.4289 0.0000 17.6786
#
#
#
# Elastic Compliance Matrix: (Units=1/GPa)
#
#
# Indices 1 2 3 4 5 6 
#
# 1 0.019860 -0.006484 -0.002740 0.000000 -0.014522 0.000000
# 2 -0.006484 0.055012 -0.003601 0.000000 0.009232 0.000000
# 3 -0.002740 -0.003601 0.010325 0.000000 0.001679 0.000000
# 4 0.000000 0.000000 0.000000 0.026906 0.000000 -0.005219
# 5 -0.014522 0.009232 0.001679 0.000000 0.042692 0.000000
# 6 0.000000 0.000000 0.000000 -0.005219 0.000000 0.057578
#
#
# Mechanical properties :
#
#
# Convention : Reuss Voigt Hill
#
# Bulk Modulus (GPa) = 16.79288 28.77016 22.78152
# Shear Modulus (GPa) = 19.38966 28.30682 23.84824
#
# Velocity S-wave (km/s) = 2.91373 3.52055 3.23142
# Velocity P-wave (km/s) = 4.32118 5.39655 4.88853
#
# Compressibility (1/GPa) = 0.05954905
#
# Stress axis : x y z
#
# Youngs Moduli (GPa) = 50.35225 18.17795 96.85545
#
# Poissons Ratio (x) = 0.11786 0.26535
# Poissons Ratio (y) = 0.32646 0.34873
# Poissons Ratio (z) = 0.13795 0.06545
#
# Static dielectric constant tensor:
#      x y z
#    x 1.879380 0.000000 0.050640 
#    y 0.000000 1.965600 0.000000 
#    z 0.050640 0.000000 2.037540 
# 
# From -- ./inp_files/7492.got.cif
#   From: 2010.05.17/outbox.cif.g08.bks.cpg/sg13_4_cif.got.tgz:7492.got - 2010.06.03 16:44:36.
