data_PCOD9229513
_publ_section_title
;
Structure prediction by ZEFSAII (Michael W. Deem and Ramdas Pophale) SiO2 
 PCOD9229513
Probable space group: P 2/C
;
_chemical_formula_sum "Si O2"
_cell_formula_units_Z 18
_cell_length_a 7.553539
_cell_length_b 10.775037
_cell_length_c 8.670412
_cell_angle_alpha 90.000000
_cell_angle_beta 103.796008
_cell_angle_gamma 90.000000
_cell_volume 685.323614
_symmetry_space_group_name_H-M "P 2/C"
_symmetry_group_IT_number 13
_symmetry_cell_setting 'monoclinic'
loop_
_space_group_symop_operation_xyz
x,y,z
-x,y,1/2-z
-x,-y,-z
x,-y,1/2+z
loop_
_atom_site_type_symbol
_atom_site_label
_atom_site_fract_x
_atom_site_fract_y
_atom_site_fract_z
Si Si1 0.000000 0.536809 0.750000
Si Si2 0.257473 0.256411 0.620025
Si Si3 0.740290 0.546966 0.933425
Si Si4 0.408190 0.783519 0.489018
Si Si5 0.067991 0.128201 0.087443
O O1 0.842940 0.606396 0.808256
O O2 0.885750 0.460452 0.602122
O O3 0.298354 0.404533 0.618692
O O4 0.387601 0.186518 0.522803
O O5 0.303331 0.214085 0.802314
O O6 0.052798 0.228602 0.530827
O O7 0.585314 0.640544 0.950082
O O8 0.282006 0.854256 0.586607
O O9 0.000000 0.131021 0.250000
O O10 0.000000 0.000000 0.000000
#
# Coordination Sequence:
#
# PCOD9229513 Si02
#       5
#     2   4   4   4   4
#     4  10  20  30  60  88 134 180 228 262 316 390
#     4  11  25  44  69 101 141 184 227 278 335 402
#     4  11  21  38  60 103 141 186 219 271 332 405
#     4  11  25  44  69 101 141 184 227 278 335 402
#     4  12  28  49  75 100 130 175 227 287 345 404
#
# _framework density 26.264961
#
# number of rings (size 3 to 8) (size 9 to 14) (size 15 to 20)
#    0.000    0.889    2.222    5.333    6.222    1.778 
#    0.000    0.000    0.000    0.000    0.000    0.000 
#    0.000    0.000    0.000    0.000    0.000    0.000 
#
# Total GULP energy -100709.210147 kJ/mol
# GULP energy per Si atom -5594.956119 kJ/mol
# Density = 2.620518 g / cm^3
# Si number density = 26.264961 Si / 1000 Ang^3
#
#
#
# Elastic Constant Matrix: (Units=GPa)
#
#
# Indices 1 2 3 4 5 6 
#
# 1 104.7861 2.3972 31.1520 0.0000 -38.0516 0.0000
# 2 2.3972 74.6723 4.7454 0.0000 -10.0275 0.0000
# 3 31.1520 4.7454 132.8699 0.0000 -30.0124 0.0000
# 4 0.0000 0.0000 0.0000 28.5379 0.0000 -6.2737
# 5 -38.0516 -10.0275 -30.0124 0.0000 61.9833 0.0000
# 6 0.0000 0.0000 0.0000 -6.2737 0.0000 20.0743
#
#
#
# Elastic Compliance Matrix: (Units=1/GPa)
#
#
# Indices 1 2 3 4 5 6 
#
# 1 0.012521 0.000642 -0.001346 0.000000 0.007139 0.000000
# 2 0.000642 0.013722 -0.000056 0.000000 0.002587 0.000000
# 3 -0.001346 -0.000056 0.008595 0.000000 0.003326 0.000000
# 4 0.000000 0.000000 0.000000 0.037626 0.000000 0.011759
# 5 0.007139 0.002587 0.003326 0.000000 0.022545 0.000000
# 6 0.000000 0.000000 0.000000 0.011759 0.000000 0.053490
#
#
# Mechanical properties :
#
#
# Convention : Reuss Voigt Hill
#
# Bulk Modulus (GPa) = 30.01373 43.21306 36.61340
# Shear Modulus (GPa) = 31.03167 40.38802 35.70985
#
# Velocity S-wave (km/s) = 3.44100 3.92563 3.69128
# Velocity P-wave (km/s) = 5.21914 6.08571 5.66901
#
# Compressibility (1/GPa) = 0.03331808
#
# Stress axis : x y z
#
# Youngs Moduli (GPa) = 79.86516 72.87465 116.34536
#
# Poissons Ratio (x) = -0.04680 0.15661
# Poissons Ratio (y) = -0.05129 0.00655
# Poissons Ratio (z) = 0.10750 0.00410
#
# Static dielectric constant tensor:
#      x y z
#    x 2.065000 0.000000 -0.043320 
#    y 0.000000 2.146700 0.000000 
#    z -0.043320 0.000000 2.048290 
# 
# From -- ./inp_files/11769.got.cif
#   From: 2010.05.17/outbox.cif.g08.bks.cpg/sg13_6_cif.got.tgz:11769.got - 2010.06.03 16:44:36.
