data_PCOD9229810
_publ_section_title
;
Structure prediction by ZEFSAII (Michael W. Deem and Ramdas Pophale) SiO2 
 PCOD9229810
Probable space group: P 2/C
;
_chemical_formula_sum "Si O2"
_cell_formula_units_Z 22
_cell_length_a 22.455082
_cell_length_b 10.967251
_cell_length_c 24.746033
_cell_angle_alpha 90.000000
_cell_angle_beta 169.145600
_cell_angle_gamma 90.000000
_cell_volume 1147.625866
_symmetry_space_group_name_H-M "P 2/C"
_symmetry_group_IT_number 13
_symmetry_cell_setting 'monoclinic'
loop_
_space_group_symop_operation_xyz
x,y,z
-x,y,1/2-z
-x,-y,-z
x,-y,1/2+z
loop_
_atom_site_type_symbol
_atom_site_label
_atom_site_fract_x
_atom_site_fract_y
_atom_site_fract_z
Si Si1 0.714660 0.096144 0.539434
Si Si2 0.371347 0.831528 0.074460
Si Si3 0.901536 0.758554 0.042369
Si Si4 0.195791 0.522646 0.265060
Si Si5 0.500000 0.584789 0.750000
Si Si6 0.481678 0.574386 0.341352
O O1 0.000000 0.105331 0.750000
O O2 0.883919 0.131465 0.745794
O O3 0.586316 0.959450 0.418514
O O4 0.426500 0.189565 0.273234
O O5 0.500000 0.842175 0.250000
O O6 0.503842 0.715893 0.160838
O O7 0.000000 0.808939 0.750000
O O8 0.101167 0.665128 0.184349
O O9 0.789849 0.673415 0.993112
O O10 0.500000 0.500000 0.500000
O O11 0.281856 0.468331 0.400993
O O12 0.875129 0.458638 0.959643
O O13 0.448161 0.501575 0.651146
#
# Coordination Sequence:
#
# PCOD9229810 Si02
#       6
#     4   4   4   4   2   4
#     4  11  20  35  54  87 122 155 180 230 291 360
#     4  11  22  37  56  86 127 156 186 227 292 367
#     4  11  21  34  59  83 119 148 187 244 285 357
#     4  11  25  42  60  85 115 162 202 244 293 334
#     4  10  20  34  56  92 120 138 192 230 318 340
#     4  11  23  38  63  85 120 155 189 251 283 365
#
# _framework density 19.170010999999999
#
# number of rings (size 3 to 8) (size 9 to 14) (size 15 to 20)
#    0.000    1.091    2.727    6.000    2.545    0.000 
#    0.000    0.000    0.000    6.545    0.000    0.000 
#    0.000    0.000    0.000    0.000    0.000    0.000 
#
# Total GULP energy -122887.012029 kJ/mol
# GULP energy per Si atom -5585.773274 kJ/mol
# Density = 1.912638 g / cm^3
# Si number density = 19.170011 Si / 1000 Ang^3
#
#
#
# Elastic Constant Matrix: (Units=GPa)
#
#
# Indices 1 2 3 4 5 6 
#
# 1 25.8713 9.8179 1.8650 0.0000 -0.9761 0.0000
# 2 9.8179 94.9924 10.5611 0.0000 -4.7583 0.0000
# 3 1.8650 10.5611 86.0030 0.0000 -15.0713 0.0000
# 4 0.0000 0.0000 0.0000 29.6644 0.0000 -7.3153
# 5 -0.9761 -4.7583 -15.0713 0.0000 29.0514 0.0000
# 6 0.0000 0.0000 0.0000 -7.3153 0.0000 15.6736
#
#
#
# Elastic Compliance Matrix: (Units=1/GPa)
#
#
# Indices 1 2 3 4 5 6 
#
# 1 0.040250 -0.004103 -0.000275 0.000000 0.000538 0.000000
# 2 -0.004103 0.011128 -0.001080 0.000000 0.001124 0.000000
# 3 -0.000275 -0.001080 0.012907 0.000000 0.006510 0.000000
# 4 0.000000 0.000000 0.000000 0.038095 0.000000 0.017780
# 5 0.000538 0.001124 0.006510 0.000000 0.038001 0.000000
# 6 0.000000 0.000000 0.000000 0.017780 0.000000 0.072100
#
#
# Mechanical properties :
#
#
# Convention : Reuss Voigt Hill
#
# Bulk Modulus (GPa) = 18.73756 27.92830 23.33293
# Shear Modulus (GPa) = 20.73092 27.18606 23.95849
#
# Velocity S-wave (km/s) = 3.29207 3.76993 3.53907
# Velocity P-wave (km/s) = 4.92402 5.79225 5.37569
#
# Compressibility (1/GPa) = 0.05336874
#
# Stress axis : x y z
#
# Youngs Moduli (GPa) = 24.84483 89.86648 77.47786
#
# Poissons Ratio (x) = 0.36868 0.02129
# Poissons Ratio (y) = 0.10193 0.08371
# Poissons Ratio (z) = 0.00683 0.09710
#
# Static dielectric constant tensor:
#      x y z
#    x 1.672750 0.000000 -0.008200 
#    y 0.000000 1.694030 0.000000 
#    z -0.008200 0.000000 1.670850 
# 
# From -- ./inp_files/93852.got.cif
#   From: 2010.05.17/outbox.cif.g08.bks.cpg/sg13_47_cif.got.tgz:93852.got - 2010.06.03 16:44:36.
