data_PCOD9229738
_publ_section_title
;
Structure prediction by ZEFSAII (Michael W. Deem and Ramdas Pophale) SiO2 
 PCOD9229738
Probable space group: P 2/C
;
_chemical_formula_sum "Si O2"
_cell_formula_units_Z 20
_cell_length_a 7.061386
_cell_length_b 24.846114
_cell_length_c 8.273402
_cell_angle_alpha 90.000000
_cell_angle_beta 141.077669
_cell_angle_gamma 90.000000
_cell_volume 911.961151
_symmetry_space_group_name_H-M "P 2/C"
_symmetry_group_IT_number 13
_symmetry_cell_setting 'monoclinic'
loop_
_space_group_symop_operation_xyz
x,y,z
-x,y,1/2-z
-x,-y,-z
x,-y,1/2+z
loop_
_atom_site_type_symbol
_atom_site_label
_atom_site_fract_x
_atom_site_fract_y
_atom_site_fract_z
Si Si1 0.351094 0.668077 0.325095
Si Si2 0.862619 0.171136 0.978544
Si Si3 0.641358 0.446432 0.519338
Si Si4 0.141580 0.053350 0.520779
Si Si5 0.849312 0.720178 0.831197
O O1 0.500000 0.679706 0.250000
O O2 0.421865 0.607327 0.420700
O O3 0.505062 0.707617 0.558365
O O4 0.000854 0.677183 0.052045
O O5 0.500000 0.181011 0.750000
O O6 0.911494 0.112142 0.933315
O O7 0.000000 0.167463 0.250000
O O8 0.043700 0.222041 0.029783
O O9 0.500000 0.500000 0.500000
O O10 0.000000 0.453036 0.750000
O O11 0.500000 0.438758 0.250000
O O12 0.500000 0.046976 0.750000
O O13 0.000000 0.000000 0.500000
O O14 0.000000 0.056839 0.250000
O O15 0.000000 0.716216 0.750000
#
# Coordination Sequence:
#
# PCOD9229738 Si02
#       5
#     4   4   4   4   4
#     4  10  20  35  58  85 112 141 178 225 276 328
#     4   9  16  28  48  78 108 139 182 231 273 320
#     4  12  26  44  64  87 117 152 190 232 276 329
#     4  10  20  34  54  78 109 146 189 236 283 332
#     4   9  16  29  52  82 110 138 178 226 270 321
#
# _framework density 21.930758999999998
#
# number of rings (size 3 to 8) (size 9 to 14) (size 15 to 20)
#    0.000    2.000    0.000    6.000    0.000    2.400 
#    0.000    0.000    0.000    7.200    0.000    0.000 
#    0.000    0.000    0.000    0.000    0.000    0.000 
#
# Total GULP energy -111631.223952 kJ/mol
# GULP energy per Si atom -5581.561198 kJ/mol
# Density = 2.188084 g / cm^3
# Si number density = 21.930759 Si / 1000 Ang^3
#
#
#
# Elastic Constant Matrix: (Units=GPa)
#
#
# Indices 1 2 3 4 5 6 
#
# 1 24.8679 8.0504 36.9179 0.0000 11.0394 0.0000
# 2 8.0504 180.1884 61.3309 0.0000 -2.0868 0.0000
# 3 36.9179 61.3309 189.6396 0.0000 17.9948 0.0000
# 4 0.0000 0.0000 0.0000 39.0216 0.0000 0.2987
# 5 11.0394 -2.0868 17.9948 0.0000 27.6764 0.0000
# 6 0.0000 0.0000 0.0000 0.2987 0.0000 27.5714
#
#
#
# Elastic Compliance Matrix: (Units=1/GPa)
#
#
# Indices 1 2 3 4 5 6 
#
# 1 0.064609 0.000652 -0.011028 0.000000 -0.018551 0.000000
# 2 0.000652 0.006338 -0.002342 0.000000 0.001740 0.000000
# 3 -0.011028 -0.002342 0.008288 0.000000 -0.001166 0.000000
# 4 0.000000 0.000000 0.000000 0.025629 0.000000 -0.000278
# 5 -0.018551 0.001740 -0.001166 0.000000 0.044421 0.000000
# 6 0.000000 0.000000 0.000000 -0.000278 0.000000 0.036272
#
#
# Mechanical properties :
#
#
# Convention : Reuss Voigt Hill
#
# Bulk Modulus (GPa) = 18.58773 67.47715 43.03244
# Shear Modulus (GPa) = 21.84117 38.08034 29.96075
#
# Velocity S-wave (km/s) = 3.15924 4.17152 3.70016
# Velocity P-wave (km/s) = 4.66923 7.35100 6.15788
#
# Compressibility (1/GPa) = 0.05379894
#
# Stress axis : x y z
#
# Youngs Moduli (GPa) = 15.47784 157.78224 120.65452
#
# Poissons Ratio (x) = -0.10292 1.33061
# Poissons Ratio (y) = -0.01010 0.28255
# Poissons Ratio (z) = 0.17069 0.36950
#
# Static dielectric constant tensor:
#      x y z
#    x 1.838040 0.000000 -0.003800 
#    y 0.000000 1.881640 0.000000 
#    z -0.003800 0.000000 1.779710 
# 
# From -- ./inp_files/13855.got.cif
#   From: 2010.05.17/outbox.cif.g08.bks.cpg/sg13_7_cif.got.tgz:13855.got - 2010.06.03 16:44:36.
