data_PCOD9229992
_publ_section_title
;
Structure prediction by ZEFSAII (Michael W. Deem and Ramdas Pophale) SiO2 
 PCOD9229992
Probable space group: P 2/C
;
_chemical_formula_sum "Si O2"
_cell_formula_units_Z 28
_cell_length_a 9.111028
_cell_length_b 16.348582
_cell_length_c 13.951739
_cell_angle_alpha 90.000000
_cell_angle_beta 40.293289
_cell_angle_gamma 90.000000
_cell_volume 1343.937195
_symmetry_space_group_name_H-M "P 2/C"
_symmetry_group_IT_number 13
_symmetry_cell_setting 'monoclinic'
loop_
_space_group_symop_operation_xyz
x,y,z
-x,y,1/2-z
-x,-y,-z
x,-y,1/2+z
loop_
_atom_site_type_symbol
_atom_site_label
_atom_site_fract_x
_atom_site_fract_y
_atom_site_fract_z
Si Si1 0.245970 0.912431 0.352353
Si Si2 0.899830 0.057943 0.198251
Si Si3 0.986475 0.247783 0.558049
Si Si4 0.753267 0.598715 0.136863
Si Si5 0.176025 0.757370 0.747462
Si Si6 0.410817 0.350101 0.404329
Si Si7 0.095491 0.499858 0.098967
O O1 0.500000 0.885119 0.250000
O O2 0.099041 0.841670 0.374303
O O3 0.108909 0.929143 0.519376
O O4 0.251852 0.991766 0.281604
O O5 0.773007 0.144462 0.281201
O O6 0.000000 0.029680 0.250000
O O7 0.778116 0.310751 0.664415
O O8 0.067178 0.249164 0.407302
O O9 0.196701 0.287629 0.509403
O O10 0.500000 0.571261 0.250000
O O11 0.898805 0.543279 0.135191
O O12 0.855660 0.583618 0.980843
O O13 0.386985 0.694816 0.640042
O O14 0.000000 0.741831 0.750000
O O15 0.500000 0.360993 0.250000
O O16 0.307607 0.436353 0.491846
O O17 0.000000 0.485651 0.250000
#
# Coordination Sequence:
#
# PCOD9229992 Si02
#       7
#     4   4   4   4   4   4   4
#     4  10  20  35  57  81 113 152 196 241 285 338
#     4   9  20  37  54  82 116 148 192 239 289 346
#     4   9  19  35  54  81 111 148 190 234 287 339
#     4  10  21  38  58  79 113 151 187 234 287 341
#     4   9  18  33  57  85 111 145 192 237 282 338
#     4   9  18  36  60  80 113 153 188 232 284 341
#     4  10  22  38  57  86 115 145 190 238 287 343
#
# _framework density 20.834308
#
# number of rings (size 3 to 8) (size 9 to 14) (size 15 to 20)
#    0.000    2.571    0.000    0.857    0.000    8.000 
#    0.000   10.000    0.000    0.000    0.000    0.000 
#    0.000    0.000    0.000    0.000    0.000    0.000 
#
# Total GULP energy -156199.261874 kJ/mol
# GULP energy per Si atom -5578.545067 kJ/mol
# Density = 2.078689 g / cm^3
# Si number density = 20.834308 Si / 1000 Ang^3
#
#
#
# Elastic Constant Matrix: (Units=GPa)
#
#
# Indices 1 2 3 4 5 6 
#
# 1 75.2428 33.7229 16.8663 0.0000 -0.7782 0.0000
# 2 33.7229 64.6703 8.4565 0.0000 -10.0324 0.0000
# 3 16.8663 8.4565 34.7455 0.0000 -2.1173 0.0000
# 4 0.0000 0.0000 0.0000 54.3367 0.0000 -56.9602
# 5 -0.7782 -10.0324 -2.1173 0.0000 31.7359 0.0000
# 6 0.0000 0.0000 0.0000 -56.9602 0.0000 61.1854
#
#
#
# Elastic Compliance Matrix: (Units=1/GPa)
#
#
# Indices 1 2 3 4 5 6 
#
# 1 0.019122 -0.009503 -0.007153 0.000000 -0.003013 0.000000
# 2 -0.009503 0.021460 -0.000212 0.000000 0.006537 0.000000
# 3 -0.007153 -0.000212 0.032421 0.000000 0.001921 0.000000
# 4 0.000000 0.000000 0.000000 0.763465 0.000000 0.710744
# 5 -0.003013 0.006537 0.001921 0.000000 0.033631 0.000000
# 6 0.000000 0.000000 0.000000 0.710744 0.000000 0.678008
#
#
# Mechanical properties :
#
#
# Convention : Reuss Voigt Hill
#
# Bulk Modulus (GPa) = 25.46593 32.52778 28.99686
# Shear Modulus (GPa) = 3.13493 37.15911 20.14702
#
# Velocity S-wave (km/s) = 1.22799 4.22780 3.11305
# Velocity P-wave (km/s) = 3.77627 6.28322 5.18358
#
# Compressibility (1/GPa) = 0.03926815
#
# Stress axis : x y z
#
# Youngs Moduli (GPa) = 52.29649 46.59755 30.84377
#
# Poissons Ratio (x) = 0.44283 0.22062
# Poissons Ratio (y) = 0.49698 0.00653
# Poissons Ratio (z) = 0.37407 0.00986
#
# Static dielectric constant tensor:
#      x y z
#    x 1.730510 0.000000 0.007980 
#    y 0.000000 1.774530 0.000000 
#    z 0.007980 0.000000 1.756710 
# 
# From -- ./inp_files/48084.got.cif
#   From: 2010.05.17/outbox.cif.g08.bks.cpg/sg13_25_cif.got.tgz:48084.got - 2010.06.03 16:44:36.
