data_PCOD9229624
_publ_section_title
;
Structure prediction by ZEFSAII (Michael W. Deem and Ramdas Pophale) SiO2 
 PCOD9229624
Probable space group: P 2/C
;
_chemical_formula_sum "Si O2"
_cell_formula_units_Z 24
_cell_length_a 8.099911
_cell_length_b 8.518331
_cell_length_c 20.255551
_cell_angle_alpha 90.000000
_cell_angle_beta 55.605519
_cell_angle_gamma 90.000000
_cell_volume 1153.243865
_symmetry_space_group_name_H-M "P 2/C"
_symmetry_group_IT_number 13
_symmetry_cell_setting 'monoclinic'
loop_
_space_group_symop_operation_xyz
x,y,z
-x,y,1/2-z
-x,-y,-z
x,-y,1/2+z
loop_
_atom_site_type_symbol
_atom_site_label
_atom_site_fract_x
_atom_site_fract_y
_atom_site_fract_z
Si Si1 0.504927 0.832587 0.415165
Si Si2 0.751996 0.426782 0.490081
Si Si3 0.520342 0.108510 0.168172
Si Si4 0.837603 0.014302 0.921124
Si Si5 0.106077 0.747882 0.988447
Si Si6 0.165771 0.268641 0.163532
O O1 0.443624 0.652194 0.433476
O O2 0.714717 0.868332 0.402109
O O3 0.499469 0.925462 0.347828
O O4 0.334366 0.922253 0.498015
O O5 0.781878 0.608361 0.498031
O O6 0.764815 0.384227 0.410131
O O7 0.931127 0.333458 0.486957
O O8 0.500000 0.133334 0.250000
O O9 0.732902 0.173059 0.095587
O O10 0.352362 0.199702 0.162684
O O11 0.931309 0.881803 0.853411
O O12 0.962125 0.118646 0.944127
O O13 0.000000 0.335820 0.250000
#
# Coordination Sequence:
#
# PCOD9229624 Si02
#       6
#     4   4   4   4   4   4
#     4   8  16  31  50  72  96 126 164 202 243 292
#     4  10  20  33  51  76 104 135 170 205 246 299
#     4  10  20  34  53  76 101 130 167 210 255 300
#     4   8  16  31  50  72  96 126 164 202 243 292
#     4  10  20  33  51  76 104 135 170 205 246 299
#     4  10  20  34  53  76 101 130 167 210 255 300
#
# _framework density 20.810862
#
# number of rings (size 3 to 8) (size 9 to 14) (size 15 to 20)
#    0.000    2.667    0.000    4.000    0.000   10.000 
#    0.000    1.667    0.000    4.000    0.000    0.000 
#    0.000    0.000    0.000    0.000    0.000    0.000 
#
# Total GULP energy -133995.056222 kJ/mol
# GULP energy per Si atom -5583.127343 kJ/mol
# Density = 2.076350 g / cm^3
# Si number density = 20.810862 Si / 1000 Ang^3
#
#
#
# Elastic Constant Matrix: (Units=GPa)
#
#
# Indices 1 2 3 4 5 6 
#
# 1 60.2126 34.9317 28.2631 0.0000 20.7487 0.0000
# 2 34.9317 80.0507 29.7877 0.0000 19.0339 0.0000
# 3 28.2631 29.7877 79.8382 0.0000 31.7743 0.0000
# 4 0.0000 0.0000 0.0000 7.0910 0.0000 6.4576
# 5 20.7487 19.0339 31.7743 0.0000 29.9168 0.0000
# 6 0.0000 0.0000 0.0000 6.4576 0.0000 42.0598
#
#
#
# Elastic Compliance Matrix: (Units=1/GPa)
#
#
# Indices 1 2 3 4 5 6 
#
# 1 0.025875 -0.008018 -0.001830 0.000000 -0.010900 0.000000
# 2 -0.008018 0.017647 -0.002582 0.000000 -0.002925 0.000000
# 3 -0.001830 -0.002582 0.022480 0.000000 -0.020963 0.000000
# 4 0.000000 0.000000 0.000000 0.163947 0.000000 -0.025171
# 5 -0.010900 -0.002925 -0.020963 0.000000 0.065112 0.000000
# 6 0.000000 0.000000 0.000000 -0.025171 0.000000 0.027640
#
#
# Mechanical properties :
#
#
# Convention : Reuss Voigt Hill
#
# Bulk Modulus (GPa) = 24.30648 45.11850 34.71249
# Shear Modulus (GPa) = 13.83995 24.28812 19.06404
#
# Velocity S-wave (km/s) = 2.58162 3.41997 3.02993
# Velocity P-wave (km/s) = 4.53778 6.10920 5.38116
#
# Compressibility (1/GPa) = 0.04114128
#
# Stress axis : x y z
#
# Youngs Moduli (GPa) = 38.64802 56.66687 44.48491
#
# Poissons Ratio (x) = 0.45436 0.08141
# Poissons Ratio (y) = 0.30988 0.11485
# Poissons Ratio (z) = 0.07073 0.14630
#
# Static dielectric constant tensor:
#      x y z
#    x 1.805910 0.000000 0.002460 
#    y 0.000000 1.765920 0.000000 
#    z 0.002460 0.000000 1.726620 
# 
# From -- ./inp_files/63295.got.cif
#   From: 2010.05.17/outbox.cif.g08.bks.cpg/sg13_32_cif.got.tgz:63295.got - 2010.06.03 16:44:36.
