data_PCOD9229481
_publ_section_title
;
Structure prediction by ZEFSAII (Michael W. Deem and Ramdas Pophale) SiO2 
 PCOD9229481
Probable space group: P 2/C
;
_chemical_formula_sum "Si O2"
_cell_formula_units_Z 20
_cell_length_a 7.697063
_cell_length_b 25.433016
_cell_length_c 5.412752
_cell_angle_alpha 90.000000
_cell_angle_beta 118.449816
_cell_angle_gamma 90.000000
_cell_volume 931.635134
_symmetry_space_group_name_H-M "P 2/C"
_symmetry_group_IT_number 13
_symmetry_cell_setting 'monoclinic'
loop_
_space_group_symop_operation_xyz
x,y,z
-x,y,1/2-z
-x,-y,-z
x,-y,1/2+z
loop_
_atom_site_type_symbol
_atom_site_label
_atom_site_fract_x
_atom_site_fract_y
_atom_site_fract_z
Si Si1 0.000000 0.348869 0.750000
Si Si2 0.500000 0.125213 0.250000
Si Si3 0.000000 0.533928 0.750000
Si Si4 0.764338 0.970796 0.061702
Si Si5 0.500000 0.193570 0.750000
Si Si6 0.782574 0.710049 0.483013
Si Si7 0.314537 0.392617 0.303780
O O1 0.170053 0.312934 0.752367
O O2 0.887938 0.384536 0.484379
O O3 0.681217 0.085398 0.422883
O O4 0.490037 0.159485 0.492951
O O5 0.780950 0.563693 0.582941
O O6 0.000000 0.500000 0.500000
O O7 0.000000 0.968814 0.250000
O O8 0.703359 0.990835 0.293085
O O9 0.318146 0.234107 0.608126
O O10 0.663224 0.664496 0.548170
O O11 0.000000 0.714452 0.750000
O O12 0.500000 0.403970 0.250000
#
# Coordination Sequence:
#
# PCOD9229481 Si02
#       7
#     2   2   2   4   2   4   4
#     4  10  19  42  70  98 128 170 242 289 320 398
#     4  12  26  41  62  98 150 173 214 294 356 390
#     4  12  27  48  68 106 146 172 226 293 362 420
#     4  10  21  41  71  96 125 180 239 277 332 414
#     4  12  28  41  62 104 140 181 226 278 348 422
#     4  10  23  41  69  95 128 184 236 283 329 414
#     4  11  23  43  73  99 132 183 230 287 341 421
#
# _framework density 21.467631000000001
#
# number of rings (size 3 to 8) (size 9 to 14) (size 15 to 20)
#    0.000    1.200    3.000    3.600    7.000    2.400 
#    0.000    0.000    0.000    0.000    0.000    0.000 
#    0.000    0.000    0.000    0.000    0.000    0.000 
#
# Total GULP energy -111510.621491 kJ/mol
# GULP energy per Si atom -5575.531075 kJ/mol
# Density = 2.141877 g / cm^3
# Si number density = 21.467631 Si / 1000 Ang^3
#
#
#
# Elastic Constant Matrix: (Units=GPa)
#
#
# Indices 1 2 3 4 5 6 
#
# 1 158.8114 63.6343 38.7587 0.0000 -12.4704 0.0000
# 2 63.6343 122.5058 48.3543 0.0000 -14.9741 0.0000
# 3 38.7587 48.3543 118.7406 0.0000 -12.3018 0.0000
# 4 0.0000 0.0000 0.0000 -23.4488 0.0000 -6.9332
# 5 -12.4704 -14.9741 -12.3018 0.0000 36.4561 0.0000
# 6 0.0000 0.0000 0.0000 -6.9332 0.0000 1.0949
#
#
#
# Elastic Compliance Matrix: (Units=1/GPa)
#
#
# Indices 1 2 3 4 5 6 
#
# 1 0.008100 -0.003682 -0.001051 0.000000 0.000904 0.000000
# 2 -0.003682 0.011675 -0.003301 0.000000 0.002422 0.000000
# 3 -0.001051 -0.003301 0.010291 0.000000 0.001757 0.000000
# 4 0.000000 0.000000 0.000000 -0.014847 0.000000 -0.094018
# 5 0.000904 0.002422 0.001757 0.000000 0.029327 0.000000
# 6 0.000000 0.000000 0.000000 -0.094018 0.000000 0.317981
#
#
# Mechanical properties :
#
#
# Convention : Reuss Voigt Hill
#
# Bulk Modulus (GPa) = 71.44464 77.95028 74.69746
# Shear Modulus (GPa) = 13.04598 19.44114 16.24356
#
# Velocity S-wave (km/s) = 2.46784 3.01259 2.75372
# Velocity P-wave (km/s) = 6.43993 6.96350 6.70683
#
# Compressibility (1/GPa) = 0.01399685
#
# Stress axis : x y z
#
# Youngs Moduli (GPa) = 123.46392 85.65619 97.17050
#
# Poissons Ratio (x) = 0.31539 0.10210
# Poissons Ratio (y) = 0.45460 0.32080
# Poissons Ratio (z) = 0.12973 0.28279
#
# Static dielectric constant tensor:
#      x y z
#    x 1.763540 0.000000 0.503780 
#    y 0.000000 1.819470 0.000000 
#    z 0.503780 0.000000 -2.048280 
# 
# From -- ./inp_files/2256.got.cif
#   From: 2010.05.17/outbox.cif.g08.bks.cpg/sg13_2_cif.got.tgz:2256.got - 2010.06.03 16:44:36.
