data_PCOD9229798
_publ_section_title
;
Structure prediction by ZEFSAII (Michael W. Deem and Ramdas Pophale) SiO2 
 PCOD9229798
Probable space group: P 2/C
;
_chemical_formula_sum "Si O2"
_cell_formula_units_Z 26
_cell_length_a 23.938824
_cell_length_b 10.524722
_cell_length_c 24.565173
_cell_angle_alpha 90.000000
_cell_angle_beta 168.935383
_cell_angle_gamma 90.000000
_cell_volume 1187.802686
_symmetry_space_group_name_H-M "P 2/C"
_symmetry_group_IT_number 13
_symmetry_cell_setting 'monoclinic'
loop_
_space_group_symop_operation_xyz
x,y,z
-x,y,1/2-z
-x,-y,-z
x,-y,1/2+z
loop_
_atom_site_type_symbol
_atom_site_label
_atom_site_fract_x
_atom_site_fract_y
_atom_site_fract_z
Si Si1 0.000000 0.967282 0.250000
Si Si2 0.407516 0.692056 0.926445
Si Si3 0.500000 0.365308 0.750000
Si Si4 0.271687 0.444062 0.856170
Si Si5 0.668539 0.432781 0.332512
Si Si6 0.285730 0.179632 0.450842
Si Si7 0.500000 0.219550 0.250000
Si Si8 0.127934 0.785030 0.043690
O O1 0.230536 0.873059 0.496354
O O2 0.857810 0.057405 0.159166
O O3 0.241562 0.562471 0.786097
O O4 0.166304 0.803733 0.700562
O O5 0.548668 0.664532 0.003262
O O6 0.673693 0.707027 0.223395
O O7 0.286755 0.461979 0.577928
O O8 0.356077 0.276409 0.567029
O O9 0.965408 0.399946 0.586400
O O10 0.457188 0.489687 0.085078
O O11 0.509950 0.313268 0.207975
O O12 0.593244 0.141899 0.716257
O O13 0.058453 0.241301 0.190277
#
# Coordination Sequence:
#
# PCOD9229798 Si02
#       8
#     2   4   2   4   4   4   2   4
#     4  12  24  42  62  88 118 154 210 252 280 350
#     4  10  20  34  56  85 126 157 189 243 291 366
#     4  11  23  36  56  90 129 155 188 240 310 371
#     4  11  21  35  55  85 117 162 205 234 289 345
#     4  11  24  39  59  86 124 165 199 239 287 357
#     4  11  22  36  60  90 120 153 188 247 313 357
#     4  11  25  44  62  84 119 167 212 240 276 339
#     4  10  20  35  53  85 118 149 185 230 305 360
#
# _framework density 21.889157999999998
#
# number of rings (size 3 to 8) (size 9 to 14) (size 15 to 20)
#    0.000    1.231    0.000    7.846    0.000    8.000 
#    0.000    0.000    0.000    0.000    0.000   75.385 
#    0.000    0.000    0.000    0.000    0.000    0.000 
#
# Total GULP energy -144824.325945 kJ/mol
# GULP energy per Si atom -5570.166383 kJ/mol
# Density = 2.183934 g / cm^3
# Si number density = 21.889158 Si / 1000 Ang^3
#
#
#
# Elastic Constant Matrix: (Units=GPa)
#
#
# Indices 1 2 3 4 5 6 
#
# 1 70.0475 17.7241 15.5791 0.0000 24.5825 0.0000
# 2 17.7241 47.3391 5.7589 0.0000 10.9961 0.0000
# 3 15.5791 5.7589 109.2274 0.0000 17.3396 0.0000
# 4 0.0000 0.0000 0.0000 31.8439 0.0000 10.8892
# 5 24.5825 10.9961 17.3396 0.0000 45.8259 0.0000
# 6 0.0000 0.0000 0.0000 10.8892 0.0000 18.8247
#
#
#
# Elastic Compliance Matrix: (Units=1/GPa)
#
#
# Indices 1 2 3 4 5 6 
#
# 1 0.018727 -0.004916 -0.001069 0.000000 -0.008462 0.000000
# 2 -0.004916 0.023674 -0.000068 0.000000 -0.003018 0.000000
# 3 -0.001069 -0.000068 0.009807 0.000000 -0.003121 0.000000
# 4 0.000000 0.000000 0.000000 0.039147 0.000000 -0.022644
# 5 -0.008462 -0.003018 -0.003121 0.000000 0.028266 0.000000
# 6 0.000000 0.000000 0.000000 -0.022644 0.000000 0.066220
#
#
# Mechanical properties :
#
#
# Convention : Reuss Voigt Hill
#
# Bulk Modulus (GPa) = 24.93588 33.85980 29.39784
# Shear Modulus (GPa) = 23.66150 31.80236 27.73193
#
# Velocity S-wave (km/s) = 3.29138 3.81580 3.56325
# Velocity P-wave (km/s) = 5.08535 5.90899 5.51258
#
# Compressibility (1/GPa) = 0.04010286
#
# Stress axis : x y z
#
# Youngs Moduli (GPa) = 53.39821 42.24040 101.97130
#
# Poissons Ratio (x) = 0.20766 0.10896
# Poissons Ratio (y) = 0.26251 0.00693
# Poissons Ratio (z) = 0.05706 0.00287
#
# Static dielectric constant tensor:
#      x y z
#    x 1.920810 0.000000 0.038340 
#    y 0.000000 1.792730 0.000000 
#    z 0.038340 0.000000 1.826720 
# 
# From -- ./inp_files/89146.got.cif
#   From: 2010.05.17/outbox.cif.g08.bks.cpg/sg13_45_cif.got.tgz:89146.got - 2010.06.03 16:44:36.
