data_PCOD9229345
_publ_section_title
;
Structure prediction by ZEFSAII (Michael W. Deem and Ramdas Pophale) SiO2 
 PCOD9229345
Probable space group: P 2/C
;
_chemical_formula_sum "Si O2"
_cell_formula_units_Z 22
_cell_length_a 15.830673
_cell_length_b 9.811608
_cell_length_c 14.064271
_cell_angle_alpha 90.000000
_cell_angle_beta 27.126300
_cell_angle_gamma 90.000000
_cell_volume 996.041270
_symmetry_space_group_name_H-M "P 2/C"
_symmetry_group_IT_number 13
_symmetry_cell_setting 'monoclinic'
loop_
_space_group_symop_operation_xyz
x,y,z
-x,y,1/2-z
-x,-y,-z
x,-y,1/2+z
loop_
_atom_site_type_symbol
_atom_site_label
_atom_site_fract_x
_atom_site_fract_y
_atom_site_fract_z
Si Si1 0.180028 0.489380 0.751865
Si Si2 0.388311 0.204515 0.545321
Si Si3 0.208180 0.180800 0.425066
Si Si4 0.695679 0.214935 0.367199
Si Si5 0.000000 0.590596 0.250000
Si Si6 0.288118 0.983648 0.498348
O O1 0.279013 0.344322 0.667013
O O2 0.304525 0.622442 0.643728
O O3 0.123393 0.494979 0.697901
O O4 0.000000 0.500000 0.000000
O O5 0.573496 0.221225 0.295397
O O6 0.489193 0.162335 0.543389
O O7 0.276161 0.092434 0.598074
O O8 0.169788 0.162860 0.352136
O O9 0.182206 0.047818 0.515224
O O10 0.108186 0.307409 0.572123
O O11 0.756888 0.158659 0.406834
O O12 0.500000 0.973113 0.250000
#
# Coordination Sequence:
#
# PCOD9229345 Si02
#       6
#     4   4   4   4   2   4
#     4  12  23  42  62  92 130 164 216 264 312 380
#     4   9  20  39  66  87 121 166 209 250 320 383
#     4   9  21  39  68  86 123 174 210 245 326 387
#     4  10  22  39  64  97 124 159 215 268 318 362
#     4  12  22  42  62  90 126 174 212 254 314 398
#     4  10  19  39  63  95 123 161 211 262 308 382
#
# _framework density 22.087439
#
# number of rings (size 3 to 8) (size 9 to 14) (size 15 to 20)
#    1.091    0.727    3.636    1.091    0.000    0.000 
#    6.545    4.545    0.000    0.000    0.000    0.000 
#    0.000    0.000    0.000    0.000    0.000    0.000 
#
# Total GULP energy -122620.209087 kJ/mol
# GULP energy per Si atom -5573.645868 kJ/mol
# Density = 2.203717 g / cm^3
# Si number density = 22.087439 Si / 1000 Ang^3
#
#
#
# Elastic Constant Matrix: (Units=GPa)
#
#
# Indices 1 2 3 4 5 6 
#
# 1 73.8472 7.3723 -0.3658 0.0000 22.9036 0.0000
# 2 7.3723 88.2922 23.7044 0.0000 13.1172 0.0000
# 3 -0.3658 23.7044 70.3680 0.0000 13.0071 0.0000
# 4 0.0000 0.0000 0.0000 26.2164 0.0000 11.1279
# 5 22.9036 13.1172 13.0071 0.0000 26.2599 0.0000
# 6 0.0000 0.0000 0.0000 11.1279 0.0000 30.8262
#
#
#
# Elastic Compliance Matrix: (Units=1/GPa)
#
#
# Indices 1 2 3 4 5 6 
#
# 1 0.019337 0.000230 0.003480 0.000000 -0.018704 0.000000
# 2 0.000230 0.012972 -0.003450 0.000000 -0.004971 0.000000
# 3 0.003480 -0.003450 0.017209 0.000000 -0.009837 0.000000
# 4 0.000000 0.000000 0.000000 0.045046 0.000000 -0.016261
# 5 -0.018704 -0.004971 -0.009837 0.000000 0.061750 0.000000
# 6 0.000000 0.000000 0.000000 -0.016261 0.000000 0.038310
#
#
# Mechanical properties :
#
#
# Convention : Reuss Voigt Hill
#
# Bulk Modulus (GPa) = 19.98440 32.65879 26.32160
# Shear Modulus (GPa) = 23.72115 30.11360 26.91738
#
# Velocity S-wave (km/s) = 3.28070 3.69641 3.49474
# Velocity P-wave (km/s) = 4.83923 5.74771 5.31292
#
# Compressibility (1/GPa) = 0.05003903
#
# Stress axis : x y z
#
# Youngs Moduli (GPa) = 51.71488 77.09197 58.10789
#
# Poissons Ratio (x) = -0.01771 -0.20224
# Poissons Ratio (y) = -0.01188 0.20044
# Poissons Ratio (z) = -0.17999 0.26593
#
# Static dielectric constant tensor:
#      x y z
#    x 1.910370 0.000000 -0.038780 
#    y 0.000000 1.787020 0.000000 
#    z -0.038780 0.000000 1.825540 
# 
# From -- ./inp_files/55026.got.cif
#   From: 2010.05.17/outbox.cif.g08.bks.cpg/sg13_28_cif.got.tgz:55026.got - 2010.06.03 16:44:36.
