data_PCOD9229566
_publ_section_title
;
Structure prediction by ZEFSAII (Michael W. Deem and Ramdas Pophale) SiO2 
 PCOD9229566
Probable space group: P 2/C
;
_chemical_formula_sum "Si O2"
_cell_formula_units_Z 32
_cell_length_a 12.565501
_cell_length_b 5.482079
_cell_length_c 29.919226
_cell_angle_alpha 90.000000
_cell_angle_beta 119.366912
_cell_angle_gamma 90.000000
_cell_volume 1796.145147
_symmetry_space_group_name_H-M "P 2/C"
_symmetry_group_IT_number 13
_symmetry_cell_setting 'monoclinic'
loop_
_space_group_symop_operation_xyz
x,y,z
-x,y,1/2-z
-x,-y,-z
x,-y,1/2+z
loop_
_atom_site_type_symbol
_atom_site_label
_atom_site_fract_x
_atom_site_fract_y
_atom_site_fract_z
Si Si1 0.891707 0.806401 0.484777
Si Si2 0.885450 0.459681 0.691021
Si Si3 0.734270 0.031106 0.384313
Si Si4 0.972346 0.039491 0.190914
Si Si5 0.949233 0.577497 0.918923
Si Si6 0.151745 0.250924 0.671000
Si Si7 0.322149 0.538568 0.280501
Si Si8 0.469774 0.039972 0.296480
O O1 0.914169 0.595055 0.453316
O O2 0.923358 0.703827 0.540352
O O3 0.769489 0.932899 0.440995
O O4 0.000000 0.000000 0.500000
O O5 0.760892 0.481138 0.692657
O O6 0.000000 0.446196 0.750000
O O7 0.888734 0.198740 0.667816
O O8 0.911841 0.702316 0.668250
O O9 0.836284 0.234211 0.393565
O O10 0.593930 0.094108 0.349269
O O11 0.760083 0.834700 0.350529
O O12 0.091318 0.971034 0.186294
O O13 0.000000 0.052426 0.250000
O O14 0.949072 0.410787 0.875337
O O15 0.226824 0.411985 0.720906
O O16 0.387394 0.280737 0.285827
O O17 0.407412 0.782309 0.298104
O O18 0.500000 0.017817 0.250000
#
# Coordination Sequence:
#
# PCOD9229566 Si02
#       8
#     4   4   4   4   4   4   4   4
#     4   8  16  33  52  76 101 143 176 227 278 325
#     4  10  20  35  53  69  96 139 180 233 279 311
#     4  10  21  34  51  75 112 151 182 220 267 323
#     4  10  20  32  52  73  97 136 176 223 285 323
#     4   9  18  31  54  75 108 140 179 224 279 330
#     4  11  21  32  52  77 107 146 181 226 274 330
#     4  12  24  37  51  74 109 151 192 226 259 321
#     4  12  25  35  50  75 111 152 195 219 255 317
#
# _framework density 17.815932
#
# number of rings (size 3 to 8) (size 9 to 14) (size 15 to 20)
#    0.000    1.750    3.750    1.875    7.000    0.000 
#    0.000    0.000    0.000    0.000    0.000    0.000 
#    0.000    6.000    0.000    0.000    0.000    0.000 
#
# Total GULP energy -178229.300751 kJ/mol
# GULP energy per Si atom -5569.665648 kJ/mol
# Density = 1.777538 g / cm^3
# Si number density = 17.815932 Si / 1000 Ang^3
#
#
#
# Elastic Constant Matrix: (Units=GPa)
#
#
# Indices 1 2 3 4 5 6 
#
# 1 71.9410 25.9694 15.5725 0.0000 2.0647 0.0000
# 2 25.9694 101.6338 11.4927 0.0000 -1.4444 0.0000
# 3 15.5725 11.4927 60.9649 0.0000 18.8891 0.0000
# 4 0.0000 0.0000 0.0000 20.6909 0.0000 1.3885
# 5 2.0647 -1.4444 18.8891 0.0000 17.3348 0.0000
# 6 0.0000 0.0000 0.0000 1.3885 0.0000 31.1045
#
#
#
# Elastic Compliance Matrix: (Units=1/GPa)
#
#
# Indices 1 2 3 4 5 6 
#
# 1 0.016025 -0.003596 -0.004123 0.000000 0.002285 0.000000
# 2 -0.003596 0.011086 -0.002401 0.000000 0.003968 0.000000
# 3 -0.004123 -0.002401 0.026901 0.000000 -0.029021 0.000000
# 4 0.000000 0.000000 0.000000 0.048476 0.000000 -0.002164
# 5 0.002285 0.003968 -0.029021 0.000000 0.089370 0.000000
# 6 0.000000 0.000000 0.000000 -0.002164 0.000000 0.032246
#
#
# Mechanical properties :
#
#
# Convention : Reuss Voigt Hill
#
# Bulk Modulus (GPa) = 29.61071 37.84543 33.72807
# Shear Modulus (GPa) = 19.56173 25.92637 22.74405
#
# Velocity S-wave (km/s) = 3.31719 3.81889 3.57685
# Velocity P-wave (km/s) = 5.59715 6.38231 6.00258
#
# Compressibility (1/GPa) = 0.03377157
#
# Stress axis : x y z
#
# Youngs Moduli (GPa) = 62.40105 90.20407 37.17389
#
# Poissons Ratio (x) = 0.32438 0.15328
# Poissons Ratio (y) = 0.22440 0.08925
# Poissons Ratio (z) = 0.25730 0.21656
#
# Static dielectric constant tensor:
#      x y z
#    x 1.604530 0.000000 0.002520 
#    y 0.000000 1.769930 0.000000 
#    z 0.002520 0.000000 1.656020 
# 
# From -- ./inp_files/85998.got.cif
#   From: 2010.05.17/outbox.cif.g08.bks.cpg/sg13_43_cif.got.tgz:85998.got - 2010.06.03 16:44:36.
