data_PCOD9229292
_publ_section_title
;
Structure prediction by ZEFSAII (Michael W. Deem and Ramdas Pophale) SiO2 
 PCOD9229292
Probable space group: P 2/C
;
_chemical_formula_sum "Si O2"
_cell_formula_units_Z 30
_cell_length_a 13.587466
_cell_length_b 9.357886
_cell_length_c 17.638539
_cell_angle_alpha 90.000000
_cell_angle_beta 36.412575
_cell_angle_gamma 90.000000
_cell_volume 1331.280129
_symmetry_space_group_name_H-M "P 2/C"
_symmetry_group_IT_number 13
_symmetry_cell_setting 'monoclinic'
loop_
_space_group_symop_operation_xyz
x,y,z
-x,y,1/2-z
-x,-y,-z
x,-y,1/2+z
loop_
_atom_site_type_symbol
_atom_site_label
_atom_site_fract_x
_atom_site_fract_y
_atom_site_fract_z
Si Si1 0.649891 0.933690 0.858822
Si Si2 0.782944 0.720662 0.896367
Si Si3 0.820292 0.794038 0.183920
Si Si4 0.553104 0.573471 0.388943
Si Si5 0.000000 0.467547 0.750000
Si Si6 0.674144 0.696056 0.729104
Si Si7 0.850562 0.654640 0.480953
Si Si8 0.061471 0.321890 0.041943
O O1 0.759165 0.849034 0.853262
O O2 0.594045 0.820635 0.829131
O O3 0.749928 0.054950 0.752242
O O4 0.500000 0.000000 0.000000
O O5 0.866019 0.583806 0.801763
O O6 0.602133 0.671874 0.036203
O O7 0.886836 0.743045 0.908717
O O8 0.712701 0.674226 0.293771
O O9 0.824909 0.753419 0.092320
O O10 0.009340 0.771018 0.089658
O O11 0.500000 0.500000 0.500000
O O12 0.590456 0.450853 0.305686
O O13 0.876734 0.372456 0.876189
O O14 0.692010 0.702413 0.626992
O O15 0.869191 0.694886 0.636397
O O16 0.898482 0.492951 0.480395
#
# Coordination Sequence:
#
# PCOD9229292 Si02
#       8
#     4   4   4   4   2   4   4   4
#     4  12  24  40  57  95 134 176 216 268 328 407
#     4  11  23  38  66  95 132 171 222 272 330 391
#     4  11  21  39  64  93 128 170 220 264 336 389
#     4  12  20  36  65  97 121 171 218 270 318 384
#     4  10  22  42  66 104 128 164 222 284 334 370
#     4  11  21  40  67  95 128 172 226 265 327 394
#     4  10  19  38  66  95 128 164 217 287 313 388
#     4  10  21  40  68  97 124 169 227 287 316 385
#
# _framework density 22.534700999999998
#
# number of rings (size 3 to 8) (size 9 to 14) (size 15 to 20)
#    0.000    1.067    5.333    3.200    0.000    2.667 
#    0.000    3.333    0.000    3.200    0.000    0.000 
#    0.000    0.000    0.000    0.000    0.000    0.000 
#
# Total GULP energy -167448.593923 kJ/mol
# GULP energy per Si atom -5581.619797 kJ/mol
# Density = 2.248341 g / cm^3
# Si number density = 22.534701 Si / 1000 Ang^3
#
#
#
# Elastic Constant Matrix: (Units=GPa)
#
#
# Indices 1 2 3 4 5 6 
#
# 1 47.9317 2.1522 14.7030 0.0000 22.2725 0.0000
# 2 2.1522 83.3536 20.9962 0.0000 14.3095 0.0000
# 3 14.7030 20.9962 140.0292 0.0000 16.6017 0.0000
# 4 0.0000 0.0000 0.0000 55.1662 0.0000 -0.3459
# 5 22.2725 14.3095 16.6017 0.0000 37.0361 0.0000
# 6 0.0000 0.0000 0.0000 -0.3459 0.0000 17.8426
#
#
#
# Elastic Compliance Matrix: (Units=1/GPa)
#
#
# Indices 1 2 3 4 5 6 
#
# 1 0.029646 0.002712 -0.001353 0.000000 -0.018269 0.000000
# 2 0.002712 0.013368 -0.001567 0.000000 -0.006093 0.000000
# 3 -0.001353 -0.001567 0.007763 0.000000 -0.002060 0.000000
# 4 0.000000 0.000000 0.000000 0.018129 0.000000 0.000351
# 5 -0.018269 -0.006093 -0.002060 0.000000 0.041265 0.000000
# 6 0.000000 0.000000 0.000000 0.000351 0.000000 0.056052
#
#
# Mechanical properties :
#
#
# Convention : Reuss Voigt Hill
#
# Bulk Modulus (GPa) = 19.85729 38.55749 29.20739
# Shear Modulus (GPa) = 27.25894 37.57316 32.41605
#
# Velocity S-wave (km/s) = 3.48177 4.08775 3.79686
# Velocity P-wave (km/s) = 4.99946 6.27909 5.67545
#
# Compressibility (1/GPa) = 0.05035934
#
# Stress axis : x y z
#
# Youngs Moduli (GPa) = 33.73184 74.80676 128.82157
#
# Poissons Ratio (x) = -0.20286 0.17435
# Poissons Ratio (y) = -0.09147 0.20182
# Poissons Ratio (z) = 0.04565 0.11720
#
# Static dielectric constant tensor:
#      x y z
#    x 1.974400 0.000000 0.008900 
#    y 0.000000 1.815720 0.000000 
#    z 0.008900 0.000000 1.936860 
# 
# From -- ./inp_files/80918.got.cif
#   From: 2010.05.17/outbox.cif.g08.bks.cpg/sg13_41_cif.got.tgz:80918.got - 2010.06.03 16:44:36.
