data_PCOD9229937
_publ_section_title
;
Structure prediction by ZEFSAII (Michael W. Deem and Ramdas Pophale) SiO2 
 PCOD9229937
Probable space group: P 2/C
;
_chemical_formula_sum "Si O2"
_cell_formula_units_Z 22
_cell_length_a 10.139501
_cell_length_b 22.197449
_cell_length_c 5.192232
_cell_angle_alpha 90.000000
_cell_angle_beta 70.315034
_cell_angle_gamma 90.000000
_cell_volume 1100.325711
_symmetry_space_group_name_H-M "P 2/C"
_symmetry_group_IT_number 13
_symmetry_cell_setting 'monoclinic'
loop_
_space_group_symop_operation_xyz
x,y,z
-x,y,1/2-z
-x,-y,-z
x,-y,1/2+z
loop_
_atom_site_type_symbol
_atom_site_label
_atom_site_fract_x
_atom_site_fract_y
_atom_site_fract_z
Si Si1 0.730961 0.833610 0.005308
Si Si2 0.330347 0.467480 0.388820
Si Si3 0.834391 0.961238 0.842195
Si Si4 0.347259 0.330897 0.483067
Si Si5 0.500000 0.250976 0.750000
Si Si6 0.154377 0.224072 0.548272
O O1 0.735507 0.905210 0.977166
O O2 0.841690 0.812212 0.718787
O O3 0.588946 0.797042 0.022952
O O4 0.768398 0.812832 0.271456
O O5 0.500000 0.471571 0.250000
O O6 0.279642 0.514068 0.639336
O O7 0.301669 0.399879 0.502475
O O8 0.000000 0.943513 0.750000
O O9 0.812548 0.987159 0.571192
O O10 0.500000 0.327570 0.250000
O O11 0.383242 0.297973 0.726958
O O12 0.232708 0.286845 0.442109
O O13 0.000000 0.235421 0.750000
#
# Coordination Sequence:
#
# PCOD9229937 Si02
#       6
#     4   4   4   4   2   4
#     4  11  22  38  58  82 115 144 183 229 280 330
#     4   9  19  30  49  77 106 139 181 227 269 316
#     4  10  20  35  55  78 105 141 183 225 269 320
#     4  10  20  35  56  79 115 144 184 227 280 329
#     4  10  22  36  56  84 112 150 182 224 282 340
#     4  11  22  36  58  85 112 146 186 231 278 330
#
# _framework density 19.994077999999998
#
# number of rings (size 3 to 8) (size 9 to 14) (size 15 to 20)
#    0.000    1.818    1.818    2.727    6.364    1.455 
#    0.000    0.909    0.000    1.091    0.000    0.000 
#    0.000    0.000    0.000    0.000    0.000    0.000 
#
# Total GULP energy -122527.777114 kJ/mol
# GULP energy per Si atom -5569.444414 kJ/mol
# Density = 1.994857 g / cm^3
# Si number density = 19.994078 Si / 1000 Ang^3
#
#
#
# Elastic Constant Matrix: (Units=GPa)
#
#
# Indices 1 2 3 4 5 6 
#
# 1 20.2564 13.3595 3.2908 0.0000 -5.8336 0.0000
# 2 13.3595 119.1351 23.8665 0.0000 -7.0722 0.0000
# 3 3.2908 23.8665 79.3121 0.0000 -0.0293 0.0000
# 4 0.0000 0.0000 0.0000 25.2318 0.0000 0.5662
# 5 -5.8336 -7.0722 -0.0293 0.0000 24.9392 0.0000
# 6 0.0000 0.0000 0.0000 0.5662 0.0000 13.0077
#
#
#
# Elastic Compliance Matrix: (Units=1/GPa)
#
#
# Indices 1 2 3 4 5 6 
#
# 1 0.056461 -0.005503 -0.000682 0.000000 0.011646 0.000000
# 2 -0.005503 0.009631 -0.002669 0.000000 0.001441 0.000000
# 3 -0.000682 -0.002669 0.013440 0.000000 -0.000901 0.000000
# 4 0.000000 0.000000 0.000000 0.039671 0.000000 -0.001727
# 5 0.011646 0.001441 -0.000901 0.000000 0.043229 0.000000
# 6 0.000000 0.000000 0.000000 -0.001727 0.000000 0.076953
#
#
# Mechanical properties :
#
#
# Convention : Reuss Voigt Hill
#
# Bulk Modulus (GPa) = 16.17544 33.30413 24.73978
# Shear Modulus (GPa) = 18.00483 24.51484 21.25984
#
# Velocity S-wave (km/s) = 3.00410 3.50538 3.26438
# Velocity P-wave (km/s) = 4.48782 5.75124 5.15835
#
# Compressibility (1/GPa) = 0.06182214
#
# Stress axis : x y z
#
# Youngs Moduli (GPa) = 17.71121 103.82862 74.40665
#
# Poissons Ratio (x) = 0.57141 0.05077
# Poissons Ratio (y) = 0.09747 0.19862
# Poissons Ratio (z) = 0.01208 0.27716
#
# Static dielectric constant tensor:
#      x y z
#    x 1.771010 0.000000 0.032970 
#    y 0.000000 1.693560 0.000000 
#    z 0.032970 0.000000 1.776090 
# 
# From -- ./inp_files/2132.got.cif
#   From: 2010.05.17/outbox.cif.g08.bks.cpg/sg13_2_cif.got.tgz:2132.got - 2010.06.03 16:44:36.
