data_PCOD9229746
_publ_section_title
;
Structure prediction by ZEFSAII (Michael W. Deem and Ramdas Pophale) SiO2 
 PCOD9229746
Probable space group: P 2/C
;
_chemical_formula_sum "Si O2"
_cell_formula_units_Z 28
_cell_length_a 15.323418
_cell_length_b 18.503002
_cell_length_c 5.367739
_cell_angle_alpha 90.000000
_cell_angle_beta 59.578762
_cell_angle_gamma 90.000000
_cell_volume 1312.383418
_symmetry_space_group_name_H-M "P 2/C"
_symmetry_group_IT_number 13
_symmetry_cell_setting 'monoclinic'
loop_
_space_group_symop_operation_xyz
x,y,z
-x,y,1/2-z
-x,-y,-z
x,-y,1/2+z
loop_
_atom_site_type_symbol
_atom_site_label
_atom_site_fract_x
_atom_site_fract_y
_atom_site_fract_z
Si Si1 0.885683 0.526231 0.731878
Si Si2 0.611865 0.277531 0.613653
Si Si3 0.000000 0.951784 0.750000
Si Si4 0.000000 0.258976 0.750000
Si Si5 0.614870 0.973188 0.570462
Si Si6 0.871671 0.819804 0.053718
Si Si7 0.170757 0.679819 0.718591
Si Si8 0.653544 0.190001 0.058469
O O1 0.838555 0.520329 0.523459
O O2 0.876014 0.608596 0.837468
O O3 0.000000 0.500000 0.500000
O O4 0.500000 0.310078 0.750000
O O5 0.709343 0.327857 0.422904
O O6 0.623613 0.243122 0.873468
O O7 0.620971 0.218427 0.376716
O O8 0.096924 0.897214 0.599839
O O9 0.000000 0.000000 0.500000
O O10 0.967352 0.208193 0.571878
O O11 0.098070 0.307930 0.559461
O O12 0.500000 0.004886 0.750000
O O13 0.608568 0.887780 0.562028
O O14 0.666243 0.005194 0.253268
O O15 0.774376 0.822694 0.374387
O O16 0.842420 0.755073 0.909250
#
# Coordination Sequence:
#
# PCOD9229746 Si02
#       8
#     4   4   2   2   4   4   4   4
#     4  10  23  38  59  98 135 167 203 259 319 375
#     4  11  23  40  63  95 126 161 210 269 321 373
#     4  12  27  42  60  87 132 176 220 278 331 394
#     4  12  19  40  66  91 130 160 220 270 311 390
#     4  10  20  34  54  79 108 149 195 251 320 383
#     4  11  25  40  64  92 125 173 225 266 330 394
#     4  11  24  39  70  96 131 175 216 265 323 393
#     4  11  23  40  61  90 118 160 210 270 328 380
#
# _framework density 21.335229000000002
#
# number of rings (size 3 to 8) (size 9 to 14) (size 15 to 20)
#    0.000    1.143    2.857    3.429    6.000    2.286 
#    0.000    0.000    0.000    0.857    0.000    0.000 
#    0.000    0.000    0.000    0.000    0.000    0.000 
#
# Total GULP energy -156157.727618 kJ/mol
# GULP energy per Si atom -5577.061701 kJ/mol
# Density = 2.128667 g / cm^3
# Si number density = 21.335229 Si / 1000 Ang^3
#
#
#
# Elastic Constant Matrix: (Units=GPa)
#
#
# Indices 1 2 3 4 5 6 
#
# 1 82.4169 14.1883 34.8469 0.0000 -21.0319 0.0000
# 2 14.1883 78.1306 14.5776 0.0000 -6.9545 0.0000
# 3 34.8469 14.5776 87.5036 0.0000 11.2849 0.0000
# 4 0.0000 0.0000 0.0000 18.4913 0.0000 10.5171
# 5 -21.0319 -6.9545 11.2849 0.0000 50.1982 0.0000
# 6 0.0000 0.0000 0.0000 10.5171 0.0000 36.8122
#
#
#
# Elastic Compliance Matrix: (Units=1/GPa)
#
#
# Indices 1 2 3 4 5 6 
#
# 1 0.018188 -0.000922 -0.008296 0.000000 0.009358 0.000000
# 2 -0.000922 0.013542 -0.002143 0.000000 0.001972 0.000000
# 3 -0.008296 -0.002143 0.016041 0.000000 -0.007379 0.000000
# 4 0.000000 0.000000 0.000000 0.064572 0.000000 -0.018448
# 5 0.009358 0.001972 -0.007379 0.000000 0.025774 0.000000
# 6 0.000000 0.000000 0.000000 -0.018448 0.000000 0.032435
#
#
# Mechanical properties :
#
#
# Convention : Reuss Voigt Hill
#
# Bulk Modulus (GPa) = 39.92392 41.69744 40.81068
# Shear Modulus (GPa) = 24.79872 33.39620 29.09746
#
# Velocity S-wave (km/s) = 3.41300 3.96069 3.69700
# Velocity P-wave (km/s) = 5.85532 6.36415 6.11503
#
# Compressibility (1/GPa) = 0.02504764
#
# Stress axis : x y z
#
# Youngs Moduli (GPa) = 54.98171 73.84508 62.34192
#
# Poissons Ratio (x) = 0.06809 0.51720
# Poissons Ratio (y) = 0.05069 0.13360
# Poissons Ratio (z) = 0.45614 0.15826
#
# Static dielectric constant tensor:
#      x y z
#    x 1.856900 0.000000 0.013960 
#    y 0.000000 1.797890 0.000000 
#    z 0.013960 0.000000 1.860450 
# 
# From -- ./inp_files/5321.got.cif
#   From: 2010.05.17/outbox.cif.g08.bks.cpg/sg13_3_cif.got.tgz:5321.got - 2010.06.03 16:44:36.
