data_PCOD9229932
_publ_section_title
;
Structure prediction by ZEFSAII (Michael W. Deem and Ramdas Pophale) SiO2 
 PCOD9229932
Probable space group: P 2/C
;
_chemical_formula_sum "Si O2"
_cell_formula_units_Z 32
_cell_length_a 13.130127
_cell_length_b 9.644667
_cell_length_c 13.234537
_cell_angle_alpha 90.000000
_cell_angle_beta 116.367252
_cell_angle_gamma 90.000000
_cell_volume 1501.607141
_symmetry_space_group_name_H-M "P 2/C"
_symmetry_group_IT_number 13
_symmetry_cell_setting 'monoclinic'
loop_
_space_group_symop_operation_xyz
x,y,z
-x,y,1/2-z
-x,-y,-z
x,-y,1/2+z
loop_
_atom_site_type_symbol
_atom_site_label
_atom_site_fract_x
_atom_site_fract_y
_atom_site_fract_z
Si Si1 0.085410 0.953180 0.879630
Si Si2 0.356570 0.375115 0.570840
Si Si3 0.737091 0.974924 0.709321
Si Si4 0.722884 0.342842 0.178367
Si Si5 0.921974 0.153512 0.908822
Si Si6 0.475872 0.667672 0.626958
Si Si7 0.418753 0.787155 0.400508
Si Si8 0.222822 0.381631 0.719561
O O1 0.203429 0.981989 0.875392
O O2 0.000000 0.913668 0.750000
O O3 0.081157 0.847627 0.971402
O O4 0.035924 0.090320 0.911982
O O5 0.273352 0.341349 0.440905
O O6 0.391918 0.537020 0.587532
O O7 0.470883 0.281693 0.605179
O O8 0.293370 0.354451 0.647940
O O9 0.729541 0.811261 0.725202
O O10 0.821882 0.049669 0.825187
O O11 0.620992 0.062405 0.655054
O O12 0.595220 0.395766 0.142959
O O13 0.798221 0.459128 0.263193
O O14 0.892444 0.298370 0.845643
O O15 0.500000 0.718863 0.750000
O O16 0.445127 0.782009 0.531202
O O17 0.306761 0.691110 0.336895
#
# Coordination Sequence:
#
# PCOD9229932 Si02
#       8
#     4   4   4   4   4   4   4   4
#     4   9  18  40  64  84 114 151 188 238 313 365
#     4  11  19  34  56  79 118 168 199 241 291 337
#     4  10  22  36  57  88 120 152 191 254 299 348
#     4  11  21  34  54  85 119 155 202 243 293 345
#     4   9  20  37  65  88 108 150 197 239 299 375
#     4  11  19  33  52  79 115 167 202 241 287 326
#     4  10  20  35  54  80 114 162 205 237 281 351
#     4  11  19  35  60  85 115 150 206 241 288 353
#
# _framework density 21.310500000000001
#
# number of rings (size 3 to 8) (size 9 to 14) (size 15 to 20)
#    0.000    1.750    3.750    1.875    0.000    3.000 
#    0.000    2.500    0.000   18.750    0.000    0.000 
#    0.000    0.000    0.000    0.000    0.000    0.000 
#
# Total GULP energy -178545.840389 kJ/mol
# GULP energy per Si atom -5579.557512 kJ/mol
# Density = 2.126200 g / cm^3
# Si number density = 21.310500 Si / 1000 Ang^3
#
#
#
# Elastic Constant Matrix: (Units=GPa)
#
#
# Indices 1 2 3 4 5 6 
#
# 1 40.2591 4.1918 1.5128 0.0000 -5.8086 0.0000
# 2 4.1918 119.7796 20.8737 0.0000 9.8712 0.0000
# 3 1.5128 20.8737 91.8909 0.0000 -27.0595 0.0000
# 4 0.0000 0.0000 0.0000 24.3296 0.0000 7.8513
# 5 -5.8086 9.8712 -27.0595 0.0000 19.5313 0.0000
# 6 0.0000 0.0000 0.0000 7.8513 0.0000 17.8899
#
#
#
# Elastic Compliance Matrix: (Units=1/GPa)
#
#
# Indices 1 2 3 4 5 6 
#
# 1 0.027490 -0.003339 0.005423 0.000000 0.017376 0.000000
# 2 -0.003339 0.011176 -0.007499 0.000000 -0.017030 0.000000
# 3 0.005423 -0.007499 0.023796 0.000000 0.038370 0.000000
# 4 0.000000 0.000000 0.000000 0.047884 0.000000 -0.021015
# 5 0.017376 -0.017030 0.038370 0.000000 0.118134 0.000000
# 6 0.000000 0.000000 0.000000 -0.021015 0.000000 0.065120
#
#
# Mechanical properties :
#
#
# Convention : Reuss Voigt Hill
#
# Bulk Modulus (GPa) = 19.36808 33.89846 26.63327
# Shear Modulus (GPa) = 15.54535 27.37359 21.45947
#
# Velocity S-wave (km/s) = 2.70380 3.58790 3.17675
# Velocity P-wave (km/s) = 4.34230 5.75374 5.09711
#
# Compressibility (1/GPa) = 0.05163135
#
# Stress axis : x y z
#
# Youngs Moduli (GPa) = 36.37681 89.47912 42.02465
#
# Poissons Ratio (x) = 0.29877 -0.22789
# Poissons Ratio (y) = 0.12146 0.31513
# Poissons Ratio (z) = -0.19726 0.67098
#
# Static dielectric constant tensor:
#      x y z
#    x 1.789740 0.000000 -0.005800 
#    y 0.000000 1.805120 0.000000 
#    z -0.005800 0.000000 1.848620 
# 
# From -- ./inp_files/53077.got.cif
#   From: 2010.05.17/outbox.cif.g08.bks.cpg/sg13_27_cif.got.tgz:53077.got - 2010.06.03 16:44:36.
