data_PCOD9229433
_publ_section_title
;
Structure prediction by ZEFSAII (Michael W. Deem and Ramdas Pophale) SiO2 
 PCOD9229433
Probable space group: P 2/C
;
_chemical_formula_sum "Si O2"
_cell_formula_units_Z 32
_cell_length_a 8.815785
_cell_length_b 11.760477
_cell_length_c 30.575655
_cell_angle_alpha 90.000000
_cell_angle_beta 25.545554
_cell_angle_gamma 90.000000
_cell_volume 1367.002250
_symmetry_space_group_name_H-M "P 2/C"
_symmetry_group_IT_number 13
_symmetry_cell_setting 'monoclinic'
loop_
_space_group_symop_operation_xyz
x,y,z
-x,y,1/2-z
-x,-y,-z
x,-y,1/2+z
loop_
_atom_site_type_symbol
_atom_site_label
_atom_site_fract_x
_atom_site_fract_y
_atom_site_fract_z
Si Si1 0.418136 0.513117 0.896513
Si Si2 0.238671 0.791887 0.003679
Si Si3 0.520061 0.608260 0.028464
Si Si4 0.914511 0.018540 0.892976
Si Si5 0.360301 0.765472 0.676940
Si Si6 0.969042 0.799755 0.205409
Si Si7 0.605900 0.641609 0.173846
Si Si8 0.989219 0.229826 0.360499
O O1 0.505463 0.447046 0.917452
O O2 0.579095 0.637044 0.855115
O O3 0.543974 0.451541 0.819930
O O4 0.000000 0.500000 0.000000
O O5 0.320487 0.825004 0.932025
O O6 0.617845 0.775870 0.929125
O O7 0.027208 0.888369 0.084801
O O8 0.015284 0.675472 0.064981
O O9 0.237868 0.713654 0.108982
O O10 0.500000 0.500000 0.000000
O O11 0.888776 0.671546 0.920705
O O12 0.999704 0.076048 0.824299
O O13 0.059753 0.893285 0.862862
O O14 0.500000 0.000000 0.000000
O O15 0.000000 0.812900 0.750000
O O16 0.296843 0.755542 0.744957
O O17 0.589116 0.754349 0.291255
O O18 0.000000 0.797241 0.250000
O O19 0.500000 0.611743 0.250000
#
# Coordination Sequence:
#
# PCOD9229433 Si02
#       8
#     4   4   4   4   4   4   4   4
#     4  12  27  41  65  98 142 181 229 281 341 414
#     4  10  19  40  66  96 128 172 222 276 335 395
#     4  12  25  42  69 100 138 177 228 287 338 404
#     4  10  20  40  70  97 129 173 225 283 337 402
#     4  10  22  40  63  97 131 174 227 272 335 409
#     4  12  25  42  67 103 133 177 233 281 329 409
#     4  12  24  40  66  95 140 181 225 275 349 403
#     4  10  22  42  72  98 130 177 231 279 335 413
#
# _framework density 23.408887
#
# number of rings (size 3 to 8) (size 9 to 14) (size 15 to 20)
#    0.000    1.000    6.250    1.500    5.250    2.500 
#    0.000    0.000    5.500    6.000    0.000    0.000 
#    0.000    0.000    0.000    0.000    0.000    0.000 
#
# Total GULP energy -178567.485694 kJ/mol
# GULP energy per Si atom -5580.233928 kJ/mol
# Density = 2.335561 g / cm^3
# Si number density = 23.408887 Si / 1000 Ang^3
#
#
#
# Elastic Constant Matrix: (Units=GPa)
#
#
# Indices 1 2 3 4 5 6 
#
# 1 72.4700 28.5155 34.3403 0.0000 33.0735 0.0000
# 2 28.5155 96.5778 12.8285 0.0000 23.9459 0.0000
# 3 34.3403 12.8285 96.3459 0.0000 38.0838 0.0000
# 4 0.0000 0.0000 0.0000 37.1748 0.0000 8.2159
# 5 33.0735 23.9459 38.0838 0.0000 53.8585 0.0000
# 6 0.0000 0.0000 0.0000 8.2159 0.0000 23.6540
#
#
#
# Elastic Compliance Matrix: (Units=1/GPa)
#
#
# Indices 1 2 3 4 5 6 
#
# 1 0.020837 -0.003516 -0.003496 0.000000 -0.008760 0.000000
# 2 -0.003516 0.012263 0.001280 0.000000 -0.004198 0.000000
# 3 -0.003496 0.001280 0.015033 0.000000 -0.009052 0.000000
# 4 0.000000 0.000000 0.000000 0.029137 0.000000 -0.010120
# 5 -0.008760 -0.004198 -0.009052 0.000000 0.032214 0.000000
# 6 0.000000 0.000000 0.000000 -0.010120 0.000000 0.045791
#
#
# Mechanical properties :
#
#
# Convention : Reuss Voigt Hill
#
# Bulk Modulus (GPa) = 27.27061 46.30694 36.78878
# Shear Modulus (GPa) = 27.93884 35.58475 31.76179
#
# Velocity S-wave (km/s) = 3.45848 3.90312 3.68751
# Velocity P-wave (km/s) = 5.25576 6.33540 5.82066
#
# Compressibility (1/GPa) = 0.03666951
#
# Stress axis : x y z
#
# Youngs Moduli (GPa) = 47.99214 81.54365 66.51987
#
# Poissons Ratio (x) = 0.28669 0.23254
# Poissons Ratio (y) = 0.16873 -0.08513
# Poissons Ratio (z) = 0.16777 -0.10436
#
# Static dielectric constant tensor:
#      x y z
#    x 2.125050 0.000000 -0.039220 
#    y 0.000000 1.916880 0.000000 
#    z -0.039220 0.000000 1.976950 
# 
# From -- ./inp_files/96132.got.cif
#   From: 2010.05.17/outbox.cif.g08.bks.cpg/sg13_49_cif.got.tgz:96132.got - 2010.06.03 16:44:36.
