data_PCOD9229231
_publ_section_title
;
Structure prediction by ZEFSAII (Michael W. Deem and Ramdas Pophale) SiO2 
 PCOD9229231
Probable space group: P 2/C
;
_chemical_formula_sum "Si O2"
_cell_formula_units_Z 22
_cell_length_a 22.308370
_cell_length_b 5.115336
_cell_length_c 21.951239
_cell_angle_alpha 90.000000
_cell_angle_beta 23.967835
_cell_angle_gamma 90.000000
_cell_volume 1017.574770
_symmetry_space_group_name_H-M "P 2/C"
_symmetry_group_IT_number 13
_symmetry_cell_setting 'monoclinic'
loop_
_space_group_symop_operation_xyz
x,y,z
-x,y,1/2-z
-x,-y,-z
x,-y,1/2+z
loop_
_atom_site_type_symbol
_atom_site_label
_atom_site_fract_x
_atom_site_fract_y
_atom_site_fract_z
Si Si1 0.500000 0.798209 0.250000
Si Si2 0.416991 0.178431 0.436843
Si Si3 0.004619 0.469127 0.923663
Si Si4 0.841749 0.254538 0.891077
Si Si5 0.706757 0.583798 0.634151
Si Si6 0.154783 0.038301 0.229486
O O1 0.377498 0.623617 0.330057
O O2 0.437860 0.980452 0.361123
O O3 0.292483 0.376990 0.524698
O O4 0.577379 0.297412 0.296157
O O5 0.328963 0.033921 0.571849
O O6 0.061518 0.183314 0.851167
O O7 0.842029 0.518179 0.047488
O O8 0.111096 0.683625 0.794996
O O9 0.000000 0.500000 0.000000
O O10 0.000000 0.395003 0.750000
O O11 0.123789 0.009864 0.685888
O O12 0.779382 0.219817 0.016851
#
# Coordination Sequence:
#
# PCOD9229231 Si02
#       6
#     2   4   4   4   4   4
#     4  12  20  32  68  98 144 166 212 282 370 412
#     4  10  22  37  61 102 137 171 219 279 366 418
#     4  12  28  49  70  96 138 194 243 283 337 421
#     4  10  19  38  62 100 135 169 219 281 361 406
#     4  12  23  40  66 104 144 179 228 291 362 425
#     4  10  25  45  70  96 136 176 240 289 346 415
#
# _framework density 21.620031000000001
#
# number of rings (size 3 to 8) (size 9 to 14) (size 15 to 20)
#    1.091    0.000    5.455    0.545   10.182    0.000 
#    0.000    1.818    0.000    0.000    0.000    0.000 
#    0.000    0.000    0.000    0.000    0.000    0.000 
#
# Total GULP energy -122587.825279 kJ/mol
# GULP energy per Si atom -5572.173876 kJ/mol
# Density = 2.157082 g / cm^3
# Si number density = 21.620031 Si / 1000 Ang^3
#
#
#
# Elastic Constant Matrix: (Units=GPa)
#
#
# Indices 1 2 3 4 5 6 
#
# 1 76.2424 14.4738 27.2927 0.0000 16.9884 0.0000
# 2 14.4738 57.5177 14.5559 0.0000 3.6202 0.0000
# 3 27.2927 14.5559 147.5045 0.0000 -4.5064 0.0000
# 4 0.0000 0.0000 0.0000 26.2919 0.0000 4.0263
# 5 16.9884 3.6202 -4.5064 0.0000 14.0991 0.0000
# 6 0.0000 0.0000 0.0000 4.0263 0.0000 10.2771
#
#
#
# Elastic Compliance Matrix: (Units=1/GPa)
#
#
# Indices 1 2 3 4 5 6 
#
# 1 0.020986 -0.002520 -0.004430 0.000000 -0.026056 0.000000
# 2 -0.002520 0.018518 -0.001428 0.000000 -0.002175 0.000000
# 3 -0.004430 -0.001428 0.007992 0.000000 0.008259 0.000000
# 4 0.000000 0.000000 0.000000 0.040462 0.000000 -0.015852
# 5 -0.026056 -0.002175 0.008259 0.000000 0.105520 0.000000
# 6 0.000000 0.000000 0.000000 -0.015852 0.000000 0.103514
#
#
# Mechanical properties :
#
#
# Convention : Reuss Voigt Hill
#
# Bulk Modulus (GPa) = 32.52972 43.76770 38.14871
# Shear Modulus (GPa) = 15.43230 25.12977 20.28104
#
# Velocity S-wave (km/s) = 2.67460 3.41301 3.06611
# Velocity P-wave (km/s) = 4.96152 5.98494 5.49710
#
# Compressibility (1/GPa) = 0.03074112
#
# Stress axis : x y z
#
# Youngs Moduli (GPa) = 47.65037 54.00092 125.11836
#
# Poissons Ratio (x) = 0.13607 0.55433
# Poissons Ratio (y) = 0.12007 0.17862
# Poissons Ratio (z) = 0.21111 0.07709
#
# Static dielectric constant tensor:
#      x y z
#    x 1.751580 0.000000 -0.030100 
#    y 0.000000 1.869320 0.000000 
#    z -0.030100 0.000000 1.904760 
# 
# From -- ./inp_files/84196.got.cif
#   From: 2010.05.17/outbox.cif.g08.bks.cpg/sg13_43_cif.got.tgz:84196.got - 2010.06.03 16:44:36.
