data_PCOD9229451
_publ_section_title
;
Structure prediction by ZEFSAII (Michael W. Deem and Ramdas Pophale) SiO2 
 PCOD9229451
Probable space group: P 2/C
;
_chemical_formula_sum "Si O2"
_cell_formula_units_Z 26
_cell_length_a 11.138032
_cell_length_b 8.714833
_cell_length_c 22.159751
_cell_angle_alpha 90.000000
_cell_angle_beta 29.543186
_cell_angle_gamma 90.000000
_cell_volume 1060.594330
_symmetry_space_group_name_H-M "P 2/C"
_symmetry_group_IT_number 13
_symmetry_cell_setting 'monoclinic'
loop_
_space_group_symop_operation_xyz
x,y,z
-x,y,1/2-z
-x,-y,-z
x,-y,1/2+z
loop_
_atom_site_type_symbol
_atom_site_label
_atom_site_fract_x
_atom_site_fract_y
_atom_site_fract_z
Si Si1 0.500000 0.811815 0.250000
Si Si2 0.446714 0.933396 0.874004
Si Si3 0.330203 0.397348 0.247671
Si Si4 0.775819 0.086207 0.813964
Si Si5 0.976270 0.223502 0.602824
Si Si6 0.421259 0.594804 0.091966
Si Si7 0.192704 0.537635 0.491565
O O1 0.528935 0.924012 0.180929
O O2 0.243942 0.732583 0.345706
O O3 0.598013 0.781296 0.789492
O O4 0.546298 0.981831 0.896539
O O5 0.165637 0.891887 0.991811
O O6 0.285536 0.484309 0.201384
O O7 0.082319 0.402481 0.395853
O O8 0.586835 0.486690 0.150031
O O9 0.878514 0.144758 0.705063
O O10 0.706086 0.249406 0.873395
O O11 0.000000 0.008513 0.750000
O O12 0.133253 0.373652 0.548106
O O13 0.500000 0.500000 0.000000
O O14 0.661352 0.643512 0.025447
#
# Coordination Sequence:
#
# PCOD9229451 Si02
#       7
#     2   4   4   4   4   4   4
#     4  10  22  38  66  90 124 174 212 272 338 396
#     4  10  23  41  62  93 128 170 219 275 325 392
#     4   9  20  38  59  87 125 163 210 267 321 381
#     4  11  23  39  61  94 131 170 213 265 328 398
#     4  10  19  41  63  89 127 164 221 263 332 393
#     4  10  21  34  61  86 119 169 210 254 320 382
#     4   9  18  36  59  87 118 161 207 264 314 380
#
# _framework density 24.514558999999998
#
# number of rings (size 3 to 8) (size 9 to 14) (size 15 to 20)
#    0.923    1.231    1.538    1.385    0.000    3.077 
#    2.769    2.308    0.000   11.077    0.000    0.000 
#    0.000    0.000    0.000    0.000    0.000    0.000 
#
# Total GULP energy -144851.398943 kJ/mol
# GULP energy per Si atom -5571.207652 kJ/mol
# Density = 2.445876 g / cm^3
# Si number density = 24.514559 Si / 1000 Ang^3
#
#
#
# Elastic Constant Matrix: (Units=GPa)
#
#
# Indices 1 2 3 4 5 6 
#
# 1 90.8179 8.4214 24.7152 0.0000 -30.4589 0.0000
# 2 8.4214 31.5480 27.4162 0.0000 -7.8915 0.0000
# 3 24.7152 27.4162 146.8164 0.0000 -14.3864 0.0000
# 4 0.0000 0.0000 0.0000 27.9775 0.0000 -6.9401
# 5 -30.4589 -7.8915 -14.3864 0.0000 31.8258 0.0000
# 6 0.0000 0.0000 0.0000 -6.9401 0.0000 28.5897
#
#
#
# Elastic Compliance Matrix: (Units=1/GPa)
#
#
# Indices 1 2 3 4 5 6 
#
# 1 0.016454 0.000639 -0.001392 0.000000 0.015277 0.000000
# 2 0.000639 0.039183 -0.006710 0.000000 0.007294 0.000000
# 3 -0.001392 -0.006710 0.008376 0.000000 0.000790 0.000000
# 4 0.000000 0.000000 0.000000 0.038033 0.000000 0.009233
# 5 0.015277 0.007294 0.000790 0.000000 0.048207 0.000000
# 6 0.000000 0.000000 0.000000 0.009233 0.000000 0.037219
#
#
# Mechanical properties :
#
#
# Convention : Reuss Voigt Hill
#
# Bulk Modulus (GPa) = 20.37202 43.36534 31.86868
# Shear Modulus (GPa) = 22.85601 31.58722 27.22161
#
# Velocity S-wave (km/s) = 3.05674 3.59347 3.33592
# Velocity P-wave (km/s) = 4.55922 5.91147 5.27882
#
# Compressibility (1/GPa) = 0.04908693
#
# Stress axis : x y z
#
# Youngs Moduli (GPa) = 60.77467 25.52141 119.38893
#
# Poissons Ratio (x) = -0.01631 0.16623
# Poissons Ratio (y) = -0.03884 0.80107
# Poissons Ratio (z) = 0.08462 0.17124
#
# Static dielectric constant tensor:
#      x y z
#    x 1.974950 0.000000 -0.018070 
#    y 0.000000 1.932280 0.000000 
#    z -0.018070 0.000000 2.041570 
# 
# From -- ./inp_files/92222.got.cif
#   From: 2010.05.17/outbox.cif.g08.bks.cpg/sg13_47_cif.got.tgz:92222.got - 2010.06.03 16:44:36.
