data_PCOD9229357
_publ_section_title
;
Structure prediction by ZEFSAII (Michael W. Deem and Ramdas Pophale) SiO2 
 PCOD9229357
Probable space group: P 2/C
;
_chemical_formula_sum "Si O2"
_cell_formula_units_Z 28
_cell_length_a 14.734448
_cell_length_b 5.544992
_cell_length_c 17.887794
_cell_angle_alpha 90.000000
_cell_angle_beta 115.349296
_cell_angle_gamma 90.000000
_cell_volume 1320.756760
_symmetry_space_group_name_H-M "P 2/C"
_symmetry_group_IT_number 13
_symmetry_cell_setting 'monoclinic'
loop_
_space_group_symop_operation_xyz
x,y,z
-x,y,1/2-z
-x,-y,-z
x,-y,1/2+z
loop_
_atom_site_type_symbol
_atom_site_label
_atom_site_fract_x
_atom_site_fract_y
_atom_site_fract_z
Si Si1 0.401018 0.108668 0.003223
Si Si2 0.401285 0.151338 0.176663
Si Si3 0.128505 0.521724 0.973224
Si Si4 0.727424 0.576345 0.758317
Si Si5 0.920496 0.211734 0.412226
Si Si6 0.297851 0.610579 0.921905
Si Si7 0.786920 0.182884 0.864772
O O1 0.421018 0.182957 0.096360
O O2 0.365411 0.366529 0.956142
O O3 0.500000 0.000000 0.000000
O O4 0.328807 0.869483 0.970264
O O5 0.500000 0.043279 0.250000
O O6 0.365078 0.369447 0.217911
O O7 0.300950 0.994429 0.143719
O O8 0.192098 0.524841 0.920622
O O9 0.026566 0.674824 0.929375
O O10 0.101396 0.277405 0.008323
O O11 0.200815 0.637932 0.061732
O O12 0.831761 0.682285 0.828358
O O13 0.707456 0.659282 0.668278
O O14 0.750137 0.294420 0.774256
O O15 0.896924 0.931652 0.395422
#
# Coordination Sequence:
#
# PCOD9229357 Si02
#       7
#     4   4   4   4   4   4   4
#     4  12  27  47  70 101 136 183 234 288 349 418
#     4  11  24  42  67  95 131 181 233 288 351 417
#     4  10  20  39  66  98 134 176 229 283 345 416
#     4  10  24  40  64  95 138 176 232 282 351 417
#     4   9  20  38  66  97 131 177 230 278 342 417
#     4  12  26  45  70 100 143 183 226 292 350 411
#     4  10  19  39  64  94 127 175 226 283 339 416
#
# _framework density 21.199967999999998
#
# number of rings (size 3 to 8) (size 9 to 14) (size 15 to 20)
#    0.000    1.429    1.429    4.286    6.000    1.143 
#    0.000    0.000    0.000    0.000    0.000    0.000 
#    0.000    0.000    0.000    0.000    0.000    0.000 
#
# Total GULP energy -155877.902979 kJ/mol
# GULP energy per Si atom -5567.067964 kJ/mol
# Density = 2.115172 g / cm^3
# Si number density = 21.199968 Si / 1000 Ang^3
#
#
#
# Elastic Constant Matrix: (Units=GPa)
#
#
# Indices 1 2 3 4 5 6 
#
# 1 102.4592 12.1730 41.9813 0.0000 -3.2808 0.0000
# 2 12.1730 58.4565 22.7406 0.0000 -2.8186 0.0000
# 3 41.9813 22.7406 119.8865 0.0000 -15.1737 0.0000
# 4 0.0000 0.0000 0.0000 28.9422 0.0000 5.4685
# 5 -3.2808 -2.8186 -15.1737 0.0000 32.2957 0.0000
# 6 0.0000 0.0000 0.0000 5.4685 0.0000 11.8359
#
#
#
# Elastic Compliance Matrix: (Units=1/GPa)
#
#
# Indices 1 2 3 4 5 6 
#
# 1 0.011455 -0.000890 -0.003939 0.000000 -0.000765 0.000000
# 2 -0.000890 0.018539 -0.003202 0.000000 0.000023 0.000000
# 3 -0.003939 -0.003202 0.010890 0.000000 0.004437 0.000000
# 4 0.000000 0.000000 0.000000 0.037856 0.000000 -0.017491
# 5 -0.000765 0.000023 0.004437 0.000000 0.032973 0.000000
# 6 0.000000 0.000000 0.000000 -0.017491 0.000000 0.092570
#
#
# Mechanical properties :
#
#
# Convention : Reuss Voigt Hill
#
# Bulk Modulus (GPa) = 40.28800 48.28799 44.28800
# Shear Modulus (GPa) = 21.87044 28.20857 25.03951
#
# Velocity S-wave (km/s) = 3.21538 3.65169 3.44046
# Velocity P-wave (km/s) = 5.72974 6.37233 6.05956
#
# Compressibility (1/GPa) = 0.02482129
#
# Stress axis : x y z
#
# Youngs Moduli (GPa) = 87.29561 53.94093 91.83066
#
# Poissons Ratio (x) = 0.04800 0.36176
# Poissons Ratio (y) = 0.07768 0.29404
# Poissons Ratio (z) = 0.34389 0.17272
#
# Static dielectric constant tensor:
#      x y z
#    x 1.787530 0.000000 0.007340 
#    y 0.000000 2.007380 0.000000 
#    z 0.007340 0.000000 1.759720 
# 
# From -- ./inp_files/67614.got.cif
#   From: 2010.05.17/outbox.cif.g08.bks.cpg/sg13_34_cif.got.tgz:67614.got - 2010.06.03 16:44:36.
