data_PCOD9229182
_publ_section_title
;
Structure prediction by ZEFSAII (Michael W. Deem and Ramdas Pophale) SiO2 
 PCOD9229182
Probable space group: P 2/C
;
_chemical_formula_sum "Si O2"
_cell_formula_units_Z 16
_cell_length_a 9.613921
_cell_length_b 7.198730
_cell_length_c 16.741378
_cell_angle_alpha 90.000000
_cell_angle_beta 36.062224
_cell_angle_gamma 90.000000
_cell_volume 682.047704
_symmetry_space_group_name_H-M "P 2/C"
_symmetry_group_IT_number 13
_symmetry_cell_setting 'monoclinic'
loop_
_space_group_symop_operation_xyz
x,y,z
-x,y,1/2-z
-x,-y,-z
x,-y,1/2+z
loop_
_atom_site_type_symbol
_atom_site_label
_atom_site_fract_x
_atom_site_fract_y
_atom_site_fract_z
Si Si1 0.258311 0.674336 0.127747
Si Si2 0.721531 0.484238 0.705163
Si Si3 0.237631 0.259812 0.091242
Si Si4 0.040626 0.196508 0.020507
O O1 0.310828 0.595471 0.191811
O O2 0.497699 0.223953 0.008442
O O3 0.000000 0.769715 0.250000
O O4 0.776360 0.486882 0.408288
O O5 0.500000 0.491771 0.750000
O O6 0.886906 0.335913 0.583623
O O7 0.824608 0.691916 0.661020
O O8 0.223752 0.179454 0.008523
O O9 0.000000 0.206027 0.250000
O O10 0.000000 0.000000 0.000000
#
# Coordination Sequence:
#
# PCOD9229182 Si02
#       4
#     4   4   4   4
#     4  10  19  37  71  99 134 186 235 286 355 429
#     4  11  22  42  71  96 137 194 237 287 361 427
#     4  10  19  37  67  99 140 183 226 294 355 423
#     4  11  24  41  66 104 143 183 242 297 356 427
#
# _framework density 23.458770999999999
#
# number of rings (size 3 to 8) (size 9 to 14) (size 15 to 20)
#    0.000    1.500    7.500    0.000    0.000    1.000 
#    0.000    1.250    0.000    4.500    0.000    0.000 
#    0.000    0.000    0.000    0.000    0.000    0.000 
#
# Total GULP energy -89311.653393 kJ/mol
# GULP energy per Si atom -5581.978337 kJ/mol
# Density = 2.340538 g / cm^3
# Si number density = 23.458771 Si / 1000 Ang^3
#
#
#
# Elastic Constant Matrix: (Units=GPa)
#
#
# Indices 1 2 3 4 5 6 
#
# 1 124.4161 37.3448 41.1030 0.0000 -9.4140 0.0000
# 2 37.3448 121.4570 24.2036 0.0000 -7.9963 0.0000
# 3 41.1030 24.2036 121.8254 0.0000 -24.6398 0.0000
# 4 0.0000 0.0000 0.0000 -9.6582 0.0000 8.4115
# 5 -9.4140 -7.9963 -24.6398 0.0000 52.9054 0.0000
# 6 0.0000 0.0000 0.0000 8.4115 0.0000 27.4814
#
#
#
# Elastic Compliance Matrix: (Units=1/GPa)
#
#
# Indices 1 2 3 4 5 6 
#
# 1 0.009685 -0.002421 -0.002774 0.000000 0.000066 0.000000
# 2 -0.002421 0.009193 -0.000900 0.000000 0.000539 0.000000
# 3 -0.002774 -0.000900 0.010152 0.000000 0.004099 0.000000
# 4 0.000000 0.000000 0.000000 -0.081748 0.000000 0.025021
# 5 0.000066 0.000539 0.004099 0.000000 0.020904 0.000000
# 6 0.000000 0.000000 0.000000 0.025021 0.000000 0.028730
#
#
# Mechanical properties :
#
#
# Convention : Reuss Voigt Hill
#
# Bulk Modulus (GPa) = 59.38133 63.66684 61.52408
# Shear Modulus (GPa) = 339.68883 31.81553 185.75218
#
# Velocity S-wave (km/s) = 12.04645 3.68670 8.90810
# Velocity P-wave (km/s) = 14.79382 6.73210 11.49300
#
# Compressibility (1/GPa) = 0.01684031
#
# Stress axis : x y z
#
# Youngs Moduli (GPa) = 103.24718 108.78187 98.50195
#
# Poissons Ratio (x) = 0.26336 0.27320
# Poissons Ratio (y) = 0.24996 0.08870
# Poissons Ratio (z) = 0.28636 0.09795
#
# Static dielectric constant tensor:
#      x y z
#    x 1.934460 0.000000 -0.054580 
#    y 0.000000 1.847850 0.000000 
#    z -0.054580 0.000000 2.048580 
# 
# From -- ./inp_files/76887.got.cif
#   From: 2010.05.17/outbox.cif.g08.bks.cpg/sg13_39_cif.got.tgz:76887.got - 2010.06.03 16:44:36.
