data_PCOD9229740
_publ_section_title
;
Structure prediction by ZEFSAII (Michael W. Deem and Ramdas Pophale) SiO2 
 PCOD9229740
Probable space group: P 2/C
;
_chemical_formula_sum "Si O2"
_cell_formula_units_Z 26
_cell_length_a 11.321280
_cell_length_b 7.989716
_cell_length_c 16.055853
_cell_angle_alpha 90.000000
_cell_angle_beta 130.899251
_cell_angle_gamma 90.000000
_cell_volume 1097.748331
_symmetry_space_group_name_H-M "P 2/C"
_symmetry_group_IT_number 13
_symmetry_cell_setting 'monoclinic'
loop_
_space_group_symop_operation_xyz
x,y,z
-x,y,1/2-z
-x,-y,-z
x,-y,1/2+z
loop_
_atom_site_type_symbol
_atom_site_label
_atom_site_fract_x
_atom_site_fract_y
_atom_site_fract_z
Si Si1 0.000000 0.494689 0.250000
Si Si2 0.449192 0.501012 0.600555
Si Si3 0.299777 0.311926 0.869471
Si Si4 0.156238 0.683592 0.978036
Si Si5 0.889534 0.159424 0.441302
Si Si6 0.298040 0.956452 0.492069
Si Si7 0.586373 0.850810 0.707830
O O1 0.864668 0.606273 0.228762
O O2 0.918303 0.388246 0.140646
O O3 0.567823 0.348388 0.637222
O O4 0.373156 0.582138 0.481474
O O5 0.298457 0.428777 0.577482
O O6 0.547627 0.653713 0.682742
O O7 0.264360 0.127483 0.887861
O O8 0.014939 0.700065 0.977661
O O9 0.232902 0.861433 0.984364
O O10 0.786043 0.164815 0.477277
O O11 0.768799 0.133175 0.309138
O O12 0.000000 0.000000 0.500000
O O13 0.484995 0.937792 0.589627
O O14 0.500000 0.919467 0.750000
#
# Coordination Sequence:
#
# PCOD9229740 Si02
#       7
#     2   4   4   4   4   4   4
#     4  10  20  34  54  78 110 146 182 228 274 324
#     4   9  18  33  52  75 107 143 179 221 268 328
#     4   9  18  34  52  74 105 142 181 220 271 324
#     4  10  20  35  55  83 112 140 182 230 275 324
#     4   9  18  35  59  84 111 140 179 232 278 321
#     4   9  19  35  56  80 110 146 183 226 275 327
#     4   9  17  34  56  78 108 148 185 221 275 332
#
# _framework density 23.684843999999998
#
# number of rings (size 3 to 8) (size 9 to 14) (size 15 to 20)
#    0.000    2.769    0.000    0.923    0.000    2.462 
#    0.000   20.769    0.000    0.000    0.000    0.000 
#    0.000    0.000    0.000    0.000    0.000    0.000 
#
# Total GULP energy -145071.279901 kJ/mol
# GULP energy per Si atom -5579.664612 kJ/mol
# Density = 2.363094 g / cm^3
# Si number density = 23.684844 Si / 1000 Ang^3
#
#
#
# Elastic Constant Matrix: (Units=GPa)
#
#
# Indices 1 2 3 4 5 6 
#
# 1 85.8790 22.2548 39.5345 0.0000 34.1409 0.0000
# 2 22.2548 88.3555 50.0235 0.0000 13.3684 0.0000
# 3 39.5345 50.0235 120.4192 0.0000 39.2173 0.0000
# 4 0.0000 0.0000 0.0000 31.0479 0.0000 12.5831
# 5 34.1409 13.3684 39.2173 0.0000 40.4077 0.0000
# 6 0.0000 0.0000 0.0000 12.5831 0.0000 33.6616
#
#
#
# Elastic Compliance Matrix: (Units=1/GPa)
#
#
# Indices 1 2 3 4 5 6 
#
# 1 0.017997 -0.002162 -0.000426 0.000000 -0.014077 0.000000
# 2 -0.002162 0.015126 -0.006637 0.000000 0.003264 0.000000
# 3 -0.000426 -0.006637 0.015161 0.000000 -0.012159 0.000000
# 4 0.000000 0.000000 0.000000 0.037959 0.000000 -0.014190
# 5 -0.014077 0.003264 -0.012159 0.000000 0.047363 0.000000
# 6 0.000000 0.000000 0.000000 -0.014190 0.000000 0.035012
#
#
# Mechanical properties :
#
#
# Convention : Reuss Voigt Hill
#
# Bulk Modulus (GPa) = 33.51767 57.58657 45.55212
# Shear Modulus (GPa) = 25.37930 33.21284 29.29607
#
# Velocity S-wave (km/s) = 3.27699 3.74877 3.52079
# Velocity P-wave (km/s) = 5.33858 6.56538 5.98350
#
# Compressibility (1/GPa) = 0.02983501
#
# Stress axis : x y z
#
# Youngs Moduli (GPa) = 55.56493 66.11098 65.95964
#
# Poissons Ratio (x) = 0.14294 0.02809
# Poissons Ratio (y) = 0.12013 0.43775
# Poissons Ratio (z) = 0.02366 0.43875
#
# Static dielectric constant tensor:
#      x y z
#    x 1.966840 0.000000 -0.032050 
#    y 0.000000 1.963310 0.000000 
#    z -0.032050 0.000000 1.908610 
# 
# From -- ./inp_files/78347.got.cif
#   From: 2010.05.17/outbox.cif.g08.bks.cpg/sg13_40_cif.got.tgz:78347.got - 2010.06.03 16:44:36.
