data_PCOD9229697
_publ_section_title
;
Structure prediction by ZEFSAII (Michael W. Deem and Ramdas Pophale) SiO2 
 PCOD9229697
Probable space group: P 2/C
;
_chemical_formula_sum "Si O2"
_cell_formula_units_Z 20
_cell_length_a 18.952963
_cell_length_b 12.153486
_cell_length_c 5.411007
_cell_angle_alpha 90.000000
_cell_angle_beta 57.433893
_cell_angle_gamma 90.000000
_cell_volume 1050.426419
_symmetry_space_group_name_H-M "P 2/C"
_symmetry_group_IT_number 13
_symmetry_cell_setting 'monoclinic'
loop_
_space_group_symop_operation_xyz
x,y,z
-x,y,1/2-z
-x,-y,-z
x,-y,1/2+z
loop_
_atom_site_type_symbol
_atom_site_label
_atom_site_fract_x
_atom_site_fract_y
_atom_site_fract_z
Si Si1 0.500000 0.395354 0.250000
Si Si2 0.611335 0.239838 0.726564
Si Si3 0.276170 0.925367 0.218731
Si Si4 0.910012 0.073367 0.423491
Si Si5 0.500000 0.932059 0.250000
Si Si6 0.327813 0.536811 0.523523
O O1 0.465529 0.311833 0.521027
O O2 0.419033 0.470769 0.335834
O O3 0.658423 0.173070 0.854070
O O4 0.578994 0.147370 0.605649
O O5 0.663543 0.332703 0.490577
O O6 0.284314 0.007478 0.444494
O O7 0.182251 0.874383 0.403478
O O8 0.000000 0.134739 0.250000
O O9 0.910436 0.001210 0.674400
O O10 0.500000 0.000000 0.500000
O O11 0.285546 0.494282 0.847893
#
# Coordination Sequence:
#
# PCOD9229697 Si02
#       6
#     2   4   4   4   2   4
#     4  10  20  36  52  68  84 114 162 208 244 276
#     4  11  21  35  51  66  92 125 157 199 242 269
#     4  10  21  34  47  70 100 127 157 188 224 278
#     4   8  14  27  47  67  90 121 152 184 222 264
#     4  12  24  34  44  62  88 124 160 180 212 274
#     4  10  20  34  51  68  83 107 152 203 245 276
#
# _framework density 19.039887
#
# number of rings (size 3 to 8) (size 9 to 14) (size 15 to 20)
#    0.000    2.000    0.000    6.000    0.000    6.400 
#    0.000    0.000    0.000    0.000    0.000    0.000 
#    0.000    6.400    0.000    0.000    0.000    8.800 
#
# Total GULP energy -111398.465308 kJ/mol
# GULP energy per Si atom -5569.923265 kJ/mol
# Density = 1.899655 g / cm^3
# Si number density = 19.039887 Si / 1000 Ang^3
#
#
#
# Elastic Constant Matrix: (Units=GPa)
#
#
# Indices 1 2 3 4 5 6 
#
# 1 68.8444 29.7475 24.3219 0.0000 15.6054 0.0000
# 2 29.7475 95.0591 33.6640 0.0000 19.2385 0.0000
# 3 24.3219 33.6640 93.7749 0.0000 35.2664 0.0000
# 4 0.0000 0.0000 0.0000 17.1007 0.0000 6.8562
# 5 15.6054 19.2385 35.2664 0.0000 30.0194 0.0000
# 6 0.0000 0.0000 0.0000 6.8562 0.0000 9.4091
#
#
#
# Elastic Compliance Matrix: (Units=1/GPa)
#
#
# Indices 1 2 3 4 5 6 
#
# 1 0.017922 -0.004120 -0.001180 0.000000 -0.005290 0.000000
# 2 -0.004120 0.013386 -0.002358 0.000000 -0.003667 0.000000
# 3 -0.001180 -0.002358 0.019738 0.000000 -0.021063 0.000000
# 4 0.000000 0.000000 0.000000 0.082612 0.000000 -0.060197
# 5 -0.005290 -0.003667 -0.021063 0.000000 0.063157 0.000000
# 6 0.000000 0.000000 0.000000 -0.060197 0.000000 0.150144
#
#
# Mechanical properties :
#
#
# Convention : Reuss Voigt Hill
#
# Bulk Modulus (GPa) = 27.98728 48.12723 38.05725
# Shear Modulus (GPa) = 13.36243 22.63551 17.99897
#
# Velocity S-wave (km/s) = 2.65205 3.45171 3.07796
# Velocity P-wave (km/s) = 4.91009 6.42010 5.71518
#
# Compressibility (1/GPa) = 0.03573052
#
# Stress axis : x y z
#
# Youngs Moduli (GPa) = 55.79839 74.70383 50.66491
#
# Poissons Ratio (x) = 0.30777 0.05977
# Poissons Ratio (y) = 0.22988 0.11946
# Poissons Ratio (z) = 0.06583 0.17613
#
# Static dielectric constant tensor:
#      x y z
#    x 1.752180 0.000000 0.022840 
#    y 0.000000 1.660710 0.000000 
#    z 0.022840 0.000000 1.762280 
# 
# From -- ./inp_files/5921.got.cif
#   From: 2010.05.17/outbox.cif.g08.bks.cpg/sg13_3_cif.got.tgz:5921.got - 2010.06.03 16:44:36.
