data_PCOD9229658
_publ_section_title
;
Structure prediction by ZEFSAII (Michael W. Deem and Ramdas Pophale) SiO2 
 PCOD9229658
Probable space group: P 2/C
;
_chemical_formula_sum "Si O2"
_cell_formula_units_Z 26
_cell_length_a 10.065027
_cell_length_b 11.163906
_cell_length_c 18.385686
_cell_angle_alpha 90.000000
_cell_angle_beta 42.052798
_cell_angle_gamma 90.000000
_cell_volume 1383.776360
_symmetry_space_group_name_H-M "P 2/C"
_symmetry_group_IT_number 13
_symmetry_cell_setting 'monoclinic'
loop_
_space_group_symop_operation_xyz
x,y,z
-x,y,1/2-z
-x,-y,-z
x,-y,1/2+z
loop_
_atom_site_type_symbol
_atom_site_label
_atom_site_fract_x
_atom_site_fract_y
_atom_site_fract_z
Si Si1 0.000000 0.043713 0.750000
Si Si2 0.114050 0.717578 0.628445
Si Si3 0.689959 0.469592 0.970430
Si Si4 0.693137 0.478352 0.633213
Si Si5 0.791337 0.794862 0.459515
Si Si6 0.386098 0.896108 0.587933
Si Si7 0.948516 0.700101 0.545118
O O1 0.914117 0.121335 0.853061
O O2 0.813148 0.960588 0.801054
O O3 0.154720 0.576413 0.604360
O O4 0.312047 0.794245 0.561793
O O5 0.009103 0.759534 0.596828
O O6 0.000000 0.731749 0.750000
O O7 0.777497 0.336946 0.928040
O O8 0.500000 0.500000 0.000000
O O9 0.630827 0.482392 0.078252
O O10 0.500000 0.429951 0.750000
O O11 0.864849 0.379813 0.557953
O O12 0.781499 0.600089 0.631243
O O13 0.562536 0.838070 0.563280
O O14 0.884999 0.779279 0.501835
O O15 0.500000 0.000000 0.500000
#
# Coordination Sequence:
#
# PCOD9229658 Si02
#       7
#     2   4   4   4   4   4   4
#     4  10  22  40  64  86 114 166 208 244 312 344
#     4  11  22  37  63  88 127 159 197 246 302 369
#     4  10  20  33  55  98 119 150 198 239 297 366
#     4   9  19  35  55  82 136 163 181 238 303 364
#     4  10  21  40  64  88 127 151 199 258 298 364
#     4  10  21  41  63  83 117 161 204 255 290 345
#     4   9  21  38  55  93 123 157 198 248 300 354
#
# _framework density 18.789165000000001
#
# number of rings (size 3 to 8) (size 9 to 14) (size 15 to 20)
#    0.000    2.154    2.308    0.923    3.231    1.231 
#    2.769    3.077    3.385    0.000    0.000    0.000 
#    0.000    0.000    0.000    0.000    0.000    0.000 
#
# Total GULP energy -144757.544502 kJ/mol
# GULP energy per Si atom -5567.597865 kJ/mol
# Density = 1.874640 g / cm^3
# Si number density = 18.789165 Si / 1000 Ang^3
#
#
#
# Elastic Constant Matrix: (Units=GPa)
#
#
# Indices 1 2 3 4 5 6 
#
# 1 141.3722 27.0802 44.2000 0.0000 -9.3538 0.0000
# 2 27.0802 85.4970 39.3509 0.0000 -1.4151 0.0000
# 3 44.2000 39.3509 85.3313 0.0000 -9.4419 0.0000
# 4 0.0000 0.0000 0.0000 16.9722 0.0000 -1.6398
# 5 -9.3538 -1.4151 -9.4419 0.0000 19.8610 0.0000
# 6 0.0000 0.0000 0.0000 -1.6398 0.0000 17.5234
#
#
#
# Elastic Compliance Matrix: (Units=1/GPa)
#
#
# Indices 1 2 3 4 5 6 
#
# 1 0.008576 -0.000948 -0.003764 0.000000 0.002182 0.000000
# 2 -0.000948 0.015054 -0.006736 0.000000 -0.002576 0.000000
# 3 -0.003764 -0.006736 0.017443 0.000000 0.006040 0.000000
# 4 0.000000 0.000000 0.000000 0.059457 0.000000 0.005564
# 5 0.002182 -0.002576 0.006040 0.000000 0.054066 0.000000
# 6 0.000000 0.000000 0.000000 0.005564 0.000000 0.057587
#
#
# Mechanical properties :
#
#
# Convention : Reuss Voigt Hill
#
# Bulk Modulus (GPa) = 55.01208 59.27363 57.14285
# Shear Modulus (GPa) = 20.73486 24.30929 22.52208
#
# Velocity S-wave (km/s) = 3.32558 3.60084 3.46594
# Velocity P-wave (km/s) = 6.63989 6.99308 6.81878
#
# Compressibility (1/GPa) = 0.01817783
#
# Stress axis : x y z
#
# Youngs Moduli (GPa) = 116.60152 66.42552 57.32829
#
# Poissons Ratio (x) = 0.06297 0.21576
# Poissons Ratio (y) = 0.11054 0.38619
# Poissons Ratio (z) = 0.43885 0.44747
#
# Static dielectric constant tensor:
#      x y z
#    x 1.667130 0.000000 -0.054620 
#    y 0.000000 1.701990 0.000000 
#    z -0.054620 0.000000 1.591390 
# 
# From -- ./inp_files/76349.got.cif
#   From: 2010.05.17/outbox.cif.g08.bks.cpg/sg13_39_cif.got.tgz:76349.got - 2010.06.03 16:44:36.
