data_PCOD9229620
_publ_section_title
;
Structure prediction by ZEFSAII (Michael W. Deem and Ramdas Pophale) SiO2 
 PCOD9229620
Probable space group: P 2/C
;
_chemical_formula_sum "Si O2"
_cell_formula_units_Z 32
_cell_length_a 20.505382
_cell_length_b 5.358063
_cell_length_c 23.120091
_cell_angle_alpha 90.000000
_cell_angle_beta 34.070307
_cell_angle_gamma 90.000000
_cell_volume 1423.036073
_symmetry_space_group_name_H-M "P 2/C"
_symmetry_group_IT_number 13
_symmetry_cell_setting 'monoclinic'
loop_
_space_group_symop_operation_xyz
x,y,z
-x,y,1/2-z
-x,-y,-z
x,-y,1/2+z
loop_
_atom_site_type_symbol
_atom_site_label
_atom_site_fract_x
_atom_site_fract_y
_atom_site_fract_z
Si Si1 0.442755 0.189349 0.586992
Si Si2 0.632121 0.430393 0.176961
Si Si3 0.894722 0.546082 0.656194
Si Si4 0.634586 0.073164 0.627395
Si Si5 0.906304 0.181491 0.539917
Si Si6 0.712635 0.842032 0.724657
Si Si7 0.240328 0.288583 0.652434
Si Si8 0.680258 0.236644 0.463209
O O1 0.343321 0.328088 0.624550
O O2 0.553818 0.321881 0.531759
O O3 0.500000 0.000000 0.500000
O O4 0.381830 0.030390 0.681489
O O5 0.500000 0.453905 0.250000
O O6 0.688631 0.694017 0.121982
O O7 0.647536 0.361707 0.232840
O O8 0.683497 0.200896 0.102985
O O9 0.883203 0.394403 0.604559
O O10 0.790361 0.745887 0.721697
O O11 0.871436 0.357505 0.725941
O O12 0.020128 0.683080 0.564783
O O13 0.500000 0.052257 0.750000
O O14 0.651110 0.147690 0.549097
O O15 0.797678 0.995593 0.620074
O O16 0.000000 0.000000 0.500000
O O17 0.246717 0.510582 0.600457
O O18 0.262800 0.009223 0.610489
#
# Coordination Sequence:
#
# PCOD9229620 Si02
#       8
#     4   4   4   4   4   4   4   4
#     4  10  20  33  50  80 119 164 198 229 279 366
#     4  10  22  36  56  83 116 162 205 248 291 341
#     4  10  20  36  59  87 123 152 197 250 307 370
#     4  10  21  38  55  77 112 157 209 255 283 329
#     4   9  20  36  58  85 122 151 197 249 306 365
#     4  11  21  36  57  85 126 163 200 244 306 354
#     4  11  22  36  56  83 120 159 199 242 295 368
#     4  11  23  37  55  81 120 166 205 237 293 355
#
# _framework density 22.487131999999999
#
# number of rings (size 3 to 8) (size 9 to 14) (size 15 to 20)
#    0.000    1.750    1.250    4.125    3.500    6.000 
#    0.000    0.000    0.000    0.000    0.000    0.875 
#    0.000    0.000    0.000    0.000    0.000    0.000 
#
# Total GULP energy -178379.325551 kJ/mol
# GULP energy per Si atom -5574.353923 kJ/mol
# Density = 2.243595 g / cm^3
# Si number density = 22.487132 Si / 1000 Ang^3
#
#
#
# Elastic Constant Matrix: (Units=GPa)
#
#
# Indices 1 2 3 4 5 6 
#
# 1 35.7768 5.4075 12.7907 0.0000 13.5224 0.0000
# 2 5.4075 114.6619 19.9208 0.0000 2.2924 0.0000
# 3 12.7907 19.9208 99.5760 0.0000 5.0319 0.0000
# 4 0.0000 0.0000 0.0000 49.4038 0.0000 5.4314
# 5 13.5224 2.2924 5.0319 0.0000 24.5605 0.0000
# 6 0.0000 0.0000 0.0000 5.4314 0.0000 33.3412
#
#
#
# Elastic Compliance Matrix: (Units=1/GPa)
#
#
# Indices 1 2 3 4 5 6 
#
# 1 0.036670 -0.000719 -0.003587 0.000000 -0.019388 0.000000
# 2 -0.000719 0.009055 -0.001714 0.000000 -0.000098 0.000000
# 3 -0.003587 -0.001714 0.010851 0.000000 -0.000088 0.000000
# 4 0.000000 0.000000 0.000000 0.020610 0.000000 -0.003358
# 5 -0.019388 -0.000098 -0.000088 0.000000 0.051417 0.000000
# 6 0.000000 0.000000 0.000000 -0.003358 0.000000 0.030540
#
#
# Mechanical properties :
#
#
# Convention : Reuss Voigt Hill
#
# Bulk Modulus (GPa) = 22.45361 36.25032 29.35197
# Shear Modulus (GPa) = 26.87764 35.58745 31.23254
#
# Velocity S-wave (km/s) = 3.46098 3.98247 3.73085
# Velocity P-wave (km/s) = 5.09686 6.10755 5.62495
#
# Compressibility (1/GPa) = 0.04453626
#
# Stress axis : x y z
#
# Youngs Moduli (GPa) = 27.27032 110.43654 92.15980
#
# Poissons Ratio (x) = 0.07936 0.33056
# Poissons Ratio (y) = 0.01960 0.15798
# Poissons Ratio (z) = 0.09781 0.18931
#
# Static dielectric constant tensor:
#      x y z
#    x 1.876180 0.000000 -0.009710 
#    y 0.000000 2.629940 0.000000 
#    z -0.009710 0.000000 1.878080 
# 
# From -- ./inp_files/88761.got.cif
#   From: 2010.05.17/outbox.cif.g08.bks.cpg/sg13_45_cif.got.tgz:88761.got - 2010.06.03 16:44:36.
