data_PCOD9229789
_publ_section_title
;
Structure prediction by ZEFSAII (Michael W. Deem and Ramdas Pophale) SiO2 
 PCOD9229789
Probable space group: P 2/C
;
_chemical_formula_sum "Si O2"
_cell_formula_units_Z 30
_cell_length_a 12.043891
_cell_length_b 14.713952
_cell_length_c 8.773272
_cell_angle_alpha 90.000000
_cell_angle_beta 88.038407
_cell_angle_gamma 90.000000
_cell_volume 1553.828822
_symmetry_space_group_name_H-M "P 2/C"
_symmetry_group_IT_number 13
_symmetry_cell_setting 'monoclinic'
loop_
_space_group_symop_operation_xyz
x,y,z
-x,y,1/2-z
-x,-y,-z
x,-y,1/2+z
loop_
_atom_site_type_symbol
_atom_site_label
_atom_site_fract_x
_atom_site_fract_y
_atom_site_fract_z
Si Si1 0.129574 0.200156 0.206926
Si Si2 0.000000 0.875991 0.250000
Si Si3 0.368786 0.179101 0.773981
Si Si4 0.872026 0.601071 0.799580
Si Si5 0.192853 0.056550 0.954484
Si Si6 0.252445 0.464383 0.490803
Si Si7 0.197468 0.844216 0.029273
Si Si8 0.630317 0.385818 0.716697
O O1 0.146087 0.298506 0.131396
O O2 0.189535 0.200210 0.365946
O O3 0.000000 0.187033 0.250000
O O4 0.170278 0.118802 0.101330
O O5 0.914992 0.932723 0.149536
O O6 0.913999 0.823410 0.365396
O O7 0.500000 0.161157 0.750000
O O8 0.300250 0.101590 0.868005
O O9 0.306794 0.182191 0.614951
O O10 0.351478 0.281572 0.837728
O O11 0.799592 0.589199 0.649114
O O12 0.000000 0.594904 0.750000
O O13 0.840923 0.522981 0.918585
O O14 0.201998 0.952617 0.001486
O O15 0.309383 0.406793 0.623751
O O16 0.331458 0.540031 0.408759
O O17 0.500000 0.395720 0.750000
#
# Coordination Sequence:
#
# PCOD9229789 Si02
#       8
#     4   2   4   4   4   4   4   4
#     4  11  21  34  55  86 117 142 182 235 283 337
#     4  10  20  34  56  84 112 144 182 230 286 330
#     4  10  23  41  57  78 115 155 193 232 274 331
#     4  10  21  35  54  78 114 149 181 218 273 335
#     4  11  22  36  58  84 114 151 188 231 281 331
#     4  10  20  36  58  82 108 142 184 230 274 338
#     4  11  22  36  58  84 114 151 188 231 281 331
#     4  10  20  37  60  83 108 139 183 236 283 323
#
# _framework density 19.307145999999999
#
# number of rings (size 3 to 8) (size 9 to 14) (size 15 to 20)
#    0.000    1.600    1.333    4.400    1.867    0.533 
#    0.000    0.667    8.800    4.800    0.000    0.000 
#    0.000    0.000    0.000    0.000    0.000    0.000 
#
# Total GULP energy -167478.607896 kJ/mol
# GULP energy per Si atom -5582.620263 kJ/mol
# Density = 1.926320 g / cm^3
# Si number density = 19.307146 Si / 1000 Ang^3
#
#
#
# Elastic Constant Matrix: (Units=GPa)
#
#
# Indices 1 2 3 4 5 6 
#
# 1 106.5686 17.1097 12.3164 0.0000 -0.3962 0.0000
# 2 17.1097 57.9257 -6.9876 0.0000 -10.5936 0.0000
# 3 12.3164 -6.9876 50.9185 0.0000 -4.4628 0.0000
# 4 0.0000 0.0000 0.0000 38.8579 0.0000 -32.9268
# 5 -0.3962 -10.5936 -4.4628 0.0000 16.5219 0.0000
# 6 0.0000 0.0000 0.0000 -32.9268 0.0000 -300.8248
#
#
#
# Elastic Compliance Matrix: (Units=1/GPa)
#
#
# Indices 1 2 3 4 5 6 
#
# 1 0.010416 -0.004082 -0.003367 0.000000 -0.003277 0.000000
# 2 -0.004082 0.021932 0.005348 0.000000 0.015409 0.000000
# 3 -0.003367 0.005348 0.022002 0.000000 0.009291 0.000000
# 4 0.000000 0.000000 0.000000 0.023551 0.000000 -0.002578
# 5 -0.003277 0.015409 0.009291 0.000000 0.072837 0.000000
# 6 0.000000 0.000000 0.000000 -0.002578 0.000000 -0.003042
#
#
# Mechanical properties :
#
#
# Convention : Reuss Voigt Hill
#
# Bulk Modulus (GPa) = 19.94097 28.92110 24.43103
# Shear Modulus (GPa) = 29.65349 -36.22405 -3.28528
#
# Velocity S-wave (km/s) = 3.92328 -4.33621 -1.30586
# Velocity P-wave (km/s) = 5.55640 3.17148 3.22609
#
# Compressibility (1/GPa) = 0.05014801
#
# Stress axis : x y z
#
# Youngs Moduli (GPa) = 96.00676 45.59458 45.45066
#
# Poissons Ratio (x) = 0.18612 0.15303
# Poissons Ratio (y) = 0.39190 -0.24306
# Poissons Ratio (z) = 0.32324 -0.24383
#
# Static dielectric constant tensor:
#      x y z
#    x 1.633310 0.000000 -0.003140 
#    y 0.000000 1.666970 0.000000 
#    z -0.003140 0.000000 1.693090 
# 
# From -- ./inp_files/16520.got.cif
#   From: 2010.05.17/outbox.cif.g08.bks.cpg/sg13_9_cif.got.tgz:16520.got - 2010.06.03 16:44:36.
