data_PCOD9229278
_publ_section_title
;
Structure prediction by ZEFSAII (Michael W. Deem and Ramdas Pophale) SiO2 
 PCOD9229278
Probable space group: P 2/C
;
_chemical_formula_sum "Si O2"
_cell_formula_units_Z 20
_cell_length_a 11.999515
_cell_length_b 12.582887
_cell_length_c 9.978028
_cell_angle_alpha 90.000000
_cell_angle_beta 38.940913
_cell_angle_gamma 90.000000
_cell_volume 946.905965
_symmetry_space_group_name_H-M "P 2/C"
_symmetry_group_IT_number 13
_symmetry_cell_setting 'monoclinic'
loop_
_space_group_symop_operation_xyz
x,y,z
-x,y,1/2-z
-x,-y,-z
x,-y,1/2+z
loop_
_atom_site_type_symbol
_atom_site_label
_atom_site_fract_x
_atom_site_fract_y
_atom_site_fract_z
Si Si1 0.707730 0.182358 0.075484
Si Si2 0.631620 0.029608 0.751858
Si Si3 0.197626 0.761049 0.310018
Si Si4 0.613468 0.556295 0.280876
Si Si5 0.896536 0.378101 0.989147
O O1 0.500000 0.172806 0.250000
O O2 0.753115 0.073907 0.108569
O O3 0.796553 0.197330 0.848469
O O4 0.742648 0.291418 0.117274
O O5 0.500000 0.050004 0.750000
O O6 0.757264 0.131661 0.653145
O O7 0.500000 0.000000 0.000000
O O8 0.348224 0.676625 0.210136
O O9 0.023975 0.685115 0.473824
O O10 0.500000 0.551515 0.250000
O O11 0.500000 0.500000 0.500000
O O12 0.797843 0.488967 0.105936
O O13 0.000000 0.389368 0.750000
#
# Coordination Sequence:
#
# PCOD9229278 Si02
#       5
#     4   4   4   4   4
#     4  10  19  38  65  90 127 181 227 269 343 408
#     4  11  21  38  67  95 131 177 234 277 331 410
#     4  11  22  39  62  99 132 174 222 288 340 404
#     4  12  25  43  72  99 134 179 238 279 345 425
#     4  10  22  41  68  97 140 175 223 289 360 408
#
# _framework density 21.121423
#
# number of rings (size 3 to 8) (size 9 to 14) (size 15 to 20)
#    0.000    1.200    4.000    5.400    0.000    0.800 
#    0.000    0.000    0.000    0.000    0.000    0.000 
#    0.000    0.000    0.000    0.000    0.000    0.000 
#
# Total GULP energy -111447.860066 kJ/mol
# GULP energy per Si atom -5572.393003 kJ/mol
# Density = 2.107335 g / cm^3
# Si number density = 21.121423 Si / 1000 Ang^3
#
#
#
# Elastic Constant Matrix: (Units=GPa)
#
#
# Indices 1 2 3 4 5 6 
#
# 1 67.4130 20.6674 17.0063 0.0000 15.2535 0.0000
# 2 20.6674 190.1509 37.1437 0.0000 5.8208 0.0000
# 3 17.0063 37.1437 57.6270 0.0000 2.0077 0.0000
# 4 0.0000 0.0000 0.0000 36.9947 0.0000 -26.8257
# 5 15.2535 5.8208 2.0077 0.0000 24.0331 0.0000
# 6 0.0000 0.0000 0.0000 -26.8257 0.0000 97.8625
#
#
#
# Elastic Compliance Matrix: (Units=1/GPa)
#
#
# Indices 1 2 3 4 5 6 
#
# 1 0.018820 -0.000789 -0.004649 0.000000 -0.011365 0.000000
# 2 -0.000789 0.006081 -0.003663 0.000000 -0.000666 0.000000
# 3 -0.004649 -0.003663 0.021014 0.000000 0.002083 0.000000
# 4 0.000000 0.000000 0.000000 0.033737 0.000000 0.009248
# 5 -0.011365 -0.000666 0.002083 0.000000 0.048810 0.000000
# 6 0.000000 0.000000 0.000000 0.009248 0.000000 0.012753
#
#
# Mechanical properties :
#
#
# Convention : Reuss Voigt Hill
#
# Bulk Modulus (GPa) = 36.08685 51.64730 43.86708
# Shear Modulus (GPa) = 29.64617 47.80295 38.72456
#
# Velocity S-wave (km/s) = 3.75054 4.76252 4.28650
# Velocity P-wave (km/s) = 5.98982 7.39917 6.73148
#
# Compressibility (1/GPa) = 0.02771092
#
# Stress axis : x y z
#
# Youngs Moduli (GPa) = 53.13357 164.45403 47.58825
#
# Poissons Ratio (x) = 0.12984 0.22125
# Poissons Ratio (y) = 0.04195 0.17432
# Poissons Ratio (z) = 0.24703 0.60242
#
# Static dielectric constant tensor:
#      x y z
#    x 1.898250 0.000000 -0.048180 
#    y 0.000000 1.837120 0.000000 
#    z -0.048180 0.000000 1.777770 
# 
# From -- ./inp_files/33601.got.cif
#   From: 2010.05.17/outbox.cif.g08.bks.cpg/sg13_17_cif.got.tgz:33601.got - 2010.06.03 16:44:36.
