data_PCOD9229165
_publ_section_title
;
Structure prediction by ZEFSAII (Michael W. Deem and Ramdas Pophale) SiO2 
 PCOD9229165
Probable space group: P 2/C
;
_chemical_formula_sum "Si O2"
_cell_formula_units_Z 28
_cell_length_a 24.013815
_cell_length_b 10.906577
_cell_length_c 30.300942
_cell_angle_alpha 90.000000
_cell_angle_beta 10.662989
_cell_angle_gamma 90.000000
_cell_volume 1468.426584
_symmetry_space_group_name_H-M "P 2/C"
_symmetry_group_IT_number 13
_symmetry_cell_setting 'monoclinic'
loop_
_space_group_symop_operation_xyz
x,y,z
-x,y,1/2-z
-x,-y,-z
x,-y,1/2+z
loop_
_atom_site_type_symbol
_atom_site_label
_atom_site_fract_x
_atom_site_fract_y
_atom_site_fract_z
Si Si1 0.861643 0.555455 0.562505
Si Si2 0.210744 0.524036 0.543770
Si Si3 0.742697 0.828860 0.833426
Si Si4 0.823772 0.455159 0.263977
Si Si5 0.196276 0.188600 0.051979
Si Si6 0.897244 0.167303 0.624847
Si Si7 0.160828 0.912110 0.431230
O O1 0.000000 0.500000 0.500000
O O2 0.978498 0.466614 0.433264
O O3 0.986357 0.693911 0.459449
O O4 0.504556 0.548597 0.831531
O O5 0.277992 0.667277 0.480800
O O6 0.000000 0.525936 0.750000
O O7 0.011047 0.479460 0.657421
O O8 0.765382 0.683311 0.823031
O O9 0.983927 0.874815 0.681115
O O10 0.878882 0.862215 0.679717
O O11 0.402713 0.858917 0.112372
O O12 0.500000 0.500000 0.500000
O O13 0.000000 0.183164 0.250000
O O14 0.516225 0.123786 0.801983
O O15 0.837990 0.145674 0.618881
O O16 0.128478 0.058807 0.455542
#
# Coordination Sequence:
#
# PCOD9229165 Si02
#       7
#     4   4   4   4   4   4   4
#     4  12  23  39  64  92 131 168 200 258 325 377
#     4  10  22  37  61  93 125 162 209 259 310 377
#     4  11  21  39  66  92 119 163 209 259 308 367
#     4  11  21  37  63  93 124 159 207 256 316 372
#     4  10  19  37  65  89 120 158 209 265 303 350
#     4  11  24  41  61  90 127 162 206 257 311 376
#     4  11  23  40  62  91 120 163 214 256 306 369
#
# _framework density 19.068028000000002
#
# number of rings (size 3 to 8) (size 9 to 14) (size 15 to 20)
#    0.000    1.143    2.857    4.714    2.000    2.286 
#    0.000    3.571    0.000    0.000    0.000    0.000 
#    0.000    0.000    0.000    0.000    0.000    0.000 
#
# Total GULP energy -156023.480844 kJ/mol
# GULP energy per Si atom -5572.267173 kJ/mol
# Density = 1.902463 g / cm^3
# Si number density = 19.068028 Si / 1000 Ang^3
#
#
#
# Elastic Constant Matrix: (Units=GPa)
#
#
# Indices 1 2 3 4 5 6 
#
# 1 87.0180 -10.6834 31.3370 0.0000 -10.2459 0.0000
# 2 -10.6834 34.4818 29.9323 0.0000 -20.2951 0.0000
# 3 31.3370 29.9323 124.8629 0.0000 -15.1567 0.0000
# 4 0.0000 0.0000 0.0000 29.9557 0.0000 -0.5417
# 5 -10.2459 -20.2951 -15.1567 0.0000 37.5871 0.0000
# 6 0.0000 0.0000 0.0000 -0.5417 0.0000 17.2783
#
#
#
# Elastic Compliance Matrix: (Units=1/GPa)
#
#
# Indices 1 2 3 4 5 6 
#
# 1 0.018183 0.019726 -0.007778 0.000000 0.012471 0.000000
# 2 0.019726 0.072575 -0.017811 0.000000 0.037382 0.000000
# 3 -0.007778 -0.017811 0.013465 0.000000 -0.006308 0.000000
# 4 0.000000 0.000000 0.000000 0.033402 0.000000 0.001047
# 5 0.012471 0.037382 -0.006308 0.000000 0.047645 0.000000
# 6 0.000000 0.000000 0.000000 0.001047 0.000000 0.057909
#
#
# Mechanical properties :
#
#
# Convention : Reuss Voigt Hill
#
# Bulk Modulus (GPa) = 10.81121 38.61492 24.71307
# Shear Modulus (GPa) = 17.49857 30.01601 23.75729
#
# Velocity S-wave (km/s) = 3.03263 3.97187 3.53359
# Velocity P-wave (km/s) = 4.23610 6.42879 5.44399
#
# Compressibility (1/GPa) = 0.09249657
#
# Stress axis : x y z
#
# Youngs Moduli (GPa) = 54.99589 13.77881 74.26722
#
# Poissons Ratio (x) = -0.27180 0.57768
# Poissons Ratio (y) = -1.08484 1.32276
# Poissons Ratio (z) = 0.42778 0.24541
#
# Static dielectric constant tensor:
#      x y z
#    x 1.775250 0.000000 0.089020 
#    y 0.000000 1.650500 0.000000 
#    z 0.089020 0.000000 1.681900 
# 
# From -- ./inp_files/97702.got.cif
#   From: 2010.05.17/outbox.cif.g08.bks.cpg/sg13_49_cif.got.tgz:97702.got - 2010.06.03 16:44:36.
