data_PCOD9229847
_publ_section_title
;
Structure prediction by ZEFSAII (Michael W. Deem and Ramdas Pophale) SiO2 
 PCOD9229847
Probable space group: P 2/C
;
_chemical_formula_sum "Si O2"
_cell_formula_units_Z 28
_cell_length_a 11.207861
_cell_length_b 9.253732
_cell_length_c 13.018788
_cell_angle_alpha 90.000000
_cell_angle_beta 74.910608
_cell_angle_gamma 90.000000
_cell_volume 1303.682582
_symmetry_space_group_name_H-M "P 2/C"
_symmetry_group_IT_number 13
_symmetry_cell_setting 'monoclinic'
loop_
_space_group_symop_operation_xyz
x,y,z
-x,y,1/2-z
-x,-y,-z
x,-y,1/2+z
loop_
_atom_site_type_symbol
_atom_site_label
_atom_site_fract_x
_atom_site_fract_y
_atom_site_fract_z
Si Si1 0.848524 0.138764 0.114408
Si Si2 0.773398 0.143264 0.345259
Si Si3 0.595332 0.112763 0.818821
Si Si4 0.453736 0.716251 0.501392
Si Si5 0.097164 0.176659 0.967877
Si Si6 0.614344 0.680639 0.649690
Si Si7 0.304006 0.627682 0.336527
O O1 0.856145 0.188923 0.230562
O O2 0.711360 0.189295 0.114370
O O3 0.952553 0.204172 0.016587
O O4 0.873705 0.967131 0.103736
O O5 0.662837 0.250298 0.400688
O O6 0.851348 0.132146 0.431269
O O7 0.701996 0.999860 0.322631
O O8 0.500000 0.064758 0.750000
O O9 0.651982 0.264958 0.764011
O O10 0.518237 0.142642 0.938742
O O11 0.555784 0.645631 0.551348
O O12 0.398924 0.649994 0.409810
O O13 0.173662 0.309873 0.905158
O O14 0.500000 0.716584 0.750000
O O15 0.685334 0.542865 0.682575
#
# Coordination Sequence:
#
# PCOD9229847 Si02
#       7
#     4   4   4   4   4   4   4
#     4  11  23  40  64  89 120 152 205 252 287 357
#     4  11  20  36  61  90 118 153 196 251 293 352
#     4  10  20  34  58  90 123 154 191 243 302 356
#     4  10  21  35  57  90 124 155 193 242 302 355
#     4  10  23  43  62  87 115 164 203 242 302 339
#     4  12  23  38  60  93 124 158 194 244 303 354
#     4  10  22  40  60  86 123 160 197 240 294 361
#
# _framework density 21.477620999999999
#
# number of rings (size 3 to 8) (size 9 to 14) (size 15 to 20)
#    0.000    1.429    2.857    3.429    2.000    0.571 
#    0.000    0.000    0.000    0.000    0.000    0.000 
#    0.000    0.000    0.000    0.000    0.000    0.000 
#
# Total GULP energy -156238.699114 kJ/mol
# GULP energy per Si atom -5579.953540 kJ/mol
# Density = 2.142874 g / cm^3
# Si number density = 21.477621 Si / 1000 Ang^3
#
#
#
# Elastic Constant Matrix: (Units=GPa)
#
#
# Indices 1 2 3 4 5 6 
#
# 1 62.8239 14.3812 18.1548 0.0000 -25.4746 0.0000
# 2 14.3812 62.1812 16.5370 0.0000 -20.3680 0.0000
# 3 18.1548 16.5370 70.9483 0.0000 -26.0681 0.0000
# 4 0.0000 0.0000 0.0000 662.6675 0.0000 -607.5294
# 5 -25.4746 -20.3680 -26.0681 0.0000 46.3642 0.0000
# 6 0.0000 0.0000 0.0000 -607.5294 0.0000 568.6883
#
#
#
# Elastic Compliance Matrix: (Units=1/GPa)
#
#
# Indices 1 2 3 4 5 6 
#
# 1 0.020656 -0.001113 -0.001305 0.000000 0.010126 0.000000
# 2 -0.001113 0.019009 -0.001641 0.000000 0.006816 0.000000
# 3 -0.001305 -0.001641 0.018002 0.000000 0.008683 0.000000
# 4 0.000000 0.000000 0.000000 0.073292 0.000000 0.078298
# 5 0.010126 0.006816 0.008683 0.000000 0.035009 0.000000
# 6 0.000000 0.000000 0.000000 0.078298 0.000000 0.085404
#
#
# Mechanical properties :
#
#
# Convention : Reuss Voigt Hill
#
# Bulk Modulus (GPa) = 20.18321 32.67773 26.43047
# Shear Modulus (GPa) = 18.11555 265.33602 141.72578
#
# Velocity S-wave (km/s) = 2.90739 11.12694 8.13209
# Velocity P-wave (km/s) = 4.54844 13.42856 10.02533
#
# Compressibility (1/GPa) = 0.04954613
#
# Stress axis : x y z
#
# Youngs Moduli (GPa) = 48.41296 52.60752 55.55004
#
# Poissons Ratio (x) = 0.05856 0.07252
# Poissons Ratio (y) = 0.05389 0.09118
# Poissons Ratio (z) = 0.06320 0.08635
#
# Static dielectric constant tensor:
#      x y z
#    x 1.797830 0.000000 0.003930 
#    y 0.000000 1.843960 0.000000 
#    z 0.003930 0.000000 1.800620 
# 
# From -- ./inp_files/50245.got.cif
#   From: 2010.05.17/outbox.cif.g08.bks.cpg/sg13_26_cif.got.tgz:50245.got - 2010.06.03 16:44:36.
