data_PCOD9229065
_publ_section_title
;
Structure prediction by ZEFSAII (Michael W. Deem and Ramdas Pophale) SiO2 
 PCOD9229065
Probable space group: P 2/C
;
_chemical_formula_sum "Si O2"
_cell_formula_units_Z 24
_cell_length_a 15.287455
_cell_length_b 8.403684
_cell_length_c 14.627888
_cell_angle_alpha 90.000000
_cell_angle_beta 141.898993
_cell_angle_gamma 90.000000
_cell_volume 1159.595927
_symmetry_space_group_name_H-M "P 2/C"
_symmetry_group_IT_number 13
_symmetry_cell_setting 'monoclinic'
loop_
_space_group_symop_operation_xyz
x,y,z
-x,y,1/2-z
-x,-y,-z
x,-y,1/2+z
loop_
_atom_site_type_symbol
_atom_site_label
_atom_site_fract_x
_atom_site_fract_y
_atom_site_fract_z
Si Si1 0.089247 0.207380 0.475847
Si Si2 0.884388 0.357320 0.419892
Si Si3 0.000000 0.544632 0.750000
Si Si4 0.500000 0.441693 0.750000
Si Si5 0.325832 0.624966 0.276747
Si Si6 0.133388 0.128289 0.925411
Si Si7 0.710883 0.640304 0.047735
O O1 0.078401 0.340105 0.387357
O O2 0.196038 0.259230 0.643663
O O3 0.931589 0.219477 0.388683
O O4 0.138994 0.039485 0.479759
O O5 0.736135 0.445147 0.283314
O O6 0.886482 0.272345 0.519074
O O7 0.000000 0.500000 0.500000
O O8 0.868148 0.443545 0.683878
O O9 0.565151 0.349480 0.716559
O O10 0.379807 0.546514 0.601769
O O11 0.361513 0.642749 0.412402
O O12 0.263071 0.183192 0.969160
O O13 0.000000 0.116701 0.750000
#
# Coordination Sequence:
#
# PCOD9229065 Si02
#       7
#     4   4   2   2   4   4   4
#     4  11  22  37  62 100 134 167 213 276 339 391
#     4  10  19  37  60  90 128 166 213 267 324 388
#     4  12  20  40  68  94 128 170 214 272 328 392
#     4  12  24  44  68  96 126 176 232 282 316 394
#     4  11  23  42  68  93 129 179 229 272 326 392
#     4  12  22  36  61  97 135 169 206 274 341 389
#     4  12  24  41  71  97 132 173 224 272 332 394
#
# _framework density 20.696864999999999
#
# number of rings (size 3 to 8) (size 9 to 14) (size 15 to 20)
#    0.000    0.667    6.667    4.000    0.000    0.000 
#    0.000    0.833    0.000    2.000    0.000    0.000 
#    0.000    0.000    0.000    0.000    0.000    0.000 
#
# Total GULP energy -133858.123133 kJ/mol
# GULP energy per Si atom -5577.421797 kJ/mol
# Density = 2.064976 g / cm^3
# Si number density = 20.696865 Si / 1000 Ang^3
#
#
#
# Elastic Constant Matrix: (Units=GPa)
#
#
# Indices 1 2 3 4 5 6 
#
# 1 139.7738 30.1627 11.5329 0.0000 -23.5130 0.0000
# 2 30.1627 82.6761 20.1739 0.0000 -8.4871 0.0000
# 3 11.5329 20.1739 60.4956 0.0000 -15.8705 0.0000
# 4 0.0000 0.0000 0.0000 12.7951 0.0000 -17.8677
# 5 -23.5130 -8.4871 -15.8705 0.0000 34.9819 0.0000
# 6 0.0000 0.0000 0.0000 -17.8677 0.0000 34.6626
#
#
#
# Elastic Compliance Matrix: (Units=1/GPa)
#
#
# Indices 1 2 3 4 5 6 
#
# 1 0.008605 -0.002753 0.000703 0.000000 0.005435 0.000000
# 2 -0.002753 0.014105 -0.004275 0.000000 -0.000368 0.000000
# 3 0.000703 -0.004275 0.020061 0.000000 0.008537 0.000000
# 4 0.000000 0.000000 0.000000 0.278960 0.000000 0.143797
# 5 0.005435 -0.000368 0.008537 0.000000 0.036023 0.000000
# 6 0.000000 0.000000 0.000000 0.143797 0.000000 0.102973
#
#
# Mechanical properties :
#
#
# Convention : Reuss Voigt Hill
#
# Bulk Modulus (GPa) = 33.19906 45.18715 39.19311
# Shear Modulus (GPa) = 10.34300 31.22632 20.78466
#
# Velocity S-wave (km/s) = 2.23791 3.88847 3.17242
# Velocity P-wave (km/s) = 4.77002 6.48387 5.69182
#
# Compressibility (1/GPa) = 0.03012133
#
# Stress axis : x y z
#
# Youngs Moduli (GPa) = 116.21519 70.89559 49.84693
#
# Poissons Ratio (x) = 0.19517 -0.03506
# Poissons Ratio (y) = 0.31994 0.21312
# Poissons Ratio (z) = -0.08175 0.30311
#
# Static dielectric constant tensor:
#      x y z
#    x 1.861220 0.000000 0.005990 
#    y 0.000000 1.765220 0.000000 
#    z 0.005990 0.000000 1.760460 
# 
# From -- ./inp_files/53246.got.cif
#   From: 2010.05.17/outbox.cif.g08.bks.cpg/sg13_27_cif.got.tgz:53246.got - 2010.06.03 16:44:36.
