data_PCOD9229035
_publ_section_title
;
Structure prediction by ZEFSAII (Michael W. Deem and Ramdas Pophale) SiO2 
 PCOD9229035
Probable space group: P 2/C
;
_chemical_formula_sum "Si O2"
_cell_formula_units_Z 22
_cell_length_a 16.670943
_cell_length_b 15.139782
_cell_length_c 9.252009
_cell_angle_alpha 90.000000
_cell_angle_beta 23.233701
_cell_angle_gamma 90.000000
_cell_volume 921.177973
_symmetry_space_group_name_H-M "P 2/C"
_symmetry_group_IT_number 13
_symmetry_cell_setting 'monoclinic'
loop_
_space_group_symop_operation_xyz
x,y,z
-x,y,1/2-z
-x,-y,-z
x,-y,1/2+z
loop_
_atom_site_type_symbol
_atom_site_label
_atom_site_fract_x
_atom_site_fract_y
_atom_site_fract_z
Si Si1 0.735414 0.773334 0.805097
Si Si2 0.784895 0.037965 0.301736
Si Si3 0.378646 0.614024 0.682551
Si Si4 0.500000 0.518537 0.750000
Si Si5 0.801855 0.700354 0.994153
Si Si6 0.752409 0.886394 0.154336
O O1 0.500000 0.771713 0.250000
O O2 0.738583 0.703131 0.669755
O O3 0.797131 0.875062 0.679875
O O4 0.857031 0.738319 0.744081
O O5 0.682726 0.075393 0.615643
O O6 0.691223 0.955798 0.374714
O O7 0.000000 0.000000 0.000000
O O8 0.358209 0.576256 0.877316
O O9 0.359261 0.542382 0.586666
O O10 0.621634 0.632592 0.273714
O O11 0.700809 0.783794 0.247045
O O12 0.000000 0.669924 0.750000
O O13 0.000000 0.884583 0.750000
#
# Coordination Sequence:
#
# PCOD9229035 Si02
#       6
#     4   4   4   2   4   4
#     4   9  17  33  55  78 108 147 185 219 266 330
#     4   9  16  29  48  73 104 143 177 212 258 309
#     4  10  19  37  58  81 103 143 179 227 277 336
#     4  10  20  36  64  76 106 138 184 224 288 336
#     4   9  16  31  54  79 107 144 182 218 272 329
#     4   8  15  27  46  68  98 139 174 202 251 308
#
# _framework density 23.882466000000001
#
# number of rings (size 3 to 8) (size 9 to 14) (size 15 to 20)
#    0.000    2.909    2.727    1.091    0.000    0.000 
#    3.273    9.091    0.000    0.000    0.000    0.000 
#    0.000    0.000    0.000    0.000    0.000    0.000 
#
# Total GULP energy -122749.319496 kJ/mol
# GULP energy per Si atom -5579.514523 kJ/mol
# Density = 2.382811 g / cm^3
# Si number density = 23.882466 Si / 1000 Ang^3
#
#
#
# Elastic Constant Matrix: (Units=GPa)
#
#
# Indices 1 2 3 4 5 6 
#
# 1 133.5625 58.9909 19.0238 0.0000 -13.0420 0.0000
# 2 58.9909 126.6936 15.9364 0.0000 -4.0407 0.0000
# 3 19.0238 15.9364 43.0906 0.0000 -6.4401 0.0000
# 4 0.0000 0.0000 0.0000 9.6509 0.0000 -5.8830
# 5 -13.0420 -4.0407 -6.4401 0.0000 18.0531 0.0000
# 6 0.0000 0.0000 0.0000 -5.8830 0.0000 60.9457
#
#
#
# Elastic Compliance Matrix: (Units=1/GPa)
#
#
# Indices 1 2 3 4 5 6 
#
# 1 0.010251 -0.004331 -0.002073 0.000000 0.005697 0.000000
# 2 -0.004331 0.010119 -0.002070 0.000000 -0.001602 0.000000
# 3 -0.002073 -0.002070 0.025980 0.000000 0.007307 0.000000
# 4 0.000000 0.000000 0.000000 0.110095 0.000000 0.010627
# 5 0.005697 -0.001602 0.007307 0.000000 0.061756 0.000000
# 6 0.000000 0.000000 0.000000 0.010627 0.000000 0.017434
#
#
# Mechanical properties :
#
#
# Convention : Reuss Voigt Hill
#
# Bulk Modulus (GPa) = 34.00986 54.58321 44.29654
# Shear Modulus (GPa) = 19.05616 31.68967 25.37291
#
# Velocity S-wave (km/s) = 2.82780 3.64662 3.26300
# Velocity P-wave (km/s) = 4.99333 6.37456 5.72575
#
# Compressibility (1/GPa) = 0.02940324
#
# Stress axis : x y z
#
# Youngs Moduli (GPa) = 97.54680 98.82554 38.49186
#
# Poissons Ratio (x) = 0.42800 0.07978
# Poissons Ratio (y) = 0.42246 0.07967
# Poissons Ratio (z) = 0.20218 0.20455
#
# Static dielectric constant tensor:
#      x y z
#    x 1.995860 0.000000 0.036070 
#    y 0.000000 2.031880 0.000000 
#    z 0.036070 0.000000 1.939920 
# 
# From -- ./inp_files/39298.got.cif
#   From: 2010.05.17/outbox.cif.g08.bks.cpg/sg13_20_cif.got.tgz:39298.got - 2010.06.03 16:44:36.
