data_PCOD9229546
_publ_section_title
;
Structure prediction by ZEFSAII (Michael W. Deem and Ramdas Pophale) SiO2 
 PCOD9229546
Probable space group: P 2/C
;
_chemical_formula_sum "Si O2"
_cell_formula_units_Z 32
_cell_length_a 12.358679
_cell_length_b 5.066801
_cell_length_c 30.911347
_cell_angle_alpha 90.000000
_cell_angle_beta 121.772461
_cell_angle_gamma 90.000000
_cell_volume 1645.573487
_symmetry_space_group_name_H-M "P 2/C"
_symmetry_group_IT_number 13
_symmetry_cell_setting 'monoclinic'
loop_
_space_group_symop_operation_xyz
x,y,z
-x,y,1/2-z
-x,-y,-z
x,-y,1/2+z
loop_
_atom_site_type_symbol
_atom_site_label
_atom_site_fract_x
_atom_site_fract_y
_atom_site_fract_z
Si Si1 0.145355 0.684427 0.769816
Si Si2 0.867671 0.958417 0.308868
Si Si3 0.889386 0.130905 0.106090
Si Si4 0.655109 0.283224 0.011120
Si Si5 0.525112 0.772259 0.946870
Si Si6 0.597513 0.719499 0.232100
Si Si7 0.407618 0.797592 0.829272
Si Si8 0.110915 0.337422 0.837096
O O1 0.261990 0.855583 0.812978
O O2 0.000000 0.758816 0.750000
O O3 0.033722 0.228305 0.696874
O O4 0.155142 0.769139 0.721841
O O5 0.733170 0.811236 0.281408
O O6 0.161857 0.583975 0.300877
O O7 0.963037 0.036590 0.368369
O O8 0.890180 0.392257 0.135821
O O9 0.827371 0.888637 0.120292
O O10 0.800835 0.196263 0.047186
O O11 0.631520 0.560902 0.983304
O O12 0.574480 0.062447 0.969053
O O13 0.594168 0.294252 0.046687
O O14 0.488435 0.754796 0.889160
O O15 0.500000 0.666157 0.250000
O O16 0.604105 0.465692 0.202348
O O17 0.550839 0.963217 0.192532
#
# Coordination Sequence:
#
# PCOD9229546 Si02
#       8
#     4   4   4   4   4   4   4   4
#     4  11  19  33  48  80 113 152 171 222 270 345
#     4   9  23  35  53  80 112 144 193 223 285 345
#     4  10  20  34  51  75 112 145 187 221 270 326
#     4  10  20  36  54  81 115 159 187 229 271 329
#     4  10  21  35  55  80 116 151 199 225 271 338
#     4  11  24  42  60  82 113 149 196 248 290 337
#     4  11  24  38  59  85 115 153 195 233 285 342
#     4  10  20  32  48  77 115 144 180 216 272 337
#
# _framework density 19.446110000000001
#
# number of rings (size 3 to 8) (size 9 to 14) (size 15 to 20)
#    0.750    1.000    1.250    3.375    1.750    8.500 
#    0.000    0.000    0.000    0.000    0.000    5.250 
#    0.000    0.000    0.000    0.000    0.000    0.000 
#
# Total GULP energy -178183.820364 kJ/mol
# GULP energy per Si atom -5568.244386 kJ/mol
# Density = 1.940185 g / cm^3
# Si number density = 19.446110 Si / 1000 Ang^3
#
#
#
# Elastic Constant Matrix: (Units=GPa)
#
#
# Indices 1 2 3 4 5 6 
#
# 1 58.0051 14.0418 36.2320 0.0000 1.5249 0.0000
# 2 14.0418 105.9085 10.3840 0.0000 -9.1630 0.0000
# 3 36.2320 10.3840 83.6524 0.0000 12.2270 0.0000
# 4 0.0000 0.0000 0.0000 26.8636 0.0000 2.4573
# 5 1.5249 -9.1630 12.2270 0.0000 18.3333 0.0000
# 6 0.0000 0.0000 0.0000 2.4573 0.0000 13.6018
#
#
#
# Elastic Compliance Matrix: (Units=1/GPa)
#
#
# Indices 1 2 3 4 5 6 
#
# 1 0.024429 -0.001777 -0.011006 0.000000 0.004420 0.000000
# 2 -0.001777 0.010362 -0.001435 0.000000 0.006284 0.000000
# 3 -0.011006 -0.001435 0.018693 0.000000 -0.012268 0.000000
# 4 0.000000 0.000000 0.000000 0.037851 0.000000 -0.006838
# 5 0.004420 0.006284 -0.012268 0.000000 0.065501 0.000000
# 6 0.000000 0.000000 0.000000 -0.006838 0.000000 0.074755
#
#
# Mechanical properties :
#
#
# Convention : Reuss Voigt Hill
#
# Bulk Modulus (GPa) = 39.92557 40.98683 40.45620
# Shear Modulus (GPa) = 18.63060 24.22028 21.42544
#
# Velocity S-wave (km/s) = 3.09862 3.53300 3.32292
# Velocity P-wave (km/s) = 5.77736 6.14538 5.96421
#
# Compressibility (1/GPa) = 0.02504661
#
# Stress axis : x y z
#
# Youngs Moduli (GPa) = 40.93544 96.50543 53.49713
#
# Poissons Ratio (x) = 0.17152 0.58880
# Poissons Ratio (y) = 0.07276 0.07677
# Poissons Ratio (z) = 0.45054 0.13848
#
# Static dielectric constant tensor:
#      x y z
#    x 1.727790 0.000000 0.037830 
#    y 0.000000 1.749470 0.000000 
#    z 0.037830 0.000000 1.710710 
# 
# From -- ./inp_files/92498.got.cif
#   From: 2010.05.17/outbox.cif.g08.bks.cpg/sg13_47_cif.got.tgz:92498.got - 2010.06.03 16:44:36.
