data_PCOD9229968
_publ_section_title
;
Structure prediction by ZEFSAII (Michael W. Deem and Ramdas Pophale) SiO2 
 PCOD9229968
Probable space group: P 2/C
;
_chemical_formula_sum "Si O2"
_cell_formula_units_Z 28
_cell_length_a 10.980224
_cell_length_b 9.652275
_cell_length_c 13.312664
_cell_angle_alpha 90.000000
_cell_angle_beta 74.627824
_cell_angle_gamma 90.000000
_cell_volume 1360.454142
_symmetry_space_group_name_H-M "P 2/C"
_symmetry_group_IT_number 13
_symmetry_cell_setting 'monoclinic'
loop_
_space_group_symop_operation_xyz
x,y,z
-x,y,1/2-z
-x,-y,-z
x,-y,1/2+z
loop_
_atom_site_type_symbol
_atom_site_label
_atom_site_fract_x
_atom_site_fract_y
_atom_site_fract_z
Si Si1 0.333778 0.708067 0.216645
Si Si2 0.719721 0.351227 0.982033
Si Si3 0.385723 0.362662 0.917919
Si Si4 0.519805 0.152092 0.450499
Si Si5 0.079766 0.976668 0.638464
Si Si6 0.124670 0.163599 0.434087
Si Si7 0.308808 0.037071 0.232124
O O1 0.243962 0.667685 0.143309
O O2 0.468535 0.642356 0.153058
O O3 0.304224 0.657856 0.334962
O O4 0.345032 0.874804 0.224873
O O5 0.656755 0.497799 0.019103
O O6 0.610714 0.235406 0.021175
O O7 0.827580 0.311600 0.037984
O O8 0.386976 0.238033 0.997133
O O9 0.575078 0.130357 0.328038
O O10 0.500000 0.000000 0.500000
O O11 0.211740 0.943713 0.660555
O O12 0.000000 0.036757 0.750000
O O13 0.997796 0.850289 0.610391
O O14 0.097404 0.080391 0.542490
O O15 0.235037 0.085855 0.346915
#
# Coordination Sequence:
#
# PCOD9229968 Si02
#       7
#     4   4   4   4   4   4   4
#     4  10  20  35  56  81 125 168 209 241 308 367
#     4  11  22  39  57  86 131 165 208 246 310 383
#     4  10  23  36  56  82 131 176 201 243 300 382
#     4  11  20  36  58  90 126 164 206 255 301 361
#     4   9  19  39  58  91 118 149 199 274 321 361
#     4  10  21  35  62  89 120 155 209 258 321 361
#     4  11  21  33  60  94 123 154 205 267 304 365
#
# _framework density 20.581361999999999
#
# number of rings (size 3 to 8) (size 9 to 14) (size 15 to 20)
#    0.000    1.714    4.286    1.714    4.000    4.000 
#    0.000    0.000    0.000    0.857    0.000    0.000 
#    0.000    0.000    0.000    0.000    0.000    0.000 
#
# Total GULP energy -156170.089768 kJ/mol
# GULP energy per Si atom -5577.503206 kJ/mol
# Density = 2.053452 g / cm^3
# Si number density = 20.581362 Si / 1000 Ang^3
#
#
#
# Elastic Constant Matrix: (Units=GPa)
#
#
# Indices 1 2 3 4 5 6 
#
# 1 52.4747 25.7456 28.4463 0.0000 19.8261 0.0000
# 2 25.7456 115.8829 34.9730 0.0000 17.4902 0.0000
# 3 28.4463 34.9730 114.8787 0.0000 26.6849 0.0000
# 4 0.0000 0.0000 0.0000 20.2133 0.0000 10.1323
# 5 19.8261 17.4902 26.6849 0.0000 28.8616 0.0000
# 6 0.0000 0.0000 0.0000 10.1323 0.0000 22.1312
#
#
#
# Elastic Compliance Matrix: (Units=1/GPa)
#
#
# Indices 1 2 3 4 5 6 
#
# 1 0.027481 -0.003151 -0.002425 0.000000 -0.014726 0.000000
# 2 -0.003151 0.010227 -0.001778 0.000000 -0.002389 0.000000
# 3 -0.002425 -0.001778 0.011728 0.000000 -0.008100 0.000000
# 4 0.000000 0.000000 0.000000 0.064208 0.000000 -0.029396
# 5 -0.014726 -0.002389 -0.008100 0.000000 0.053701 0.000000
# 6 0.000000 0.000000 0.000000 -0.029396 0.000000 0.058643
#
#
# Mechanical properties :
#
#
# Convention : Reuss Voigt Hill
#
# Bulk Modulus (GPa) = 28.79532 51.28510 40.04021
# Shear Modulus (GPa) = 19.81983 27.17932 23.49957
#
# Velocity S-wave (km/s) = 3.10659 3.63792 3.38270
# Velocity P-wave (km/s) = 5.18548 6.52827 5.89523
#
# Compressibility (1/GPa) = 0.03472786
#
# Stress axis : x y z
#
# Youngs Moduli (GPa) = 36.38848 97.78372 85.26428
#
# Poissons Ratio (x) = 0.30812 0.20676
# Poissons Ratio (y) = 0.11466 0.15162
# Poissons Ratio (z) = 0.08824 0.17388
#
# Static dielectric constant tensor:
#      x y z
#    x 1.859990 0.000000 0.015770 
#    y 0.000000 1.702100 0.000000 
#    z 0.015770 0.000000 1.774920 
# 
# From -- ./inp_files/49982.got.cif
#   From: 2010.05.17/outbox.cif.g08.bks.cpg/sg13_25_cif.got.tgz:49982.got - 2010.06.03 16:44:36.
