data_PCOD9229444
_publ_section_title
;
Structure prediction by ZEFSAII (Michael W. Deem and Ramdas Pophale) SiO2 
 PCOD9229444
Probable space group: P 2/C
;
_chemical_formula_sum "Si O2"
_cell_formula_units_Z 12
_cell_length_a 15.051829
_cell_length_b 5.263673
_cell_length_c 13.147186
_cell_angle_alpha 90.000000
_cell_angle_beta 151.804317
_cell_angle_gamma 90.000000
_cell_volume 492.151057
_symmetry_space_group_name_H-M "P 2/C"
_symmetry_group_IT_number 13
_symmetry_cell_setting 'monoclinic'
loop_
_space_group_symop_operation_xyz
x,y,z
-x,y,1/2-z
-x,-y,-z
x,-y,1/2+z
loop_
_atom_site_type_symbol
_atom_site_label
_atom_site_fract_x
_atom_site_fract_y
_atom_site_fract_z
Si Si1 0.210624 0.003512 0.491778
Si Si2 0.551962 0.879758 0.945351
Si Si3 0.122803 0.259004 0.605066
O O1 0.000000 0.919511 0.250000
O O2 0.357401 0.807987 0.694169
O O3 0.328901 0.063597 0.509631
O O4 0.809308 0.220176 0.942751
O O5 0.710880 0.692689 0.145258
O O6 0.500000 0.000000 0.000000
O O7 0.000000 0.500000 0.500000
O O8 0.000000 0.000000 0.500000
#
# Coordination Sequence:
#
# PCOD9229444 Si02
#       3
#     4   4   4
#     4  10  19  40  72 102 147 189 250 296 374 433
#     4   9  20  39  70 104 146 188 244 303 368 437
#     4  11  23  44  71 102 143 187 239 300 362 432
#
# _framework density 24.382759
#
# number of rings (size 3 to 8) (size 9 to 14) (size 15 to 20)
#    0.000    2.000    3.333    0.000    0.000    0.000 
#    6.000   15.000    7.333    0.000    0.000    0.000 
#    0.000    0.000    0.000    0.000    0.000    0.000 
#
# Total GULP energy -66807.631748 kJ/mol
# GULP energy per Si atom -5567.302646 kJ/mol
# Density = 2.432726 g / cm^3
# Si number density = 24.382759 Si / 1000 Ang^3
#
#
#
# Elastic Constant Matrix: (Units=GPa)
#
#
# Indices 1 2 3 4 5 6 
#
# 1 211.1908 34.8486 48.5854 0.0000 -13.0841 0.0000
# 2 34.8486 85.0703 50.7291 0.0000 12.5596 0.0000
# 3 48.5854 50.7291 292.4617 0.0000 29.5361 0.0000
# 4 0.0000 0.0000 0.0000 26.5330 0.0000 11.6442
# 5 -13.0841 12.5596 29.5361 0.0000 47.6627 0.0000
# 6 0.0000 0.0000 0.0000 11.6442 0.0000 10.9650
#
#
#
# Elastic Compliance Matrix: (Units=1/GPa)
#
#
# Indices 1 2 3 4 5 6 
#
# 1 0.005425 -0.002127 -0.000789 0.000000 0.002538 0.000000
# 2 -0.002127 0.014161 -0.001779 0.000000 -0.003213 0.000000
# 3 -0.000789 -0.001779 0.004089 0.000000 -0.002282 0.000000
# 4 0.000000 0.000000 0.000000 0.070584 0.000000 -0.074957
# 5 0.002538 -0.003213 -0.002282 0.000000 0.023938 0.000000
# 6 0.000000 0.000000 0.000000 -0.074957 0.000000 0.170800
#
#
# Mechanical properties :
#
#
# Convention : Reuss Voigt Hill
#
# Bulk Modulus (GPa) = 69.99183 95.22765 82.60974
# Shear Modulus (GPa) = 16.49361 47.33613 31.91487
#
# Velocity S-wave (km/s) = 2.60368 4.41089 3.62181
# Velocity P-wave (km/s) = 6.14871 8.06730 7.17245
#
# Compressibility (1/GPa) = 0.01428738
#
# Stress axis : x y z
#
# Youngs Moduli (GPa) = 184.34351 70.61587 244.54614
#
# Poissons Ratio (x) = 0.15017 0.19286
# Poissons Ratio (y) = 0.39203 0.43493
# Poissons Ratio (z) = 0.14538 0.12559
#
# Static dielectric constant tensor:
#      x y z
#    x 2.032340 0.000000 0.004550 
#    y 0.000000 2.081390 0.000000 
#    z 0.004550 0.000000 2.158310 
# 
# From -- ./inp_files/44702.got.cif
#   From: 2010.05.17/outbox.cif.g08.bks.cpg/sg13_23_cif.got.tgz:44702.got - 2010.06.03 16:44:36.
