data_PCOD9229310
_publ_section_title
;
Structure prediction by ZEFSAII (Michael W. Deem and Ramdas Pophale) SiO2 
 PCOD9229310
Probable space group: P 2/C
;
_chemical_formula_sum "Si O2"
_cell_formula_units_Z 32
_cell_length_a 20.625373
_cell_length_b 9.195346
_cell_length_c 25.702219
_cell_angle_alpha 90.000000
_cell_angle_beta 159.564909
_cell_angle_gamma 90.000000
_cell_volume 1701.953172
_symmetry_space_group_name_H-M "P 2/C"
_symmetry_group_IT_number 13
_symmetry_cell_setting 'monoclinic'
loop_
_space_group_symop_operation_xyz
x,y,z
-x,y,1/2-z
-x,-y,-z
x,-y,1/2+z
loop_
_atom_site_type_symbol
_atom_site_label
_atom_site_fract_x
_atom_site_fract_y
_atom_site_fract_z
Si Si1 0.660506 0.609232 0.680073
Si Si2 0.872983 0.296084 0.439724
Si Si3 0.684092 0.747120 0.362467
Si Si4 0.029885 0.513506 0.901473
Si Si5 0.396467 0.155769 0.926086
Si Si6 0.986273 0.229824 0.801748
Si Si7 0.314252 0.305412 0.757299
Si Si8 0.287967 0.087964 0.098202
O O1 0.758634 0.692364 0.801317
O O2 0.520961 0.716867 0.546228
O O3 0.593010 0.459272 0.656358
O O4 0.822701 0.553230 0.763839
O O5 0.854274 0.430422 0.465682
O O6 0.808013 0.156631 0.422947
O O7 0.089775 0.309508 0.589941
O O8 0.500000 0.685301 0.250000
O O9 0.857236 0.661579 0.517190
O O10 0.649468 0.736041 0.274602
O O11 0.707364 0.915659 0.393520
O O12 0.010978 0.395324 0.841675
O O13 0.362957 0.198010 0.840793
O O14 0.201805 0.164984 0.812393
O O15 0.500000 0.000000 0.000000
O O16 0.000000 0.225790 0.750000
O O17 0.159442 0.140372 0.954661
O O18 0.500000 0.140351 0.250000
#
# Coordination Sequence:
#
# PCOD9229310 Si02
#       8
#     4   4   4   4   4   4   4   4
#     4  11  21  39  68  94 131 167 216 276 323 378
#     4  10  19  38  70  92 119 170 220 269 315 383
#     4  11  24  39  66 100 133 160 218 280 334 381
#     4  10  20  42  65  98 123 168 221 272 326 382
#     4  12  28  41  64 101 132 178 223 261 327 400
#     4  11  26  47  67  94 139 175 220 264 320 403
#     4  11  21  43  64  94 131 166 216 276 323 376
#     4  10  24  42  64  97 132 170 216 269 330 387
#
# _framework density 18.801926999999999
#
# number of rings (size 3 to 8) (size 9 to 14) (size 15 to 20)
#    0.000    1.250    6.250    1.125    5.250    4.500 
#    0.000    0.625    0.000    0.000    0.000    0.000 
#    0.000    0.000    0.000    0.000    0.000    0.000 
#
# Total GULP energy -178422.837623 kJ/mol
# GULP energy per Si atom -5575.713676 kJ/mol
# Density = 1.875913 g / cm^3
# Si number density = 18.801927 Si / 1000 Ang^3
#
#
#
# Elastic Constant Matrix: (Units=GPa)
#
#
# Indices 1 2 3 4 5 6 
#
# 1 138.9516 45.2609 57.5918 0.0000 -18.8611 0.0000
# 2 45.2609 66.8728 39.8671 0.0000 -5.4354 0.0000
# 3 57.5918 39.8671 93.1929 0.0000 -10.0599 0.0000
# 4 0.0000 0.0000 0.0000 -50.8280 0.0000 -8.9688
# 5 -18.8611 -5.4354 -10.0599 0.0000 27.5301 0.0000
# 6 0.0000 0.0000 0.0000 -8.9688 0.0000 2.8704
#
#
#
# Elastic Compliance Matrix: (Units=1/GPa)
#
#
# Indices 1 2 3 4 5 6 
#
# 1 0.011209 -0.004523 -0.004435 0.000000 0.005166 0.000000
# 2 -0.004523 0.021918 -0.006713 0.000000 -0.001225 0.000000
# 3 -0.004435 -0.006713 0.016524 0.000000 0.001674 0.000000
# 4 0.000000 0.000000 0.000000 -0.012682 0.000000 -0.039626
# 5 0.005166 -0.001225 0.001674 0.000000 0.040233 0.000000
# 6 0.000000 0.000000 0.000000 -0.039626 0.000000 0.224567
#
#
# Mechanical properties :
#
#
# Convention : Reuss Voigt Hill
#
# Bulk Modulus (GPa) = 54.61845 64.93965 59.77905
# Shear Modulus (GPa) = 14.74000 6.33435 10.53717
#
# Velocity S-wave (km/s) = 2.80297 1.83747 2.36991
# Velocity P-wave (km/s) = 6.29190 6.25424 6.27310
#
# Compressibility (1/GPa) = 0.01830883
#
# Stress axis : x y z
#
# Youngs Moduli (GPa) = 89.21153 45.62525 60.51970
#
# Poissons Ratio (x) = 0.20637 0.26838
# Poissons Ratio (y) = 0.40351 0.40628
# Poissons Ratio (z) = 0.39562 0.30629
#
# Static dielectric constant tensor:
#      x y z
#    x 1.648670 0.000000 0.008710 
#    y 0.000000 1.683430 0.000000 
#    z 0.008710 0.000000 1.656420 
# 
# From -- ./inp_files/93598.got.cif
#   From: 2010.05.17/outbox.cif.g08.bks.cpg/sg13_47_cif.got.tgz:93598.got - 2010.06.03 16:44:36.
