data_PCOD9229311
_publ_section_title
;
Structure prediction by ZEFSAII (Michael W. Deem and Ramdas Pophale) SiO2 
 PCOD9229311
Probable space group: P 2/C
;
_chemical_formula_sum "Si O2"
_cell_formula_units_Z 24
_cell_length_a 13.854711
_cell_length_b 9.318004
_cell_length_c 14.330389
_cell_angle_alpha 90.000000
_cell_angle_beta 148.152803
_cell_angle_gamma 90.000000
_cell_volume 976.177931
_symmetry_space_group_name_H-M "P 2/C"
_symmetry_group_IT_number 13
_symmetry_cell_setting 'monoclinic'
loop_
_space_group_symop_operation_xyz
x,y,z
-x,y,1/2-z
-x,-y,-z
x,-y,1/2+z
loop_
_atom_site_type_symbol
_atom_site_label
_atom_site_fract_x
_atom_site_fract_y
_atom_site_fract_z
Si Si1 0.627322 0.858084 0.616624
Si Si2 0.305240 0.093157 0.114787
Si Si3 0.789617 0.618895 0.052865
Si Si4 0.742357 0.555292 0.696774
Si Si5 0.187751 0.833260 0.933117
Si Si6 0.830911 0.387703 0.936295
O O1 0.715886 0.884750 0.792207
O O2 0.600763 0.683000 0.602882
O O3 0.717287 0.855457 0.587471
O O4 0.500000 0.000000 0.500000
O O5 0.500000 0.019401 0.250000
O O6 0.308748 0.233033 0.051437
O O7 0.152097 0.986331 0.951203
O O8 0.723534 0.507859 0.077473
O O9 0.788776 0.533373 0.956101
O O10 0.000000 0.652690 0.250000
O O11 0.947262 0.622495 0.883476
O O12 0.749824 0.415278 0.768667
O O13 0.259789 0.737241 0.077492
O O14 0.000000 0.756597 0.750000
#
# Coordination Sequence:
#
# PCOD9229311 Si02
#       6
#     4   4   4   4   4   4
#     4  12  24  45  71  99 148 197 236 300 382 448
#     4  12  27  45  64  99 152 193 238 299 368 446
#     4  10  20  39  70 103 137 181 238 305 363 425
#     4  10  20  39  73 106 141 183 242 307 372 437
#     4  12  24  44  73 106 140 189 244 302 367 444
#     4  10  19  38  71 107 138 178 239 306 361 425
#
# _framework density 24.58568
#
# number of rings (size 3 to 8) (size 9 to 14) (size 15 to 20)
#    0.000    1.000    6.667    1.000    0.000    2.000 
#    0.000    3.333    0.000    0.000    0.000    0.000 
#    0.000    0.000    0.000    0.000    0.000    0.000 
#
# Total GULP energy -133775.211723 kJ/mol
# GULP energy per Si atom -5573.967155 kJ/mol
# Density = 2.452972 g / cm^3
# Si number density = 24.585680 Si / 1000 Ang^3
#
#
#
# Elastic Constant Matrix: (Units=GPa)
#
#
# Indices 1 2 3 4 5 6 
#
# 1 117.7312 35.5277 28.1215 0.0000 -29.7385 0.0000
# 2 35.5277 113.4777 37.0349 0.0000 -4.8526 0.0000
# 3 28.1215 37.0349 64.6163 0.0000 -16.6674 0.0000
# 4 0.0000 0.0000 0.0000 32.5212 0.0000 -10.0265
# 5 -29.7385 -4.8526 -16.6674 0.0000 39.0727 0.0000
# 6 0.0000 0.0000 0.0000 -10.0265 0.0000 36.2666
#
#
#
# Elastic Compliance Matrix: (Units=1/GPa)
#
#
# Indices 1 2 3 4 5 6 
#
# 1 0.011702 -0.002867 -0.001398 0.000000 0.007954 0.000000
# 2 -0.002867 0.011618 -0.006294 0.000000 -0.003424 0.000000
# 3 -0.001398 -0.006294 0.021591 0.000000 0.007365 0.000000
# 4 0.000000 0.000000 0.000000 0.033614 0.000000 0.009293
# 5 0.007954 -0.003424 0.007365 0.000000 0.034364 0.000000
# 6 0.000000 0.000000 0.000000 0.009293 0.000000 0.030143
#
#
# Mechanical properties :
#
#
# Convention : Reuss Voigt Hill
#
# Bulk Modulus (GPa) = 42.02907 55.24371 48.63639
# Shear Modulus (GPa) = 29.05589 34.58151 31.81870
#
# Velocity S-wave (km/s) = 3.44149 3.75450 3.60140
# Velocity P-wave (km/s) = 5.73793 6.42757 6.09252
#
# Compressibility (1/GPa) = 0.02379305
#
# Stress axis : x y z
#
# Youngs Moduli (GPa) = 85.45295 86.07498 46.31467
#
# Poissons Ratio (x) = 0.24682 0.06473
# Poissons Ratio (y) = 0.24504 0.29151
# Poissons Ratio (z) = 0.11943 0.54177
#
# Static dielectric constant tensor:
#      x y z
#    x 1.976730 0.000000 0.081480 
#    y 0.000000 1.943030 0.000000 
#    z 0.081480 0.000000 2.024160 
# 
# From -- ./inp_files/53212.got.cif
#   From: 2010.05.17/outbox.cif.g08.bks.cpg/sg13_27_cif.got.tgz:53212.got - 2010.06.03 16:44:36.
