data_PCOD9229122
_publ_section_title
;
Structure prediction by ZEFSAII (Michael W. Deem and Ramdas Pophale) SiO2 
 PCOD9229122
Probable space group: P 2/C
;
_chemical_formula_sum "Si O2"
_cell_formula_units_Z 26
_cell_length_a 16.922123
_cell_length_b 4.991856
_cell_length_c 25.796784
_cell_angle_alpha 90.000000
_cell_angle_beta 145.096857
_cell_angle_gamma 90.000000
_cell_volume 1246.876333
_symmetry_space_group_name_H-M "P 2/C"
_symmetry_group_IT_number 13
_symmetry_cell_setting 'monoclinic'
loop_
_space_group_symop_operation_xyz
x,y,z
-x,y,1/2-z
-x,-y,-z
x,-y,1/2+z
loop_
_atom_site_type_symbol
_atom_site_label
_atom_site_fract_x
_atom_site_fract_y
_atom_site_fract_z
Si Si1 0.500000 0.090298 0.750000
Si Si2 0.440044 0.548633 0.025618
Si Si3 0.441918 0.961378 0.601462
Si Si4 0.191306 0.756795 0.085896
Si Si5 0.877638 0.962260 0.584848
Si Si6 0.041923 0.724934 0.463533
Si Si7 0.120263 0.471713 0.854022
O O1 0.497509 0.950004 0.690931
O O2 0.644351 0.250681 0.825314
O O3 0.488432 0.803323 0.086344
O O4 0.459942 0.305009 0.077001
O O5 0.500000 0.500000 0.000000
O O6 0.275413 0.568858 0.926332
O O7 0.277850 0.015978 0.520722
O O8 0.131142 0.545080 0.012336
O O9 0.133698 0.057262 0.045260
O O10 0.106637 0.668905 0.091352
O O11 0.918090 0.662929 0.618753
O O12 0.976737 0.118886 0.599627
O O13 0.873447 0.155633 0.632395
O O14 0.000000 0.526754 0.750000
#
# Coordination Sequence:
#
# PCOD9229122 Si02
#       7
#     2   4   4   4   4   4   4
#     4  12  24  42  62 104 136 162 226 268 308 402
#     4  10  22  44  63  86 124 167 209 257 320 382
#     4  10  23  37  65  92 123 172 202 256 326 370
#     4  10  23  36  62  83 127 162 208 254 307 370
#     4  10  19  37  63  80 121 157 205 235 325 382
#     4  10  20  41  57  87 115 173 204 246 312 382
#     4  10  21  37  60  91 108 152 201 270 304 362
#
# _framework density 20.85211
#
# number of rings (size 3 to 8) (size 9 to 14) (size 15 to 20)
#    0.000    1.846    1.538    1.846    4.308    2.462 
#    5.538    0.000    0.000    0.000    0.000    0.000 
#    0.000    0.000    0.000    0.000    0.000    0.000 
#
# Total GULP energy -144735.158371 kJ/mol
# GULP energy per Si atom -5566.736860 kJ/mol
# Density = 2.080465 g / cm^3
# Si number density = 20.852110 Si / 1000 Ang^3
#
#
#
# Elastic Constant Matrix: (Units=GPa)
#
#
# Indices 1 2 3 4 5 6 
#
# 1 110.6799 27.6916 63.0026 0.0000 -12.8158 0.0000
# 2 27.6916 105.9125 30.6922 0.0000 -5.6610 0.0000
# 3 63.0026 30.6922 97.5836 0.0000 -5.8829 0.0000
# 4 0.0000 0.0000 0.0000 16.2712 0.0000 -1.4803
# 5 -12.8158 -5.6610 -5.8829 0.0000 35.9880 0.0000
# 6 0.0000 0.0000 0.0000 -1.4803 0.0000 19.0041
#
#
#
# Elastic Compliance Matrix: (Units=1/GPa)
#
#
# Indices 1 2 3 4 5 6 
#
# 1 0.014876 -0.001073 -0.009047 0.000000 0.003650 0.000000
# 2 -0.001073 0.010510 -0.002562 0.000000 0.000853 0.000000
# 3 -0.009047 -0.002562 0.016842 0.000000 -0.000872 0.000000
# 4 0.000000 0.000000 0.000000 0.061897 0.000000 0.004821
# 5 0.003650 0.000853 -0.000872 0.000000 0.029078 0.000000
# 6 0.000000 0.000000 0.000000 0.004821 0.000000 0.052996
#
#
# Mechanical properties :
#
#
# Convention : Reuss Voigt Hill
#
# Bulk Modulus (GPa) = 59.29370 61.88322 60.58846
# Shear Modulus (GPa) = 23.02209 27.10531 25.06370
#
# Velocity S-wave (km/s) = 3.32635 3.60930 3.47071
# Velocity P-wave (km/s) = 6.57647 6.86375 6.72164
#
# Compressibility (1/GPa) = 0.01686520
#
# Stress axis : x y z
#
# Youngs Moduli (GPa) = 67.22324 95.14624 59.37648
#
# Poissons Ratio (x) = 0.10206 0.53717
# Poissons Ratio (y) = 0.07211 0.15211
# Poissons Ratio (z) = 0.60816 0.24374
#
# Static dielectric constant tensor:
#      x y z
#    x 1.896960 0.000000 -0.098160 
#    y 0.000000 1.778120 0.000000 
#    z -0.098160 0.000000 1.773170 
# 
# From -- ./inp_files/93091.got.cif
#   From: 2010.05.17/outbox.cif.g08.bks.cpg/sg13_47_cif.got.tgz:93091.got - 2010.06.03 16:44:36.
