data_PCOD9229074
_publ_section_title
;
Structure prediction by ZEFSAII (Michael W. Deem and Ramdas Pophale) SiO2 
 PCOD9229074
Probable space group: P 2/C
;
_chemical_formula_sum "Si O2"
_cell_formula_units_Z 16
_cell_length_a 11.513829
_cell_length_b 9.461637
_cell_length_c 9.167499
_cell_angle_alpha 90.000000
_cell_angle_beta 42.310721
_cell_angle_gamma 90.000000
_cell_volume 672.278711
_symmetry_space_group_name_H-M "P 2/C"
_symmetry_group_IT_number 13
_symmetry_cell_setting 'monoclinic'
loop_
_space_group_symop_operation_xyz
x,y,z
-x,y,1/2-z
-x,-y,-z
x,-y,1/2+z
loop_
_atom_site_type_symbol
_atom_site_label
_atom_site_fract_x
_atom_site_fract_y
_atom_site_fract_z
Si Si1 0.000000 0.574168 0.750000
Si Si2 0.863465 0.804931 0.093406
Si Si3 0.371293 0.428214 0.006316
Si Si4 0.000000 0.037040 0.750000
Si Si5 0.510604 0.147240 0.571468
O O1 0.814803 0.507858 0.870180
O O2 0.052115 0.670674 0.562470
O O3 0.664946 0.774334 0.306352
O O4 0.931717 0.864783 0.182888
O O5 0.879179 0.929471 0.955445
O O6 0.500000 0.416067 0.750000
O O7 0.500000 0.500000 0.000000
O O8 0.340078 0.263910 0.087785
O O9 0.500000 0.110896 0.750000
O O10 0.500000 0.000000 0.500000
#
# Coordination Sequence:
#
# PCOD9229074 Si02
#       5
#     2   4   4   2   4
#     4  11  22  46  73  90 140 187 231 302 348 415
#     4  10  19  37  60  96 139 182 221 281 345 408
#     4  11  26  50  70 101 139 185 237 291 356 423
#     4   9  20  30  59  96 138 177 225 266 346 417
#     4  11  22  40  65 101 140 178 228 286 341 411
#
# _framework density 23.799651999999998
#
# number of rings (size 3 to 8) (size 9 to 14) (size 15 to 20)
#    0.000    1.500    5.000    1.500    7.000    2.000 
#    4.500    0.000    0.000    0.000    0.000    0.000 
#    0.000    0.000    0.000    0.000    0.000    0.000 
#
# Total GULP energy -89172.976428 kJ/mol
# GULP energy per Si atom -5573.311027 kJ/mol
# Density = 2.374548 g / cm^3
# Si number density = 23.799652 Si / 1000 Ang^3
#
#
#
# Elastic Constant Matrix: (Units=GPa)
#
#
# Indices 1 2 3 4 5 6 
#
# 1 187.2938 59.2696 53.4496 0.0000 -2.8749 0.0000
# 2 59.2696 70.7889 22.5928 0.0000 16.5002 0.0000
# 3 53.4496 22.5928 60.4570 0.0000 -9.6224 0.0000
# 4 0.0000 0.0000 0.0000 22.5269 0.0000 1.6178
# 5 -2.8749 16.5002 -9.6224 0.0000 58.5024 0.0000
# 6 0.0000 0.0000 0.0000 1.6178 0.0000 50.2763
#
#
#
# Elastic Compliance Matrix: (Units=1/GPa)
#
#
# Indices 1 2 3 4 5 6 
#
# 1 0.008749 -0.005908 -0.005334 0.000000 0.001219 0.000000
# 2 -0.005908 0.022086 -0.004178 0.000000 -0.007207 0.000000
# 3 -0.005334 -0.004178 0.023581 0.000000 0.004795 0.000000
# 4 0.000000 0.000000 0.000000 0.044494 0.000000 -0.001432
# 5 0.001219 -0.007207 0.004795 0.000000 0.019974 0.000000
# 6 0.000000 0.000000 0.000000 -0.001432 0.000000 0.019936
#
#
# Mechanical properties :
#
#
# Convention : Reuss Voigt Hill
#
# Bulk Modulus (GPa) = 42.41249 65.46264 53.93757
# Shear Modulus (GPa) = 28.16617 38.47629 33.32123
#
# Velocity S-wave (km/s) = 3.44389 4.02515 3.74581
# Velocity P-wave (km/s) = 5.80286 7.01198 6.43588
#
# Compressibility (1/GPa) = 0.02357796
#
# Stress axis : x y z
#
# Youngs Moduli (GPa) = 114.29230 45.27786 42.40779
#
# Poissons Ratio (x) = 0.26748 0.22619
# Poissons Ratio (y) = 0.67518 0.17717
# Poissons Ratio (z) = 0.60960 0.18916
#
# Static dielectric constant tensor:
#      x y z
#    x 1.971460 0.000000 -0.057680 
#    y 0.000000 2.070300 0.000000 
#    z -0.057680 0.000000 1.903180 
# 
# From -- ./inp_files/15438.got.cif
#   From: 2010.05.17/outbox.cif.g08.bks.cpg/sg13_8_cif.got.tgz:15438.got - 2010.06.03 16:44:36.
