data_PCOD9229651
_publ_section_title
;
Structure prediction by ZEFSAII (Michael W. Deem and Ramdas Pophale) SiO2 
 PCOD9229651
Probable space group: P 2/C
;
_chemical_formula_sum "Si O2"
_cell_formula_units_Z 20
_cell_length_a 5.663715
_cell_length_b 7.035137
_cell_length_c 21.720635
_cell_angle_alpha 90.000000
_cell_angle_beta 61.942336
_cell_angle_gamma 90.000000
_cell_volume 763.745581
_symmetry_space_group_name_H-M "P 2/C"
_symmetry_group_IT_number 13
_symmetry_cell_setting 'monoclinic'
loop_
_space_group_symop_operation_xyz
x,y,z
-x,y,1/2-z
-x,-y,-z
x,-y,1/2+z
loop_
_atom_site_type_symbol
_atom_site_label
_atom_site_fract_x
_atom_site_fract_y
_atom_site_fract_z
Si Si1 0.969264 0.811507 0.333598
Si Si2 0.442616 0.802618 0.348400
Si Si3 0.423193 0.257583 0.330434
Si Si4 0.503605 0.712532 0.025520
Si Si5 0.150212 0.769504 0.626544
O O1 0.756386 0.751138 0.308150
O O2 0.792720 0.771327 0.417292
O O3 0.255252 0.734904 0.317110
O O4 0.972725 0.041123 0.327343
O O5 0.347553 0.734891 0.427274
O O6 0.425936 0.032669 0.348156
O O7 0.500000 0.280229 0.250000
O O8 0.657925 0.334491 0.347097
O O9 0.113562 0.325789 0.371311
O O10 0.650887 0.823844 0.953247
O O11 0.500000 0.500000 0.000000
#
# Coordination Sequence:
#
# PCOD9229651 Si02
#       5
#     4   4   4   4   4
#     4   8  17  31  49  74 107 131 165 212 259 314
#     4   8  18  31  51  76 106 132 172 211 268 311
#     4  10  20  35  56  80 101 136 185 231 261 301
#     4  10  21  33  52  82 115 140 168 210 273 333
#     4  10  20  33  55  81 106 135 175 223 271 313
#
# _framework density 26.186731999999999
#
# number of rings (size 3 to 8) (size 9 to 14) (size 15 to 20)
#    1.200    1.600    0.000    1.200    2.800    2.400 
#    0.000    0.000    0.000    1.200   10.400    0.000 
#    0.000    0.000    0.000    0.000    0.000    0.000 
#
# Total GULP energy -111533.361758 kJ/mol
# GULP energy per Si atom -5576.668088 kJ/mol
# Density = 2.612713 g / cm^3
# Si number density = 26.186732 Si / 1000 Ang^3
#
#
#
# Elastic Constant Matrix: (Units=GPa)
#
#
# Indices 1 2 3 4 5 6 
#
# 1 318.8515 2.1729 78.9471 0.0000 30.2718 0.0000
# 2 2.1729 95.5445 -9.6193 0.0000 6.3400 0.0000
# 3 78.9471 -9.6193 126.8012 0.0000 28.4612 0.0000
# 4 0.0000 0.0000 0.0000 -228.2821 0.0000 105.9700
# 5 30.2718 6.3400 28.4612 0.0000 49.4059 0.0000
# 6 0.0000 0.0000 0.0000 105.9700 0.0000 -68.6592
#
#
#
# Elastic Compliance Matrix: (Units=1/GPa)
#
#
# Indices 1 2 3 4 5 6 
#
# 1 0.003764 -0.000230 -0.002124 0.000000 -0.001053 0.000000
# 2 -0.000230 0.010751 0.001420 0.000000 -0.002057 0.000000
# 3 -0.002124 0.001420 0.010412 0.000000 -0.004878 0.000000
# 4 0.000000 0.000000 0.000000 -0.015450 0.000000 -0.023846
# 5 -0.001053 -0.002057 -0.004878 0.000000 0.023960 0.000000
# 6 0.000000 0.000000 0.000000 -0.023846 0.000000 -0.051368
#
#
# Mechanical properties :
#
#
# Convention : Reuss Voigt Hill
#
# Bulk Modulus (GPa) = 43.36695 76.02206 59.69451
# Shear Modulus (GPa) = -596.82946 -18.19397 -307.51171
#
# Velocity S-wave (km/s) = -15.11316 -2.63872 -10.84828
# Velocity P-wave (km/s) = 16.96900 4.45084 11.57880
#
# Compressibility (1/GPa) = 0.02305903
#
# Stress axis : x y z
#
# Youngs Moduli (GPa) = 265.68966 93.01424 96.04481
#
# Poissons Ratio (x) = 0.02136 0.20404
# Poissons Ratio (y) = 0.06101 -0.13641
# Poissons Ratio (z) = 0.56445 -0.13211
#
# Static dielectric constant tensor:
#      x y z
#    x 2.081580 0.000000 0.015210 
#    y 0.000000 2.094380 0.000000 
#    z 0.015210 0.000000 2.011480 
# 
# From -- ./inp_files/72981.got.cif
#   From: 2010.05.17/outbox.cif.g08.bks.cpg/sg13_37_cif.got.tgz:72981.got - 2010.06.03 16:44:36.
