data_PCOD9229519
_publ_section_title
;
Structure prediction by ZEFSAII (Michael W. Deem and Ramdas Pophale) SiO2 
 PCOD9229519
Probable space group: P 2/C
;
_chemical_formula_sum "Si O2"
_cell_formula_units_Z 22
_cell_length_a 15.358805
_cell_length_b 8.844639
_cell_length_c 11.739572
_cell_angle_alpha 90.000000
_cell_angle_beta 144.086042
_cell_angle_gamma 90.000000
_cell_volume 935.425941
_symmetry_space_group_name_H-M "P 2/C"
_symmetry_group_IT_number 13
_symmetry_cell_setting 'monoclinic'
loop_
_space_group_symop_operation_xyz
x,y,z
-x,y,1/2-z
-x,-y,-z
x,-y,1/2+z
loop_
_atom_site_type_symbol
_atom_site_label
_atom_site_fract_x
_atom_site_fract_y
_atom_site_fract_z
Si Si1 0.500000 0.760468 0.750000
Si Si2 0.690350 0.429186 0.634624
Si Si3 0.899590 0.174825 0.878994
Si Si4 0.528460 0.305587 0.911348
Si Si5 0.651184 0.964146 0.286804
Si Si6 0.122386 0.093381 0.290223
O O1 0.397234 0.657928 0.560039
O O2 0.401889 0.870765 0.728668
O O3 0.845348 0.344980 0.809578
O O4 0.599776 0.390793 0.653193
O O5 0.678335 0.607899 0.602892
O O6 0.776023 0.080574 0.825010
O O7 0.895990 0.084975 0.756887
O O8 0.059470 0.163503 0.107259
O O9 0.500000 0.333905 0.750000
O O10 0.494816 0.131056 0.902317
O O11 0.723997 0.891972 0.480058
O O12 0.000000 0.146544 0.250000
#
# Coordination Sequence:
#
# PCOD9229519 Si02
#       6
#     2   4   4   4   4   4
#     4  12  20  32  54  88 118 144 186 236 282 344
#     4  10  21  34  54  80 113 151 186 229 281 339
#     4   9  18  33  53  80 116 145 187 233 283 328
#     4  10  20  36  52  77 113 153 183 224 284 341
#     4  10  20  31  53  85 114 148 181 231 282 338
#     4   9  17  32  53  81 114 148 185 234 282 328
#
# _framework density 23.518699000000002
#
# number of rings (size 3 to 8) (size 9 to 14) (size 15 to 20)
#    0.000    2.182    3.636    0.000    0.000    4.364 
#    0.000    0.000    0.000    1.091    0.000   50.909 
#    0.000    0.000    0.000    0.000    0.000    0.000 
#
# Total GULP energy -122617.803883 kJ/mol
# GULP energy per Si atom -5573.536540 kJ/mol
# Density = 2.346517 g / cm^3
# Si number density = 23.518699 Si / 1000 Ang^3
#
#
#
# Elastic Constant Matrix: (Units=GPa)
#
#
# Indices 1 2 3 4 5 6 
#
# 1 44.2864 11.1717 18.5840 0.0000 -11.3986 0.0000
# 2 11.1717 94.3900 39.0789 0.0000 12.0272 0.0000
# 3 18.5840 39.0789 72.6977 0.0000 -1.5233 0.0000
# 4 0.0000 0.0000 0.0000 42.6185 0.0000 16.5782
# 5 -11.3986 12.0272 -1.5233 0.0000 36.2506 0.0000
# 6 0.0000 0.0000 0.0000 16.5782 0.0000 13.9113
#
#
#
# Elastic Compliance Matrix: (Units=1/GPa)
#
#
# Indices 1 2 3 4 5 6 
#
# 1 0.027923 -0.002064 -0.005835 0.000000 0.009219 0.000000
# 2 -0.002064 0.014682 -0.007487 0.000000 -0.005835 0.000000
# 3 -0.005835 -0.007487 0.019303 0.000000 0.001460 0.000000
# 4 0.000000 0.000000 0.000000 0.043740 0.000000 -0.052126
# 5 0.009219 -0.005835 0.001460 0.000000 0.032482 0.000000
# 6 0.000000 0.000000 0.000000 -0.052126 0.000000 0.134003
#
#
# Mechanical properties :
#
#
# Convention : Reuss Voigt Hill
#
# Bulk Modulus (GPa) = 32.11837 38.78258 35.45048
# Shear Modulus (GPa) = 15.96004 28.05872 22.00938
#
# Velocity S-wave (km/s) = 2.60784 3.45779 3.06244
# Velocity P-wave (km/s) = 4.77011 5.69804 5.25460
#
# Compressibility (1/GPa) = 0.03113483
#
# Stress axis : x y z
#
# Youngs Moduli (GPa) = 35.81335 68.11183 51.80654
#
# Poissons Ratio (x) = 0.14055 0.30232
# Poissons Ratio (y) = 0.07390 0.38787
# Poissons Ratio (z) = 0.20899 0.50995
#
# Static dielectric constant tensor:
#      x y z
#    x 1.937490 0.000000 -0.014400 
#    y 0.000000 1.953070 0.000000 
#    z -0.014400 0.000000 1.912350 
# 
# From -- ./inp_files/35834.got.cif
#   From: 2010.05.17/outbox.cif.g08.bks.cpg/sg13_18_cif.got.tgz:35834.got - 2010.06.03 16:44:36.
