data_PCOD9229649
_publ_section_title
;
Structure prediction by ZEFSAII (Michael W. Deem and Ramdas Pophale) SiO2 
 PCOD9229649
Probable space group: P 2/C
;
_chemical_formula_sum "Si O2"
_cell_formula_units_Z 28
_cell_length_a 14.715640
_cell_length_b 14.187072
_cell_length_c 9.297591
_cell_angle_alpha 90.000000
_cell_angle_beta 51.248733
_cell_angle_gamma 90.000000
_cell_volume 1513.787577
_symmetry_space_group_name_H-M "P 2/C"
_symmetry_group_IT_number 13
_symmetry_cell_setting 'monoclinic'
loop_
_space_group_symop_operation_xyz
x,y,z
-x,y,1/2-z
-x,-y,-z
x,-y,1/2+z
loop_
_atom_site_type_symbol
_atom_site_label
_atom_site_fract_x
_atom_site_fract_y
_atom_site_fract_z
Si Si1 0.243122 0.372251 0.721383
Si Si2 0.259928 0.405160 0.192844
Si Si3 0.371877 0.905768 0.449772
Si Si4 0.363472 0.703703 0.355998
Si Si5 0.375396 0.914689 0.790441
Si Si6 0.997326 0.602020 0.578444
Si Si7 0.365265 0.701491 0.834675
O O1 0.260869 0.484313 0.726362
O O2 0.332824 0.306573 0.719928
O O3 0.275151 0.352999 0.525653
O O4 0.112588 0.348136 0.903199
O O5 0.130568 0.362286 0.338641
O O6 0.352245 0.347745 0.194296
O O7 0.296543 0.383846 0.993778
O O8 0.500000 0.897969 0.250000
O O9 0.319965 0.802886 0.465803
O O10 0.383816 0.924079 0.608743
O O11 0.314866 0.994785 0.424094
O O12 0.500000 0.694668 0.250000
O O13 0.500000 0.912164 0.750000
O O14 0.327564 0.810497 0.865497
O O15 0.000000 0.594892 0.750000
O O16 0.000000 0.500000 0.500000
O O17 0.500000 0.694662 0.750000
#
# Coordination Sequence:
#
# PCOD9229649 Si02
#       7
#     4   4   4   4   4   4   4
#     4  11  24  36  59  81 114 156 194 235 280 331
#     4  11  22  40  56  81 118 151 197 238 278 330
#     4  10  20  33  55  79 110 150 188 233 281 333
#     4  11  22  35  55  84 118 153 187 227 288 348
#     4  10  20  34  54  79 112 147 189 234 278 335
#     4  10  22  39  60  81 106 146 205 251 279 317
#     4  11  24  37  55  87 122 152 189 230 284 354
#
# _framework density 18.496652000000001
#
# number of rings (size 3 to 8) (size 9 to 14) (size 15 to 20)
#    0.000    1.429    2.857    3.429   14.000    3.429 
#    0.000    0.000    0.000    0.000    0.000    6.000 
#    0.000    0.000    0.000    0.000    0.000    0.000 
#
# Total GULP energy -155991.849654 kJ/mol
# GULP energy per Si atom -5571.137488 kJ/mol
# Density = 1.845455 g / cm^3
# Si number density = 18.496652 Si / 1000 Ang^3
#
#
#
# Elastic Constant Matrix: (Units=GPa)
#
#
# Indices 1 2 3 4 5 6 
#
# 1 55.5202 23.6174 11.4041 0.0000 4.1792 0.0000
# 2 23.6174 96.9490 18.0702 0.0000 2.9846 0.0000
# 3 11.4041 18.0702 65.3121 0.0000 0.8834 0.0000
# 4 0.0000 0.0000 0.0000 14.7997 0.0000 -3.3311
# 5 4.1792 2.9846 0.8834 0.0000 34.2737 0.0000
# 6 0.0000 0.0000 0.0000 -3.3311 0.0000 -27.0138
#
#
#
# Elastic Compliance Matrix: (Units=1/GPa)
#
#
# Indices 1 2 3 4 5 6 
#
# 1 0.020562 -0.004515 -0.002313 0.000000 -0.002054 0.000000
# 2 -0.004515 0.011893 -0.002496 0.000000 -0.000421 0.000000
# 3 -0.002313 -0.002496 0.016405 0.000000 0.000077 0.000000
# 4 0.000000 0.000000 0.000000 0.065744 0.000000 -0.008107
# 5 -0.002054 -0.000421 0.000077 0.000000 0.029462 0.000000
# 6 0.000000 0.000000 0.000000 -0.008107 0.000000 -0.036018
#
#
# Mechanical properties :
#
#
# Convention : Reuss Voigt Hill
#
# Bulk Modulus (GPa) = 33.10122 35.99607 34.54865
# Shear Modulus (GPa) = 36.55886 15.39123 25.97504
#
# Velocity S-wave (km/s) = 4.45062 2.88776 3.75148
# Velocity P-wave (km/s) = 6.65923 5.53371 6.12239
#
# Compressibility (1/GPa) = 0.03021037
#
# Stress axis : x y z
#
# Youngs Moduli (GPa) = 48.63412 84.08496 60.95815
#
# Poissons Ratio (x) = 0.37960 0.14102
# Poissons Ratio (y) = 0.21956 0.15218
# Poissons Ratio (z) = 0.11251 0.20991
#
# Static dielectric constant tensor:
#      x y z
#    x 1.648520 0.000000 -0.003700 
#    y 0.000000 1.681120 0.000000 
#    z -0.003700 0.000000 1.643600 
# 
# From -- ./inp_files/16675.got.cif
#   From: 2010.05.17/outbox.cif.g08.bks.cpg/sg13_9_cif.got.tgz:16675.got - 2010.06.03 16:44:36.
