data_PCOD9229529
_publ_section_title
;
Structure prediction by ZEFSAII (Michael W. Deem and Ramdas Pophale) SiO2 
 PCOD9229529
Probable space group: P 2/C
;
_chemical_formula_sum "Si O2"
_cell_formula_units_Z 26
_cell_length_a 14.246263
_cell_length_b 9.867616
_cell_length_c 20.612342
_cell_angle_alpha 90.000000
_cell_angle_beta 154.675691
_cell_angle_gamma 90.000000
_cell_volume 1239.429493
_symmetry_space_group_name_H-M "P 2/C"
_symmetry_group_IT_number 13
_symmetry_cell_setting 'monoclinic'
loop_
_space_group_symop_operation_xyz
x,y,z
-x,y,1/2-z
-x,-y,-z
x,-y,1/2+z
loop_
_atom_site_type_symbol
_atom_site_label
_atom_site_fract_x
_atom_site_fract_y
_atom_site_fract_z
Si Si1 0.942321 0.621651 0.827007
Si Si2 0.500000 0.423159 0.250000
Si Si3 0.782582 0.256144 0.525410
Si Si4 0.264477 0.464211 0.437986
Si Si5 0.593740 0.848970 0.623981
Si Si6 0.285312 0.420052 0.733959
Si Si7 0.732961 0.158083 0.700639
O O1 0.830247 0.579538 0.689110
O O2 0.800626 0.748595 0.762210
O O3 0.920684 0.503943 0.866960
O O4 0.187960 0.632161 0.950903
O O5 0.674518 0.324240 0.394241
O O6 0.628647 0.518916 0.279426
O O7 0.807168 0.385926 0.587249
O O8 0.591261 0.165405 0.436745
O O9 0.017524 0.184085 0.667511
O O10 0.523729 0.467016 0.597563
O O11 0.457080 0.812364 0.472341
O O12 0.688786 0.000182 0.684550
O O13 0.276052 0.260228 0.743094
#
# Coordination Sequence:
#
# PCOD9229529 Si02
#       7
#     4   2   4   4   4   4   4
#     4  11  19  34  63  91 123 161 211 262 332 369
#     4  10  24  40  68  92 124 170 232 274 294 358
#     4  11  22  42  63  93 127 171 218 264 319 376
#     4  10  20  31  62  95 120 163 207 270 324 381
#     4  11  23  40  62  96 135 162 202 268 334 401
#     4  11  20  39  59  91 125 164 221 267 303 372
#     4  11  24  39  64  94 130 170 202 262 338 399
#
# _framework density 20.977391999999998
#
# number of rings (size 3 to 8) (size 9 to 14) (size 15 to 20)
#    0.000    1.231    6.154    1.846    2.154    1.846 
#    2.769    1.538    0.000    0.000    0.000    0.000 
#    0.000    0.000    0.000    0.000    0.000    0.000 
#
# Total GULP energy -144933.371565 kJ/mol
# GULP energy per Si atom -5574.360445 kJ/mol
# Density = 2.092965 g / cm^3
# Si number density = 20.977392 Si / 1000 Ang^3
#
#
#
# Elastic Constant Matrix: (Units=GPa)
#
#
# Indices 1 2 3 4 5 6 
#
# 1 87.2791 43.2218 1.8179 0.0000 17.2092 0.0000
# 2 43.2218 136.1777 36.8065 0.0000 14.5050 0.0000
# 3 1.8179 36.8065 68.6265 0.0000 14.8359 0.0000
# 4 0.0000 0.0000 0.0000 27.4067 0.0000 8.7296
# 5 17.2092 14.5050 14.8359 0.0000 39.2911 0.0000
# 6 0.0000 0.0000 0.0000 8.7296 0.0000 27.3410
#
#
#
# Elastic Compliance Matrix: (Units=1/GPa)
#
#
# Indices 1 2 3 4 5 6 
#
# 1 0.015137 -0.005148 0.003683 0.000000 -0.006120 0.000000
# 2 -0.005148 0.010428 -0.005566 0.000000 0.000507 0.000000
# 3 0.003683 -0.005566 0.018907 0.000000 -0.006698 0.000000
# 4 0.000000 0.000000 0.000000 0.040618 0.000000 -0.012969
# 5 -0.006120 0.000507 -0.006698 0.000000 0.030473 0.000000
# 6 0.000000 0.000000 0.000000 -0.012969 0.000000 0.040716
#
#
# Mechanical properties :
#
#
# Convention : Reuss Voigt Hill
#
# Bulk Modulus (GPa) = 32.88370 50.64172 41.76271
# Shear Modulus (GPa) = 27.70431 32.82356 30.26393
#
# Velocity S-wave (km/s) = 3.63805 3.95993 3.80240
# Velocity P-wave (km/s) = 5.77555 6.71577 6.26333
#
# Compressibility (1/GPa) = 0.03041020
#
# Stress axis : x y z
#
# Youngs Moduli (GPa) = 66.06405 95.89908 52.89011
#
# Poissons Ratio (x) = 0.49368 -0.19480
# Poissons Ratio (y) = 0.34009 0.29438
# Poissons Ratio (z) = -0.24332 0.53376
#
# Static dielectric constant tensor:
#      x y z
#    x 1.852150 0.000000 0.049950 
#    y 0.000000 1.758960 0.000000 
#    z 0.049950 0.000000 1.832720 
# 
# From -- ./inp_files/57320.got.cif
#   From: 2010.05.17/outbox.cif.g08.bks.cpg/sg13_29_cif.got.tgz:57320.got - 2010.06.03 16:44:36.
