data_PCOD9229470
_publ_section_title
;
Structure prediction by ZEFSAII (Michael W. Deem and Ramdas Pophale) SiO2 
 PCOD9229470
Probable space group: P 2/C
;
_chemical_formula_sum "Si O2"
_cell_formula_units_Z 28
_cell_length_a 10.116553
_cell_length_b 13.839999
_cell_length_c 17.664986
_cell_angle_alpha 90.000000
_cell_angle_beta 33.500798
_cell_angle_gamma 90.000000
_cell_volume 1365.150565
_symmetry_space_group_name_H-M "P 2/C"
_symmetry_group_IT_number 13
_symmetry_cell_setting 'monoclinic'
loop_
_space_group_symop_operation_xyz
x,y,z
-x,y,1/2-z
-x,-y,-z
x,-y,1/2+z
loop_
_atom_site_type_symbol
_atom_site_label
_atom_site_fract_x
_atom_site_fract_y
_atom_site_fract_z
Si Si1 0.263036 0.941956 0.635658
Si Si2 0.013055 0.317128 0.048130
Si Si3 0.823642 0.681631 0.203145
Si Si4 0.359358 0.319510 0.482153
Si Si5 0.624903 0.155294 0.263733
Si Si6 0.373676 0.481718 0.232535
Si Si7 0.607955 0.748044 0.012570
O O1 0.292058 0.914785 0.709753
O O2 0.275346 0.844750 0.577991
O O3 0.000000 0.987635 0.750000
O O4 0.500000 0.000000 0.500000
O O5 0.843150 0.223564 0.134731
O O6 0.847600 0.411044 0.140778
O O7 0.125834 0.316629 0.910926
O O8 0.204337 0.306975 0.023994
O O9 0.712123 0.575744 0.270355
O O10 0.631323 0.760284 0.322470
O O11 0.076041 0.688239 0.124883
O O12 0.439859 0.230631 0.390412
O O13 0.437333 0.417324 0.403547
O O14 0.511659 0.309314 0.485578
O O15 0.500000 0.110122 0.250000
O O16 0.500000 0.512212 0.250000
#
# Coordination Sequence:
#
# PCOD9229470 Si02
#       7
#     4   4   4   4   4   4   4
#     4  11  25  48  75 101 133 168 208 267 341 412
#     4  11  20  40  65  87 129 170 221 265 315 381
#     4  12  23  38  60  90 132 173 222 275 315 378
#     4  10  22  39  57  87 125 171 222 266 323 373
#     4  10  19  41  71  94 122 167 213 257 316 394
#     4  11  22  37  60  86 125 180 229 270 318 370
#     4  11  25  41  64  95 125 167 215 266 336 387
#
# _framework density 20.510556999999999
#
# number of rings (size 3 to 8) (size 9 to 14) (size 15 to 20)
#    0.000    1.143    4.286    3.000    2.000    2.857 
#    2.571    2.143    0.000    0.000    0.000    0.000 
#    0.000    0.000    0.000    0.000    0.000    0.000 
#
# Total GULP energy -156495.824352 kJ/mol
# GULP energy per Si atom -5589.136584 kJ/mol
# Density = 2.046387 g / cm^3
# Si number density = 20.510557 Si / 1000 Ang^3
#
#
#
# Elastic Constant Matrix: (Units=GPa)
#
#
# Indices 1 2 3 4 5 6 
#
# 1 119.2615 10.9761 37.5991 0.0000 -11.0142 0.0000
# 2 10.9761 14.0187 5.0781 0.0000 -0.7908 0.0000
# 3 37.5991 5.0781 92.1377 0.0000 -12.5286 0.0000
# 4 0.0000 0.0000 0.0000 12.4544 0.0000 1.4803
# 5 -11.0142 -0.7908 -12.5286 0.0000 40.8469 0.0000
# 6 0.0000 0.0000 0.0000 1.4803 0.0000 2.7156
#
#
#
# Elastic Compliance Matrix: (Units=1/GPa)
#
#
# Indices 1 2 3 4 5 6 
#
# 1 0.010280 -0.006651 -0.003620 0.000000 0.001533 0.000000
# 2 -0.006651 0.077091 -0.001644 0.000000 -0.000805 0.000000
# 3 -0.003620 -0.001644 0.012819 0.000000 0.002924 0.000000
# 4 0.000000 0.000000 0.000000 0.085855 0.000000 -0.046801
# 5 0.001533 -0.000805 0.002924 0.000000 0.025776 0.000000
# 6 0.000000 0.000000 0.000000 -0.046801 0.000000 0.393750
#
#
# Mechanical properties :
#
#
# Convention : Reuss Voigt Hill
#
# Bulk Modulus (GPa) = 13.09604 36.96941 25.03272
# Shear Modulus (GPa) = 7.63529 22.65437 15.14483
#
# Velocity S-wave (km/s) = 1.93150 3.32704 2.72028
# Velocity P-wave (km/s) = 3.37241 5.72910 4.70084
#
# Compressibility (1/GPa) = 0.07635898
#
# Stress axis : x y z
#
# Youngs Moduli (GPa) = 97.27756 12.97174 78.01086
#
# Poissons Ratio (x) = 0.08627 0.28240
# Poissons Ratio (y) = 0.64699 0.12827
# Poissons Ratio (z) = 0.35214 0.02133
#
# Static dielectric constant tensor:
#      x y z
#    x 1.732050 0.000000 0.007590 
#    y 0.000000 1.706430 0.000000 
#    z 0.007590 0.000000 1.795340 
# 
# From -- ./inp_files/64609.got.cif
#   From: 2010.05.17/outbox.cif.g08.bks.cpg/sg13_33_cif.got.tgz:64609.got - 2010.06.03 16:44:36.
