data_PCOD9229426
_publ_section_title
;
Structure prediction by ZEFSAII (Michael W. Deem and Ramdas Pophale) SiO2 
 PCOD9229426
Probable space group: P 2/C
;
_chemical_formula_sum "Si O2"
_cell_formula_units_Z 16
_cell_length_a 10.760935
_cell_length_b 9.389482
_cell_length_c 11.540207
_cell_angle_alpha 90.000000
_cell_angle_beta 35.716108
_cell_angle_gamma 90.000000
_cell_volume 680.685718
_symmetry_space_group_name_H-M "P 2/C"
_symmetry_group_IT_number 13
_symmetry_cell_setting 'monoclinic'
loop_
_space_group_symop_operation_xyz
x,y,z
-x,y,1/2-z
-x,-y,-z
x,-y,1/2+z
loop_
_atom_site_type_symbol
_atom_site_label
_atom_site_fract_x
_atom_site_fract_y
_atom_site_fract_z
Si Si1 0.290696 0.224322 0.983339
Si Si2 0.609730 0.639608 0.784999
Si Si3 0.109707 0.873864 0.846720
Si Si4 0.793261 0.471741 0.832254
O O1 0.500000 0.199242 0.750000
O O2 0.247175 0.112841 0.122635
O O3 0.280960 0.380515 0.048786
O O4 0.089381 0.216298 0.050611
O O5 0.500000 0.596367 0.750000
O O6 0.737681 0.785244 0.684247
O O7 0.774947 0.526080 0.713500
O O8 0.393185 0.645304 0.024287
O O9 0.000000 0.000000 0.000000
O O10 0.000000 0.427388 0.750000
#
# Coordination Sequence:
#
# PCOD9229426 Si02
#       4
#     4   4   4   4
#     4  10  20  41  69  97 130 188 235 281 363 417
#     4  10  21  38  63 103 137 178 235 287 350 416
#     4  10  22  43  65  96 141 185 239 288 343 421
#     4  10  19  40  65  98 147 182 221 287 365 427
#
# _framework density 23.505707999999998
#
# number of rings (size 3 to 8) (size 9 to 14) (size 15 to 20)
#    0.000    2.000    5.000    0.750    0.000    3.000 
#   13.500    7.500    0.000    0.000    0.000    0.000 
#    0.000    0.000    0.000    0.500    0.000    0.000 
#
# Total GULP energy -89111.712835 kJ/mol
# GULP energy per Si atom -5569.482052 kJ/mol
# Density = 2.345221 g / cm^3
# Si number density = 23.505708 Si / 1000 Ang^3
#
#
#
# Elastic Constant Matrix: (Units=GPa)
#
#
# Indices 1 2 3 4 5 6 
#
# 1 188.1547 32.2489 41.0266 0.0000 -30.1685 0.0000
# 2 32.2489 74.9733 47.8137 0.0000 -0.7857 0.0000
# 3 41.0266 47.8137 155.7961 0.0000 -16.4352 0.0000
# 4 0.0000 0.0000 0.0000 50.9510 0.0000 -13.1875
# 5 -30.1685 -0.7857 -16.4352 0.0000 39.0678 0.0000
# 6 0.0000 0.0000 0.0000 -13.1875 0.0000 -0.2211
#
#
#
# Elastic Compliance Matrix: (Units=1/GPa)
#
#
# Indices 1 2 3 4 5 6 
#
# 1 0.006626 -0.002504 -0.000462 0.000000 0.004872 0.000000
# 2 -0.002504 0.017665 -0.005157 0.000000 -0.003748 0.000000
# 3 -0.000462 -0.005157 0.008450 0.000000 0.003094 0.000000
# 4 0.000000 0.000000 0.000000 0.001194 0.000000 -0.071216
# 5 0.004872 -0.003748 0.003094 0.000000 0.030585 0.000000
# 6 0.000000 0.000000 0.000000 -0.071216 0.000000 -0.275148
#
#
# Mechanical properties :
#
#
# Convention : Reuss Voigt Hill
#
# Bulk Modulus (GPa) = 60.63267 73.45585 67.04426
# Shear Modulus (GPa) = -26.47130 37.81519 5.67195
#
# Velocity S-wave (km/s) = -3.35948 4.01529 1.55507
# Velocity P-wave (km/s) = 3.28675 7.26738 5.63993
#
# Compressibility (1/GPa) = 0.01649276
#
# Stress axis : x y z
#
# Youngs Moduli (GPa) = 150.92244 56.60915 118.34921
#
# Poissons Ratio (x) = 0.14176 0.05472
# Poissons Ratio (y) = 0.37793 0.61037
# Poissons Ratio (z) = 0.06979 0.29195
#
# Static dielectric constant tensor:
#      x y z
#    x 2.050190 0.000000 0.246700 
#    y 0.000000 1.896870 0.000000 
#    z 0.246700 0.000000 2.252680 
# 
# From -- ./inp_files/32991.got.cif
#   From: 2010.05.17/outbox.cif.g08.bks.cpg/sg13_17_cif.got.tgz:32991.got - 2010.06.03 16:44:36.
