data_PCOD9229790
_publ_section_title
;
Structure prediction by ZEFSAII (Michael W. Deem and Ramdas Pophale) SiO2 
 PCOD9229790
Probable space group: P 2/C
;
_chemical_formula_sum "Si O2"
_cell_formula_units_Z 22
_cell_length_a 22.906099
_cell_length_b 11.737918
_cell_length_c 11.154547
_cell_angle_alpha 90.000000
_cell_angle_beta 20.183572
_cell_angle_gamma 90.000000
_cell_volume 1034.784380
_symmetry_space_group_name_H-M "P 2/C"
_symmetry_group_IT_number 13
_symmetry_cell_setting 'monoclinic'
loop_
_space_group_symop_operation_xyz
x,y,z
-x,y,1/2-z
-x,-y,-z
x,-y,1/2+z
loop_
_atom_site_type_symbol
_atom_site_label
_atom_site_fract_x
_atom_site_fract_y
_atom_site_fract_z
Si Si1 0.096358 0.567074 0.212348
Si Si2 0.000000 0.764097 0.250000
Si Si3 0.618726 0.700268 0.698079
Si Si4 0.782351 0.899454 0.496168
Si Si5 0.744833 0.649989 0.189043
Si Si6 0.922841 0.872946 0.769758
O O1 0.976133 0.670175 0.400231
O O2 0.000000 0.500000 0.500000
O O3 0.263380 0.626193 0.943250
O O4 0.166442 0.472644 0.984276
O O5 0.152212 0.841807 0.005564
O O6 0.630501 0.827520 0.730892
O O7 0.702676 0.692951 0.404253
O O8 0.431831 0.651376 0.042057
O O9 0.775823 0.034934 0.525677
O O10 0.936715 0.881324 0.104140
O O11 0.860747 0.744847 0.904302
O O12 0.000000 0.906423 0.750000
#
# Coordination Sequence:
#
# PCOD9229790 Si02
#       6
#     4   2   4   4   4   4
#     4  11  22  36  59  85 116 153 197 238 283 335
#     4  10  20  34  56  84 112 144 188 242 274 336
#     4  10  22  38  57  82 119 155 187 235 291 349
#     4  10  21  38  59  86 112 150 194 239 293 329
#     4  11  22  37  57  85 118 152 190 235 293 345
#     4  11  21  36  62  85 115 145 195 246 281 346
#
# _framework density 21.260467999999999
#
# number of rings (size 3 to 8) (size 9 to 14) (size 15 to 20)
#    0.000    1.455    2.727    3.818    1.273    0.727 
#    0.000    0.000    0.000    9.818    0.000    0.000 
#    0.000    0.000    0.000    0.000    0.000    0.000 
#
# Total GULP energy -122753.491670 kJ/mol
# GULP energy per Si atom -5579.704167 kJ/mol
# Density = 2.121208 g / cm^3
# Si number density = 21.260468 Si / 1000 Ang^3
#
#
#
# Elastic Constant Matrix: (Units=GPa)
#
#
# Indices 1 2 3 4 5 6 
#
# 1 80.2370 15.0427 10.2916 0.0000 -12.7318 0.0000
# 2 15.0427 94.1828 3.6405 0.0000 -8.9056 0.0000
# 3 10.2916 3.6405 40.6580 0.0000 -12.8005 0.0000
# 4 0.0000 0.0000 0.0000 11.4916 0.0000 -15.5267
# 5 -12.7318 -8.9056 -12.8005 0.0000 21.5394 0.0000
# 6 0.0000 0.0000 0.0000 -15.5267 0.0000 11.5456
#
#
#
# Elastic Compliance Matrix: (Units=1/GPa)
#
#
# Indices 1 2 3 4 5 6 
#
# 1 0.014006 -0.001536 -0.001232 0.000000 0.006912 0.000000
# 2 -0.001536 0.011228 0.000688 0.000000 0.004143 0.000000
# 3 -0.001232 0.000688 0.030392 0.000000 0.017618 0.000000
# 4 0.000000 0.000000 0.000000 -0.106509 0.000000 -0.143235
# 5 0.006912 0.004143 0.017618 0.000000 0.062695 0.000000
# 6 0.000000 0.000000 0.000000 -0.143235 0.000000 -0.106012
#
#
# Mechanical properties :
#
#
# Convention : Reuss Voigt Hill
#
# Bulk Modulus (GPa) = 19.42998 30.33638 24.88318
# Shear Modulus (GPa) = -68.60133 21.32218 -23.63957
#
# Velocity S-wave (km/s) = -5.68657 3.17030 -3.33814
# Velocity P-wave (km/s) = 5.82729 5.26317 1.76867
#
# Compressibility (1/GPa) = 0.05146687
#
# Stress axis : x y z
#
# Youngs Moduli (GPa) = 71.39931 89.06194 32.90312
#
# Poissons Ratio (x) = 0.13678 0.04053
# Poissons Ratio (y) = 0.10966 -0.02263
# Poissons Ratio (z) = 0.08794 -0.06126
#
# Static dielectric constant tensor:
#      x y z
#    x 1.840020 0.000000 -0.010850 
#    y 0.000000 1.806530 0.000000 
#    z -0.010850 0.000000 1.735860 
# 
# From -- ./inp_files/29109.got.cif
#   From: 2010.05.17/outbox.cif.g08.bks.cpg/sg13_15_cif.got.tgz:29109.got - 2010.06.03 16:44:36.
