data_PCOD9229033
_publ_section_title
;
Structure prediction by ZEFSAII (Michael W. Deem and Ramdas Pophale) SiO2 
 PCOD9229033
Probable space group: P 2/C
;
_chemical_formula_sum "Si O2"
_cell_formula_units_Z 20
_cell_length_a 9.446055
_cell_length_b 7.502308
_cell_length_c 17.101850
_cell_angle_alpha 90.000000
_cell_angle_beta 137.931400
_cell_angle_gamma 90.000000
_cell_volume 812.037617
_symmetry_space_group_name_H-M "P 2/C"
_symmetry_group_IT_number 13
_symmetry_cell_setting 'monoclinic'
loop_
_space_group_symop_operation_xyz
x,y,z
-x,y,1/2-z
-x,-y,-z
x,-y,1/2+z
loop_
_atom_site_type_symbol
_atom_site_label
_atom_site_fract_x
_atom_site_fract_y
_atom_site_fract_z
Si Si1 0.089916 0.564770 0.921598
Si Si2 0.740293 0.217654 0.490416
Si Si3 0.404662 0.838412 0.127103
Si Si4 0.285106 0.938134 0.366604
Si Si5 0.270481 0.332325 0.325525
O O1 0.200182 0.577980 0.878687
O O2 0.848516 0.592595 0.798302
O O3 0.113327 0.377706 0.975800
O O4 0.215142 0.715943 0.019695
O O5 0.840056 0.150924 0.614199
O O6 0.520687 0.321603 0.417759
O O7 0.681350 0.043812 0.416187
O O8 0.500000 0.804519 0.250000
O O9 0.609682 0.815193 0.154755
O O10 0.500000 0.000000 0.500000
O O11 0.202453 0.123154 0.299992
#
# Coordination Sequence:
#
# PCOD9229033 Si02
#       5
#     4   4   4   4   4
#     4  11  19  33  58  88 109 141 186 235 275 326
#     4  10  19  37  58  79 117 147 187 224 282 327
#     4  10  20  36  56  79 112 152 185 224 279 336
#     4   8  15  35  56  76 108 144 178 230 275 320
#     4   9  18  34  55  88 113 133 183 243 274 321
#
# _framework density 24.629403
#
# number of rings (size 3 to 8) (size 9 to 14) (size 15 to 20)
#    0.000    2.800    6.000    0.600    0.000    0.800 
#    7.200    4.000    0.000    6.000    0.000    0.000 
#    0.000    0.000    0.000    0.000    0.000    0.000 
#
# Total GULP energy -111641.465262 kJ/mol
# GULP energy per Si atom -5582.073263 kJ/mol
# Density = 2.457334 g / cm^3
# Si number density = 24.629403 Si / 1000 Ang^3
#
#
#
# Elastic Constant Matrix: (Units=GPa)
#
#
# Indices 1 2 3 4 5 6 
#
# 1 33.6945 -5.0484 13.4703 0.0000 -2.2334 0.0000
# 2 -5.0484 105.9437 41.7536 0.0000 13.9666 0.0000
# 3 13.4703 41.7536 142.1404 0.0000 -14.2809 0.0000
# 4 0.0000 0.0000 0.0000 19.3211 0.0000 2.9028
# 5 -2.2334 13.9666 -14.2809 0.0000 26.2571 0.0000
# 6 0.0000 0.0000 0.0000 2.9028 0.0000 11.6130
#
#
#
# Elastic Compliance Matrix: (Units=1/GPa)
#
#
# Indices 1 2 3 4 5 6 
#
# 1 0.031729 0.003300 -0.004106 0.000000 -0.001290 0.000000
# 2 0.003300 0.012783 -0.004995 0.000000 -0.009236 0.000000
# 3 -0.004106 -0.004995 0.009651 0.000000 0.007557 0.000000
# 4 0.000000 0.000000 0.000000 0.053776 0.000000 -0.013442
# 5 -0.001290 -0.009236 0.007557 0.000000 0.046998 0.000000
# 6 0.000000 0.000000 0.000000 -0.013442 0.000000 0.089470
#
#
# Mechanical properties :
#
#
# Convention : Reuss Voigt Hill
#
# Bulk Modulus (GPa) = 23.49625 42.45884 32.97755
# Shear Modulus (GPa) = 18.50507 26.87845 22.69176
#
# Velocity S-wave (km/s) = 2.74403 3.30709 3.03863
# Velocity P-wave (km/s) = 4.42722 5.64438 5.07244
#
# Compressibility (1/GPa) = 0.04255998
#
# Stress axis : x y z
#
# Youngs Moduli (GPa) = 31.51707 78.23176 103.61535
#
# Poissons Ratio (x) = -0.25817 0.42543
# Poissons Ratio (y) = -0.10401 0.51761
# Poissons Ratio (z) = 0.12940 0.39081
#
# Static dielectric constant tensor:
#      x y z
#    x 2.123070 0.000000 0.001140 
#    y 0.000000 2.016600 0.000000 
#    z 0.001140 0.000000 1.860110 
# 
# From -- ./inp_files/59350.got.cif
#   From: 2010.05.17/outbox.cif.g08.bks.cpg/sg13_30_cif.got.tgz:59350.got - 2010.06.03 16:44:36.
