data_PCOD9229027
_publ_section_title
;
Structure prediction by ZEFSAII (Michael W. Deem and Ramdas Pophale) SiO2 
 PCOD9229027
Probable space group: P 2/C
;
_chemical_formula_sum "Si O2"
_cell_formula_units_Z 24
_cell_length_a 34.922539
_cell_length_b 5.081750
_cell_length_c 17.322368
_cell_angle_alpha 90.000000
_cell_angle_beta 155.289055
_cell_angle_gamma 90.000000
_cell_volume 1285.123442
_symmetry_space_group_name_H-M "P 2/C"
_symmetry_group_IT_number 13
_symmetry_cell_setting 'monoclinic'
loop_
_space_group_symop_operation_xyz
x,y,z
-x,y,1/2-z
-x,-y,-z
x,-y,1/2+z
loop_
_atom_site_type_symbol
_atom_site_label
_atom_site_fract_x
_atom_site_fract_y
_atom_site_fract_z
Si Si1 0.066670 0.955390 0.944072
Si Si2 0.067544 0.454436 0.052732
Si Si3 0.277171 0.014914 0.329035
Si Si4 0.460583 0.916251 0.592860
Si Si5 0.534522 0.416450 0.646796
Si Si6 0.721415 0.486605 0.562753
O O1 0.000000 0.989211 0.750000
O O2 0.054152 0.675446 0.962520
O O3 0.172386 0.983562 0.111380
O O4 0.052615 0.175459 0.984110
O O5 0.174114 0.478203 0.273403
O O6 0.000000 0.500000 0.000000
O O7 0.351984 0.956613 0.401289
O O8 0.290617 0.801890 0.422452
O O9 0.291137 0.302487 0.391074
O O10 0.500000 0.976599 0.750000
O O11 0.487424 0.621096 0.619782
O O12 0.504809 0.122694 0.614807
O O13 0.500000 0.500000 0.500000
O O14 0.643177 0.454361 0.857475
#
# Coordination Sequence:
#
# PCOD9229027 Si02
#       6
#     4   4   4   4   4   4
#     4  10  21  39  59  85 117 140 182 244 283 316
#     4  10  21  38  61  82 111 152 190 221 277 347
#     4  10  20  35  61  84 105 149 193 224 270 333
#     4  12  21  38  63  81 109 151 198 222 263 352
#     4  12  24  38  55  86 121 145 180 239 287 313
#     4  10  19  37  57  81 113 149 185 227 275 333
#
# _framework density 18.675246999999999
#
# number of rings (size 3 to 8) (size 9 to 14) (size 15 to 20)
#    0.000    1.333    3.333    3.000    0.000    0.000 
#    6.000    0.000    0.000    0.000    0.000    0.000 
#    0.000    0.000    0.000    0.000    0.000    0.000 
#
# Total GULP energy -134098.077207 kJ/mol
# GULP energy per Si atom -5587.419884 kJ/mol
# Density = 1.863274 g / cm^3
# Si number density = 18.675247 Si / 1000 Ang^3
#
#
#
# Elastic Constant Matrix: (Units=GPa)
#
#
# Indices 1 2 3 4 5 6 
#
# 1 49.7600 -15.4695 38.9855 0.0000 16.2445 0.0000
# 2 -15.4695 52.7273 -12.3684 0.0000 7.3409 0.0000
# 3 38.9855 -12.3684 131.8723 0.0000 6.7416 0.0000
# 4 0.0000 0.0000 0.0000 16.7340 0.0000 0.8426
# 5 16.2445 7.3409 6.7416 0.0000 29.2344 0.0000
# 6 0.0000 0.0000 0.0000 0.8426 0.0000 22.1701
#
#
#
# Elastic Compliance Matrix: (Units=1/GPa)
#
#
# Indices 1 2 3 4 5 6 
#
# 1 0.038194 0.012183 -0.009014 0.000000 -0.022204 0.000000
# 2 0.012183 0.024142 -0.000689 0.000000 -0.012673 0.000000
# 3 -0.009014 -0.000689 0.010037 0.000000 0.002867 0.000000
# 4 0.000000 0.000000 0.000000 0.059873 0.000000 -0.002276
# 5 -0.022204 -0.012673 0.002867 0.000000 0.049065 0.000000
# 6 0.000000 0.000000 0.000000 -0.002276 0.000000 0.045192
#
#
# Mechanical properties :
#
#
# Convention : Reuss Voigt Hill
#
# Bulk Modulus (GPa) = 12.93118 28.51721 20.72420
# Shear Modulus (GPa) = 20.21656 28.50850 24.36253
#
# Velocity S-wave (km/s) = 3.29376 3.91133 3.61575
# Velocity P-wave (km/s) = 4.62649 5.97505 5.34348
#
# Compressibility (1/GPa) = 0.07733245
#
# Stress axis : x y z
#
# Youngs Moduli (GPa) = 26.18191 41.42090 99.63550
#
# Poissons Ratio (x) = -0.50462 0.89808
# Poissons Ratio (y) = -0.31896 0.06869
# Poissons Ratio (z) = 0.23600 0.02855
#
# Static dielectric constant tensor:
#      x y z
#    x 1.613130 0.000000 0.030290 
#    y 0.000000 1.635810 0.000000 
#    z 0.030290 0.000000 1.652270 
# 
# From -- ./inp_files/59702.got.cif
#   From: 2010.05.17/outbox.cif.g08.bks.cpg/sg13_30_cif.got.tgz:59702.got - 2010.06.03 16:44:36.
