data_PCOD9229118
_publ_section_title
;
Structure prediction by ZEFSAII (Michael W. Deem and Ramdas Pophale) SiO2 
 PCOD9229118
Probable space group: P 2/C
;
_chemical_formula_sum "Si O2"
_cell_formula_units_Z 26
_cell_length_a 8.845985
_cell_length_b 8.092002
_cell_length_c 17.369766
_cell_angle_alpha 90.000000
_cell_angle_beta 99.778332
_cell_angle_gamma 90.000000
_cell_volume 1225.294613
_symmetry_space_group_name_H-M "P 2/C"
_symmetry_group_IT_number 13
_symmetry_cell_setting 'monoclinic'
loop_
_space_group_symop_operation_xyz
x,y,z
-x,y,1/2-z
-x,-y,-z
x,-y,1/2+z
loop_
_atom_site_type_symbol
_atom_site_label
_atom_site_fract_x
_atom_site_fract_y
_atom_site_fract_z
Si Si1 0.152257 0.462434 0.215762
Si Si2 0.459182 0.388637 0.572542
Si Si3 0.733948 0.178491 0.556011
Si Si4 0.948904 0.164368 0.824924
Si Si5 0.500000 0.531833 0.750000
Si Si6 0.918735 0.341972 0.456664
Si Si7 0.194435 0.135642 0.531751
O O1 0.135985 0.663319 0.205332
O O2 0.323817 0.408137 0.255172
O O3 0.120058 0.379221 0.132418
O O4 0.000000 0.416351 0.250000
O O5 0.500000 0.500000 0.500000
O O6 0.585282 0.240998 0.585839
O O7 0.461754 0.459680 0.660154
O O8 0.298413 0.298135 0.544502
O O9 0.764503 0.301027 0.487855
O O10 0.887128 0.199398 0.620397
O O11 0.728814 0.999763 0.516214
O O12 0.844499 0.084672 0.883109
O O13 0.000000 0.076469 0.750000
O O14 0.000000 0.500000 0.500000
O O15 0.034026 0.189891 0.479716
#
# Coordination Sequence:
#
# PCOD9229118 Si02
#       7
#     4   4   4   4   2   4   4
#     4  11  22  37  64  99 134 166 225 289 334 393
#     4  12  25  42  72  96 129 177 224 281 341 401
#     4  11  23  39  64  92 131 171 219 274 339 403
#     4  10  19  37  62  92 122 167 220 268 329 404
#     4  12  24  42  68 108 132 170 234 286 334 414
#     4  11  19  39  63  95 124 170 220 268 328 406
#     4  11  23  40  63  96 131 168 225 273 337 408
#
# _framework density 21.219386
#
# number of rings (size 3 to 8) (size 9 to 14) (size 15 to 20)
#    0.000    0.923    4.615    6.000    2.154    0.000 
#    0.000    3.077    3.385    0.000    0.000    0.000 
#    0.000    0.000    0.000    0.000    0.000    0.000 
#
# Total GULP energy -144801.979622 kJ/mol
# GULP energy per Si atom -5569.306909 kJ/mol
# Density = 2.117109 g / cm^3
# Si number density = 21.219386 Si / 1000 Ang^3
#
#
#
# Elastic Constant Matrix: (Units=GPa)
#
#
# Indices 1 2 3 4 5 6 
#
# 1 129.1810 3.4162 29.3697 0.0000 -3.3556 0.0000
# 2 3.4162 44.1799 21.5117 0.0000 -5.3824 0.0000
# 3 29.3697 21.5117 109.5812 0.0000 -11.1467 0.0000
# 4 0.0000 0.0000 0.0000 13.8886 0.0000 -1.5594
# 5 -3.3556 -5.3824 -11.1467 0.0000 29.9904 0.0000
# 6 0.0000 0.0000 0.0000 -1.5594 0.0000 19.9861
#
#
#
# Elastic Compliance Matrix: (Units=1/GPa)
#
#
# Indices 1 2 3 4 5 6 
#
# 1 0.008254 0.000498 -0.002294 0.000000 0.000160 0.000000
# 2 0.000498 0.025280 -0.004811 0.000000 0.002805 0.000000
# 3 -0.002294 -0.004811 0.010986 0.000000 0.002963 0.000000
# 4 0.000000 0.000000 0.000000 0.072638 0.000000 0.005667
# 5 0.000160 0.002805 0.002963 0.000000 0.034967 0.000000
# 6 0.000000 0.000000 0.000000 0.005667 0.000000 0.050477
#
#
# Mechanical properties :
#
#
# Convention : Reuss Voigt Hill
#
# Bulk Modulus (GPa) = 31.94137 43.50414 37.72276
# Shear Modulus (GPa) = 22.09945 28.01600 25.05772
#
# Velocity S-wave (km/s) = 3.23069 3.63754 3.44013
# Velocity P-wave (km/s) = 5.38536 6.17971 5.79616
#
# Compressibility (1/GPa) = 0.03130736
#
# Stress axis : x y z
#
# Youngs Moduli (GPa) = 121.16044 39.55628 91.02310
#
# Poissons Ratio (x) = -0.01970 0.20877
# Poissons Ratio (y) = -0.06035 0.43791
# Poissons Ratio (z) = 0.27789 0.19030
#
# Static dielectric constant tensor:
#      x y z
#    x 2.002290 0.000000 -0.120150 
#    y 0.000000 1.828020 0.000000 
#    z -0.120150 0.000000 1.810960 
# 
# From -- ./inp_files/63848.got.cif
#   From: 2010.05.17/outbox.cif.g08.bks.cpg/sg13_32_cif.got.tgz:63848.got - 2010.06.03 16:44:36.
