data_PCOD9229869
_publ_section_title
;
Structure prediction by ZEFSAII (Michael W. Deem and Ramdas Pophale) SiO2 
 PCOD9229869
Probable space group: P 2/C
;
_chemical_formula_sum "Si O2"
_cell_formula_units_Z 30
_cell_length_a 20.895214
_cell_length_b 5.863887
_cell_length_c 12.392814
_cell_angle_alpha 90.000000
_cell_angle_beta 59.505931
_cell_angle_gamma 90.000000
_cell_volume 1308.426147
_symmetry_space_group_name_H-M "P 2/C"
_symmetry_group_IT_number 13
_symmetry_cell_setting 'monoclinic'
loop_
_space_group_symop_operation_xyz
x,y,z
-x,y,1/2-z
-x,-y,-z
x,-y,1/2+z
loop_
_atom_site_type_symbol
_atom_site_label
_atom_site_fract_x
_atom_site_fract_y
_atom_site_fract_z
Si Si1 0.396405 0.463131 0.496302
Si Si2 0.126677 0.070751 0.116805
Si Si3 0.000000 0.791051 0.250000
Si Si4 0.927548 0.473502 0.487479
Si Si5 0.736664 0.302853 0.457774
Si Si6 0.525818 0.814583 0.391137
Si Si7 0.219621 0.312934 0.407720
Si Si8 0.639817 0.087111 0.151124
O O1 0.313723 0.559744 0.581088
O O2 0.456182 0.659035 0.415865
O O3 0.421436 0.353885 0.586609
O O4 0.391296 0.280916 0.403028
O O5 0.090581 0.230505 0.054150
O O6 0.183493 0.209879 0.142192
O O7 0.062798 0.957364 0.243069
O O8 0.177143 0.882199 0.013674
O O9 0.953682 0.633580 0.367474
O O10 0.849158 0.574139 0.599935
O O11 0.000000 0.500000 0.500000
O O12 0.754513 0.475885 0.539798
O O13 0.685713 0.095704 0.541759
O O14 0.500000 0.000000 0.500000
O O15 0.573217 0.954144 0.264687
O O16 0.299339 0.191473 0.316247
#
# Coordination Sequence:
#
# PCOD9229869 Si02
#       8
#     4   4   2   4   4   4   4   4
#     4  10  23  40  63  96 127 167 219 264 338 392
#     4   9  18  36  62  84 124 163 211 262 317 389
#     4  10  20  34  60  92 124 164 214 262 322 388
#     4  10  20  36  64  88 132 166 212 269 323 389
#     4   9  18  37  66  85 120 169 209 262 324 393
#     4  11  25  41  64  95 134 163 215 280 320 397
#     4   8  18  35  63  88 117 167 212 256 326 390
#     4  10  21  41  69  87 127 173 215 265 332 395
#
# _framework density 22.928308000000001
#
# number of rings (size 3 to 8) (size 9 to 14) (size 15 to 20)
#    0.000    2.400    0.000    1.200    0.000    9.600 
#    0.000    0.000  126.133    0.000    0.000    0.000 
#    0.000    0.000    0.000    0.000    0.000    0.000 
#
# Total GULP energy -167269.534865 kJ/mol
# GULP energy per Si atom -5575.651162 kJ/mol
# Density = 2.287612 g / cm^3
# Si number density = 22.928308 Si / 1000 Ang^3
#
#
#
# Elastic Constant Matrix: (Units=GPa)
#
#
# Indices 1 2 3 4 5 6 
#
# 1 154.8709 55.6539 11.0833 0.0000 -16.0627 0.0000
# 2 55.6539 118.4711 29.9735 0.0000 -13.3384 0.0000
# 3 11.0833 29.9735 38.9832 0.0000 -2.9993 0.0000
# 4 0.0000 0.0000 0.0000 21.4733 0.0000 -17.8425
# 5 -16.0627 -13.3384 -2.9993 0.0000 17.4756 0.0000
# 6 0.0000 0.0000 0.0000 -17.8425 0.0000 66.5491
#
#
#
# Elastic Compliance Matrix: (Units=1/GPa)
#
#
# Indices 1 2 3 4 5 6 
#
# 1 0.008165 -0.003456 0.000720 0.000000 0.004991 0.000000
# 2 -0.003456 0.012779 -0.008449 0.000000 0.005127 0.000000
# 3 0.000720 -0.008449 0.031920 0.000000 -0.000309 0.000000
# 4 0.000000 0.000000 0.000000 0.059918 0.000000 0.016065
# 5 0.004991 0.005127 -0.000309 0.000000 0.065670 0.000000
# 6 0.000000 0.000000 0.000000 0.016065 0.000000 0.019334
#
#
# Mechanical properties :
#
#
# Convention : Reuss Voigt Hill
#
# Bulk Modulus (GPa) = 32.79295 56.19406 44.49350
# Shear Modulus (GPa) = 21.70895 35.47391 28.59143
#
# Velocity S-wave (km/s) = 3.08038 3.93767 3.53511
# Velocity P-wave (km/s) = 5.19472 6.72573 6.00918
#
# Compressibility (1/GPa) = 0.03049436
#
# Stress axis : x y z
#
# Youngs Moduli (GPa) = 122.47420 78.25264 31.32858
#
# Poissons Ratio (x) = 0.27043 -0.02255
# Poissons Ratio (y) = 0.42325 0.26468
# Poissons Ratio (z) = -0.08815 0.66113
#
# Static dielectric constant tensor:
#      x y z
#    x 1.901340 0.000000 -0.003810 
#    y 0.000000 1.904790 0.000000 
#    z -0.003810 0.000000 1.860120 
# 
# From -- ./inp_files/56543.got.cif
#   From: 2010.05.17/outbox.cif.g08.bks.cpg/sg13_29_cif.got.tgz:56543.got - 2010.06.03 16:44:36.
