data_PCOD9229764
_publ_section_title
;
Structure prediction by ZEFSAII (Michael W. Deem and Ramdas Pophale) SiO2 
 PCOD9229764
Probable space group: P 2/C
;
_chemical_formula_sum "Si O2"
_cell_formula_units_Z 28
_cell_length_a 7.595224
_cell_length_b 15.895263
_cell_length_c 18.732880
_cell_angle_alpha 90.000000
_cell_angle_beta 145.930192
_cell_angle_gamma 90.000000
_cell_volume 1266.945558
_symmetry_space_group_name_H-M "P 2/C"
_symmetry_group_IT_number 13
_symmetry_cell_setting 'monoclinic'
loop_
_space_group_symop_operation_xyz
x,y,z
-x,y,1/2-z
-x,-y,-z
x,-y,1/2+z
loop_
_atom_site_type_symbol
_atom_site_label
_atom_site_fract_x
_atom_site_fract_y
_atom_site_fract_z
Si Si1 0.339605 0.785362 0.462552
Si Si2 0.597944 0.105522 0.172380
Si Si3 0.128837 0.526286 0.874813
Si Si4 0.014960 0.146494 0.059942
Si Si5 0.862446 0.648053 0.285785
Si Si6 0.387555 0.942170 0.396272
Si Si7 0.233128 0.683061 0.006163
O O1 0.557685 0.827385 0.595812
O O2 0.208389 0.865885 0.374961
O O3 0.567274 0.731995 0.487978
O O4 0.053158 0.723933 0.386429
O O5 0.241536 0.098931 0.081533
O O6 0.815956 0.140248 0.307162
O O7 0.726947 0.013485 0.196400
O O8 0.000000 0.543518 0.750000
O O9 0.950633 0.443612 0.843176
O O10 0.500000 0.500000 0.000000
O O11 0.090611 0.604008 0.916234
O O12 0.677141 0.104008 0.954181
O O13 0.990901 0.245802 0.036724
O O14 0.491612 0.658361 0.152020
O O15 0.000000 0.648329 0.250000
O O16 0.500000 0.000000 0.500000
#
# Coordination Sequence:
#
# PCOD9229764 Si02
#       7
#     4   4   4   4   4   4   4
#     4   9  18  33  56  83 108 149 186 238 286 345
#     4  10  21  39  55  79 110 153 194 236 298 351
#     4  11  18  30  54  89 121 151 184 244 300 352
#     4  10  22  38  56  78 116 152 188 244 290 361
#     4   9  17  33  51  84 124 143 182 236 300 343
#     4   9  19  36  56  82 109 140 188 239 288 343
#     4  10  20  34  54  87 115 148 194 242 289 350
#
# _framework density 22.100397999999998
#
# number of rings (size 3 to 8) (size 9 to 14) (size 15 to 20)
#    0.000    2.286    4.286    0.429    2.000    4.571 
#   23.143    0.714    0.000    0.857    0.000    0.000 
#    0.000    0.000    0.000    0.000    0.000    0.000 
#
# Total GULP energy -156204.856648 kJ/mol
# GULP energy per Si atom -5578.744880 kJ/mol
# Density = 2.205010 g / cm^3
# Si number density = 22.100398 Si / 1000 Ang^3
#
#
#
# Elastic Constant Matrix: (Units=GPa)
#
#
# Indices 1 2 3 4 5 6 
#
# 1 42.2214 24.7508 9.8347 0.0000 2.9374 0.0000
# 2 24.7508 184.6770 34.6556 0.0000 2.2584 0.0000
# 3 9.8347 34.6556 51.4325 0.0000 2.5716 0.0000
# 4 0.0000 0.0000 0.0000 22.9941 0.0000 9.4830
# 5 2.9374 2.2584 2.5716 0.0000 19.5227 0.0000
# 6 0.0000 0.0000 0.0000 9.4830 0.0000 9.0184
#
#
#
# Elastic Compliance Matrix: (Units=1/GPa)
#
#
# Indices 1 2 3 4 5 6 
#
# 1 0.026308 -0.002945 -0.002884 0.000000 -0.003238 0.000000
# 2 -0.002945 0.006529 -0.003846 0.000000 0.000194 0.000000
# 3 -0.002884 -0.003846 0.022691 0.000000 -0.002110 0.000000
# 4 0.000000 0.000000 0.000000 0.076789 0.000000 -0.080745
# 5 -0.003238 0.000194 -0.002110 0.000000 0.051965 0.000000
# 6 0.000000 0.000000 0.000000 -0.080745 0.000000 0.195789
#
#
# Mechanical properties :
#
#
# Convention : Reuss Voigt Hill
#
# Bulk Modulus (GPa) = 27.64095 46.31255 36.97675
# Shear Modulus (GPa) = 12.15124 24.24636 18.19880
#
# Velocity S-wave (km/s) = 2.34737 3.31584 2.87271
# Velocity P-wave (km/s) = 4.45881 5.97167 5.26981
#
# Compressibility (1/GPa) = 0.03617821
#
# Stress axis : x y z
#
# Youngs Moduli (GPa) = 38.01100 153.16599 44.06975
#
# Poissons Ratio (x) = 0.45108 0.12711
# Poissons Ratio (y) = 0.11194 0.16948
# Poissons Ratio (z) = 0.10963 0.58904
#
# Static dielectric constant tensor:
#      x y z
#    x 1.865710 0.000000 0.023040 
#    y 0.000000 1.842230 0.000000 
#    z 0.023040 0.000000 1.975310 
# 
# From -- ./inp_files/76757.got.cif
#   From: 2010.05.17/outbox.cif.g08.bks.cpg/sg13_39_cif.got.tgz:76757.got - 2010.06.03 16:44:36.
