data_PCOD9229330
_publ_section_title
;
Structure prediction by ZEFSAII (Michael W. Deem and Ramdas Pophale) SiO2 
 PCOD9229330
Probable space group: P 2/C
;
_chemical_formula_sum "Si O2"
_cell_formula_units_Z 26
_cell_length_a 11.950359
_cell_length_b 6.040247
_cell_length_c 17.409523
_cell_angle_alpha 90.000000
_cell_angle_beta 97.473840
_cell_angle_gamma 90.000000
_cell_volume 1245.997434
_symmetry_space_group_name_H-M "P 2/C"
_symmetry_group_IT_number 13
_symmetry_cell_setting 'monoclinic'
loop_
_space_group_symop_operation_xyz
x,y,z
-x,y,1/2-z
-x,-y,-z
x,-y,1/2+z
loop_
_atom_site_type_symbol
_atom_site_label
_atom_site_fract_x
_atom_site_fract_y
_atom_site_fract_z
Si Si1 0.626292 0.213047 0.027177
Si Si2 0.842333 0.078172 0.529572
Si Si3 0.333342 0.518270 0.331107
Si Si4 0.981473 0.315174 0.433909
Si Si5 0.500000 0.201856 0.250000
Si Si6 0.506383 0.894717 0.378195
Si Si7 0.916602 0.616468 0.179522
O O1 0.668639 0.416071 0.082420
O O2 0.719991 0.024688 0.025876
O O3 0.531472 0.095052 0.069938
O O4 0.581020 0.265432 0.938256
O O5 0.864487 0.203570 0.450873
O O6 0.876326 0.227111 0.605848
O O7 0.925359 0.870045 0.542416
O O8 0.408283 0.355355 0.284625
O O9 0.399778 0.750816 0.340556
O O10 0.202631 0.537206 0.295585
O O11 0.000000 0.500000 0.500000
O O12 0.008850 0.423139 0.354445
O O13 0.560273 0.029486 0.313457
O O14 0.000000 0.721575 0.250000
#
# Coordination Sequence:
#
# PCOD9229330 Si02
#       7
#     4   4   4   4   2   4   4
#     4  10  20  36  66  91 109 161 200 247 303 350
#     4  10  19  39  61  87 122 151 202 254 294 354
#     4  11  21  41  62  87 128 157 206 256 296 365
#     4   9  20  38  59  85 119 155 196 250 294 351
#     4  10  24  40  60  92 126 164 192 252 310 364
#     4  10  21  39  61  90 123 149 200 247 303 358
#     4  11  23  38  62  91 124 168 202 245 310 360
#
# _framework density 20.866817000000001
#
# number of rings (size 3 to 8) (size 9 to 14) (size 15 to 20)
#    0.000    1.846    3.077    0.923    0.000    1.846 
#    0.000    9.231    0.000    0.000    0.000    0.000 
#    0.000    0.000    0.000    0.000    0.000    0.000 
#
# Total GULP energy -144847.851536 kJ/mol
# GULP energy per Si atom -5571.071213 kJ/mol
# Density = 2.081932 g / cm^3
# Si number density = 20.866817 Si / 1000 Ang^3
#
#
#
# Elastic Constant Matrix: (Units=GPa)
#
#
# Indices 1 2 3 4 5 6 
#
# 1 79.2771 11.9106 48.5145 0.0000 0.2888 0.0000
# 2 11.9106 55.7613 16.4618 0.0000 -9.7251 0.0000
# 3 48.5145 16.4618 68.9099 0.0000 -6.1079 0.0000
# 4 0.0000 0.0000 0.0000 26.3713 0.0000 -12.0104
# 5 0.2888 -9.7251 -6.1079 0.0000 26.2140 0.0000
# 6 0.0000 0.0000 0.0000 -12.0104 0.0000 33.6399
#
#
#
# Elastic Compliance Matrix: (Units=1/GPa)
#
#
# Indices 1 2 3 4 5 6 
#
# 1 0.022606 -0.000827 -0.016100 0.000000 -0.004307 0.000000
# 2 -0.000827 0.020369 -0.003689 0.000000 0.006706 0.000000
# 3 -0.016100 -0.003689 0.027183 0.000000 0.005142 0.000000
# 4 0.000000 0.000000 0.000000 0.045283 0.000000 0.016167
# 5 -0.004307 0.006706 0.005142 0.000000 0.041881 0.000000
# 6 0.000000 0.000000 0.000000 0.016167 0.000000 0.035499
#
#
# Mechanical properties :
#
#
# Convention : Reuss Voigt Hill
#
# Bulk Modulus (GPa) = 34.56997 39.74691 37.15844
# Shear Modulus (GPa) = 20.51734 25.71579 23.11657
#
# Velocity S-wave (km/s) = 3.13909 3.51433 3.33200
# Velocity P-wave (km/s) = 5.45357 5.96294 5.71393
#
# Compressibility (1/GPa) = 0.02892684
#
# Stress axis : x y z
#
# Youngs Moduli (GPa) = 44.23546 49.09430 36.78706
#
# Poissons Ratio (x) = 0.04060 0.59226
# Poissons Ratio (y) = 0.03658 0.13572
# Poissons Ratio (z) = 0.71218 0.18113
#
# Static dielectric constant tensor:
#      x y z
#    x 1.758460 0.000000 -0.026280 
#    y 0.000000 1.759230 0.000000 
#    z -0.026280 0.000000 1.830130 
# 
# From -- ./inp_files/65393.got.cif
#   From: 2010.05.17/outbox.cif.g08.bks.cpg/sg13_33_cif.got.tgz:65393.got - 2010.06.03 16:44:36.
