data_PCOD9229067
_publ_section_title
;
Structure prediction by ZEFSAII (Michael W. Deem and Ramdas Pophale) SiO2 
 PCOD9229067
Probable space group: P 2/C
;
_chemical_formula_sum "Si O2"
_cell_formula_units_Z 28
_cell_length_a 25.570137
_cell_length_b 9.366849
_cell_length_c 8.588585
_cell_angle_alpha 90.000000
_cell_angle_beta 137.780102
_cell_angle_gamma 90.000000
_cell_volume 1382.302618
_symmetry_space_group_name_H-M "P 2/C"
_symmetry_group_IT_number 13
_symmetry_cell_setting 'monoclinic'
loop_
_space_group_symop_operation_xyz
x,y,z
-x,y,1/2-z
-x,-y,-z
x,-y,1/2+z
loop_
_atom_site_type_symbol
_atom_site_label
_atom_site_fract_x
_atom_site_fract_y
_atom_site_fract_z
Si Si1 0.707843 0.325681 0.016887
Si Si2 0.522465 0.653628 0.118274
Si Si3 0.845092 0.862028 0.498086
Si Si4 0.694432 0.946999 0.677700
Si Si5 0.741135 0.379920 0.733622
Si Si6 0.056274 0.921545 0.501914
Si Si7 0.615382 0.177442 0.310520
O O1 0.725753 0.172915 0.129378
O O2 0.740894 0.454362 0.193439
O O3 0.614088 0.327914 0.806301
O O4 0.735154 0.355455 0.903817
O O5 0.500000 0.659095 0.250000
O O6 0.500000 0.500000 0.000000
O O7 0.471531 0.772226 0.916594
O O8 0.814724 0.717779 0.348460
O O9 0.894443 0.961076 0.488122
O O10 0.767205 0.950414 0.369524
O O11 0.889736 0.834306 0.759327
O O12 0.658852 0.870657 0.748840
O O13 0.627829 0.045678 0.454285
O O14 0.664423 0.310777 0.485926
O O15 0.000000 0.000000 0.500000
O O16 0.000000 0.847376 0.250000
#
# Coordination Sequence:
#
# PCOD9229067 Si02
#       7
#     4   4   4   4   4   4   4
#     4  12  23  39  59  86 117 162 217 266 314 380
#     4  12  24  42  61  81 114 163 216 266 336 370
#     4  10  19  37  60  91 126 161 193 249 308 359
#     4  11  22  39  61  88 125 156 210 264 319 374
#     4  11  23  38  61  87 118 162 213 256 311 368
#     4   9  18  33  60  98 130 156 191 235 294 367
#     4  11  23  41  59  85 116 159 207 273 322 379
#
# _framework density 20.256057999999999
#
# number of rings (size 3 to 8) (size 9 to 14) (size 15 to 20)
#    0.000    1.143    2.857    6.000    0.000    0.571 
#    0.000    0.000    0.000    0.000    0.000   63.000 
#    0.000    0.000    0.000    0.000    0.000    0.000 
#
# Total GULP energy -156469.787847 kJ/mol
# GULP energy per Si atom -5588.206709 kJ/mol
# Density = 2.020995 g / cm^3
# Si number density = 20.256058 Si / 1000 Ang^3
#
#
#
# Elastic Constant Matrix: (Units=GPa)
#
#
# Indices 1 2 3 4 5 6 
#
# 1 47.7751 -2.0275 2.5377 0.0000 1.1818 0.0000
# 2 -2.0275 92.5409 39.3020 0.0000 3.1024 0.0000
# 3 2.5377 39.3020 113.3155 0.0000 0.2891 0.0000
# 4 0.0000 0.0000 0.0000 16.4629 0.0000 -9.4254
# 5 1.1818 3.1024 0.2891 0.0000 28.7951 0.0000
# 6 0.0000 0.0000 0.0000 -9.4254 0.0000 15.8607
#
#
#
# Elastic Compliance Matrix: (Units=1/GPa)
#
#
# Indices 1 2 3 4 5 6 
#
# 1 0.021029 0.000811 -0.000750 0.000000 -0.000943 0.000000
# 2 0.000811 0.012754 -0.004438 0.000000 -0.001363 0.000000
# 3 -0.000750 -0.004438 0.010380 0.000000 0.000405 0.000000
# 4 0.000000 0.000000 0.000000 0.092066 0.000000 0.054711
# 5 -0.000943 -0.001363 0.000405 0.000000 0.034910 0.000000
# 6 0.000000 0.000000 0.000000 0.054711 0.000000 0.095562
#
#
# Mechanical properties :
#
#
# Convention : Reuss Voigt Hill
#
# Bulk Modulus (GPa) = 28.24165 37.02846 32.63505
# Shear Modulus (GPa) = 17.40591 26.47834 21.94212
#
# Velocity S-wave (km/s) = 2.93455 3.61942 3.29483
# Velocity P-wave (km/s) = 5.04527 5.98221 5.53360
#
# Compressibility (1/GPa) = 0.03540870
#
# Stress axis : x y z
#
# Youngs Moduli (GPa) = 47.55350 78.40392 96.33842
#
# Poissons Ratio (x) = -0.06357 0.07223
# Poissons Ratio (y) = -0.03855 0.42759
# Poissons Ratio (z) = 0.03565 0.34799
#
# Static dielectric constant tensor:
#      x y z
#    x 1.726980 0.000000 0.004080 
#    y 0.000000 1.735060 0.000000 
#    z 0.004080 0.000000 1.772050 
# 
# From -- ./inp_files/24548.got.cif
#   From: 2010.05.17/outbox.cif.g08.bks.cpg/sg13_13_cif.got.tgz:24548.got - 2010.06.03 16:44:36.
