data_PCOD9229377
_publ_section_title
;
Structure prediction by ZEFSAII (Michael W. Deem and Ramdas Pophale) SiO2 
 PCOD9229377
Probable space group: P 2/C
;
_chemical_formula_sum "Si O2"
_cell_formula_units_Z 18
_cell_length_a 11.448996
_cell_length_b 6.822097
_cell_length_c 18.127188
_cell_angle_alpha 90.000000
_cell_angle_beta 33.888266
_cell_angle_gamma 90.000000
_cell_volume 789.439975
_symmetry_space_group_name_H-M "P 2/C"
_symmetry_group_IT_number 13
_symmetry_cell_setting 'monoclinic'
loop_
_space_group_symop_operation_xyz
x,y,z
-x,y,1/2-z
-x,-y,-z
x,-y,1/2+z
loop_
_atom_site_type_symbol
_atom_site_label
_atom_site_fract_x
_atom_site_fract_y
_atom_site_fract_z
Si Si1 0.500000 0.640307 0.250000
Si Si2 0.659161 0.320898 0.927544
Si Si3 0.149184 0.997758 0.598190
Si Si4 0.827270 0.554767 0.965995
Si Si5 0.148490 0.264509 0.830917
O O1 0.379222 0.518056 0.376353
O O2 0.687382 0.762279 0.189543
O O3 0.827678 0.426005 0.891893
O O4 0.721820 0.267528 0.812639
O O5 0.644804 0.118214 0.982271
O O6 0.500000 0.500000 0.000000
O O7 0.182793 0.778001 0.554220
O O8 0.000000 0.995919 0.750000
O O9 0.031632 0.106491 0.591948
O O10 0.034041 0.476254 0.898443
#
# Coordination Sequence:
#
# PCOD9229377 Si02
#       5
#     2   4   4   4   4
#     4  12  24  40  60  90 126 168 206 250 294 384
#     4  10  19  39  67  95 116 152 211 255 301 364
#     4   9  20  39  63  89 120 155 199 262 304 354
#     4  11  22  41  64  88 124 163 202 252 315 352
#     4  10  22  42  62  89 125 157 208 253 305 365
#
# _framework density 22.800974
#
# number of rings (size 3 to 8) (size 9 to 14) (size 15 to 20)
#    0.000    1.778    2.222    4.000    0.000    1.778 
#    4.000    5.556    0.000    0.000    0.000    0.000 
#    0.000    0.000    0.000    0.000    0.000    0.000 
#
# Total GULP energy -100257.351489 kJ/mol
# GULP energy per Si atom -5569.852861 kJ/mol
# Density = 2.274908 g / cm^3
# Si number density = 22.800974 Si / 1000 Ang^3
#
#
#
# Elastic Constant Matrix: (Units=GPa)
#
#
# Indices 1 2 3 4 5 6 
#
# 1 148.7038 32.5752 16.3282 0.0000 -8.0352 0.0000
# 2 32.5752 122.7380 10.6962 0.0000 -8.2993 0.0000
# 3 16.3282 10.6962 56.3638 0.0000 7.6988 0.0000
# 4 0.0000 0.0000 0.0000 15.3872 0.0000 -5.6261
# 5 -8.0352 -8.2993 7.6988 0.0000 33.5226 0.0000
# 6 0.0000 0.0000 0.0000 -5.6261 0.0000 6.3927
#
#
#
# Elastic Compliance Matrix: (Units=1/GPa)
#
#
# Indices 1 2 3 4 5 6 
#
# 1 0.007418 -0.001662 -0.002085 0.000000 0.001845 0.000000
# 2 -0.001662 0.008863 -0.001493 0.000000 0.002139 0.000000
# 3 -0.002085 -0.001493 0.019355 0.000000 -0.005315 0.000000
# 4 0.000000 0.000000 0.000000 0.095825 0.000000 0.084334
# 5 0.001845 0.002139 -0.005315 0.000000 0.032023 0.000000
# 6 0.000000 0.000000 0.000000 0.084334 0.000000 0.230650
#
#
# Mechanical properties :
#
#
# Convention : Reuss Voigt Hill
#
# Bulk Modulus (GPa) = 39.75251 49.66720 44.70985
# Shear Modulus (GPa) = 12.10656 28.94092 20.52374
#
# Velocity S-wave (km/s) = 2.30677 3.56657 3.00346
# Velocity P-wave (km/s) = 4.95655 6.22822 5.62841
#
# Compressibility (1/GPa) = 0.02515564
#
# Stress axis : x y z
#
# Youngs Moduli (GPa) = 134.81458 112.82525 51.66571
#
# Poissons Ratio (x) = 0.18753 0.10775
# Poissons Ratio (y) = 0.22408 0.07712
# Poissons Ratio (z) = 0.28115 0.16840
#
# Static dielectric constant tensor:
#      x y z
#    x 1.962610 0.000000 -0.048140 
#    y 0.000000 1.916450 0.000000 
#    z -0.048140 0.000000 1.879850 
# 
# From -- ./inp_files/65030.got.cif
#   From: 2010.05.17/outbox.cif.g08.bks.cpg/sg13_33_cif.got.tgz:65030.got - 2010.06.03 16:44:36.
