data_PCOD9229664
_publ_section_title
;
Structure prediction by ZEFSAII (Michael W. Deem and Ramdas Pophale) SiO2 
 PCOD9229664
Probable space group: P 2/C
;
_chemical_formula_sum "Si O2"
_cell_formula_units_Z 30
_cell_length_a 12.740692
_cell_length_b 14.015995
_cell_length_c 9.155622
_cell_angle_alpha 90.000000
_cell_angle_beta 119.056980
_cell_angle_gamma 90.000000
_cell_volume 1429.171596
_symmetry_space_group_name_H-M "P 2/C"
_symmetry_group_IT_number 13
_symmetry_cell_setting 'monoclinic'
loop_
_space_group_symop_operation_xyz
x,y,z
-x,y,1/2-z
-x,-y,-z
x,-y,1/2+z
loop_
_atom_site_type_symbol
_atom_site_label
_atom_site_fract_x
_atom_site_fract_y
_atom_site_fract_z
Si Si1 0.127516 0.452146 0.130619
Si Si2 0.257138 0.646251 0.210433
Si Si3 0.128615 0.088049 0.906029
Si Si4 0.500000 0.720929 0.250000
Si Si5 0.130518 0.274369 0.351070
Si Si6 0.352691 0.135241 0.491658
Si Si7 0.279094 0.975368 0.233289
Si Si8 0.134580 0.699448 0.399407
O O1 0.219000 0.538125 0.216493
O O2 0.124484 0.374047 0.257378
O O3 0.167612 0.386852 0.024460
O O4 0.000000 0.500000 0.000000
O O5 0.386057 0.660355 0.225296
O O6 0.234528 0.702694 0.342836
O O7 0.161007 0.692212 0.034631
O O8 0.125022 0.196366 0.961085
O O9 0.000000 0.064055 0.750000
O O10 0.221910 0.078324 0.833665
O O11 0.171630 0.023269 0.067786
O O12 0.542433 0.788265 0.412709
O O13 0.233513 0.198796 0.381444
O O14 0.000000 0.228633 0.250000
O O15 0.359727 0.057162 0.367513
O O16 0.340203 0.086133 0.644966
O O17 0.000000 0.678300 0.250000
#
# Coordination Sequence:
#
# PCOD9229664 Si02
#       8
#     4   4   4   2   4   4   4   4
#     4  12  22  36  61  95 131 162 218 259 315 385
#     4  11  23  39  64  88 129 169 217 265 315 387
#     4  10  20  33  56  89 133 166 201 257 333 387
#     4  10  24  46  64  92 128 176 218 272 334 382
#     4  11  21  37  60  94 131 172 207 266 326 393
#     4  10  23  41  64  89 127 165 220 271 331 383
#     4  10  21  38  60  90 119 167 220 267 314 397
#     4  11  21  36  58  93 128 164 203 265 316 376
#
# _framework density 20.991181999999998
#
# number of rings (size 3 to 8) (size 9 to 14) (size 15 to 20)
#    0.000    1.333    2.667    3.600    0.000    5.867 
#    0.000    6.000    0.000    9.600    0.000    0.000 
#    0.000    0.000    0.000    0.000    0.000    0.000 
#
# Total GULP energy -167493.966579 kJ/mol
# GULP energy per Si atom -5583.132219 kJ/mol
# Density = 2.094340 g / cm^3
# Si number density = 20.991182 Si / 1000 Ang^3
#
#
#
# Elastic Constant Matrix: (Units=GPa)
#
#
# Indices 1 2 3 4 5 6 
#
# 1 59.7400 13.9386 25.6292 0.0000 7.5837 0.0000
# 2 13.9386 84.4118 25.7767 0.0000 4.3784 0.0000
# 3 25.6292 25.7767 70.7956 0.0000 -3.1291 0.0000
# 4 0.0000 0.0000 0.0000 -10.7502 0.0000 31.0852
# 5 7.5837 4.3784 -3.1291 0.0000 34.0207 0.0000
# 6 0.0000 0.0000 0.0000 31.0852 0.0000 -5.2767
#
#
#
# Elastic Compliance Matrix: (Units=1/GPa)
#
#
# Indices 1 2 3 4 5 6 
#
# 1 0.020798 -0.000894 -0.007434 0.000000 -0.005205 0.000000
# 2 -0.000894 0.013529 -0.004689 0.000000 -0.001973 0.000000
# 3 -0.007434 -0.004689 0.018700 0.000000 0.003980 0.000000
# 4 0.000000 0.000000 0.000000 0.005801 0.000000 0.034176
# 5 -0.005205 -0.001973 0.003980 0.000000 0.031174 0.000000
# 6 0.000000 0.000000 0.000000 0.034176 0.000000 0.011819
#
#
# Mechanical properties :
#
#
# Convention : Reuss Voigt Hill
#
# Bulk Modulus (GPa) = 37.04845 38.40404 37.72624
# Shear Modulus (GPa) = 36.53588 13.57228 25.05408
#
# Velocity S-wave (km/s) = 4.17650 2.54553 3.45853
# Velocity P-wave (km/s) = 6.39886 5.19372 5.82752
#
# Compressibility (1/GPa) = 0.02699168
#
# Stress axis : x y z
#
# Youngs Moduli (GPa) = 48.08232 73.91723 53.47736
#
# Poissons Ratio (x) = 0.06611 0.39753
# Poissons Ratio (y) = 0.04300 0.25077
# Poissons Ratio (z) = 0.35742 0.34662
#
# Static dielectric constant tensor:
#      x y z
#    x 1.779290 0.000000 -0.063170 
#    y 0.000000 1.755180 0.000000 
#    z -0.063170 0.000000 1.866080 
# 
# From -- ./inp_files/16909.got.cif
#   From: 2010.05.17/outbox.cif.g08.bks.cpg/sg13_9_cif.got.tgz:16909.got - 2010.06.03 16:44:36.
