data_PCOD9229679
_publ_section_title
;
Structure prediction by ZEFSAII (Michael W. Deem and Ramdas Pophale) SiO2 
 PCOD9229679
Probable space group: P 2/C
;
_chemical_formula_sum "Si O2"
_cell_formula_units_Z 30
_cell_length_a 12.165352
_cell_length_b 11.030736
_cell_length_c 17.681495
_cell_angle_alpha 90.000000
_cell_angle_beta 38.214479
_cell_angle_gamma 90.000000
_cell_volume 1467.786738
_symmetry_space_group_name_H-M "P 2/C"
_symmetry_group_IT_number 13
_symmetry_cell_setting 'monoclinic'
loop_
_space_group_symop_operation_xyz
x,y,z
-x,y,1/2-z
-x,-y,-z
x,-y,1/2+z
loop_
_atom_site_type_symbol
_atom_site_label
_atom_site_fract_x
_atom_site_fract_y
_atom_site_fract_z
Si Si1 0.268467 0.948996 0.392162
Si Si2 0.823729 0.238084 0.813180
Si Si3 0.210870 0.582260 0.647563
Si Si4 0.569906 0.425081 0.868388
Si Si5 0.903720 0.018379 0.668269
Si Si6 0.287557 0.858419 0.618567
Si Si7 0.500000 0.285342 0.750000
Si Si8 0.603788 0.925239 0.542132
O O1 0.241385 0.980602 0.319622
O O2 0.346085 0.812745 0.355357
O O3 0.377579 0.047828 0.380553
O O4 0.079414 0.966523 0.535095
O O5 0.661700 0.319018 0.870179
O O6 0.889623 0.153633 0.708830
O O7 0.000000 0.302631 0.750000
O O8 0.754615 0.152457 0.918267
O O9 0.291750 0.533465 0.684259
O O10 0.369743 0.538783 0.503942
O O11 0.228996 0.726479 0.628675
O O12 0.000000 0.555919 0.750000
O O13 0.554485 0.369133 0.792303
O O14 0.867107 0.934760 0.759552
O O15 0.430047 0.856880 0.609078
O O16 0.380897 0.940012 0.503762
#
# Coordination Sequence:
#
# PCOD9229679 Si02
#       8
#     4   4   4   4   4   4   2   4
#     4  11  21  36  56  92 130 175 204 252 326 400
#     4  11  19  38  61  93 130 170 210 272 321 378
#     4  11  25  45  72  94 123 168 233 283 318 378
#     4  11  25  46  67  98 124 174 226 272 332 389
#     4  10  22  34  54  95 130 161 216 255 321 399
#     4  10  21  36  58  91 124 156 211 267 317 382
#     4  12  24  40  68  90 140 180 212 270 336 406
#     4  10  20  33  59  93 125 166 208 255 324 389
#
# _framework density 20.438938
#
# number of rings (size 3 to 8) (size 9 to 14) (size 15 to 20)
#    0.000    1.333    4.000    2.000    5.600    0.000 
#    0.000    2.000    0.000    0.000    0.000    0.000 
#    0.000    0.000    0.000    0.000    0.000    0.000 
#
# Total GULP energy -167086.349170 kJ/mol
# GULP energy per Si atom -5569.544972 kJ/mol
# Density = 2.039242 g / cm^3
# Si number density = 20.438938 Si / 1000 Ang^3
#
#
#
# Elastic Constant Matrix: (Units=GPa)
#
#
# Indices 1 2 3 4 5 6 
#
# 1 140.6806 17.3753 47.5606 0.0000 -8.9226 0.0000
# 2 17.3753 76.2982 14.7871 0.0000 -4.6708 0.0000
# 3 47.5606 14.7871 78.0078 0.0000 -16.1469 0.0000
# 4 0.0000 0.0000 0.0000 8.6332 0.0000 16.9978
# 5 -8.9226 -4.6708 -16.1469 0.0000 41.9156 0.0000
# 6 0.0000 0.0000 0.0000 16.9978 0.0000 17.0611
#
#
#
# Elastic Compliance Matrix: (Units=1/GPa)
#
#
# Indices 1 2 3 4 5 6 
#
# 1 0.009033 -0.001033 -0.005365 0.000000 -0.000259 0.000000
# 2 -0.001033 0.013737 -0.001850 0.000000 0.000598 0.000000
# 3 -0.005365 -0.001850 0.017562 0.000000 0.005417 0.000000
# 4 0.000000 0.000000 0.000000 -0.120461 0.000000 0.120014
# 5 -0.000259 0.000598 0.005417 0.000000 0.025956 0.000000
# 6 0.000000 0.000000 0.000000 0.120014 0.000000 -0.060956
#
#
# Mechanical properties :
#
#
# Convention : Reuss Voigt Hill
#
# Bulk Modulus (GPa) = 41.95463 50.49248 46.22356
# Shear Modulus (GPa) = -55.13519 27.87290 -13.63114
#
# Velocity S-wave (km/s) = -5.19944 3.69686 -2.58528
# Velocity P-wave (km/s) = 3.93372 6.55592 3.70850
#
# Compressibility (1/GPa) = 0.02383527
#
# Stress axis : x y z
#
# Youngs Moduli (GPa) = 110.70083 72.79633 56.93968
#
# Poissons Ratio (x) = 0.07521 0.30550
# Poissons Ratio (y) = 0.11437 0.10535
# Poissons Ratio (z) = 0.59395 0.13469
#
# Static dielectric constant tensor:
#      x y z
#    x 1.831440 0.000000 -0.084170 
#    y 0.000000 1.733390 0.000000 
#    z -0.084170 0.000000 1.813000 
# 
# From -- ./inp_files/66637.got.cif
#   From: 2010.05.17/outbox.cif.g08.bks.cpg/sg13_34_cif.got.tgz:66637.got - 2010.06.03 16:44:36.
