data_PCOD9229383
_publ_section_title
;
Structure prediction by ZEFSAII (Michael W. Deem and Ramdas Pophale) SiO2 
 PCOD9229383
Probable space group: P 2/C
;
_chemical_formula_sum "Si O2"
_cell_formula_units_Z 28
_cell_length_a 16.726031
_cell_length_b 7.259583
_cell_length_c 17.734406
_cell_angle_alpha 90.000000
_cell_angle_beta 145.352015
_cell_angle_gamma 90.000000
_cell_volume 1224.268951
_symmetry_space_group_name_H-M "P 2/C"
_symmetry_group_IT_number 13
_symmetry_cell_setting 'monoclinic'
loop_
_space_group_symop_operation_xyz
x,y,z
-x,y,1/2-z
-x,-y,-z
x,-y,1/2+z
loop_
_atom_site_type_symbol
_atom_site_label
_atom_site_fract_x
_atom_site_fract_y
_atom_site_fract_z
Si Si1 0.336177 0.396710 0.112845
Si Si2 0.145220 0.730464 0.600413
Si Si3 0.358583 0.828035 0.427365
Si Si4 0.836425 0.916544 0.103729
Si Si5 0.274020 0.200721 0.601844
Si Si6 0.855855 0.347051 0.839470
Si Si7 0.391103 0.040403 0.308240
O O1 0.500000 0.352389 0.250000
O O2 0.261422 0.343463 0.132947
O O3 0.321825 0.617741 0.094034
O O4 0.244443 0.272263 0.984398
O O5 0.112717 0.564745 0.631596
O O6 0.230472 0.898588 0.700414
O O7 0.002009 0.762879 0.444186
O O8 0.258232 0.967265 0.396423
O O9 0.250316 0.677835 0.311869
O O10 0.494491 0.802230 0.585838
O O11 0.422457 0.892097 0.396976
O O12 0.000000 0.890950 0.250000
O O13 0.816454 0.069003 0.022763
O O14 0.200746 0.277695 0.622331
O O15 0.390370 0.062666 0.728103
#
# Coordination Sequence:
#
# PCOD9229383 Si02
#       7
#     4   4   4   4   4   4   4
#     4  11  24  42  67  95 129 176 223 274 330 398
#     4  10  19  39  68  92 124 176 220 269 316 395
#     4  10  23  38  57  97 129 165 210 277 326 379
#     4  12  26  42  65  97 138 171 215 279 342 395
#     4  10  24  42  69  96 127 181 225 266 331 409
#     4   9  21  40  65  96 130 168 229 266 322 392
#     4  10  21  40  66  88 129 170 219 268 321 392
#
# _framework density 22.87079
#
# number of rings (size 3 to 8) (size 9 to 14) (size 15 to 20)
#    0.000    1.714    1.429    1.714    4.000    2.286 
#    2.571    0.000    0.000    0.000    0.000    0.000 
#    0.000    0.000    0.000    0.000    0.000    0.000 
#
# Total GULP energy -155904.932248 kJ/mol
# GULP energy per Si atom -5568.033295 kJ/mol
# Density = 2.281874 g / cm^3
# Si number density = 22.870790 Si / 1000 Ang^3
#
#
#
# Elastic Constant Matrix: (Units=GPa)
#
#
# Indices 1 2 3 4 5 6 
#
# 1 67.6343 9.0619 34.5899 0.0000 1.2375 0.0000
# 2 9.0619 89.8448 62.6868 0.0000 -15.5833 0.0000
# 3 34.5899 62.6868 178.4624 0.0000 -2.0225 0.0000
# 4 0.0000 0.0000 0.0000 24.5454 0.0000 -0.2334
# 5 1.2375 -15.5833 -2.0225 0.0000 36.0421 0.0000
# 6 0.0000 0.0000 0.0000 -0.2334 0.0000 21.5671
#
#
#
# Elastic Compliance Matrix: (Units=1/GPa)
#
#
# Indices 1 2 3 4 5 6 
#
# 1 0.016458 0.000644 -0.003422 0.000000 -0.000478 0.000000
# 2 0.000644 0.016237 -0.005753 0.000000 0.006675 0.000000
# 3 -0.003422 -0.005753 0.008266 0.000000 -0.001906 0.000000
# 4 0.000000 0.000000 0.000000 0.040745 0.000000 0.000441
# 5 -0.000478 0.006675 -0.001906 0.000000 0.030541 0.000000
# 6 0.000000 0.000000 0.000000 0.000441 0.000000 0.046372
#
#
# Mechanical properties :
#
#
# Convention : Reuss Voigt Hill
#
# Bulk Modulus (GPa) = 41.84005 60.95766 51.39885
# Shear Modulus (GPa) = 27.22651 31.73777 29.48214
#
# Velocity S-wave (km/s) = 3.45403 3.72922 3.59426
# Velocity P-wave (km/s) = 5.85157 6.72709 6.30455
#
# Compressibility (1/GPa) = 0.02390055
#
# Stress axis : x y z
#
# Youngs Moduli (GPa) = 60.76176 61.58829 120.98215
#
# Poissons Ratio (x) = -0.03969 0.41396
# Poissons Ratio (y) = -0.03916 0.69596
# Poissons Ratio (z) = 0.20791 0.35429
#
# Static dielectric constant tensor:
#      x y z
#    x 1.946850 0.000000 0.002760 
#    y 0.000000 1.972260 0.000000 
#    z 0.002760 0.000000 1.925570 
# 
# From -- ./inp_files/80876.got.cif
#   From: 2010.05.17/outbox.cif.g08.bks.cpg/sg13_41_cif.got.tgz:80876.got - 2010.06.03 16:44:36.
