data_PCOD9229414
_publ_section_title
;
Structure prediction by ZEFSAII (Michael W. Deem and Ramdas Pophale) SiO2 
 PCOD9229414
Probable space group: P 2/C
;
_chemical_formula_sum "Si O2"
_cell_formula_units_Z 26
_cell_length_a 14.353451
_cell_length_b 7.875517
_cell_length_c 13.373188
_cell_angle_alpha 90.000000
_cell_angle_beta 46.374468
_cell_angle_gamma 90.000000
_cell_volume 1094.277885
_symmetry_space_group_name_H-M "P 2/C"
_symmetry_group_IT_number 13
_symmetry_cell_setting 'monoclinic'
loop_
_space_group_symop_operation_xyz
x,y,z
-x,y,1/2-z
-x,-y,-z
x,-y,1/2+z
loop_
_atom_site_type_symbol
_atom_site_label
_atom_site_fract_x
_atom_site_fract_y
_atom_site_fract_z
Si Si1 0.734461 0.934859 0.209822
Si Si2 0.356061 0.443812 0.208953
Si Si3 0.349411 0.217171 0.378827
Si Si4 0.533084 0.249419 0.552531
Si Si5 0.245236 0.012048 0.088089
Si Si6 0.000000 0.168647 0.750000
Si Si7 0.101081 0.622473 0.366997
O O1 0.589803 0.872175 0.344695
O O2 0.832725 0.778731 0.119779
O O3 0.714744 0.064580 0.135628
O O4 0.783115 0.028430 0.273466
O O5 0.305980 0.385187 0.354494
O O6 0.472834 0.575540 0.137190
O O7 0.231378 0.516982 0.244772
O O8 0.416963 0.296081 0.095443
O O9 0.500000 0.211375 0.250000
O O10 0.317913 0.169485 0.514867
O O11 0.655382 0.160218 0.514218
O O12 0.111228 0.963574 0.138996
O O13 0.039041 0.288713 0.814733
O O14 0.000000 0.500000 0.500000
#
# Coordination Sequence:
#
# PCOD9229414 Si02
#       7
#     4   4   4   4   4   2   4
#     4  10  21  41  66  92 131 169 215 279 330 396
#     4  10  22  38  65  99 132 171 213 281 351 388
#     4  12  22  38  66 102 127 172 221 271 339 408
#     4  10  19  40  64  92 129 167 209 279 345 390
#     4  11  21  40  68  91 131 172 227 268 328 397
#     4  10  24  44  68  94 124 190 232 266 326 412
#     4  10  22  46  64  92 137 175 222 276 331 389
#
# _framework density 23.759962000000002
#
# number of rings (size 3 to 8) (size 9 to 14) (size 15 to 20)
#    0.000    1.538    3.077    2.308    0.000    1.231 
#   11.077    2.308    0.000    0.000    0.000    0.000 
#    0.000    0.000    0.000    0.000    0.000    0.000 
#
# Total GULP energy -144967.390359 kJ/mol
# GULP energy per Si atom -5575.668860 kJ/mol
# Density = 2.370588 g / cm^3
# Si number density = 23.759962 Si / 1000 Ang^3
#
#
#
# Elastic Constant Matrix: (Units=GPa)
#
#
# Indices 1 2 3 4 5 6 
#
# 1 117.3008 51.7541 41.1816 0.0000 -19.2233 0.0000
# 2 51.7541 97.1604 38.1997 0.0000 -16.0994 0.0000
# 3 41.1816 38.1997 92.0633 0.0000 -26.2653 0.0000
# 4 0.0000 0.0000 0.0000 38.6437 0.0000 -6.4360
# 5 -19.2233 -16.0994 -26.2653 0.0000 39.5345 0.0000
# 6 0.0000 0.0000 0.0000 -6.4360 0.0000 49.7353
#
#
#
# Elastic Compliance Matrix: (Units=1/GPa)
#
#
# Indices 1 2 3 4 5 6 
#
# 1 0.012015 -0.004995 -0.002734 0.000000 0.001992 0.000000
# 2 -0.004995 0.014504 -0.003445 0.000000 0.001189 0.000000
# 3 -0.002734 -0.003445 0.015713 0.000000 0.007707 0.000000
# 4 0.000000 0.000000 0.000000 0.026447 0.000000 0.003422
# 5 0.001992 0.001189 0.007707 0.000000 0.031868 0.000000
# 6 0.000000 0.000000 0.000000 0.003422 0.000000 0.020549
#
#
# Mechanical properties :
#
#
# Convention : Reuss Voigt Hill
#
# Bulk Modulus (GPa) = 50.28746 63.19948 56.74347
# Shear Modulus (GPa) = 33.31724 37.27529 35.29627
#
# Velocity S-wave (km/s) = 3.74872 3.96514 3.85845
# Velocity P-wave (km/s) = 6.32043 6.90073 6.61694
#
# Compressibility (1/GPa) = 0.01988567
#
# Stress axis : x y z
#
# Youngs Moduli (GPa) = 83.22785 68.94466 63.64162
#
# Poissons Ratio (x) = 0.34440 0.17397
# Poissons Ratio (y) = 0.41575 0.21922
# Poissons Ratio (z) = 0.22752 0.23748
#
# Static dielectric constant tensor:
#      x y z
#    x 1.957180 0.000000 0.021800 
#    y 0.000000 1.971420 0.000000 
#    z 0.021800 0.000000 1.951840 
# 
# From -- ./inp_files/53307.got.cif
#   From: 2010.05.17/outbox.cif.g08.bks.cpg/sg13_27_cif.got.tgz:53307.got - 2010.06.03 16:44:36.
