data_PCOD9229819
_publ_section_title
;
Structure prediction by ZEFSAII (Michael W. Deem and Ramdas Pophale) SiO2 
 PCOD9229819
Probable space group: P 2/C
;
_chemical_formula_sum "Si O2"
_cell_formula_units_Z 28
_cell_length_a 11.925578
_cell_length_b 14.460580
_cell_length_c 9.426226
_cell_angle_alpha 90.000000
_cell_angle_beta 126.493017
_cell_angle_gamma 90.000000
_cell_volume 1306.835374
_symmetry_space_group_name_H-M "P 2/C"
_symmetry_group_IT_number 13
_symmetry_cell_setting 'monoclinic'
loop_
_space_group_symop_operation_xyz
x,y,z
-x,y,1/2-z
-x,-y,-z
x,-y,1/2+z
loop_
_atom_site_type_symbol
_atom_site_label
_atom_site_fract_x
_atom_site_fract_y
_atom_site_fract_z
Si Si1 0.643512 0.141593 0.770771
Si Si2 0.815586 0.532782 0.869704
Si Si3 0.000000 0.031761 0.750000
Si Si4 0.544384 0.646837 0.621635
Si Si5 0.000000 0.468237 0.750000
Si Si6 0.643512 0.358408 0.770771
Si Si7 0.184414 0.967218 0.630296
Si Si8 0.455616 0.146837 0.378365
O O1 0.500000 0.124424 0.750000
O O2 0.681536 0.250000 0.816001
O O3 0.765156 0.068272 0.888546
O O4 0.590184 0.122471 0.571348
O O5 0.677051 0.582498 0.711676
O O6 0.765156 0.431728 0.888547
O O7 0.915498 0.522813 0.808696
O O8 0.889085 0.581665 0.061073
O O9 0.084503 0.977186 0.691305
O O10 0.889086 0.081664 0.561074
O O11 0.500000 0.647759 0.750000
O O12 0.409816 0.622471 0.428652
O O13 0.584871 0.750000 0.604173
O O14 0.500000 0.375576 0.750000
O O15 0.322949 0.917501 0.788322
O O16 0.500000 0.147759 0.250000
#
# Coordination Sequence:
#
# PCOD9229819 Si02
#       8
#     4   4   2   4   2   4   4   4
#     4  10  20  34  57  85 106 131 171 219 273 320
#     4  11  20  39  54  75 110 143 174 220 256 301
#     4  10  24  36  54  76 104 148 192 204 242 318
#     4  10  20  34  57  85 106 131 171 219 273 320
#     4  10  24  36  54  76 104 148 192 204 242 318
#     4  10  20  34  57  85 106 131 171 219 273 320
#     4  11  20  39  54  75 110 143 174 220 256 301
#     4  10  20  34  57  85 106 131 171 219 273 320
#
# _framework density 21.425805
#
# number of rings (size 3 to 8) (size 9 to 14) (size 15 to 20)
#    0.000    1.714    0.000    5.143    0.000    0.000 
#    0.000    8.571    0.000    0.000    0.000    0.000 
#    0.000    0.000    0.000    0.000    0.000    0.000 
#
# Total GULP energy -156138.846648 kJ/mol
# GULP energy per Si atom -5576.387380 kJ/mol
# Density = 2.137704 g / cm^3
# Si number density = 21.425805 Si / 1000 Ang^3
#
#
#
# Elastic Constant Matrix: (Units=GPa)
#
#
# Indices 1 2 3 4 5 6 
#
# 1 92.3052 26.7435 2.6152 0.0000 -4.0412 0.0000
# 2 26.7435 68.9581 8.6459 0.0000 20.8493 0.0000
# 3 2.6152 8.6459 77.5527 0.0000 -21.7827 0.0000
# 4 0.0000 0.0000 0.0000 14.6309 0.0000 -11.5774
# 5 -4.0412 20.8493 -21.7827 0.0000 31.6844 0.0000
# 6 0.0000 0.0000 0.0000 -11.5774 0.0000 -0.0775
#
#
#
# Elastic Compliance Matrix: (Units=1/GPa)
#
#
# Indices 1 2 3 4 5 6 
#
# 1 0.013653 -0.008595 0.003192 0.000000 0.009592 0.000000
# 2 -0.008595 0.026779 -0.009856 0.000000 -0.025494 0.000000
# 3 0.003192 -0.009856 0.019608 0.000000 0.020373 0.000000
# 4 0.000000 0.000000 0.000000 0.000574 0.000000 -0.085650
# 5 0.009592 -0.025494 0.020373 0.000000 0.063567 0.000000
# 6 0.000000 0.000000 0.000000 -0.085650 0.000000 -0.108240
#
#
# Mechanical properties :
#
#
# Convention : Reuss Voigt Hill
#
# Bulk Modulus (GPa) = 33.87412 34.98057 34.42734
# Shear Modulus (GPa) = 88.80926 22.63497 55.72212
#
# Velocity S-wave (km/s) = 6.44513 3.25381 5.10524
# Velocity P-wave (km/s) = 8.43982 5.52071 7.13122
#
# Compressibility (1/GPa) = 0.02952106
#
# Stress axis : x y z
#
# Youngs Moduli (GPa) = 73.24135 37.34302 50.99969
#
# Poissons Ratio (x) = 0.32098 -0.16279
# Poissons Ratio (y) = 0.62954 0.50266
# Poissons Ratio (z) = -0.23379 0.36806
#
# Static dielectric constant tensor:
#      x y z
#    x 1.783180 0.000000 0.004420 
#    y 0.000000 1.825280 0.000000 
#    z 0.004420 0.000000 1.868190 
# 
# From -- ./inp_files/16693.got.cif
#   From: 2010.05.17/outbox.cif.g08.bks.cpg/sg13_9_cif.got.tgz:16693.got - 2010.06.03 16:44:36.
