data_PCOD9229476
_publ_section_title
;
Structure prediction by ZEFSAII (Michael W. Deem and Ramdas Pophale) SiO2 
 PCOD9229476
Probable space group: P 2/C
;
_chemical_formula_sum "Si O2"
_cell_formula_units_Z 24
_cell_length_a 14.656181
_cell_length_b 8.372863
_cell_length_c 13.636170
_cell_angle_alpha 90.000000
_cell_angle_beta 40.114075
_cell_angle_gamma 90.000000
_cell_volume 1078.159729
_symmetry_space_group_name_H-M "P 2/C"
_symmetry_group_IT_number 13
_symmetry_cell_setting 'monoclinic'
loop_
_space_group_symop_operation_xyz
x,y,z
-x,y,1/2-z
-x,-y,-z
x,-y,1/2+z
loop_
_atom_site_type_symbol
_atom_site_label
_atom_site_fract_x
_atom_site_fract_y
_atom_site_fract_z
Si Si1 0.672482 0.877456 0.295637
Si Si2 0.276735 0.591103 0.526841
Si Si3 0.500000 0.830686 0.250000
Si Si4 0.232437 0.774567 0.766935
Si Si5 0.000000 0.439685 0.750000
Si Si6 0.513885 0.643949 0.567303
Si Si7 0.948677 0.673066 0.083039
O O1 0.577539 0.914210 0.277437
O O2 0.576251 0.790778 0.455142
O O3 0.801613 0.752585 0.168622
O O4 0.729498 0.044041 0.288714
O O5 0.376354 0.719702 0.395032
O O6 0.234459 0.664458 0.668000
O O7 0.127185 0.546992 0.603226
O O8 0.372158 0.431158 0.453857
O O9 0.357597 0.694379 0.729131
O O10 0.082182 0.778878 0.942732
O O11 0.939184 0.341380 0.708778
O O12 0.500000 0.500000 0.500000
O O13 0.000000 0.500000 0.000000
#
# Coordination Sequence:
#
# PCOD9229476 Si02
#       7
#     4   4   2   4   2   4   4
#     4  12  24  46  67  99 145 177 227 286 350 411
#     4  11  24  42  71  99 135 182 232 282 336 407
#     4  12  26  40  70 106 134 180 234 282 346 410
#     4  11  24  44  70  95 138 186 219 286 359 396
#     4  12  24  44  72 110 130 184 244 276 336 414
#     4  10  19  42  68  93 126 181 223 274 335 397
#     4  12  24  46  73  99 138 185 232 285 337 413
#
# _framework density 22.260152000000001
#
# number of rings (size 3 to 8) (size 9 to 14) (size 15 to 20)
#    0.000    0.667    6.667    3.000    2.333    0.000 
#    6.000    0.000    0.000    0.000    0.000    0.000 
#    0.000    0.000    0.000    0.000    0.000    0.000 
#
# Total GULP energy -134075.640064 kJ/mol
# GULP energy per Si atom -5586.485003 kJ/mol
# Density = 2.220949 g / cm^3
# Si number density = 22.260152 Si / 1000 Ang^3
#
#
#
# Elastic Constant Matrix: (Units=GPa)
#
#
# Indices 1 2 3 4 5 6 
#
# 1 90.5974 16.1778 15.1562 0.0000 -12.3668 0.0000
# 2 16.1778 67.4107 -9.5836 0.0000 -0.2767 0.0000
# 3 15.1562 -9.5836 91.8285 0.0000 -18.9993 0.0000
# 4 0.0000 0.0000 0.0000 35.3974 0.0000 -9.3206
# 5 -12.3668 -0.2767 -18.9993 0.0000 41.8775 0.0000
# 6 0.0000 0.0000 0.0000 -9.3206 0.0000 13.2479
#
#
#
# Elastic Compliance Matrix: (Units=1/GPa)
#
#
# Indices 1 2 3 4 5 6 
#
# 1 0.012288 -0.003191 -0.001782 0.000000 0.002799 0.000000
# 2 -0.003191 0.015917 0.002223 0.000000 0.000172 0.000000
# 3 -0.001782 0.002223 0.012482 0.000000 0.005151 0.000000
# 4 0.000000 0.000000 0.000000 0.034674 0.000000 0.024395
# 5 0.002799 0.000172 0.005151 0.000000 0.027044 0.000000
# 6 0.000000 0.000000 0.000000 0.024395 0.000000 0.092647
#
#
# Mechanical properties :
#
#
# Convention : Reuss Voigt Hill
#
# Bulk Modulus (GPa) = 28.41901 32.59307 30.50604
# Shear Modulus (GPa) = 23.55384 33.31033 28.43208
#
# Velocity S-wave (km/s) = 3.25640 3.87254 3.57776
# Velocity P-wave (km/s) = 5.18973 5.88805 5.54989
#
# Compressibility (1/GPa) = 0.03518771
#
# Stress axis : x y z
#
# Youngs Moduli (GPa) = 81.38147 62.82605 80.11668
#
# Poissons Ratio (x) = 0.20046 0.14276
# Poissons Ratio (y) = 0.25967 -0.17812
# Poissons Ratio (z) = 0.14502 -0.13968
#
# Static dielectric constant tensor:
#      x y z
#    x 1.858700 0.000000 -0.007970 
#    y 0.000000 1.830000 0.000000 
#    z -0.007970 0.000000 1.838070 
# 
# From -- ./inp_files/46254.got.cif
#   From: 2010.05.17/outbox.cif.g08.bks.cpg/sg13_24_cif.got.tgz:46254.got - 2010.06.03 16:44:36.
