data_PCOD9229375
_publ_section_title
;
Structure prediction by ZEFSAII (Michael W. Deem and Ramdas Pophale) SiO2 
 PCOD9229375
Probable space group: P 2/C
;
_chemical_formula_sum "Si O2"
_cell_formula_units_Z 24
_cell_length_a 22.252261
_cell_length_b 7.823237
_cell_length_c 17.380715
_cell_angle_alpha 90.000000
_cell_angle_beta 163.073427
_cell_angle_gamma 90.000000
_cell_volume 880.925087
_symmetry_space_group_name_H-M "P 2/C"
_symmetry_group_IT_number 13
_symmetry_cell_setting 'monoclinic'
loop_
_space_group_symop_operation_xyz
x,y,z
-x,y,1/2-z
-x,-y,-z
x,-y,1/2+z
loop_
_atom_site_type_symbol
_atom_site_label
_atom_site_fract_x
_atom_site_fract_y
_atom_site_fract_z
Si Si1 0.354731 0.395100 0.642272
Si Si2 0.101229 0.310848 0.572587
Si Si3 0.322764 0.170766 0.370329
Si Si4 0.330713 0.156392 0.977401
Si Si5 0.041496 0.086307 0.216106
Si Si6 0.709632 0.413313 0.290379
O O1 0.500000 0.451356 0.750000
O O2 0.189825 0.254528 0.410222
O O3 0.268385 0.543860 0.592552
O O4 0.502252 0.287109 0.878074
O O5 0.259828 0.313423 0.837879
O O6 0.112379 0.487572 0.540226
O O7 0.890640 0.235802 0.350685
O O8 0.145720 0.169120 0.561024
O O9 0.300495 0.220606 0.253518
O O10 0.379729 0.985945 0.472635
O O11 0.144758 0.064142 0.794746
O O12 0.500000 0.178804 0.250000
O O13 0.000000 0.023233 0.250000
O O14 0.500000 0.500000 0.000000
#
# Coordination Sequence:
#
# PCOD9229375 Si02
#       6
#     4   4   4   4   4   4
#     4  11  18  36  64  95 128 171 214 265 315 399
#     4  11  22  39  68 100 129 175 219 274 322 392
#     4  10  19  39  66  94 130 171 219 262 332 395
#     4  11  22  42  68  93 132 176 223 268 332 380
#     4  11  19  36  66  97 126 164 226 255 324 403
#     4  10  23  38  62 100 128 168 219 267 329 389
#
# _framework density 27.244087
#
# number of rings (size 3 to 8) (size 9 to 14) (size 15 to 20)
#    0.000    1.333    6.667    2.500    0.000    0.000 
#    0.000   15.000    3.667    0.000    4.333    0.000 
#    0.000    0.000    0.000    0.000    0.000    0.000 
#
# Total GULP energy -134274.027971 kJ/mol
# GULP energy per Si atom -5594.751165 kJ/mol
# Density = 2.718208 g / cm^3
# Si number density = 27.244087 Si / 1000 Ang^3
#
#
#
# Elastic Constant Matrix: (Units=GPa)
#
#
# Indices 1 2 3 4 5 6 
#
# 1 183.8604 57.2996 32.8206 0.0000 -34.0392 0.0000
# 2 57.2996 65.2965 12.3403 0.0000 -5.5757 0.0000
# 3 32.8206 12.3403 106.7290 0.0000 -27.8078 0.0000
# 4 0.0000 0.0000 0.0000 29.9497 0.0000 -8.8869
# 5 -34.0392 -5.5757 -27.8078 0.0000 43.8401 0.0000
# 6 0.0000 0.0000 0.0000 -8.8869 0.0000 48.2514
#
#
#
# Elastic Compliance Matrix: (Units=1/GPa)
#
#
# Indices 1 2 3 4 5 6 
#
# 1 0.008787 -0.007152 -0.000401 0.000000 0.005659 0.000000
# 2 -0.007152 0.021515 -0.001225 0.000000 -0.003593 0.000000
# 3 -0.000401 -0.001225 0.011396 0.000000 0.006762 0.000000
# 4 0.000000 0.000000 0.000000 0.035320 0.000000 0.006505
# 5 0.005659 -0.003593 0.006762 0.000000 0.031036 0.000000
# 6 0.000000 0.000000 0.000000 0.006505 0.000000 0.021923
#
#
# Mechanical properties :
#
#
# Convention : Reuss Voigt Hill
#
# Bulk Modulus (GPa) = 41.41860 62.31189 51.86525
# Shear Modulus (GPa) = 32.13805 41.30329 36.72067
#
# Velocity S-wave (km/s) = 3.43831 3.89787 3.67528
# Velocity P-wave (km/s) = 5.56762 6.57109 6.09006
#
# Compressibility (1/GPa) = 0.02414374
#
# Stress axis : x y z
#
# Youngs Moduli (GPa) = 113.80523 46.47856 87.74946
#
# Poissons Ratio (x) = 0.33241 0.03517
# Poissons Ratio (y) = 0.81392 0.10746
# Poissons Ratio (z) = 0.04562 0.05692
#
# Static dielectric constant tensor:
#      x y z
#    x 2.176170 0.000000 0.061450 
#    y 0.000000 2.160070 0.000000 
#    z 0.061450 0.000000 2.153160 
# 
# From -- ./inp_files/71330.got.cif
#   From: 2010.05.17/outbox.cif.g08.bks.cpg/sg13_36_cif.got.tgz:71330.got - 2010.06.03 16:44:36.
