data_PCOD9229285
_publ_section_title
;
Structure prediction by ZEFSAII (Michael W. Deem and Ramdas Pophale) SiO2 
 PCOD9229285
Probable space group: P 2/C
;
_chemical_formula_sum "Si O2"
_cell_formula_units_Z 20
_cell_length_a 5.007267
_cell_length_b 13.660631
_cell_length_c 13.498861
_cell_angle_alpha 90.000000
_cell_angle_beta 96.963545
_cell_angle_gamma 90.000000
_cell_volume 916.543716
_symmetry_space_group_name_H-M "P 2/C"
_symmetry_group_IT_number 13
_symmetry_cell_setting 'monoclinic'
loop_
_space_group_symop_operation_xyz
x,y,z
-x,y,1/2-z
-x,-y,-z
x,-y,1/2+z
loop_
_atom_site_type_symbol
_atom_site_label
_atom_site_fract_x
_atom_site_fract_y
_atom_site_fract_z
Si Si1 0.239226 0.617978 0.551289
Si Si2 0.308031 0.597728 0.084409
Si Si3 0.621318 0.172156 0.363178
Si Si4 0.763739 0.793316 0.314979
Si Si5 0.149662 0.098908 0.473379
O O1 0.404810 0.608718 0.455900
O O2 0.276811 0.515896 0.610671
O O3 0.365056 0.712937 0.607909
O O4 0.925791 0.622322 0.507065
O O5 0.271702 0.677694 0.167005
O O6 0.500000 0.157783 0.250000
O O7 0.437431 0.109117 0.431608
O O8 0.931730 0.142848 0.387932
O O9 0.500000 0.833956 0.250000
O O10 0.818664 0.839837 0.424090
O O11 0.000000 0.811937 0.250000
O O12 0.000000 0.000000 0.500000
#
# Coordination Sequence:
#
# PCOD9229285 Si02
#       5
#     4   4   4   4   4
#     4  10  19  38  65  95 132 178 217 265 327 400
#     4  10  20  37  64  94 136 178 217 263 328 397
#     4  12  24  44  73 101 132 176 227 279 343 409
#     4  12  24  41  68  98 133 180 227 276 339 408
#     4  12  27  48  68  96 136 176 226 292 346 396
#
# _framework density 21.821107999999999
#
# number of rings (size 3 to 8) (size 9 to 14) (size 15 to 20)
#    0.000    0.800    4.000    3.600    0.000    3.200 
#    0.000    2.000    0.000    0.000    0.000    0.000 
#    0.000    0.000    0.000    0.000    0.000    0.000 
#
# Total GULP energy -111753.498663 kJ/mol
# GULP energy per Si atom -5587.674933 kJ/mol
# Density = 2.177144 g / cm^3
# Si number density = 21.821108 Si / 1000 Ang^3
#
#
#
# Elastic Constant Matrix: (Units=GPa)
#
#
# Indices 1 2 3 4 5 6 
#
# 1 109.9257 3.7159 8.0141 0.0000 2.1415 0.0000
# 2 3.7159 78.6666 5.2574 0.0000 5.7544 0.0000
# 3 8.0141 5.2574 68.3519 0.0000 15.9258 0.0000
# 4 0.0000 0.0000 0.0000 -6.2818 0.0000 -1.6844
# 5 2.1415 5.7544 15.9258 0.0000 35.2056 0.0000
# 6 0.0000 0.0000 0.0000 -1.6844 0.0000 34.5122
#
#
#
# Elastic Compliance Matrix: (Units=1/GPa)
#
#
# Indices 1 2 3 4 5 6 
#
# 1 0.009186 -0.000362 -0.001043 0.000000 -0.000028 0.000000
# 2 -0.000362 0.012899 -0.000518 0.000000 -0.001852 0.000000
# 3 -0.001043 -0.000518 0.016496 0.000000 -0.007314 0.000000
# 4 0.000000 0.000000 0.000000 -0.157134 0.000000 -0.007669
# 5 -0.000028 -0.001852 -0.007314 0.000000 0.032018 0.000000
# 6 0.000000 0.000000 0.000000 -0.007669 0.000000 0.028601
#
#
# Mechanical properties :
#
#
# Convention : Reuss Voigt Hill
#
# Bulk Modulus (GPa) = 28.78909 32.32433 30.55671
# Shear Modulus (GPa) = -117.62244 28.68431 -44.46907
#
# Velocity S-wave (km/s) = -7.34984 3.62957 -4.51920
# Velocity P-wave (km/s) = 7.66844 5.69302 3.63280
#
# Compressibility (1/GPa) = 0.03473538
#
# Stress axis : x y z
#
# Youngs Moduli (GPa) = 108.86303 77.52488 60.61892
#
# Poissons Ratio (x) = 0.02808 0.06321
# Poissons Ratio (y) = 0.03943 0.03141
# Poissons Ratio (z) = 0.11351 0.04017
#
# Static dielectric constant tensor:
#      x y z
#    x 1.759260 0.000000 0.017390 
#    y 0.000000 1.845240 0.000000 
#    z 0.017390 0.000000 1.746130 
# 
# From -- ./inp_files/26102.got.cif
#   From: 2010.05.17/outbox.cif.g08.bks.cpg/sg13_14_cif.got.tgz:26102.got - 2010.06.03 16:44:36.
