data_PCOD9229077
_publ_section_title
;
Structure prediction by ZEFSAII (Michael W. Deem and Ramdas Pophale) SiO2 
 PCOD9229077
Probable space group: P 2/C
;
_chemical_formula_sum "Si O2"
_cell_formula_units_Z 32
_cell_length_a 8.738832
_cell_length_b 14.706825
_cell_length_c 14.440124
_cell_angle_alpha 90.000000
_cell_angle_beta 118.401874
_cell_angle_gamma 90.000000
_cell_volume 1632.468310
_symmetry_space_group_name_H-M "P 2/C"
_symmetry_group_IT_number 13
_symmetry_cell_setting 'monoclinic'
loop_
_space_group_symop_operation_xyz
x,y,z
-x,y,1/2-z
-x,-y,-z
x,-y,1/2+z
loop_
_atom_site_type_symbol
_atom_site_label
_atom_site_fract_x
_atom_site_fract_y
_atom_site_fract_z
Si Si1 0.693527 0.357380 0.495978
Si Si2 0.313503 0.578339 0.703094
Si Si3 0.960574 0.215647 0.638631
Si Si4 0.349517 0.876035 0.975651
Si Si5 0.693508 0.150124 0.823785
Si Si6 0.729424 0.939829 0.136001
Si Si7 0.050349 0.482560 0.371458
Si Si8 0.306832 0.331659 0.404173
O O1 0.670322 0.355455 0.379178
O O2 0.801802 0.269322 0.551687
O O3 0.813819 0.441695 0.558707
O O4 0.503302 0.362233 0.487295
O O5 0.500000 0.526939 0.750000
O O6 0.290112 0.633811 0.792217
O O7 0.139219 0.520150 0.636467
O O8 0.890316 0.114204 0.638076
O O9 0.000000 0.257740 0.750000
O O10 0.141832 0.216328 0.637530
O O11 0.304083 0.775797 0.924468
O O12 0.267626 0.954833 0.889163
O O13 0.298582 0.886857 0.069518
O O14 0.556465 0.896057 0.039596
O O15 0.500000 0.190333 0.750000
O O16 0.715820 0.081631 0.742272
O O17 0.152491 0.386607 0.409832
O O18 0.000000 0.497915 0.250000
#
# Coordination Sequence:
#
# PCOD9229077 Si02
#       8
#     4   4   4   4   4   4   4   4
#     4  11  20  37  60  86 113 162 197 237 304 355
#     4   9  21  39  55  81 122 153 198 252 285 346
#     4  10  20  36  57  83 120 153 195 249 293 351
#     4  10  19  37  61  85 116 158 193 240 306 349
#     4   9  20  37  56  84 121 153 196 253 288 349
#     4   9  19  38  58  84 119 153 194 245 292 356
#     4  10  21  38  59  85 119 155 196 247 295 355
#     4  10  21  38  60  87 121 154 195 250 297 353
#
# _framework density 19.602217
#
# number of rings (size 3 to 8) (size 9 to 14) (size 15 to 20)
#    0.000    2.250    1.250    1.125    1.750    0.500 
#    2.250    8.125    0.000    0.000    0.000    0.000 
#    0.000    0.000    0.000    0.000    0.000    0.000 
#
# Total GULP energy -178170.352086 kJ/mol
# GULP energy per Si atom -5567.823503 kJ/mol
# Density = 1.955760 g / cm^3
# Si number density = 19.602217 Si / 1000 Ang^3
#
#
#
# Elastic Constant Matrix: (Units=GPa)
#
#
# Indices 1 2 3 4 5 6 
#
# 1 113.6504 24.2183 17.3522 0.0000 29.8385 0.0000
# 2 24.2183 100.8404 18.6231 0.0000 17.2956 0.0000
# 3 17.3522 18.6231 49.3212 0.0000 18.6496 0.0000
# 4 0.0000 0.0000 0.0000 12.4569 0.0000 14.5110
# 5 29.8385 17.2956 18.6496 0.0000 26.8156 0.0000
# 6 0.0000 0.0000 0.0000 14.5110 0.0000 -26.3391
#
#
#
# Elastic Compliance Matrix: (Units=1/GPa)
#
#
# Indices 1 2 3 4 5 6 
#
# 1 0.012535 -0.000792 0.001316 0.000000 -0.014353 0.000000
# 2 -0.000792 0.011351 -0.002133 0.000000 -0.004956 0.000000
# 3 0.001316 -0.002133 0.028020 0.000000 -0.019576 0.000000
# 4 0.000000 0.000000 0.000000 0.048896 0.000000 0.026938
# 5 -0.014353 -0.004956 -0.019576 0.000000 0.070073 0.000000
# 6 0.000000 0.000000 0.000000 0.026938 0.000000 -0.023125
#
#
# Mechanical properties :
#
#
# Convention : Reuss Voigt Hill
#
# Bulk Modulus (GPa) = 20.53914 42.68879 31.61397
# Shear Modulus (GPa) = 29.90480 16.16125 23.03302
#
# Velocity S-wave (km/s) = 3.91011 2.87446 3.43158
# Velocity P-wave (km/s) = 5.55751 5.73075 5.64480
#
# Compressibility (1/GPa) = 0.04868753
#
# Stress axis : x y z
#
# Youngs Moduli (GPa) = 79.77713 88.09885 35.68905
#
# Poissons Ratio (x) = 0.06976 -0.04697
# Poissons Ratio (y) = 0.06317 0.07613
# Poissons Ratio (z) = -0.10499 0.18793
#
# Static dielectric constant tensor:
#      x y z
#    x 1.691660 0.000000 -0.019010 
#    y 0.000000 1.679300 0.000000 
#    z -0.019010 0.000000 1.713740 
# 
# From -- ./inp_files/47696.got.cif
#   From: 2010.05.17/outbox.cif.g08.bks.cpg/sg13_24_cif.got.tgz:47696.got - 2010.06.03 16:44:36.
