data_PCOD9229397
_publ_section_title
;
Structure prediction by ZEFSAII (Michael W. Deem and Ramdas Pophale) SiO2 
 PCOD9229397
Probable space group: P 2/C
;
_chemical_formula_sum "Si O2"
_cell_formula_units_Z 30
_cell_length_a 11.044670
_cell_length_b 9.081269
_cell_length_c 17.271297
_cell_angle_alpha 90.000000
_cell_angle_beta 121.427692
_cell_angle_gamma 90.000000
_cell_volume 1478.173510
_symmetry_space_group_name_H-M "P 2/C"
_symmetry_group_IT_number 13
_symmetry_cell_setting 'monoclinic'
loop_
_space_group_symop_operation_xyz
x,y,z
-x,y,1/2-z
-x,-y,-z
x,-y,1/2+z
loop_
_atom_site_type_symbol
_atom_site_label
_atom_site_fract_x
_atom_site_fract_y
_atom_site_fract_z
Si Si1 0.688267 0.017537 0.424074
Si Si2 0.720015 0.312673 0.650682
Si Si3 0.310360 0.526838 0.077100
Si Si4 0.883396 0.723393 0.048486
Si Si5 0.500000 0.203020 0.250000
Si Si6 0.618936 0.377310 0.169147
Si Si7 0.782130 0.239119 0.839461
Si Si8 0.596592 0.227162 0.006183
O O1 0.809602 0.130352 0.490152
O O2 0.564231 0.106436 0.339921
O O3 0.741241 0.899210 0.378669
O O4 0.631971 0.928808 0.479968
O O5 0.834524 0.292080 0.621686
O O6 0.712770 0.482778 0.676794
O O7 0.743741 0.220703 0.736794
O O8 0.567675 0.269038 0.563850
O O9 0.457649 0.440031 0.116412
O O10 0.300703 0.620055 0.152609
O O11 0.313905 0.651325 0.011756
O O12 0.183565 0.414756 0.019405
O O13 0.051331 0.730437 0.097919
O O14 0.626318 0.301184 0.255155
O O15 0.631717 0.255125 0.106826
#
# Coordination Sequence:
#
# PCOD9229397 Si02
#       8
#     4   4   4   4   2   4   4   4
#     4  11  25  39  60  92 122 163 202 245 308 363
#     4  11  21  38  65  92 119 153 206 257 308 346
#     4  10  19  40  61  89 112 157 202 245 300 353
#     4  12  22  42  61  85 124 167 204 235 294 376
#     4  12  22  36  60  92 126 150 200 258 316 354
#     4  11  20  38  65  93 122 147 196 268 308 352
#     4  11  25  39  61  87 126 163 201 247 291 359
#     4  10  20  39  64  89 122 151 195 257 310 362
#
# _framework density 20.295317000000001
#
# number of rings (size 3 to 8) (size 9 to 14) (size 15 to 20)
#    0.000    1.067    4.000    3.600    0.000    6.933 
#    0.000    0.000    0.000    0.000    0.000    0.000 
#    0.000    0.000    0.000    0.000    0.000    0.000 
#
# Total GULP energy -167728.141721 kJ/mol
# GULP energy per Si atom -5590.938057 kJ/mol
# Density = 2.024912 g / cm^3
# Si number density = 20.295317 Si / 1000 Ang^3
#
#
#
# Elastic Constant Matrix: (Units=GPa)
#
#
# Indices 1 2 3 4 5 6 
#
# 1 43.7965 20.0345 3.2535 0.0000 -2.5831 0.0000
# 2 20.0345 89.0434 19.0450 0.0000 -11.1555 0.0000
# 3 3.2535 19.0450 56.9953 0.0000 -28.2092 0.0000
# 4 0.0000 0.0000 0.0000 25.9889 0.0000 -9.9514
# 5 -2.5831 -11.1555 -28.2092 0.0000 28.2769 0.0000
# 6 0.0000 0.0000 0.0000 -9.9514 0.0000 19.4653
#
#
#
# Elastic Compliance Matrix: (Units=1/GPa)
#
#
# Indices 1 2 3 4 5 6 
#
# 1 0.025481 -0.005818 0.000999 0.000000 0.001029 0.000000
# 2 -0.005818 0.013454 -0.003555 0.000000 0.001230 0.000000
# 3 0.000999 -0.003555 0.035609 0.000000 0.034213 0.000000
# 4 0.000000 0.000000 0.000000 0.047844 0.000000 0.024459
# 5 0.001029 0.001230 0.034213 0.000000 0.070075 0.000000
# 6 0.000000 0.000000 0.000000 0.024459 0.000000 0.063878
#
#
# Mechanical properties :
#
#
# Convention : Reuss Voigt Hill
#
# Bulk Modulus (GPa) = 17.30216 30.50014 23.90115
# Shear Modulus (GPa) = 17.10258 24.57971 20.84115
#
# Velocity S-wave (km/s) = 2.90605 3.48387 3.20800
# Velocity P-wave (km/s) = 4.45016 5.58962 5.05212
#
# Compressibility (1/GPa) = 0.05779624
#
# Stress axis : x y z
#
# Youngs Moduli (GPa) = 39.24545 74.32809 28.08240
#
# Poissons Ratio (x) = 0.43242 -0.02804
# Poissons Ratio (y) = 0.22832 0.09983
# Poissons Ratio (z) = -0.03919 0.26422
#
# Static dielectric constant tensor:
#      x y z
#    x 1.684350 0.000000 -0.034880 
#    y 0.000000 1.757690 0.000000 
#    z -0.034880 0.000000 1.714100 
# 
# From -- ./inp_files/50481.got.cif
#   From: 2010.05.17/outbox.cif.g08.bks.cpg/sg13_26_cif.got.tgz:50481.got - 2010.06.03 16:44:36.
