data_PCOD9229183
_publ_section_title
;
Structure prediction by ZEFSAII (Michael W. Deem and Ramdas Pophale) SiO2 
 PCOD9229183
Probable space group: P 2/C
;
_chemical_formula_sum "Si O2"
_cell_formula_units_Z 24
_cell_length_a 12.133710
_cell_length_b 17.697702
_cell_length_c 11.804282
_cell_angle_alpha 90.000000
_cell_angle_beta 154.510019
_cell_angle_gamma 90.000000
_cell_volume 1090.875435
_symmetry_space_group_name_H-M "P 2/C"
_symmetry_group_IT_number 13
_symmetry_cell_setting 'monoclinic'
loop_
_space_group_symop_operation_xyz
x,y,z
-x,y,1/2-z
-x,-y,-z
x,-y,1/2+z
loop_
_atom_site_type_symbol
_atom_site_label
_atom_site_fract_x
_atom_site_fract_y
_atom_site_fract_z
Si Si1 0.275557 0.499644 0.693613
Si Si2 0.327089 0.995857 0.683914
Si Si3 0.187598 0.087851 0.272759
Si Si4 0.897820 0.264429 0.280373
Si Si5 0.643065 0.344532 0.686338
Si Si6 0.731413 0.365279 0.507978
O O1 0.311626 0.414050 0.684850
O O2 0.266528 0.562376 0.581640
O O3 0.000000 0.500000 0.500000
O O4 0.500000 0.500000 0.000000
O O5 0.500000 0.955115 0.750000
O O6 0.222208 0.934532 0.673983
O O7 0.449834 0.053144 0.566332
O O8 0.074903 0.047049 0.430027
O O9 0.168491 0.176256 0.275124
O O10 0.000000 0.281418 0.250000
O O11 0.132910 0.285164 0.580610
O O12 0.641854 0.311984 0.068980
O O13 0.687065 0.375043 0.599575
O O14 0.500000 0.315802 0.250000
O O15 0.000000 0.327024 0.750000
#
# Coordination Sequence:
#
# PCOD9229183 Si02
#       6
#     4   4   4   4   4   4
#     4  12  23  43  70  98 126 166 225 294 333 414
#     4  10  19  37  68 103 136 171 233 277 329 379
#     4  10  22  39  66 101 135 183 223 279 325 401
#     4  12  26  46  66  95 144 183 230 275 348 418
#     4  12  26  44  68 101 131 177 228 284 348 423
#     4  12  23  43  70  97 129 165 213 286 346 405
#
# _framework density 22.000681
#
# number of rings (size 3 to 8) (size 9 to 14) (size 15 to 20)
#    0.000    0.667    3.333    5.000    0.000    2.000 
#    0.000    2.500    0.000    2.000    0.000    0.000 
#    0.000    0.000    0.000    0.000    0.000    0.000 
#
# Total GULP energy -133619.103617 kJ/mol
# GULP energy per Si atom -5567.462651 kJ/mol
# Density = 2.195061 g / cm^3
# Si number density = 22.000681 Si / 1000 Ang^3
#
#
#
# Elastic Constant Matrix: (Units=GPa)
#
#
# Indices 1 2 3 4 5 6 
#
# 1 162.7515 26.2843 60.5634 0.0000 28.4634 0.0000
# 2 26.2843 14.6799 13.6802 0.0000 4.1742 0.0000
# 3 60.5634 13.6802 145.2874 0.0000 30.4532 0.0000
# 4 0.0000 0.0000 0.0000 51.3428 0.0000 1.6333
# 5 28.4634 4.1742 30.4532 0.0000 48.6904 0.0000
# 6 0.0000 0.0000 0.0000 1.6333 0.0000 10.2173
#
#
#
# Elastic Compliance Matrix: (Units=1/GPa)
#
#
# Indices 1 2 3 4 5 6 
#
# 1 0.009863 -0.014845 -0.002039 0.000000 -0.003218 0.000000
# 2 -0.014845 0.097241 -0.003498 0.000000 0.002530 0.000000
# 3 -0.002039 -0.003498 0.008919 0.000000 -0.004086 0.000000
# 4 0.000000 0.000000 0.000000 0.019577 0.000000 -0.003130
# 5 -0.003218 0.002530 -0.004086 0.000000 0.024758 0.000000
# 6 0.000000 0.000000 0.000000 -0.003130 0.000000 0.098373
#
#
# Mechanical properties :
#
#
# Convention : Reuss Voigt Hill
#
# Bulk Modulus (GPa) = 13.28755 58.19718 35.74236
# Shear Modulus (GPa) = 15.40439 36.86282 26.13360
#
# Velocity S-wave (km/s) = 2.64896 4.09777 3.45027
# Velocity P-wave (km/s) = 3.92539 6.99277 5.67043
#
# Compressibility (1/GPa) = 0.07525842
#
# Stress axis : x y z
#
# Youngs Moduli (GPa) = 101.38457 10.28369 112.12142
#
# Poissons Ratio (x) = 0.15266 0.22865
# Poissons Ratio (y) = 1.50506 0.39223
# Poissons Ratio (z) = 0.20675 0.03598
#
# Static dielectric constant tensor:
#      x y z
#    x 1.941170 0.000000 -0.076760 
#    y 0.000000 -33.634650 0.000000 
#    z -0.076760 0.000000 1.888500 
# 
# From -- ./inp_files/34788.got.cif
#   From: 2010.05.17/outbox.cif.g08.bks.cpg/sg13_18_cif.got.tgz:34788.got - 2010.06.03 16:44:36.
