data_PCOD9229550
_publ_section_title
;
Structure prediction by ZEFSAII (Michael W. Deem and Ramdas Pophale) SiO2 
 PCOD9229550
Probable space group: P 2/C
;
_chemical_formula_sum "Si O2"
_cell_formula_units_Z 32
_cell_length_a 25.822401
_cell_length_b 13.503595
_cell_length_c 10.109841
_cell_angle_alpha 90.000000
_cell_angle_beta 153.345575
_cell_angle_gamma 90.000000
_cell_volume 1581.457757
_symmetry_space_group_name_H-M "P 2/C"
_symmetry_group_IT_number 13
_symmetry_cell_setting 'monoclinic'
loop_
_space_group_symop_operation_xyz
x,y,z
-x,y,1/2-z
-x,-y,-z
x,-y,1/2+z
loop_
_atom_site_type_symbol
_atom_site_label
_atom_site_fract_x
_atom_site_fract_y
_atom_site_fract_z
Si Si1 0.587259 0.105053 0.572106
Si Si2 0.782964 0.270401 0.987512
Si Si3 0.420568 0.882754 0.940448
Si Si4 0.045821 0.880167 0.715994
Si Si5 0.773644 0.731948 0.934706
Si Si6 0.097130 0.915634 0.358246
Si Si7 0.859606 0.596965 0.906666
Si Si8 0.135499 0.636179 0.092567
O O1 0.506373 0.121701 0.513525
O O2 0.639304 0.992540 0.702268
O O3 0.676774 0.195391 0.764867
O O4 0.500000 0.105357 0.250000
O O5 0.892565 0.198544 0.232689
O O6 0.809769 0.346660 0.165013
O O7 0.788832 0.321033 0.856239
O O8 0.340207 0.786173 0.768885
O O9 0.500000 0.884078 0.250000
O O10 0.000000 0.842567 0.750000
O O11 0.943290 0.915363 0.387664
O O12 0.131787 0.969808 0.952923
O O13 0.787890 0.638818 0.868701
O O14 0.821748 0.821778 0.952578
O O15 0.841412 0.696770 0.220447
O O16 0.000000 0.903694 0.250000
O O17 0.839854 0.480645 0.838785
O O18 0.000000 0.613492 0.250000
O O19 0.000000 0.639204 0.750000
#
# Coordination Sequence:
#
# PCOD9229550 Si02
#       8
#     4   4   4   4   4   4   4   4
#     4  10  22  40  62  90 121 154 197 245 293 350
#     4  12  21  37  63  84 114 156 199 240 293 350
#     4  10  22  40  62  90 121 154 197 245 293 350
#     4  10  20  32  49  80 117 146 177 221 280 352
#     4  12  21  37  63  84 114 156 199 240 293 350
#     4  10  20  32  49  80 117 146 177 221 280 352
#     4  11  24  40  60  88 120 155 198 245 293 351
#     4  11  24  40  60  88 120 155 198 245 293 351
#
# _framework density 20.234497000000001
#
# number of rings (size 3 to 8) (size 9 to 14) (size 15 to 20)
#    0.000    1.250    0.000    7.500    0.000    2.000 
#    0.000   10.000    0.000   17.250    0.000    0.000 
#    0.000    0.000    0.000    0.000    0.000    0.000 
#
# Total GULP energy -178409.918233 kJ/mol
# GULP energy per Si atom -5575.309945 kJ/mol
# Density = 2.018844 g / cm^3
# Si number density = 20.234497 Si / 1000 Ang^3
#
#
#
# Elastic Constant Matrix: (Units=GPa)
#
#
# Indices 1 2 3 4 5 6 
#
# 1 133.7244 39.2457 32.9280 0.0000 -14.9059 0.0000
# 2 39.2457 145.5290 33.7202 0.0000 7.4543 0.0000
# 3 32.9280 33.7202 40.5363 0.0000 -3.7350 0.0000
# 4 0.0000 0.0000 0.0000-3251.1513 0.0000 1690.9124
# 5 -14.9059 7.4543 -3.7350 0.0000 30.9951 0.0000
# 6 0.0000 0.0000 0.0000 1690.9124 0.0000 -830.2685
#
#
#
# Elastic Compliance Matrix: (Units=1/GPa)
#
#
# Indices 1 2 3 4 5 6 
#
# 1 0.009986 -0.001399 -0.006547 0.000000 0.004350 0.000000
# 2 -0.001399 0.008980 -0.006669 0.000000 -0.003636 0.000000
# 3 -0.006547 -0.006669 0.035790 0.000000 0.002768 0.000000
# 4 0.000000 0.000000 0.000000 0.005194 0.000000 0.010578
# 5 0.004350 -0.003636 0.002768 0.000000 0.035563 0.000000
# 6 0.000000 0.000000 0.000000 0.010578 0.000000 0.020338
#
#
# Mechanical properties :
#
#
# Convention : Reuss Voigt Hill
#
# Bulk Modulus (GPa) = 39.17520 59.06416 49.11968
# Shear Modulus (GPa) = 32.55434 -795.82524 -381.63545
#
# Velocity S-wave (km/s) = 4.01540 -19.85334 -13.74830
# Velocity P-wave (km/s) = 6.39536 22.27750 15.08950
#
# Compressibility (1/GPa) = 0.02552635
#
# Stress axis : x y z
#
# Youngs Moduli (GPa) = 100.14495 111.35633 27.94051
#
# Poissons Ratio (x) = 0.15575 0.18293
# Poissons Ratio (y) = 0.14007 0.18634
# Poissons Ratio (z) = 0.65566 0.74264
#
# Static dielectric constant tensor:
#      x y z
#    x 1.716930 0.000000 0.022030 
#    y 0.000000 1.822390 0.000000 
#    z 0.022030 0.000000 1.738740 
# 
# From -- ./inp_files/24253.got.cif
#   From: 2010.05.17/outbox.cif.g08.bks.cpg/sg13_13_cif.got.tgz:24253.got - 2010.06.03 16:44:36.
