data_PCOD9229032
_publ_section_title
;
Structure prediction by ZEFSAII (Michael W. Deem and Ramdas Pophale) SiO2 
 PCOD9229032
Probable space group: P 2/C
;
_chemical_formula_sum "Si O2"
_cell_formula_units_Z 28
_cell_length_a 12.867499
_cell_length_b 5.843985
_cell_length_c 20.148464
_cell_angle_alpha 90.000000
_cell_angle_beta 132.106786
_cell_angle_gamma 90.000000
_cell_volume 1124.057329
_symmetry_space_group_name_H-M "P 2/C"
_symmetry_group_IT_number 13
_symmetry_cell_setting 'monoclinic'
loop_
_space_group_symop_operation_xyz
x,y,z
-x,y,1/2-z
-x,-y,-z
x,-y,1/2+z
loop_
_atom_site_type_symbol
_atom_site_label
_atom_site_fract_x
_atom_site_fract_y
_atom_site_fract_z
Si Si1 0.356377 0.539534 0.088166
Si Si2 0.000000 0.561999 0.750000
Si Si3 0.389005 0.599445 0.860785
Si Si4 0.186894 0.562115 0.644387
Si Si5 0.192637 0.040003 0.670650
Si Si6 0.228824 0.819063 0.915410
Si Si7 0.760836 0.796763 0.165872
Si Si8 0.500000 0.132011 0.750000
O O1 0.453369 0.351304 0.093895
O O2 0.257985 0.439423 0.102595
O O3 0.462231 0.704315 0.172946
O O4 0.279351 0.700002 0.002849
O O5 0.925176 0.721389 0.665159
O O6 0.878670 0.397795 0.722718
O O7 0.295322 0.589505 0.753279
O O8 0.329757 0.744594 0.896733
O O9 0.382722 0.340006 0.887224
O O10 0.134782 0.296269 0.628391
O O11 0.109732 0.809263 0.615366
O O12 0.213450 0.047538 0.759027
O O13 0.350232 0.019969 0.705415
O O14 0.222031 0.087585 0.898140
#
# Coordination Sequence:
#
# PCOD9229032 Si02
#       8
#     4   2   4   4   4   4   4   2
#     4  11  20  38  59  99 136 169 212 257 331 408
#     4  10  24  44  60  90 122 172 232 292 334 372
#     4  10  19  37  57  96 134 168 206 259 330 405
#     4  10  20  37  60  89 135 178 207 246 318 399
#     4  10  20  35  63  89 125 177 215 252 319 395
#     4  11  23  38  66  91 122 171 223 278 331 388
#     4  10  20  39  63  88 123 169 224 276 329 391
#     4  10  20  36  58  94 138 174 200 252 326 410
#
# _framework density 24.909762000000001
#
# number of rings (size 3 to 8) (size 9 to 14) (size 15 to 20)
#    0.000    1.714    5.714    0.857    2.000    0.571 
#   10.286    0.000    0.000   14.571    0.000    0.000 
#    0.000    0.000    0.000    0.000    0.000    0.000 
#
# Total GULP energy -156186.397037 kJ/mol
# GULP energy per Si atom -5578.085608 kJ/mol
# Density = 2.485307 g / cm^3
# Si number density = 24.909762 Si / 1000 Ang^3
#
#
#
# Elastic Constant Matrix: (Units=GPa)
#
#
# Indices 1 2 3 4 5 6 
#
# 1 64.1408 5.8965 6.9664 0.0000 -13.5990 0.0000
# 2 5.8965 122.4591 1.6468 0.0000 -4.7908 0.0000
# 3 6.9664 1.6468 70.1914 0.0000 0.3246 0.0000
# 4 0.0000 0.0000 0.0000 10.9996 0.0000 5.1303
# 5 -13.5990 -4.7908 0.3246 0.0000 19.5101 0.0000
# 6 0.0000 0.0000 0.0000 5.1303 0.0000 35.2187
#
#
#
# Elastic Compliance Matrix: (Units=1/GPa)
#
#
# Indices 1 2 3 4 5 6 
#
# 1 0.018560 -0.000364 -0.001893 0.000000 0.012879 0.000000
# 2 -0.000364 0.008255 -0.000166 0.000000 0.001776 0.000000
# 3 -0.001893 -0.000166 0.014446 0.000000 -0.001601 0.000000
# 4 0.000000 0.000000 0.000000 0.097539 0.000000 -0.014208
# 5 0.012879 0.001776 -0.001601 0.000000 0.060695 0.000000
# 6 0.000000 0.000000 0.000000 -0.014208 0.000000 0.030464
#
#
# Mechanical properties :
#
#
# Convention : Reuss Voigt Hill
#
# Bulk Modulus (GPa) = 27.46110 31.75674 29.60892
# Shear Modulus (GPa) = 20.24743 29.29777 24.77260
#
# Velocity S-wave (km/s) = 2.85411 3.43323 3.15698
# Velocity P-wave (km/s) = 4.68075 5.33784 5.02006
#
# Compressibility (1/GPa) = 0.03641515
#
# Stress axis : x y z
#
# Youngs Moduli (GPa) = 53.87805 121.13513 69.22365
#
# Poissons Ratio (x) = 0.04414 0.13105
# Poissons Ratio (y) = 0.01963 0.01147
# Poissons Ratio (z) = 0.10200 0.02008
#
# Static dielectric constant tensor:
#      x y z
#    x 2.082870 0.000000 0.033110 
#    y 0.000000 2.134870 0.000000 
#    z 0.033110 0.000000 1.884400 
# 
# From -- ./inp_files/79377.got.cif
#   From: 2010.05.17/outbox.cif.g08.bks.cpg/sg13_40_cif.got.tgz:79377.got - 2010.06.03 16:44:36.
