data_PCOD9229944
_publ_section_title
;
Structure prediction by ZEFSAII (Michael W. Deem and Ramdas Pophale) SiO2 
 PCOD9229944
Probable space group: P 2/C
;
_chemical_formula_sum "Si O2"
_cell_formula_units_Z 26
_cell_length_a 19.138172
_cell_length_b 6.609828
_cell_length_c 12.713675
_cell_angle_alpha 90.000000
_cell_angle_beta 126.816867
_cell_angle_gamma 90.000000
_cell_volume 1287.516750
_symmetry_space_group_name_H-M "P 2/C"
_symmetry_group_IT_number 13
_symmetry_cell_setting 'monoclinic'
loop_
_space_group_symop_operation_xyz
x,y,z
-x,y,1/2-z
-x,-y,-z
x,-y,1/2+z
loop_
_atom_site_type_symbol
_atom_site_label
_atom_site_fract_x
_atom_site_fract_y
_atom_site_fract_z
Si Si1 0.553852 0.191492 0.589191
Si Si2 0.869079 0.492874 0.979878
Si Si3 0.246451 0.840198 0.243969
Si Si4 0.554155 0.488818 0.390378
Si Si5 0.000000 0.738618 0.750000
Si Si6 0.861246 0.777459 0.784759
Si Si7 0.249477 0.447502 0.943702
O O1 0.654185 0.139512 0.707628
O O2 0.558547 0.350947 0.497478
O O3 0.498839 0.308745 0.628119
O O4 0.500000 0.000000 0.500000
O O5 0.811923 0.309936 0.879259
O O6 0.899209 0.638832 0.913159
O O7 0.803407 0.607049 0.999736
O O8 0.944676 0.401528 0.120644
O O9 0.252292 0.735977 0.364178
O O10 0.196362 0.049121 0.215104
O O11 0.500000 0.381316 0.250000
O O12 0.653034 0.520089 0.443713
O O13 0.934397 0.856006 0.768803
O O14 0.800327 0.629053 0.660892
#
# Coordination Sequence:
#
# PCOD9229944 Si02
#       7
#     4   4   4   4   2   4   4
#     4  10  21  36  55  82 116 151 192 235 275 329
#     4  10  21  39  61  83 111 146 186 233 285 344
#     4  10  21  37  58  84 112 151 191 228 285 339
#     4  10  20  35  55  81 113 150 190 233 278 327
#     4  10  22  40  60  86 114 144 184 236 296 346
#     4  10  21  39  60  82 112 146 186 234 284 344
#     4   9  20  37  56  81 114 148 186 233 282 332
#
# _framework density 20.193911
#
# number of rings (size 3 to 8) (size 9 to 14) (size 15 to 20)
#    0.000    2.154    0.000    2.308    0.000    7.385 
#    0.000   12.308    0.000    0.000    0.000    0.000 
#    0.000    0.000    0.000    0.000    0.000    0.000 
#
# Total GULP energy -145096.924962 kJ/mol
# GULP energy per Si atom -5580.650960 kJ/mol
# Density = 2.014795 g / cm^3
# Si number density = 20.193911 Si / 1000 Ang^3
#
#
#
# Elastic Constant Matrix: (Units=GPa)
#
#
# Indices 1 2 3 4 5 6 
#
# 1 89.1534 4.4053 28.3457 0.0000 8.3733 0.0000
# 2 4.4053 50.0480 5.3410 0.0000 9.8860 0.0000
# 3 28.3457 5.3410 99.4753 0.0000 4.2983 0.0000
# 4 0.0000 0.0000 0.0000 -29.9909 0.0000 10.4759
# 5 8.3733 9.8860 4.2983 0.0000 27.4549 0.0000
# 6 0.0000 0.0000 0.0000 10.4759 0.0000 19.6694
#
#
#
# Elastic Compliance Matrix: (Units=1/GPa)
#
#
# Indices 1 2 3 4 5 6 
#
# 1 0.012626 -0.000096 -0.003451 0.000000 -0.003276 0.000000
# 2 -0.000096 0.021579 -0.000802 0.000000 -0.007615 0.000000
# 3 -0.003451 -0.000802 0.011096 0.000000 -0.000396 0.000000
# 4 0.000000 0.000000 0.000000 -0.028113 0.000000 0.014973
# 5 -0.003276 -0.007615 -0.000396 0.000000 0.040227 0.000000
# 6 0.000000 0.000000 0.000000 0.014973 0.000000 0.042866
#
#
# Mechanical properties :
#
#
# Convention : Reuss Voigt Hill
#
# Bulk Modulus (GPa) = 27.32013 34.98452 31.15233
# Shear Modulus (GPa) = 41.26070 16.79899 29.02984
#
# Velocity S-wave (km/s) = 4.52511 2.88737 3.79562
# Velocity P-wave (km/s) = 6.39221 5.33646 5.88805
#
# Compressibility (1/GPa) = 0.03660305
#
# Stress axis : x y z
#
# Youngs Moduli (GPa) = 79.19954 46.34106 90.11979
#
# Poissons Ratio (x) = 0.00445 0.31102
# Poissons Ratio (y) = 0.00760 0.07230
# Poissons Ratio (z) = 0.27333 0.03718
#
# Static dielectric constant tensor:
#      x y z
#    x 1.784020 0.000000 -0.081470 
#    y 0.000000 1.681390 0.000000 
#    z -0.081470 0.000000 1.931890 
# 
# From -- ./inp_files/56269.got.cif
#   From: 2010.05.17/outbox.cif.g08.bks.cpg/sg13_29_cif.got.tgz:56269.got - 2010.06.03 16:44:36.
