data_PCOD9229497
_publ_section_title
;
Structure prediction by ZEFSAII (Michael W. Deem and Ramdas Pophale) SiO2 
 PCOD9229497
Probable space group: P 2/C
;
_chemical_formula_sum "Si O2"
_cell_formula_units_Z 30
_cell_length_a 15.229765
_cell_length_b 21.643436
_cell_length_c 15.035279
_cell_angle_alpha 90.000000
_cell_angle_beta 161.399164
_cell_angle_gamma 90.000000
_cell_volume 1580.829431
_symmetry_space_group_name_H-M "P 2/C"
_symmetry_group_IT_number 13
_symmetry_cell_setting 'monoclinic'
loop_
_space_group_symop_operation_xyz
x,y,z
-x,y,1/2-z
-x,-y,-z
x,-y,1/2+z
loop_
_atom_site_type_symbol
_atom_site_label
_atom_site_fract_x
_atom_site_fract_y
_atom_site_fract_z
Si Si1 0.660643 0.130144 0.080427
Si Si2 0.945516 0.431038 0.042459
Si Si3 0.127546 0.297657 0.462853
Si Si4 0.134960 0.053950 0.571440
Si Si5 0.000000 0.087359 0.250000
Si Si6 0.745377 0.538479 0.052555
Si Si7 0.416564 0.266578 0.477257
Si Si8 0.508319 0.601711 0.524217
O O1 0.444865 0.074709 0.887109
O O2 0.536717 0.194536 0.993307
O O3 0.767612 0.127791 0.079353
O O4 0.938705 0.113248 0.398877
O O5 0.894444 0.371663 0.054969
O O6 0.082931 0.484623 0.231989
O O7 0.174705 0.413897 0.189029
O O8 0.664543 0.436605 0.716793
O O9 0.000000 0.273595 0.250000
O O10 0.430858 0.279598 0.782543
O O11 0.911361 0.274213 0.329156
O O12 0.111097 0.047352 0.440297
O O13 0.000000 0.000000 0.500000
O O14 0.596726 0.580234 0.982375
O O15 0.000000 0.573299 0.250000
O O16 0.500000 0.517008 0.750000
O O17 0.524370 0.324607 0.523237
#
# Coordination Sequence:
#
# PCOD9229497 Si02
#       8
#     4   4   4   4   2   4   4   4
#     4  10  20  35  52  84 114 149 190 226 273 332
#     4  10  20  36  53  73 108 139 179 221 286 346
#     4  10  20  30  46  74 106 142 175 218 266 328
#     4  10  20  35  55  83 116 154 188 229 274 321
#     4   8  22  30  56  82 120 144 186 228 278 316
#     4  12  23  35  56  82 101 136 186 241 290 337
#     4  10  21  34  52  75 107 150 181 214 271 334
#     4  10  21  38  55  77 106 146 180 226 283 345
#
# _framework density 18.977378999999999
#
# number of rings (size 3 to 8) (size 9 to 14) (size 15 to 20)
#    0.800    1.067    0.000    4.800    0.933    3.200 
#    0.000    0.000    0.000    0.000    5.200    0.000 
#    0.000    0.000    0.000    0.000    0.000    0.000 
#
# Total GULP energy -167022.740546 kJ/mol
# GULP energy per Si atom -5567.424685 kJ/mol
# Density = 1.893419 g / cm^3
# Si number density = 18.977379 Si / 1000 Ang^3
#
#
#
# Elastic Constant Matrix: (Units=GPa)
#
#
# Indices 1 2 3 4 5 6 
#
# 1 49.2048 27.6034 9.0123 0.0000 2.9975 0.0000
# 2 27.6034 81.0206 6.9476 0.0000 -0.2526 0.0000
# 3 9.0123 6.9476 79.6027 0.0000 15.8715 0.0000
# 4 0.0000 0.0000 0.0000 24.2109 0.0000 4.3429
# 5 2.9975 -0.2526 15.8715 0.0000 22.4280 0.0000
# 6 0.0000 0.0000 0.0000 4.3429 0.0000 -1.3808
#
#
#
# Elastic Compliance Matrix: (Units=1/GPa)
#
#
# Indices 1 2 3 4 5 6 
#
# 1 0.025587 -0.008580 -0.001685 0.000000 -0.002324 0.000000
# 2 -0.008580 0.015334 -0.000734 0.000000 0.001839 0.000000
# 3 -0.001685 -0.000734 0.014872 0.000000 -0.010308 0.000000
# 4 0.000000 0.000000 0.000000 0.026406 0.000000 0.083051
# 5 -0.002324 0.001839 -0.010308 0.000000 0.052213 0.000000
# 6 0.000000 0.000000 0.000000 0.083051 0.000000 -0.462989
#
#
# Mechanical properties :
#
#
# Convention : Reuss Voigt Hill
#
# Bulk Modulus (GPa) = 29.58838 32.99496 31.29167
# Shear Modulus (GPa) = -16.93108 20.13593 1.60243
#
# Velocity S-wave (km/s) = -2.99016 3.26091 0.91990
# Velocity P-wave (km/s) = 1.92452 5.62159 4.20155
#
# Compressibility (1/GPa) = 0.03379705
#
# Stress axis : x y z
#
# Youngs Moduli (GPa) = 39.08284 65.21300 67.23898
#
# Poissons Ratio (x) = 0.55953 0.11327
# Poissons Ratio (y) = 0.33533 0.04932
# Poissons Ratio (z) = 0.06584 0.04784
#
# Static dielectric constant tensor:
#      x y z
#    x 1.828820 0.000000 -0.040020 
#    y 0.000000 1.688420 0.000000 
#    z -0.040020 0.000000 1.690810 
# 
# From -- ./inp_files/54034.got.cif
#   From: 2010.05.17/outbox.cif.g08.bks.cpg/sg13_28_cif.got.tgz:54034.got - 2010.06.03 16:44:36.
