data_PCOD9229128
_publ_section_title
;
Structure prediction by ZEFSAII (Michael W. Deem and Ramdas Pophale) SiO2 
 PCOD9229128
Probable space group: P 2/C
;
_chemical_formula_sum "Si O2"
_cell_formula_units_Z 26
_cell_length_a 8.442725
_cell_length_b 12.804570
_cell_length_c 13.741693
_cell_angle_alpha 90.000000
_cell_angle_beta 62.772814
_cell_angle_gamma 90.000000
_cell_volume 1320.952006
_symmetry_space_group_name_H-M "P 2/C"
_symmetry_group_IT_number 13
_symmetry_cell_setting 'monoclinic'
loop_
_space_group_symop_operation_xyz
x,y,z
-x,y,1/2-z
-x,-y,-z
x,-y,1/2+z
loop_
_atom_site_type_symbol
_atom_site_label
_atom_site_fract_x
_atom_site_fract_y
_atom_site_fract_z
Si Si1 0.816476 0.566084 0.862522
Si Si2 0.000000 0.192627 0.750000
Si Si3 0.167077 0.877902 0.772028
Si Si4 0.552699 0.719175 0.847754
Si Si5 0.209296 0.668449 0.065084
Si Si6 0.933815 0.262650 0.480904
Si Si7 0.133329 0.932778 0.395509
O O1 0.666147 0.615136 0.836227
O O2 0.769329 0.452692 0.916144
O O3 0.000000 0.560362 0.750000
O O4 0.840789 0.649048 0.943208
O O5 0.163041 0.267729 0.675590
O O6 0.033294 0.122143 0.834144
O O7 0.317686 0.817489 0.670162
O O8 0.080713 0.794470 0.871294
O O9 0.000000 0.907300 0.750000
O O10 0.244210 0.976361 0.810414
O O11 0.500000 0.724941 0.750000
O O12 0.380337 0.715060 0.963542
O O13 0.041252 0.684549 0.039575
O O14 0.810207 0.167552 0.556108
O O15 0.000000 0.000000 0.500000
#
# Coordination Sequence:
#
# PCOD9229128 Si02
#       7
#     4   2   4   4   4   4   4
#     4  12  21  39  64  90 120 166 217 252 306 382
#     4  10  20  40  62  88 132 158 210 260 308 376
#     4  11  18  37  65  88 116 157 211 250 304 378
#     4  12  23  39  61  91 128 158 209 264 314 368
#     4  11  23  38  61  92 127 165 203 262 318 364
#     4  10  19  37  63  90 117 158 209 254 298 380
#     4   9  20  34  65  92 117 160 214 255 309 364
#
# _framework density 19.682774999999999
#
# number of rings (size 3 to 8) (size 9 to 14) (size 15 to 20)
#    0.000    1.231    6.154    0.923    0.000    0.000 
#    0.000    0.769    3.385    0.000    0.000    0.000 
#    0.000    0.000    0.000    0.000    0.000    0.000 
#
# Total GULP energy -144982.806626 kJ/mol
# GULP energy per Si atom -5576.261793 kJ/mol
# Density = 1.963798 g / cm^3
# Si number density = 19.682775 Si / 1000 Ang^3
#
#
#
# Elastic Constant Matrix: (Units=GPa)
#
#
# Indices 1 2 3 4 5 6 
#
# 1 48.3080 16.0027 23.7444 0.0000 -1.2958 0.0000
# 2 16.0027 143.0787 50.2160 0.0000 -2.6104 0.0000
# 3 23.7444 50.2160 103.6041 0.0000 -8.5653 0.0000
# 4 0.0000 0.0000 0.0000 38.4138 0.0000 6.6162
# 5 -1.2958 -2.6104 -8.5653 0.0000 24.0669 0.0000
# 6 0.0000 0.0000 0.0000 6.6162 0.0000 -2.1207
#
#
#
# Elastic Compliance Matrix: (Units=1/GPa)
#
#
# Indices 1 2 3 4 5 6 
#
# 1 0.023430 -0.000879 -0.004994 0.000000 -0.000611 0.000000
# 2 -0.000879 0.008462 -0.003944 0.000000 -0.000533 0.000000
# 3 -0.004994 -0.003944 0.013034 0.000000 0.003942 0.000000
# 4 0.000000 0.000000 0.000000 0.016933 0.000000 0.052829
# 5 -0.000611 -0.000533 0.003942 0.000000 0.042863 0.000000
# 6 0.000000 0.000000 0.000000 0.052829 0.000000 -0.306725
#
#
# Mechanical properties :
#
#
# Convention : Reuss Voigt Hill
#
# Bulk Modulus (GPa) = 39.53857 52.76855 46.15356
# Shear Modulus (GPa) = -28.74599 25.74052 -1.50274
#
# Velocity S-wave (km/s) = -3.82575 3.62023 -0.87472
# Velocity P-wave (km/s) = 0.78510 6.65902 4.74125
#
# Compressibility (1/GPa) = 0.02529176
#
# Stress axis : x y z
#
# Youngs Moduli (GPa) = 42.68025 118.17563 76.72044
#
# Poissons Ratio (x) = 0.10386 0.38317
# Poissons Ratio (y) = 0.03751 0.30259
# Poissons Ratio (z) = 0.21316 0.46610
#
# Static dielectric constant tensor:
#      x y z
#    x 1.664540 0.000000 0.016810 
#    y 0.000000 1.716620 0.000000 
#    z 0.016810 0.000000 1.710220 
# 
# From -- ./inp_files/46771.got.cif
#   From: 2010.05.17/outbox.cif.g08.bks.cpg/sg13_24_cif.got.tgz:46771.got - 2010.06.03 16:44:36.
