data_PCOD9229613
_publ_section_title
;
Structure prediction by ZEFSAII (Michael W. Deem and Ramdas Pophale) SiO2 
 PCOD9229613
Probable space group: P 2/C
;
_chemical_formula_sum "Si O2"
_cell_formula_units_Z 30
_cell_length_a 20.374368
_cell_length_b 11.467728
_cell_length_c 13.844286
_cell_angle_alpha 90.000000
_cell_angle_beta 150.440537
_cell_angle_gamma 90.000000
_cell_volume 1595.756420
_symmetry_space_group_name_H-M "P 2/C"
_symmetry_group_IT_number 13
_symmetry_cell_setting 'monoclinic'
loop_
_space_group_symop_operation_xyz
x,y,z
-x,y,1/2-z
-x,-y,-z
x,-y,1/2+z
loop_
_atom_site_type_symbol
_atom_site_label
_atom_site_fract_x
_atom_site_fract_y
_atom_site_fract_z
Si Si1 0.852750 0.622292 0.735617
Si Si2 0.154470 0.511583 0.961737
Si Si3 0.551941 0.430637 0.204264
Si Si4 0.632960 0.782291 0.064495
Si Si5 0.500000 0.962193 0.750000
Si Si6 0.867943 0.619037 0.355397
Si Si7 0.567461 0.675473 0.441856
Si Si8 0.438506 0.901605 0.351671
O O1 0.836435 0.622060 0.599812
O O2 0.870838 0.484472 0.781913
O O3 0.723254 0.662299 0.624341
O O4 0.988436 0.676611 0.946648
O O5 0.000000 0.466313 0.750000
O O6 0.288237 0.437341 0.107667
O O7 0.165769 0.556509 0.085720
O O8 0.500000 0.428641 0.250000
O O9 0.491479 0.554742 0.090571
O O10 0.484889 0.314049 0.076987
O O11 0.757591 0.710551 0.187206
O O12 0.666508 0.839532 0.211490
O O13 0.588563 0.879313 0.931131
O O14 0.584987 0.040056 0.782829
O O15 0.500000 0.684956 0.250000
O O16 0.537540 0.795147 0.456689
O O17 0.500000 0.000000 0.500000
#
# Coordination Sequence:
#
# PCOD9229613 Si02
#       8
#     4   4   4   4   2   4   4   4
#     4  10  20  35  51  87 130 157 183 231 300 371
#     4  10  20  33  49  78 131 165 180 224 284 365
#     4  11  19  32  57  94 119 146 195 234 306 355
#     4  11  21  35  62  86 116 149 193 250 292 357
#     4  10  22  42  56  82 114 152 194 260 292 334
#     4  10  21  34  54  86 125 159 191 225 297 374
#     4  11  19  33  61  84 116 150 189 244 290 352
#     4  10  23  38  56  83 109 152 204 244 291 333
#
# _framework density 18.799862000000001
#
# number of rings (size 3 to 8) (size 9 to 14) (size 15 to 20)
#    0.000    1.600    5.333    0.800    1.867    1.067 
#    0.000    0.000    0.000    3.200    3.467    1.867 
#    0.000    0.000    0.000    0.000    0.000    0.000 
#
# Total GULP energy -167127.111041 kJ/mol
# GULP energy per Si atom -5570.903701 kJ/mol
# Density = 1.875707 g / cm^3
# Si number density = 18.799862 Si / 1000 Ang^3
#
#
#
# Elastic Constant Matrix: (Units=GPa)
#
#
# Indices 1 2 3 4 5 6 
#
# 1 96.3602 35.7786 32.5855 0.0000 -2.2748 0.0000
# 2 35.7786 81.1027 24.0558 0.0000 -3.1478 0.0000
# 3 32.5855 24.0558 84.0863 0.0000 22.9705 0.0000
# 4 0.0000 0.0000 0.0000 7.6817 0.0000 -5.3481
# 5 -2.2748 -3.1478 22.9705 0.0000 36.5523 0.0000
# 6 0.0000 0.0000 0.0000 -5.3481 0.0000 34.6458
#
#
#
# Elastic Compliance Matrix: (Units=1/GPa)
#
#
# Indices 1 2 3 4 5 6 
#
# 1 0.013841 -0.004452 -0.005095 0.000000 0.003680 0.000000
# 2 -0.004452 0.015496 -0.003618 0.000000 0.003331 0.000000
# 3 -0.005095 -0.003618 0.018198 0.000000 -0.012065 0.000000
# 4 0.000000 0.000000 0.000000 0.145855 0.000000 0.022515
# 5 0.003680 0.003331 -0.012065 0.000000 0.035456 0.000000
# 6 0.000000 0.000000 0.000000 0.022515 0.000000 0.032339
#
#
# Mechanical properties :
#
#
# Convention : Reuss Voigt Hill
#
# Bulk Modulus (GPa) = 47.15925 49.59877 48.37901
# Shear Modulus (GPa) = 16.97312 27.05123 22.01218
#
# Velocity S-wave (km/s) = 3.00798 3.79741 3.42551
# Velocity P-wave (km/s) = 6.09945 6.75773 6.43701
#
# Compressibility (1/GPa) = 0.02120475
#
# Stress axis : x y z
#
# Youngs Moduli (GPa) = 72.25149 64.53128 54.95083
#
# Poissons Ratio (x) = 0.28727 0.27999
# Poissons Ratio (y) = 0.32164 0.19882
# Poissons Ratio (z) = 0.36814 0.23349
#
# Static dielectric constant tensor:
#      x y z
#    x 1.734340 0.000000 -0.025370 
#    y 0.000000 1.649920 0.000000 
#    z -0.025370 0.000000 1.777360 
# 
# From -- ./inp_files/57635.got.cif
#   From: 2010.05.17/outbox.cif.g08.bks.cpg/sg13_29_cif.got.tgz:57635.got - 2010.06.03 16:44:36.
