data_PCOD9229445
_publ_section_title
;
Structure prediction by ZEFSAII (Michael W. Deem and Ramdas Pophale) SiO2 
 PCOD9229445
Probable space group: P 2/C
;
_chemical_formula_sum "Si O2"
_cell_formula_units_Z 26
_cell_length_a 9.016420
_cell_length_b 8.844567
_cell_length_c 21.552685
_cell_angle_alpha 90.000000
_cell_angle_beta 46.079404
_cell_angle_gamma 90.000000
_cell_volume 1238.016968
_symmetry_space_group_name_H-M "P 2/C"
_symmetry_group_IT_number 13
_symmetry_cell_setting 'monoclinic'
loop_
_space_group_symop_operation_xyz
x,y,z
-x,y,1/2-z
-x,-y,-z
x,-y,1/2+z
loop_
_atom_site_type_symbol
_atom_site_label
_atom_site_fract_x
_atom_site_fract_y
_atom_site_fract_z
Si Si1 0.345558 0.560671 0.737494
Si Si2 0.848091 0.077451 0.995006
Si Si3 0.574428 0.583673 0.416638
Si Si4 0.646375 0.142507 0.473028
Si Si5 0.630886 0.844268 0.845891
Si Si6 0.992139 0.317308 0.855818
Si Si7 0.000000 0.922528 0.250000
O O1 0.500000 0.565129 0.750000
O O2 0.441027 0.492624 0.645952
O O3 0.298999 0.732376 0.728995
O O4 0.159664 0.449799 0.811390
O O5 0.611862 0.107609 0.088568
O O6 0.920731 0.233893 0.940467
O O7 0.836839 0.945176 0.946093
O O8 0.000000 0.000000 0.000000
O O9 0.500000 0.500000 0.500000
O O10 0.453919 0.743474 0.449396
O O11 0.806969 0.616451 0.368665
O O12 0.658270 0.233653 0.405540
O O13 0.500000 0.000000 0.500000
O O14 0.795257 0.976113 0.810195
O O15 0.053081 0.179887 0.793806
#
# Coordination Sequence:
#
# PCOD9229445 Si02
#       7
#     4   4   4   4   4   4   2
#     4  12  29  45  65 104 159 187 232 301 384 433
#     4  11  24  44  74 109 143 184 250 314 370 432
#     4  12  22  44  73  97 129 191 242 287 346 444
#     4  10  19  40  72  95 131 174 248 289 345 421
#     4  11  24  47  68 104 141 192 246 292 360 448
#     4  12  24  45  67 106 137 186 245 298 360 436
#     4  12  24  40  80 100 134 182 254 304 346 422
#
# _framework density 21.001328000000001
#
# number of rings (size 3 to 8) (size 9 to 14) (size 15 to 20)
#    0.000    0.615    7.692    0.923    4.308    1.231 
#    2.769    1.538    0.000    0.000    0.000    0.000 
#    0.000    0.000    0.000    0.000    0.000    0.000 
#
# Total GULP energy -144791.538322 kJ/mol
# GULP energy per Si atom -5568.905320 kJ/mol
# Density = 2.095353 g / cm^3
# Si number density = 21.001328 Si / 1000 Ang^3
#
#
#
# Elastic Constant Matrix: (Units=GPa)
#
#
# Indices 1 2 3 4 5 6 
#
# 1 125.5045 31.8703 33.6418 0.0000 20.0059 0.0000
# 2 31.8703 74.3407 30.7185 0.0000 -2.4880 0.0000
# 3 33.6418 30.7185 70.8652 0.0000 -3.3453 0.0000
# 4 0.0000 0.0000 0.0000 40.5971 0.0000 -1.6029
# 5 20.0059 -2.4880 -3.3453 0.0000 32.2714 0.0000
# 6 0.0000 0.0000 0.0000 -1.6029 0.0000 27.0255
#
#
#
# Elastic Compliance Matrix: (Units=1/GPa)
#
#
# Indices 1 2 3 4 5 6 
#
# 1 0.011147 -0.003287 -0.004226 0.000000 -0.007602 0.000000
# 2 -0.003287 0.017365 -0.005836 0.000000 0.002772 0.000000
# 3 -0.004226 -0.005836 0.018842 0.000000 0.004123 0.000000
# 4 0.000000 0.000000 0.000000 0.024690 0.000000 0.001464
# 5 -0.007602 0.002772 0.004123 0.000000 0.036341 0.000000
# 6 0.000000 0.000000 0.000000 0.001464 0.000000 0.037089
#
#
# Mechanical properties :
#
#
# Convention : Reuss Voigt Hill
#
# Bulk Modulus (GPa) = 48.41192 51.46350 49.93771
# Shear Modulus (GPa) = 27.92406 31.61080 29.76743
#
# Velocity S-wave (km/s) = 3.65037 3.88387 3.76893
# Velocity P-wave (km/s) = 6.39287 6.68362 6.53986
#
# Compressibility (1/GPa) = 0.02065607
#
# Stress axis : x y z
#
# Youngs Moduli (GPa) = 89.70986 57.58691 53.07332
#
# Poissons Ratio (x) = 0.18929 0.22428
# Poissons Ratio (y) = 0.29488 0.30974
# Poissons Ratio (z) = 0.37910 0.33608
#
# Static dielectric constant tensor:
#      x y z
#    x 1.755180 0.000000 0.056620 
#    y 0.000000 1.795020 0.000000 
#    z 0.056620 0.000000 1.757320 
# 
# From -- ./inp_files/75911.got.cif
#   From: 2010.05.17/outbox.cif.g08.bks.cpg/sg13_38_cif.got.tgz:75911.got - 2010.06.03 16:44:36.
