data_PCOD9229458
_publ_section_title
;
Structure prediction by ZEFSAII (Michael W. Deem and Ramdas Pophale) SiO2 
 PCOD9229458
Probable space group: P 2/C
;
_chemical_formula_sum "Si O2"
_cell_formula_units_Z 20
_cell_length_a 12.119720
_cell_length_b 9.000663
_cell_length_c 11.992926
_cell_angle_alpha 90.000000
_cell_angle_beta 48.413344
_cell_angle_gamma 90.000000
_cell_volume 978.512491
_symmetry_space_group_name_H-M "P 2/C"
_symmetry_group_IT_number 13
_symmetry_cell_setting 'monoclinic'
loop_
_space_group_symop_operation_xyz
x,y,z
-x,y,1/2-z
-x,-y,-z
x,-y,1/2+z
loop_
_atom_site_type_symbol
_atom_site_label
_atom_site_fract_x
_atom_site_fract_y
_atom_site_fract_z
Si Si1 0.862512 0.077659 0.922469
Si Si2 0.662178 0.821951 0.143351
Si Si3 0.266810 0.702596 0.158413
Si Si4 0.949799 0.619060 0.442516
Si Si5 0.634187 0.506214 0.075500
O O1 0.746478 0.159068 0.917243
O O2 0.000000 0.039320 0.750000
O O3 0.913913 0.203709 0.977225
O O4 0.788340 0.936852 0.027683
O O5 0.500000 0.894551 0.250000
O O6 0.694001 0.752487 0.243695
O O7 0.651054 0.683985 0.064830
O O8 0.101747 0.632241 0.269857
O O9 0.376154 0.581734 0.033428
O O10 0.790987 0.554491 0.514826
O O11 0.000000 0.500000 0.500000
O O12 0.500000 0.472529 0.250000
#
# Coordination Sequence:
#
# PCOD9229458 Si02
#       5
#     4   4   4   4   4
#     4   9  22  40  63  93 130 166 216 269 327 394
#     4  11  24  42  61  96 135 171 223 269 329 399
#     4  10  22  44  65  91 132 169 219 277 320 389
#     4  10  19  41  67  94 123 166 216 268 322 390
#     4  10  22  40  65  95 129 168 220 272 328 386
#
# _framework density 20.43919
#
# number of rings (size 3 to 8) (size 9 to 14) (size 15 to 20)
#    0.000    2.000    2.000    1.800    0.000   12.000 
#    3.600    0.000    0.000    0.000    0.000    0.000 
#    0.000    0.000    0.000    0.000    0.000    0.000 
#
# Total GULP energy -111360.940368 kJ/mol
# GULP energy per Si atom -5568.047018 kJ/mol
# Density = 2.039267 g / cm^3
# Si number density = 20.439190 Si / 1000 Ang^3
#
#
#
# Elastic Constant Matrix: (Units=GPa)
#
#
# Indices 1 2 3 4 5 6 
#
# 1 95.2503 38.5874 44.8076 0.0000 -9.6474 0.0000
# 2 38.5874 134.6707 100.4485 0.0000 5.4298 0.0000
# 3 44.8076 100.4485 112.1392 0.0000 -11.9788 0.0000
# 4 0.0000 0.0000 0.0000 142.4813 0.0000 18.8230
# 5 -9.6474 5.4298 -11.9788 0.0000 36.9459 0.0000
# 6 0.0000 0.0000 0.0000 18.8230 0.0000 36.3049
#
#
#
# Elastic Compliance Matrix: (Units=1/GPa)
#
#
# Indices 1 2 3 4 5 6 
#
# 1 0.013042 -0.000228 -0.004806 0.000000 0.001881 0.000000
# 2 -0.000228 0.026762 -0.025179 0.000000 -0.012156 0.000000
# 3 -0.004806 -0.025179 0.034861 0.000000 0.013748 0.000000
# 4 0.000000 0.000000 0.000000 0.007535 0.000000 -0.003906
# 5 0.001881 -0.012156 0.013748 0.000000 0.033802 0.000000
# 6 0.000000 0.000000 0.000000 -0.003906 0.000000 0.029570
#
#
# Mechanical properties :
#
#
# Convention : Reuss Voigt Hill
#
# Bulk Modulus (GPa) = 70.23448 78.86080 74.54764
# Shear Modulus (GPa) = 23.72550 53.69421 38.70985
#
# Velocity S-wave (km/s) = 3.41073 5.13101 4.35662
# Velocity P-wave (km/s) = 7.06739 8.58894 7.86505
#
# Compressibility (1/GPa) = 0.01423802
#
# Stress axis : x y z
#
# Youngs Moduli (GPa) = 76.67255 37.36692 28.68564
#
# Poissons Ratio (x) = 0.00852 0.13787
# Poissons Ratio (y) = 0.01748 0.72228
# Poissons Ratio (z) = 0.36850 0.94087
#
# Static dielectric constant tensor:
#      x y z
#    x 1.779560 0.000000 0.074400 
#    y 0.000000 1.740350 0.000000 
#    z 0.074400 0.000000 1.777470 
# 
# From -- ./inp_files/28198.got.cif
#   From: 2010.05.17/outbox.cif.g08.bks.cpg/sg13_15_cif.got.tgz:28198.got - 2010.06.03 16:44:36.
