data_PCOD9229392
_publ_section_title
;
Structure prediction by ZEFSAII (Michael W. Deem and Ramdas Pophale) SiO2 
 PCOD9229392
Probable space group: P 2/C
;
_chemical_formula_sum "Si O2"
_cell_formula_units_Z 30
_cell_length_a 13.351731
_cell_length_b 6.494566
_cell_length_c 17.866693
_cell_angle_alpha 90.000000
_cell_angle_beta 73.627087
_cell_angle_gamma 90.000000
_cell_volume 1486.459324
_symmetry_space_group_name_H-M "P 2/C"
_symmetry_group_IT_number 13
_symmetry_cell_setting 'monoclinic'
loop_
_space_group_symop_operation_xyz
x,y,z
-x,y,1/2-z
-x,-y,-z
x,-y,1/2+z
loop_
_atom_site_type_symbol
_atom_site_label
_atom_site_fract_x
_atom_site_fract_y
_atom_site_fract_z
Si Si1 0.375610 0.044973 0.444292
Si Si2 0.801897 0.702037 0.848775
Si Si3 0.000000 0.062970 0.250000
Si Si4 0.249892 0.337518 0.368388
Si Si5 0.885335 0.054777 0.639636
Si Si6 0.808328 0.279740 0.522797
Si Si7 0.379733 0.961634 0.114249
Si Si8 0.729838 0.353022 0.763490
O O1 0.336867 0.210516 0.393503
O O2 0.356570 0.113230 0.534224
O O3 0.302471 0.843827 0.447196
O O4 0.498328 0.012211 0.409406
O O5 0.896907 0.804484 0.784672
O O6 0.784494 0.475189 0.819781
O O7 0.698126 0.843448 0.858843
O O8 0.829246 0.702912 0.930737
O O9 0.016985 0.944887 0.324850
O O10 0.201476 0.499801 0.436493
O O11 0.296576 0.467838 0.289889
O O12 0.163645 0.172285 0.360169
O O13 0.890777 0.151312 0.555523
O O14 0.803718 0.198735 0.701862
O O15 0.356622 0.788763 0.180489
#
# Coordination Sequence:
#
# PCOD9229392 Si02
#       8
#     4   4   2   4   4   4   4   4
#     4   9  20  37  63  87 127 162 201 244 304 357
#     4  11  23  40  63  92 120 158 209 253 300 364
#     4  12  22  42  66  88 118 160 202 256 314 358
#     4  10  19  40  59  87 124 161 197 252 297 363
#     4  10  22  41  62  88 126 159 198 254 307 363
#     4   9  21  40  64  90 123 162 199 246 306 362
#     4  10  20  39  60  92 121 163 204 251 296 361
#     4  11  20  38  62  86 126 160 200 253 303 356
#
# _framework density 20.182186999999999
#
# number of rings (size 3 to 8) (size 9 to 14) (size 15 to 20)
#    0.000    1.867    2.667    0.800    0.000    2.133 
#    0.000   20.667    0.000    0.000    0.000    0.000 
#    0.000    0.000    0.000    0.000    0.000    0.000 
#
# Total GULP energy -167391.978767 kJ/mol
# GULP energy per Si atom -5579.732626 kJ/mol
# Density = 2.013625 g / cm^3
# Si number density = 20.182187 Si / 1000 Ang^3
#
#
#
# Elastic Constant Matrix: (Units=GPa)
#
#
# Indices 1 2 3 4 5 6 
#
# 1 36.7199 5.2628 -2.3994 0.0000 23.1342 0.0000
# 2 5.2628 83.9990 38.5751 0.0000 19.7766 0.0000
# 3 -2.3994 38.5751 79.6041 0.0000 25.4759 0.0000
# 4 0.0000 0.0000 0.0000 33.7490 0.0000 17.2298
# 5 23.1342 19.7766 25.4759 0.0000 36.5323 0.0000
# 6 0.0000 0.0000 0.0000 17.2298 0.0000 11.9510
#
#
#
# Elastic Compliance Matrix: (Units=1/GPa)
#
#
# Indices 1 2 3 4 5 6 
#
# 1 0.060548 -0.000159 0.018209 0.000000 -0.050954 0.000000
# 2 -0.000159 0.015783 -0.006373 0.000000 -0.003999 0.000000
# 3 0.018209 -0.006373 0.024183 0.000000 -0.024945 0.000000
# 4 0.000000 0.000000 0.000000 0.112250 0.000000 -0.161832
# 5 -0.050954 -0.003999 -0.024945 0.000000 0.079200 0.000000
# 6 0.000000 0.000000 0.000000 -0.161832 0.000000 0.316990
#
#
# Mechanical properties :
#
#
# Convention : Reuss Voigt Hill
#
# Bulk Modulus (GPa) = 8.07318 31.46668 19.76993
# Shear Modulus (GPa) = 7.97588 27.03876 17.50732
#
# Velocity S-wave (km/s) = 1.99011 3.66421 2.94847
# Velocity P-wave (km/s) = 3.04787 5.79026 4.62691
#
# Compressibility (1/GPa) = 0.12386697
#
# Stress axis : x y z
#
# Youngs Moduli (GPa) = 16.51583 63.35847 41.35218
#
# Poissons Ratio (x) = 0.01009 -0.75299
# Poissons Ratio (y) = 0.00263 0.26355
# Poissons Ratio (z) = -0.30074 0.40381
#
# Static dielectric constant tensor:
#      x y z
#    x 1.710710 0.000000 0.034770 
#    y 0.000000 1.718530 0.000000 
#    z 0.034770 0.000000 1.739770 
# 
# From -- ./inp_files/67554.got.cif
#   From: 2010.05.17/outbox.cif.g08.bks.cpg/sg13_34_cif.got.tgz:67554.got - 2010.06.03 16:44:36.
