data_PCOD9229954
_publ_section_title
;
Structure prediction by ZEFSAII (Michael W. Deem and Ramdas Pophale) SiO2 
 PCOD9229954
Probable space group: P 2/C
;
_chemical_formula_sum "Si O2"
_cell_formula_units_Z 24
_cell_length_a 22.376352
_cell_length_b 6.402857
_cell_length_c 13.847908
_cell_angle_alpha 90.000000
_cell_angle_beta 150.966545
_cell_angle_gamma 90.000000
_cell_volume 962.887725
_symmetry_space_group_name_H-M "P 2/C"
_symmetry_group_IT_number 13
_symmetry_cell_setting 'monoclinic'
loop_
_space_group_symop_operation_xyz
x,y,z
-x,y,1/2-z
-x,-y,-z
x,-y,1/2+z
loop_
_atom_site_type_symbol
_atom_site_label
_atom_site_fract_x
_atom_site_fract_y
_atom_site_fract_z
Si Si1 0.344651 0.442340 0.142994
Si Si2 0.313157 0.167463 0.719017
Si Si3 0.018178 0.415848 0.886666
Si Si4 0.813157 0.667463 0.719017
Si Si5 0.481822 0.084151 0.113334
Si Si6 0.155348 0.942340 0.357006
O O1 0.319764 0.591189 0.198482
O O2 0.472630 0.324209 0.331412
O O3 0.313009 0.578296 0.003517
O O4 0.250000 0.250000 0.000000
O O5 0.425574 0.064653 0.815174
O O6 0.186991 0.078296 0.496483
O O7 0.348074 0.091502 0.875022
O O8 0.925574 0.564653 0.815174
O O9 0.972630 0.175791 0.831412
O O10 0.000000 0.472419 0.750000
O O11 0.151926 0.408498 0.124978
O O12 0.819764 0.908811 0.698481
O O13 0.500000 0.027580 0.250000
#
# Coordination Sequence:
#
# PCOD9229954 Si02
#       6
#     4   4   4   4   4   4
#     4   9  18  36  56  77 107 147 187 228 283 330
#     4   9  19  37  56  77 115 149 179 235 280 331
#     4  10  20  35  55  85 110 146 191 226 281 336
#     4   9  19  37  56  77 115 149 179 235 280 331
#     4  10  20  35  55  85 110 146 191 226 281 336
#     4   9  18  36  56  77 107 147 187 228 283 330
#
# _framework density 24.925022999999999
#
# number of rings (size 3 to 8) (size 9 to 14) (size 15 to 20)
#    0.000    2.667    0.000    1.000    0.000    1.333 
#   18.000    0.000    0.000    0.000    0.000    0.000 
#    0.000    0.000    0.000    0.000    0.000    0.000 
#
# Total GULP energy -134021.963353 kJ/mol
# GULP energy per Si atom -5584.248473 kJ/mol
# Density = 2.486829 g / cm^3
# Si number density = 24.925023 Si / 1000 Ang^3
#
#
#
# Elastic Constant Matrix: (Units=GPa)
#
#
# Indices 1 2 3 4 5 6 
#
# 1 66.4420 35.7442 28.2528 0.0000 -26.8884 0.0000
# 2 35.7442 104.8580 19.2654 0.0000 -3.4265 0.0000
# 3 28.2528 19.2654 132.9765 0.0000 -34.1050 0.0000
# 4 0.0000 0.0000 0.0000 15.6464 0.0000 -0.5128
# 5 -26.8884 -3.4265 -34.1050 0.0000 34.1962 0.0000
# 6 0.0000 0.0000 0.0000 -0.5128 0.0000 4.9605
#
#
#
# Elastic Compliance Matrix: (Units=1/GPa)
#
#
# Indices 1 2 3 4 5 6 
#
# 1 0.028805 -0.009271 0.001067 0.000000 0.022784 0.000000
# 2 -0.009271 0.012790 -0.001914 0.000000 -0.007916 0.000000
# 3 0.001067 -0.001914 0.010396 0.000000 0.011015 0.000000
# 4 0.000000 0.000000 0.000000 0.064130 0.000000 0.006629
# 5 0.022784 -0.007916 0.011015 0.000000 0.057351 0.000000
# 6 0.000000 0.000000 0.000000 0.006629 0.000000 0.202277
#
#
# Mechanical properties :
#
#
# Convention : Reuss Voigt Hill
#
# Bulk Modulus (GPa) = 31.49062 52.31124 41.90093
# Shear Modulus (GPa) = 12.29804 25.69490 18.99647
#
# Velocity S-wave (km/s) = 2.22367 3.21423 2.76369
# Velocity P-wave (km/s) = 4.38800 5.89983 5.19916
#
# Compressibility (1/GPa) = 0.03175549
#
# Stress axis : x y z
#
# Youngs Moduli (GPa) = 34.71603 78.18730 96.19250
#
# Poissons Ratio (x) = 0.72484 -0.10260
# Poissons Ratio (y) = 0.32184 0.18408
# Poissons Ratio (z) = -0.03703 0.14962
#
# Static dielectric constant tensor:
#      x y z
#    x 2.023870 0.000000 -0.008410 
#    y 0.000000 1.978250 0.000000 
#    z -0.008410 0.000000 2.021300 
# 
# From -- ./inp_files/59709.got.cif
#   From: 2010.05.17/outbox.cif.g08.bks.cpg/sg13_30_cif.got.tgz:59709.got - 2010.06.03 16:44:36.
