data_PCOD9229965
_publ_section_title
;
Structure prediction by ZEFSAII (Michael W. Deem and Ramdas Pophale) SiO2 
 PCOD9229965
Probable space group: P 2/C
;
_chemical_formula_sum "Si O2"
_cell_formula_units_Z 24
_cell_length_a 21.970875
_cell_length_b 10.425063
_cell_length_c 19.107355
_cell_angle_alpha 90.000000
_cell_angle_beta 18.774039
_cell_angle_gamma 90.000000
_cell_volume 1408.517418
_symmetry_space_group_name_H-M "P 2/C"
_symmetry_group_IT_number 13
_symmetry_cell_setting 'monoclinic'
loop_
_space_group_symop_operation_xyz
x,y,z
-x,y,1/2-z
-x,-y,-z
x,-y,1/2+z
loop_
_atom_site_type_symbol
_atom_site_label
_atom_site_fract_x
_atom_site_fract_y
_atom_site_fract_z
Si Si1 0.622345 0.533757 0.730288
Si Si2 0.909058 0.845418 0.277617
Si Si3 0.783528 0.584594 0.807394
Si Si4 0.500000 0.743694 0.750000
Si Si5 0.279400 0.692335 0.475450
Si Si6 0.077344 0.648146 0.990040
Si Si7 0.000000 0.906873 0.750000
O O1 0.555425 0.649851 0.753430
O O2 0.731997 0.432040 0.561804
O O3 0.753334 0.587434 0.648647
O O4 0.434495 0.460200 0.960865
O O5 0.684489 0.824900 0.528124
O O6 0.000000 0.785261 0.250000
O O7 0.997873 0.773113 0.115392
O O8 0.966851 0.994146 0.222229
O O9 0.849561 0.664813 0.668409
O O10 0.909734 0.456399 0.671713
O O11 0.808293 0.657947 0.853704
O O12 0.500000 0.716715 0.250000
O O13 0.177818 0.813067 0.551751
#
# Coordination Sequence:
#
# PCOD9229965 Si02
#       7
#     4   4   4   2   4   4   2
#     4  11  18  33  58  82 113 143 177 229 277 330
#     4  10  22  34  55  78 106 144 184 230 260 323
#     4  10  21  33  53  86 116 144 172 230 286 330
#     4  12  18  34  58  84 108 132 188 228 292 310
#     4  10  20  35  56  80 110 142 188 226 263 318
#     4  11  20  34  54  84 117 142 178 222 290 337
#     4  10  22  36  56  80 100 150 200 218 258 312
#
# _framework density 17.039193000000001
#
# number of rings (size 3 to 8) (size 9 to 14) (size 15 to 20)
#    0.500    1.000    5.833    1.500    1.167    0.000 
#    0.000    0.833    0.000    4.000    0.000    0.000 
#    0.000    0.000    0.000    0.000    0.000    0.000 
#
# Total GULP energy -133828.336640 kJ/mol
# GULP energy per Si atom -5576.180693 kJ/mol
# Density = 1.700041 g / cm^3
# Si number density = 17.039193 Si / 1000 Ang^3
#
#
#
# Elastic Constant Matrix: (Units=GPa)
#
#
# Indices 1 2 3 4 5 6 
#
# 1 61.5629 29.2418 42.3709 0.0000 12.0415 0.0000
# 2 29.2418 78.2094 34.2925 0.0000 0.9475 0.0000
# 3 42.3709 34.2925 83.7087 0.0000 11.4637 0.0000
# 4 0.0000 0.0000 0.0000 24.2310 0.0000 -18.9465
# 5 12.0415 0.9475 11.4637 0.0000 27.6325 0.0000
# 6 0.0000 0.0000 0.0000 -18.9465 0.0000 24.8802
#
#
#
# Elastic Compliance Matrix: (Units=1/GPa)
#
#
# Indices 1 2 3 4 5 6 
#
# 1 0.027736 -0.005572 -0.010737 0.000000 -0.007441 0.000000
# 2 -0.005572 0.016837 -0.004592 0.000000 0.003756 0.000000
# 3 -0.010737 -0.004592 0.019720 0.000000 -0.003345 0.000000
# 4 0.000000 0.000000 0.000000 0.102010 0.000000 0.077682
# 5 -0.007441 0.003756 -0.003345 0.000000 0.040691 0.000000
# 6 0.000000 0.000000 0.000000 0.077682 0.000000 0.099348
#
#
# Mechanical properties :
#
#
# Convention : Reuss Voigt Hill
#
# Bulk Modulus (GPa) = 44.46166 48.36574 46.41370
# Shear Modulus (GPa) = 14.05912 23.18710 18.62311
#
# Velocity S-wave (km/s) = 2.87558 3.69292 3.30958
# Velocity P-wave (km/s) = 6.09719 6.82863 6.47325
#
# Compressibility (1/GPa) = 0.02249129
#
# Stress axis : x y z
#
# Youngs Moduli (GPa) = 36.05477 59.39198 50.70953
#
# Poissons Ratio (x) = 0.33093 0.54448
# Poissons Ratio (y) = 0.20090 0.23284
# Poissons Ratio (z) = 0.38713 0.27270
#
# Static dielectric constant tensor:
#      x y z
#    x 1.577210 0.000000 -0.007880 
#    y 0.000000 1.554380 0.000000 
#    z -0.007880 0.000000 1.588710 
# 
# From -- ./inp_files/70629.got.cif
#   From: 2010.05.17/outbox.cif.g08.bks.cpg/sg13_36_cif.got.tgz:70629.got - 2010.06.03 16:44:36.
