data_PCOD9229316
_publ_section_title
;
Structure prediction by ZEFSAII (Michael W. Deem and Ramdas Pophale) SiO2 
 PCOD9229316
Probable space group: P 2/C
;
_chemical_formula_sum "Si O2"
_cell_formula_units_Z 26
_cell_length_a 29.467227
_cell_length_b 6.698643
_cell_length_c 19.620454
_cell_angle_alpha 90.000000
_cell_angle_beta 17.462769
_cell_angle_gamma 90.000000
_cell_volume 1162.200076
_symmetry_space_group_name_H-M "P 2/C"
_symmetry_group_IT_number 13
_symmetry_cell_setting 'monoclinic'
loop_
_space_group_symop_operation_xyz
x,y,z
-x,y,1/2-z
-x,-y,-z
x,-y,1/2+z
loop_
_atom_site_type_symbol
_atom_site_label
_atom_site_fract_x
_atom_site_fract_y
_atom_site_fract_z
Si Si1 0.844398 0.624716 0.009553
Si Si2 0.291094 0.242206 0.137869
Si Si3 0.389016 0.726476 0.267235
Si Si4 0.049222 0.958698 0.553093
Si Si5 0.260963 0.996898 0.553617
Si Si6 0.321465 0.442981 0.489075
Si Si7 0.000000 0.768653 0.250000
O O1 0.695933 0.689161 0.181331
O O2 0.869890 0.385815 0.963992
O O3 0.000000 0.693277 0.750000
O O4 0.860736 0.758153 0.053932
O O5 0.161674 0.116047 0.358214
O O6 0.343732 0.101446 0.999536
O O7 0.430514 0.289668 0.988203
O O8 0.249769 0.442244 0.155971
O O9 0.319153 0.572411 0.423077
O O10 0.345548 0.938188 0.362980
O O11 0.907589 0.906895 0.708787
O O12 0.974788 0.084410 0.722568
O O13 0.249557 0.230677 0.579968
O O14 0.500000 0.419189 0.250000
#
# Coordination Sequence:
#
# PCOD9229316 Si02
#       7
#     4   4   4   4   4   4   2
#     4  10  21  38  60  80 101 146 193 226 264 325
#     4  10  24  35  54  86 118 140 177 233 279 318
#     4  10  19  39  58  82 111 145 185 227 267 326
#     4  12  22  38  56  85 113 141 187 230 272 327
#     4  11  19  36  61  81 112 152 182 216 272 332
#     4   9  19  35  56  84 111 144 183 219 272 331
#     4  10  20  38  58  80 104 148 188 226 276 318
#
# _framework density 22.371364
#
# number of rings (size 3 to 8) (size 9 to 14) (size 15 to 20)
#    0.462    1.231    2.308    3.692    0.000    2.462 
#    0.000    0.769    0.000    0.000    0.000    0.000 
#    0.000    0.000    0.000    0.000    0.000    0.000 
#
# Total GULP energy -144972.842828 kJ/mol
# GULP energy per Si atom -5575.878570 kJ/mol
# Density = 2.232045 g / cm^3
# Si number density = 22.371364 Si / 1000 Ang^3
#
#
#
# Elastic Constant Matrix: (Units=GPa)
#
#
# Indices 1 2 3 4 5 6 
#
# 1 67.7471 21.4648 30.7080 0.0000 -24.6418 0.0000
# 2 21.4648 71.8534 10.2776 0.0000 -4.6885 0.0000
# 3 30.7080 10.2776 24.6189 0.0000 -16.1555 0.0000
# 4 0.0000 0.0000 0.0000 12.6720 0.0000 -3.9039
# 5 -24.6418 -4.6885 -16.1555 0.0000 35.5610 0.0000
# 6 0.0000 0.0000 0.0000 -3.9039 0.0000 29.0857
#
#
#
# Elastic Compliance Matrix: (Units=1/GPa)
#
#
# Indices 1 2 3 4 5 6 
#
# 1 0.036456 -0.004877 -0.038869 0.000000 0.006961 0.000000
# 2 -0.004877 0.015491 -0.001797 0.000000 -0.002153 0.000000
# 3 -0.038869 -0.001797 0.102614 0.000000 0.019447 0.000000
# 4 0.000000 0.000000 0.000000 0.082318 0.000000 0.011049
# 5 0.006961 -0.002153 0.019447 0.000000 0.041495 0.000000
# 6 0.000000 0.000000 0.000000 0.011049 0.000000 0.035864
#
#
# Mechanical properties :
#
#
# Convention : Reuss Voigt Hill
#
# Bulk Modulus (GPa) = 15.75441 32.12445 23.93943
# Shear Modulus (GPa) = 11.72384 22.24835 16.98609
#
# Velocity S-wave (km/s) = 2.29171 3.15699 2.75849
# Velocity P-wave (km/s) = 3.74968 5.26114 4.56835
#
# Compressibility (1/GPa) = 0.06347429
#
# Stress axis : x y z
#
# Youngs Moduli (GPa) = 27.43020 64.55542 9.74528
#
# Poissons Ratio (x) = 0.31482 0.37879
# Poissons Ratio (y) = 0.13377 0.01751
# Poissons Ratio (z) = 1.06620 0.11600
#
# Static dielectric constant tensor:
#      x y z
#    x 1.857590 0.000000 0.018190 
#    y 0.000000 1.838520 0.000000 
#    z 0.018190 0.000000 1.811370 
# 
# From -- ./inp_files/82666.got.cif
#   From: 2010.05.17/outbox.cif.g08.bks.cpg/sg13_42_cif.got.tgz:82666.got - 2010.06.03 16:44:36.
