data_PCOD9229730
_publ_section_title
;
Structure prediction by ZEFSAII (Michael W. Deem and Ramdas Pophale) SiO2 
 PCOD9229730
Probable space group: P 2/C
;
_chemical_formula_sum "Si O2"
_cell_formula_units_Z 20
_cell_length_a 10.633305
_cell_length_b 19.196872
_cell_length_c 5.313413
_cell_angle_alpha 90.000000
_cell_angle_beta 93.326741
_cell_angle_gamma 90.000000
_cell_volume 1082.779044
_symmetry_space_group_name_H-M "P 2/C"
_symmetry_group_IT_number 13
_symmetry_cell_setting 'monoclinic'
loop_
_space_group_symop_operation_xyz
x,y,z
-x,y,1/2-z
-x,-y,-z
x,-y,1/2+z
loop_
_atom_site_type_symbol
_atom_site_label
_atom_site_fract_x
_atom_site_fract_y
_atom_site_fract_z
Si Si1 0.857375 0.529770 0.952821
Si Si2 0.151618 0.042351 0.270987
Si Si3 0.262775 0.193371 0.178787
Si Si4 0.360403 0.744955 0.202410
Si Si5 0.872877 0.313909 0.575633
O O1 0.795943 0.506135 0.206270
O O2 0.866665 0.612636 0.934348
O O3 0.000000 0.500000 0.000000
O O4 0.213960 0.116917 0.232243
O O5 0.000000 0.051056 0.250000
O O6 0.185127 0.008720 0.543478
O O7 0.338244 0.222719 0.426269
O O8 0.340639 0.198631 0.926521
O O9 0.148645 0.247881 0.109012
O O10 0.500000 0.715631 0.250000
O O11 0.247476 0.691637 0.251523
O O12 0.000000 0.309302 0.750000
#
# Coordination Sequence:
#
# PCOD9229730 Si02
#       5
#     4   4   4   4   4
#     4  10  20  34  53  80 128 155 177 234 308 354
#     4  10  21  36  57  87 129 160 187 242 312 356
#     4  10  23  36  65  85 121 153 209 244 291 355
#     4  10  23  40  60  85 120 159 202 254 296 345
#     4  10  23  35  62  95 116 153 201 245 296 356
#
# _framework density 18.470987999999998
#
# number of rings (size 3 to 8) (size 9 to 14) (size 15 to 20)
#    1.200    0.800    2.000    1.800    5.600    0.800 
#    0.000    0.000    0.000   13.200    0.000    0.000 
#    0.000    0.000    0.000    0.000    0.000    0.000 
#
# Total GULP energy -111389.837946 kJ/mol
# GULP energy per Si atom -5569.491897 kJ/mol
# Density = 1.842895 g / cm^3
# Si number density = 18.470988 Si / 1000 Ang^3
#
#
#
# Elastic Constant Matrix: (Units=GPa)
#
#
# Indices 1 2 3 4 5 6 
#
# 1 76.9394 20.9609 9.3964 0.0000 4.7976 0.0000
# 2 20.9609 78.5351 0.9541 0.0000 5.0363 0.0000
# 3 9.3964 0.9541 109.9612 0.0000 4.9687 0.0000
# 4 0.0000 0.0000 0.0000 17.2149 0.0000 -13.1511
# 5 4.7976 5.0363 4.9687 0.0000 13.2442 0.0000
# 6 0.0000 0.0000 0.0000 -13.1511 0.0000 -4.8881
#
#
#
# Elastic Compliance Matrix: (Units=1/GPa)
#
#
# Indices 1 2 3 4 5 6 
#
# 1 0.014315 -0.003588 -0.001037 0.000000 -0.003432 0.000000
# 2 -0.003588 0.013952 0.000373 0.000000 -0.004146 0.000000
# 3 -0.001037 0.000373 0.009327 0.000000 -0.003265 0.000000
# 4 0.000000 0.000000 0.000000 0.019012 0.000000 -0.051152
# 5 -0.003432 -0.004146 -0.003265 0.000000 0.079550 0.000000
# 6 0.000000 0.000000 0.000000 -0.051152 0.000000 -0.066958
#
#
# Mechanical properties :
#
#
# Convention : Reuss Voigt Hill
#
# Bulk Modulus (GPa) = 34.37598 36.45095 35.41347
# Shear Modulus (GPa) = 57.20841 20.72248 38.96544
#
# Velocity S-wave (km/s) = 5.57129 3.35310 4.59796
# Velocity P-wave (km/s) = 7.74835 5.89644 6.88495
#
# Compressibility (1/GPa) = 0.02909008
#
# Stress axis : x y z
#
# Youngs Moduli (GPa) = 69.85476 71.67361 107.21510
#
# Poissons Ratio (x) = 0.25717 0.11119
# Poissons Ratio (y) = 0.25064 -0.03998
# Poissons Ratio (z) = 0.07244 -0.02673
#
# Static dielectric constant tensor:
#      x y z
#    x 1.623540 0.000000 -0.020150 
#    y 0.000000 1.604870 0.000000 
#    z -0.020150 0.000000 1.712860 
# 
# From -- ./inp_files/3451.got.cif
#   From: 2010.05.17/outbox.cif.g08.bks.cpg/sg13_2_cif.got.tgz:3451.got - 2010.06.03 16:44:36.
