data_PCOD9229258
_publ_section_title
;
Structure prediction by ZEFSAII (Michael W. Deem and Ramdas Pophale) SiO2 
 PCOD9229258
Probable space group: P 2/C
;
_chemical_formula_sum "Si O2"
_cell_formula_units_Z 24
_cell_length_a 14.071851
_cell_length_b 8.635946
_cell_length_c 16.489297
_cell_angle_alpha 90.000000
_cell_angle_beta 139.007482
_cell_angle_gamma 90.000000
_cell_volume 1314.440568
_symmetry_space_group_name_H-M "P 2/C"
_symmetry_group_IT_number 13
_symmetry_cell_setting 'monoclinic'
loop_
_space_group_symop_operation_xyz
x,y,z
-x,y,1/2-z
-x,-y,-z
x,-y,1/2+z
loop_
_atom_site_type_symbol
_atom_site_label
_atom_site_fract_x
_atom_site_fract_y
_atom_site_fract_z
Si Si1 0.148017 0.507862 0.146167
Si Si2 0.327406 0.781628 0.732993
Si Si3 0.852021 0.278316 0.696605
Si Si4 0.444169 0.665525 0.291626
Si Si5 0.371121 0.353743 0.080834
Si Si6 0.375081 0.927011 0.364715
O O1 0.212723 0.335258 0.199869
O O2 0.124754 0.602295 0.214187
O O3 0.280796 0.596277 0.185327
O O4 0.000000 0.500000 0.000000
O O5 0.491225 0.739735 0.864160
O O6 0.325821 0.731424 0.636128
O O7 0.314798 0.956682 0.756014
O O8 0.756471 0.356735 0.564973
O O9 0.760306 0.134052 0.670772
O O10 0.000000 0.230064 0.750000
O O11 0.500000 0.760248 0.250000
O O12 0.558298 0.523920 0.365763
O O13 0.444665 0.775211 0.368719
O O14 0.500000 0.000000 0.500000
#
# Coordination Sequence:
#
# PCOD9229258 Si02
#       6
#     4   4   4   4   4   4
#     4  10  21  40  63  89 124 160 213 258 310 366
#     4  10  20  38  63  90 123 160 209 258 315 364
#     4  11  24  39  62  89 130 166 212 257 316 377
#     4  10  21  37  63  92 120 159 217 254 311 372
#     4  10  19  38  63  89 118 166 210 264 299 374
#     4  11  24  38  60  95 130 163 206 258 320 380
#
# _framework density 18.258717999999998
#
# number of rings (size 3 to 8) (size 9 to 14) (size 15 to 20)
#    0.000    1.667    5.000    1.000    4.667    2.000 
#    0.000   10.000    0.000    0.000    0.000    0.000 
#    0.000    0.000    0.000    0.000    0.000    0.000 
#
# Total GULP energy -133658.026253 kJ/mol
# GULP energy per Si atom -5569.084427 kJ/mol
# Density = 1.821716 g / cm^3
# Si number density = 18.258718 Si / 1000 Ang^3
#
#
#
# Elastic Constant Matrix: (Units=GPa)
#
#
# Indices 1 2 3 4 5 6 
#
# 1 137.4470 53.6143 58.7633 0.0000 5.2055 0.0000
# 2 53.6143 85.9911 43.6266 0.0000 -1.3521 0.0000
# 3 58.7633 43.6266 136.5338 0.0000 -0.6650 0.0000
# 4 0.0000 0.0000 0.0000 23.9958 0.0000 -3.8083
# 5 5.2055 -1.3521 -0.6650 0.0000 16.6133 0.0000
# 6 0.0000 0.0000 0.0000 -3.8083 0.0000 21.4846
#
#
#
# Elastic Compliance Matrix: (Units=1/GPa)
#
#
# Indices 1 2 3 4 5 6 
#
# 1 0.010740 -0.005255 -0.002962 0.000000 -0.003911 0.000000
# 2 -0.005255 0.016465 -0.002986 0.000000 0.002867 0.000000
# 3 -0.002962 -0.002986 0.009558 0.000000 0.001068 0.000000
# 4 0.000000 0.000000 0.000000 0.042880 0.000000 0.007601
# 5 -0.003911 0.002867 0.001068 0.000000 0.061695 0.000000
# 6 0.000000 0.000000 0.000000 0.007601 0.000000 0.047892
#
#
# Mechanical properties :
#
#
# Convention : Reuss Voigt Hill
#
# Bulk Modulus (GPa) = 69.64728 74.66445 72.15586
# Shear Modulus (GPa) = 23.10302 26.01658 24.55980
#
# Velocity S-wave (km/s) = 3.56099 3.77886 3.67154
# Velocity P-wave (km/s) = 7.42529 7.74732 7.58802
#
# Compressibility (1/GPa) = 0.01435806
#
# Stress axis : x y z
#
# Youngs Moduli (GPa) = 93.11037 60.73437 104.62051
#
# Poissons Ratio (x) = 0.31915 0.30993
# Poissons Ratio (y) = 0.48927 0.31235
# Poissons Ratio (z) = 0.27583 0.18132
#
# Static dielectric constant tensor:
#      x y z
#    x 1.670230 0.000000 -0.046800 
#    y 0.000000 1.663020 0.000000 
#    z -0.046800 0.000000 1.638430 
# 
# From -- ./inp_files/67797.got.cif
#   From: 2010.05.17/outbox.cif.g08.bks.cpg/sg13_34_cif.got.tgz:67797.got - 2010.06.03 16:44:36.
