data_PCOD9229888
_publ_section_title
;
Structure prediction by ZEFSAII (Michael W. Deem and Ramdas Pophale) SiO2 
 PCOD9229888
Probable space group: P 2/C
;
_chemical_formula_sum "Si O2"
_cell_formula_units_Z 30
_cell_length_a 13.206281
_cell_length_b 11.096159
_cell_length_c 14.937051
_cell_angle_alpha 90.000000
_cell_angle_beta 135.410990
_cell_angle_gamma 90.000000
_cell_volume 1536.616057
_symmetry_space_group_name_H-M "P 2/C"
_symmetry_group_IT_number 13
_symmetry_cell_setting 'monoclinic'
loop_
_space_group_symop_operation_xyz
x,y,z
-x,y,1/2-z
-x,-y,-z
x,-y,1/2+z
loop_
_atom_site_type_symbol
_atom_site_label
_atom_site_fract_x
_atom_site_fract_y
_atom_site_fract_z
Si Si1 0.661468 0.662634 0.817649
Si Si2 0.860890 0.892922 0.971596
Si Si3 0.340852 0.553483 0.881777
Si Si4 0.000000 0.134457 0.750000
Si Si5 0.137532 0.299522 0.384333
Si Si6 0.920505 0.528504 0.042707
Si Si7 0.163880 0.843753 0.076248
Si Si8 0.834889 0.691719 0.253477
O O1 0.500000 0.667484 0.750000
O O2 0.663439 0.624370 0.714984
O O3 0.745344 0.785950 0.893106
O O4 0.754148 0.558059 0.924197
O O5 0.940048 0.920197 0.117914
O O6 0.991642 0.853931 0.987853
O O7 0.789536 0.017596 0.894184
O O8 0.265134 0.645126 0.904162
O O9 0.247488 0.430516 0.819218
O O10 0.500000 0.500000 0.000000
O O11 0.858586 0.210022 0.692408
O O12 0.063040 0.415261 0.383965
O O13 0.193359 0.217145 0.499945
O O14 0.000000 0.237190 0.250000
O O15 0.001312 0.645282 0.129410
O O16 0.000000 0.500000 0.000000
O O17 0.219388 0.757809 0.191108
#
# Coordination Sequence:
#
# PCOD9229888 Si02
#       8
#     4   4   4   2   4   4   4   4
#     4  12  24  41  62  86 130 174 205 257 323 391
#     4  10  22  40  61  95 122 163 218 259 315 362
#     4  12  26  39  59  98 129 158 207 266 324 383
#     4  10  20  34  62  92 122 152 204 270 294 366
#     4  12  21  34  61  93 127 158 200 258 312 374
#     4  12  18  36  60  90 122 161 207 245 318 384
#     4  10  21  39  65  90 121 165 213 262 305 372
#     4  11  20  38  62  89 125 158 206 255 317 374
#
# _framework density 19.523420999999999
#
# number of rings (size 3 to 8) (size 9 to 14) (size 15 to 20)
#    0.000    0.800    6.667    2.400    2.800    0.000 
#    2.400    1.333    0.000    1.600    0.000    0.000 
#    0.000    0.000    0.000    0.000    0.000    0.000 
#
# Total GULP energy -167317.055832 kJ/mol
# GULP energy per Si atom -5577.235194 kJ/mol
# Density = 1.947898 g / cm^3
# Si number density = 19.523421 Si / 1000 Ang^3
#
#
#
# Elastic Constant Matrix: (Units=GPa)
#
#
# Indices 1 2 3 4 5 6 
#
# 1 81.7191 7.2807 27.6185 0.0000 0.4486 0.0000
# 2 7.2807 60.0504 9.1907 0.0000 0.6457 0.0000
# 3 27.6185 9.1907 63.8944 0.0000 5.2111 0.0000
# 4 0.0000 0.0000 0.0000 25.4114 0.0000 -3.3711
# 5 0.4486 0.6457 5.2111 0.0000 33.4294 0.0000
# 6 0.0000 0.0000 0.0000 -3.3711 0.0000 16.3840
#
#
#
# Elastic Compliance Matrix: (Units=1/GPa)
#
#
# Indices 1 2 3 4 5 6 
#
# 1 0.014389 -0.000809 -0.006167 0.000000 0.000784 0.000000
# 2 -0.000809 0.017073 -0.002107 0.000000 0.000010 0.000000
# 3 -0.006167 -0.002107 0.018849 0.000000 -0.002815 0.000000
# 4 0.000000 0.000000 0.000000 0.040457 0.000000 0.008324
# 5 0.000784 0.000010 -0.002815 0.000000 0.030342 0.000000
# 6 0.000000 0.000000 0.000000 0.008324 0.000000 0.062748
#
#
# Mechanical properties :
#
#
# Convention : Reuss Voigt Hill
#
# Bulk Modulus (GPa) = 31.10901 32.64930 31.87916
# Shear Modulus (GPa) = 23.50289 25.81654 24.65972
#
# Velocity S-wave (km/s) = 3.47339 3.64034 3.55784
# Velocity P-wave (km/s) = 5.66169 5.86761 5.76557
#
# Compressibility (1/GPa) = 0.03214502
#
# Stress axis : x y z
#
# Youngs Moduli (GPa) = 69.49663 58.57155 53.05237
#
# Poissons Ratio (x) = 0.04739 0.32719
# Poissons Ratio (y) = 0.05623 0.11177
# Poissons Ratio (z) = 0.42861 0.12340
#
# Static dielectric constant tensor:
#      x y z
#    x 1.692700 0.000000 -0.039020 
#    y 0.000000 1.713480 0.000000 
#    z -0.039020 0.000000 1.741860 
# 
# From -- ./inp_files/51189.got.cif
#   From: 2010.05.17/outbox.cif.g08.bks.cpg/sg13_26_cif.got.tgz:51189.got - 2010.06.03 16:44:36.
