data_PCOD9229173
_publ_section_title
;
Structure prediction by ZEFSAII (Michael W. Deem and Ramdas Pophale) SiO2 
 PCOD9229173
Probable space group: P 2/C
;
_chemical_formula_sum "Si O2"
_cell_formula_units_Z 22
_cell_length_a 9.360634
_cell_length_b 11.706257
_cell_length_c 10.475141
_cell_angle_alpha 90.000000
_cell_angle_beta 57.547720
_cell_angle_gamma 90.000000
_cell_volume 968.595868
_symmetry_space_group_name_H-M "P 2/C"
_symmetry_group_IT_number 13
_symmetry_cell_setting 'monoclinic'
loop_
_space_group_symop_operation_xyz
x,y,z
-x,y,1/2-z
-x,-y,-z
x,-y,1/2+z
loop_
_atom_site_type_symbol
_atom_site_label
_atom_site_fract_x
_atom_site_fract_y
_atom_site_fract_z
Si Si1 0.000000 0.889826 0.250000
Si Si2 0.393986 0.853000 0.476408
Si Si3 0.169960 0.262327 0.884253
Si Si4 0.119660 0.497570 0.317815
Si Si5 0.670677 0.102808 0.028521
Si Si6 0.193057 0.247513 0.303347
O O1 0.102474 0.815737 0.302541
O O2 0.146308 0.947720 0.100410
O O3 0.326816 0.782933 0.388931
O O4 0.565768 0.828060 0.472305
O O5 0.250808 0.826093 0.654049
O O6 0.423783 0.982719 0.413297
O O7 0.212160 0.382982 0.797660
O O8 0.005323 0.256688 0.059882
O O9 0.230204 0.382156 0.262423
O O10 0.000000 0.501301 0.250000
O O11 0.000000 0.500000 0.500000
O O12 0.708167 0.186083 0.127876
#
# Coordination Sequence:
#
# PCOD9229173 Si02
#       6
#     2   4   4   4   4   4
#     4  10  22  40  62  90 126 160 218 260 312 392
#     4  11  23  41  63  93 130 172 212 268 330 380
#     4  10  21  37  65  96 122 166 210 263 316 385
#     4  10  19  37  65  97 130 169 219 269 328 387
#     4  10  25  40  62  91 130 172 212 269 321 385
#     4  10  21  39  64  94 126 168 215 261 321 395
#
# _framework density 22.713290000000001
#
# number of rings (size 3 to 8) (size 9 to 14) (size 15 to 20)
#    0.000    1.818    0.909    3.273    5.091    2.182 
#    0.000    0.909    4.000    0.000    0.000    0.000 
#    0.000    0.000    0.000    0.000    0.000    0.000 
#
# Total GULP energy -122580.991685 kJ/mol
# GULP energy per Si atom -5571.863258 kJ/mol
# Density = 2.266159 g / cm^3
# Si number density = 22.713290 Si / 1000 Ang^3
#
#
#
# Elastic Constant Matrix: (Units=GPa)
#
#
# Indices 1 2 3 4 5 6 
#
# 1 156.9890 78.8155 55.8419 0.0000 50.6418 0.0000
# 2 78.8155 116.9626 16.3210 0.0000 36.7933 0.0000
# 3 55.8419 16.3210 87.7121 0.0000 17.4025 0.0000
# 4 0.0000 0.0000 0.0000 22.0017 0.0000 4.5841
# 5 50.6418 36.7933 17.4025 0.0000 51.5144 0.0000
# 6 0.0000 0.0000 0.0000 4.5841 0.0000 47.8090
#
#
#
# Elastic Compliance Matrix: (Units=1/GPa)
#
#
# Indices 1 2 3 4 5 6 
#
# 1 0.014190 -0.006398 -0.006412 0.000000 -0.007214 0.000000
# 2 -0.006398 0.013934 0.002366 0.000000 -0.004462 0.000000
# 3 -0.006412 0.002366 0.015143 0.000000 -0.000501 0.000000
# 4 0.000000 0.000000 0.000000 0.046378 0.000000 -0.004447
# 5 -0.007214 -0.004462 -0.000501 0.000000 0.029860 0.000000
# 6 0.000000 0.000000 0.000000 -0.004447 0.000000 0.021343
#
#
# Mechanical properties :
#
#
# Convention : Reuss Voigt Hill
#
# Bulk Modulus (GPa) = 44.68660 73.73560 59.21110
# Shear Modulus (GPa) = 29.55166 38.31071 33.93119
#
# Velocity S-wave (km/s) = 3.61095 4.11141 3.86928
# Velocity P-wave (km/s) = 6.09116 7.42108 6.78876
#
# Compressibility (1/GPa) = 0.02237807
#
# Stress axis : x y z
#
# Youngs Moduli (GPa) = 70.47368 71.76436 66.03901
#
# Poissons Ratio (x) = 0.45913 0.42345
# Poissons Ratio (y) = 0.45087 -0.15622
# Poissons Ratio (z) = 0.45189 -0.16977
#
# Static dielectric constant tensor:
#      x y z
#    x 2.019500 0.000000 -0.158560 
#    y 0.000000 1.894790 0.000000 
#    z -0.158560 0.000000 2.021150 
# 
# From -- ./inp_files/29341.got.cif
#   From: 2010.05.17/outbox.cif.g08.bks.cpg/sg13_15_cif.got.tgz:29341.got - 2010.06.03 16:44:36.
