data_PCOD9229660
_publ_section_title
;
Structure prediction by ZEFSAII (Michael W. Deem and Ramdas Pophale) SiO2 
 PCOD9229660
Probable space group: P 2/C
;
_chemical_formula_sum "Si O2"
_cell_formula_units_Z 22
_cell_length_a 9.324845
_cell_length_b 13.537263
_cell_length_c 16.789912
_cell_angle_alpha 90.000000
_cell_angle_beta 31.074315
_cell_angle_gamma 90.000000
_cell_volume 1093.947182
_symmetry_space_group_name_H-M "P 2/C"
_symmetry_group_IT_number 13
_symmetry_cell_setting 'monoclinic'
loop_
_space_group_symop_operation_xyz
x,y,z
-x,y,1/2-z
-x,-y,-z
x,-y,1/2+z
loop_
_atom_site_type_symbol
_atom_site_label
_atom_site_fract_x
_atom_site_fract_y
_atom_site_fract_z
Si Si1 0.035741 0.125915 0.351612
Si Si2 0.394560 0.197672 0.502081
Si Si3 0.000000 0.953489 0.250000
Si Si4 0.803002 0.410694 0.567696
Si Si5 0.747753 0.321492 0.428864
Si Si6 0.186284 0.774097 0.930140
O O1 0.319154 0.158142 0.171984
O O2 0.093997 0.134081 0.417969
O O3 0.820939 0.212997 0.431321
O O4 0.965442 0.022955 0.343796
O O5 0.263296 0.118752 0.624212
O O6 0.471327 0.299531 0.509776
O O7 0.199157 0.208783 0.518057
O O8 0.500000 0.417476 0.750000
O O9 0.748534 0.398931 0.499351
O O10 0.000000 0.500000 0.500000
O O11 0.972846 0.313282 0.513149
O O12 0.000000 0.345896 0.250000
O O13 0.500000 0.747654 0.750000
#
# Coordination Sequence:
#
# PCOD9229660 Si02
#       6
#     4   4   2   4   4   4
#     4   9  18  35  54  79 115 168 205 249 295 356
#     4  10  20  33  56  83 119 158 203 256 301 348
#     4  12  20  28  56  86 126 156 218 250 296 344
#     4  11  24  42  67  94 124 154 200 255 315 385
#     4   9  19  40  65  84 120 167 200 244 316 362
#     4   9  20  40  61  82 120 165 207 248 316 360
#
# _framework density 20.110662000000001
#
# number of rings (size 3 to 8) (size 9 to 14) (size 15 to 20)
#    0.000    2.182    2.727    2.182    2.545    0.727 
#    0.000    3.636    0.000    0.000    0.000    0.000 
#    0.000    0.000    0.000    0.000    0.000    0.000 
#
# Total GULP energy -122659.271878 kJ/mol
# GULP energy per Si atom -5575.421449 kJ/mol
# Density = 2.006489 g / cm^3
# Si number density = 20.110662 Si / 1000 Ang^3
#
#
#
# Elastic Constant Matrix: (Units=GPa)
#
#
# Indices 1 2 3 4 5 6 
#
# 1 143.8304 44.4827 37.6988 0.0000 17.0362 0.0000
# 2 44.4827 69.1892 39.0454 0.0000 9.0467 0.0000
# 3 37.6988 39.0454 74.2404 0.0000 1.9187 0.0000
# 4 0.0000 0.0000 0.0000 -250.3988 0.0000 125.4648
# 5 17.0362 9.0467 1.9187 0.0000 23.9740 0.0000
# 6 0.0000 0.0000 0.0000 125.4648 0.0000 -37.8252
#
#
#
# Elastic Compliance Matrix: (Units=1/GPa)
#
#
# Indices 1 2 3 4 5 6 
#
# 1 0.009449 -0.003960 -0.002586 0.000000 -0.005013 0.000000
# 2 -0.003960 0.023421 -0.010172 0.000000 -0.005210 0.000000
# 3 -0.002586 -0.010172 0.020027 0.000000 0.004073 0.000000
# 4 0.000000 0.000000 0.000000 0.006033 0.000000 0.020010
# 5 -0.005013 -0.005210 0.004073 0.000000 0.046914 0.000000
# 6 0.000000 0.000000 0.000000 0.020010 0.000000 0.039936
#
#
# Mechanical properties :
#
#
# Convention : Reuss Voigt Hill
#
# Bulk Modulus (GPa) = 51.38497 58.85709 55.12103
# Shear Modulus (GPa) = 26.92471 -41.78112 -7.42821
#
# Velocity S-wave (km/s) = 3.66297 -4.56297 -1.92398
# Velocity P-wave (km/s) = 6.59518 1.25268 4.74687
#
# Compressibility (1/GPa) = 0.01946094
#
# Stress axis : x y z
#
# Youngs Moduli (GPa) = 105.83208 42.69711 49.93155
#
# Poissons Ratio (x) = 0.16909 0.12911
# Poissons Ratio (y) = 0.41911 0.50791
# Poissons Ratio (z) = 0.27366 0.43432
#
# Static dielectric constant tensor:
#      x y z
#    x 1.805930 0.000000 -0.009570 
#    y 0.000000 1.705030 0.000000 
#    z -0.009570 0.000000 1.694290 
# 
# From -- ./inp_files/64596.got.cif
#   From: 2010.05.17/outbox.cif.g08.bks.cpg/sg13_33_cif.got.tgz:64596.got - 2010.06.03 16:44:36.
