data_PCOD9229682
_publ_section_title
;
Structure prediction by ZEFSAII (Michael W. Deem and Ramdas Pophale) SiO2 
 PCOD9229682
Probable space group: P 2/C
;
_chemical_formula_sum "Si O2"
_cell_formula_units_Z 30
_cell_length_a 23.245336
_cell_length_b 12.612024
_cell_length_c 13.283179
_cell_angle_alpha 90.000000
_cell_angle_beta 22.499251
_cell_angle_gamma 90.000000
_cell_volume 1490.213851
_symmetry_space_group_name_H-M "P 2/C"
_symmetry_group_IT_number 13
_symmetry_cell_setting 'monoclinic'
loop_
_space_group_symop_operation_xyz
x,y,z
-x,y,1/2-z
-x,-y,-z
x,-y,1/2+z
loop_
_atom_site_type_symbol
_atom_site_label
_atom_site_fract_x
_atom_site_fract_y
_atom_site_fract_z
Si Si1 0.531533 0.699116 0.399687
Si Si2 0.241361 0.865544 0.524200
Si Si3 0.249978 0.274361 0.213682
Si Si4 0.673469 0.928426 0.502103
Si Si5 0.370767 0.697119 0.873472
Si Si6 0.660469 0.468780 0.547847
Si Si7 0.031315 0.980033 0.565283
Si Si8 0.000000 0.175848 0.750000
O O1 0.648941 0.794428 0.218668
O O2 0.413066 0.730895 0.503279
O O3 0.446633 0.685714 0.641515
O O4 0.618883 0.595025 0.217401
O O5 0.232080 0.805419 0.647937
O O6 0.081719 0.884469 0.728293
O O7 0.307490 0.980718 0.444550
O O8 0.131941 0.246482 0.491248
O O9 0.239221 0.390903 0.182183
O O10 0.709683 0.810355 0.484216
O O11 0.500000 0.931119 0.750000
O O12 0.790988 0.956221 0.221443
O O13 0.500000 0.699698 0.750000
O O14 0.280179 0.587673 0.034779
O O15 0.500000 0.477858 0.750000
O O16 0.972113 0.087586 0.710081
O O17 0.000000 0.000000 0.500000
#
# Coordination Sequence:
#
# PCOD9229682 Si02
#       8
#     4   4   4   4   4   4   4   2
#     4  10  20  33  61  88 110 154 202 244 292 349
#     4  10  20  38  57  85 123 149 193 243 302 345
#     4  10  20  35  62  88 110 152 203 255 289 345
#     4  10  20  35  55  81 119 151 191 233 287 356
#     4  10  21  34  55  83 120 156 191 243 296 352
#     4   8  17  37  57  82 114 147 194 254 299 340
#     4  10  22  37  53  83 124 160 183 241 302 356
#     4  12  22  36  62  82 116 152 202 236 306 362
#
# _framework density 20.131339000000001
#
# number of rings (size 3 to 8) (size 9 to 14) (size 15 to 20)
#    0.000    2.133    2.667    2.400    3.733    2.667 
#    0.000    0.000    0.000   12.800    0.000    0.000 
#    0.000    0.000    0.000    0.000    0.000    0.000 
#
# Total GULP energy -167111.172347 kJ/mol
# GULP energy per Si atom -5570.372412 kJ/mol
# Density = 2.008552 g / cm^3
# Si number density = 20.131339 Si / 1000 Ang^3
#
#
#
# Elastic Constant Matrix: (Units=GPa)
#
#
# Indices 1 2 3 4 5 6 
#
# 1 50.2126 11.8244 17.0817 0.0000 8.6606 0.0000
# 2 11.8244 158.8651 40.2110 0.0000 5.4075 0.0000
# 3 17.0817 40.2110 86.5213 0.0000 -0.7503 0.0000
# 4 0.0000 0.0000 0.0000 26.3698 0.0000 -1.0122
# 5 8.6606 5.4075 -0.7503 0.0000 32.1335 0.0000
# 6 0.0000 0.0000 0.0000 -1.0122 0.0000 28.0322
#
#
#
# Elastic Compliance Matrix: (Units=1/GPa)
#
#
# Indices 1 2 3 4 5 6 
#
# 1 0.022529 -0.000374 -0.004327 0.000000 -0.006110 0.000000
# 2 -0.000374 0.007193 -0.003279 0.000000 -0.001186 0.000000
# 3 -0.004327 -0.003279 0.013954 0.000000 0.002044 0.000000
# 4 0.000000 0.000000 0.000000 0.037975 0.000000 0.001371
# 5 -0.006110 -0.001186 0.002044 0.000000 0.033014 0.000000
# 6 0.000000 0.000000 0.000000 0.001371 0.000000 0.035723
#
#
# Mechanical properties :
#
#
# Convention : Reuss Voigt Hill
#
# Bulk Modulus (GPa) = 36.08078 48.20369 42.14224
# Shear Modulus (GPa) = 28.47587 32.40589 30.44088
#
# Velocity S-wave (km/s) = 3.76507 4.01649 3.89281
# Velocity P-wave (km/s) = 6.07146 6.74583 6.41751
#
# Compressibility (1/GPa) = 0.02771559
#
# Stress axis : x y z
#
# Youngs Moduli (GPa) = 44.38672 139.02573 71.66385
#
# Poissons Ratio (x) = 0.05194 0.31011
# Poissons Ratio (y) = 0.01658 0.23502
# Poissons Ratio (z) = 0.19207 0.45593
#
# Static dielectric constant tensor:
#      x y z
#    x 1.732150 0.000000 -0.007820 
#    y 0.000000 1.753190 0.000000 
#    z -0.007820 0.000000 1.805790 
# 
# From -- ./inp_files/59616.got.cif
#   From: 2010.05.17/outbox.cif.g08.bks.cpg/sg13_30_cif.got.tgz:59616.got - 2010.06.03 16:44:36.
