data_PCOD9229156
_publ_section_title
;
Structure prediction by ZEFSAII (Michael W. Deem and Ramdas Pophale) SiO2 
 PCOD9229156
Probable space group: P 2/C
;
_chemical_formula_sum "Si O2"
_cell_formula_units_Z 22
_cell_length_a 5.825231
_cell_length_b 7.191906
_cell_length_c 26.538948
_cell_angle_alpha 90.000000
_cell_angle_beta 75.100207
_cell_angle_gamma 90.000000
_cell_volume 1074.453059
_symmetry_space_group_name_H-M "P 2/C"
_symmetry_group_IT_number 13
_symmetry_cell_setting 'monoclinic'
loop_
_space_group_symop_operation_xyz
x,y,z
-x,y,1/2-z
-x,-y,-z
x,-y,1/2+z
loop_
_atom_site_type_symbol
_atom_site_label
_atom_site_fract_x
_atom_site_fract_y
_atom_site_fract_z
Si Si1 0.268262 0.093821 0.985555
Si Si2 0.154431 0.698338 0.582227
Si Si3 0.829129 0.574839 0.158898
Si Si4 0.436140 0.708879 0.666186
Si Si5 0.212647 0.976630 0.375863
Si Si6 0.000000 0.385511 0.250000
O O1 0.319104 0.095665 0.923240
O O2 0.233890 0.282283 0.019979
O O3 0.500000 0.000000 0.000000
O O4 0.000000 0.000000 0.000000
O O5 0.360780 0.694581 0.611940
O O6 0.981387 0.529012 0.606461
O O7 0.013578 0.890916 0.601373
O O8 0.569279 0.483225 0.170926
O O9 0.842038 0.793057 0.151759
O O10 0.929615 0.509179 0.206449
O O11 0.216608 0.732391 0.715897
O O12 0.608295 0.883267 0.661147
#
# Coordination Sequence:
#
# PCOD9229156 Si02
#       6
#     4   4   4   4   4   2
#     4  10  19  37  64  96 135 171 211 255 314 387
#     4   9  20  38  61  87 128 164 199 251 314 372
#     4  10  22  40  60  88 118 160 208 267 312 383
#     4  10  20  40  61  83 118 160 203 261 318 376
#     4  10  21  38  64  90 124 163 209 251 317 378
#     4  10  22  42  58  78 122 154 204 266 334 370
#
# _framework density 20.475535000000001
#
# number of rings (size 3 to 8) (size 9 to 14) (size 15 to 20)
#    0.000    2.182    1.818    0.545    0.000    3.636 
#    0.000   22.727    0.000    0.000    0.000    0.000 
#    0.000    0.000    0.000    0.000    0.000    0.000 
#
# Total GULP energy -122616.071328 kJ/mol
# GULP energy per Si atom -5573.457788 kJ/mol
# Density = 2.042893 g / cm^3
# Si number density = 20.475535 Si / 1000 Ang^3
#
#
#
# Elastic Constant Matrix: (Units=GPa)
#
#
# Indices 1 2 3 4 5 6 
#
# 1 71.0254 5.9523 1.9697 0.0000 9.8127 0.0000
# 2 5.9523 67.4804 -0.9943 0.0000 -2.0610 0.0000
# 3 1.9697 -0.9943 46.6539 0.0000 6.9424 0.0000
# 4 0.0000 0.0000 0.0000 8.7314 0.0000 7.5156
# 5 9.8127 -2.0610 6.9424 0.0000 23.0465 0.0000
# 6 0.0000 0.0000 0.0000 7.5156 0.0000 -4.4550
#
#
#
# Elastic Compliance Matrix: (Units=1/GPa)
#
#
# Indices 1 2 3 4 5 6 
#
# 1 0.015121 -0.001533 0.000322 0.000000 -0.006672 0.000000
# 2 -0.001533 0.015016 0.000092 0.000000 0.001968 0.000000
# 3 0.000322 0.000092 0.022448 0.000000 -0.006891 0.000000
# 4 0.000000 0.000000 0.000000 0.046707 0.000000 0.078794
# 5 -0.006672 0.001968 -0.006891 0.000000 0.048483 0.000000
# 6 0.000000 0.000000 0.000000 0.078794 0.000000 -0.091541
#
#
# Mechanical properties :
#
#
# Convention : Reuss Voigt Hill
#
# Bulk Modulus (GPa) = 19.86231 22.11279 20.98755
# Shear Modulus (GPa) = 66.44127 17.34671 41.89399
#
# Velocity S-wave (km/s) = 5.70259 2.91381 4.52824
# Velocity P-wave (km/s) = 7.28567 4.70569 6.13288
#
# Compressibility (1/GPa) = 0.05034660
#
# Stress axis : x y z
#
# Youngs Moduli (GPa) = 66.13398 66.59663 44.54701
#
# Poissons Ratio (x) = 0.10208 -0.01434
# Poissons Ratio (y) = 0.10137 -0.00409
# Poissons Ratio (z) = -0.02128 -0.00612
#
# Static dielectric constant tensor:
#      x y z
#    x 1.793580 0.000000 -0.027440 
#    y 0.000000 1.689910 0.000000 
#    z -0.027440 0.000000 1.796100 
# 
# From -- ./inp_files/94555.got.cif
#   From: 2010.05.17/outbox.cif.g08.bks.cpg/sg13_48_cif.got.tgz:94555.got - 2010.06.03 16:44:36.
