data_PCOD9229872
_publ_section_title
;
Structure prediction by ZEFSAII (Michael W. Deem and Ramdas Pophale) SiO2 
 PCOD9229872
Probable space group: P 2/C
;
_chemical_formula_sum "Si O2"
_cell_formula_units_Z 22
_cell_length_a 5.767942
_cell_length_b 10.493766
_cell_length_c 15.927939
_cell_angle_alpha 90.000000
_cell_angle_beta 104.863287
_cell_angle_gamma 90.000000
_cell_volume 931.819864
_symmetry_space_group_name_H-M "P 2/C"
_symmetry_group_IT_number 13
_symmetry_cell_setting 'monoclinic'
loop_
_space_group_symop_operation_xyz
x,y,z
-x,y,1/2-z
-x,-y,-z
x,-y,1/2+z
loop_
_atom_site_type_symbol
_atom_site_label
_atom_site_fract_x
_atom_site_fract_y
_atom_site_fract_z
Si Si1 0.258139 0.659413 0.454230
Si Si2 0.266838 0.607672 0.894902
Si Si3 0.260613 0.310268 0.768081
Si Si4 0.500000 0.340023 0.250000
Si Si5 0.216275 0.030060 0.705110
Si Si6 0.112716 0.804296 0.597959
O O1 0.500244 0.629406 0.526795
O O2 0.145088 0.519848 0.422228
O O3 0.317409 0.721348 0.370303
O O4 0.119649 0.752032 0.503925
O O5 0.343953 0.587429 0.805878
O O6 0.119468 0.737188 0.885068
O O7 0.500000 0.365838 0.750000
O O8 0.000000 0.374689 0.750000
O O9 0.211797 0.182914 0.708656
O O10 0.675958 0.257313 0.325172
O O11 0.500000 0.000456 0.750000
O O12 0.143452 0.954076 0.614708
O O13 0.000000 0.990663 0.750000
#
# Coordination Sequence:
#
# PCOD9229872 Si02
#       6
#     4   4   4   2   4   4
#     4  10  24  41  62  97 134 175 226 281 345 403
#     4  10  22  39  63  96 136 173 226 275 341 415
#     4  10  24  45  69  95 134 181 233 280 341 407
#     4  10  20  34  60  96 122 176 212 270 336 402
#     4  10  21  41  68  94 130 175 228 282 328 400
#     4  11  21  38  66  93 134 171 224 283 337 401
#
# _framework density 23.609715000000001
#
# number of rings (size 3 to 8) (size 9 to 14) (size 15 to 20)
#    0.000    1.818    0.909    2.182    6.364    1.455 
#    0.000    7.273    0.000    0.000    0.000    0.000 
#    0.000    0.000    0.000    0.000    0.000    0.000 
#
# Total GULP energy -122655.381173 kJ/mol
# GULP energy per Si atom -5575.244599 kJ/mol
# Density = 2.355598 g / cm^3
# Si number density = 23.609715 Si / 1000 Ang^3
#
#
#
# Elastic Constant Matrix: (Units=GPa)
#
#
# Indices 1 2 3 4 5 6 
#
# 1 135.7442 18.0773 33.4050 0.0000 -23.1576 0.0000
# 2 18.0773 67.7527 17.5270 0.0000 -0.6139 0.0000
# 3 33.4050 17.5270 127.4650 0.0000 -24.9221 0.0000
# 4 0.0000 0.0000 0.0000 24.3779 0.0000 -12.8032
# 5 -23.1576 -0.6139 -24.9221 0.0000 29.4523 0.0000
# 6 0.0000 0.0000 0.0000 -12.8032 0.0000 27.5386
#
#
#
# Elastic Compliance Matrix: (Units=1/GPa)
#
#
# Indices 1 2 3 4 5 6 
#
# 1 0.008920 -0.002111 -0.000821 0.000000 0.006276 0.000000
# 2 -0.002111 0.015879 -0.002265 0.000000 -0.003245 0.000000
# 3 -0.000821 -0.002265 0.009869 0.000000 0.007659 0.000000
# 4 0.000000 0.000000 0.000000 0.054273 0.000000 0.025232
# 5 0.006276 -0.003245 0.007659 0.000000 0.045301 0.000000
# 6 0.000000 0.000000 0.000000 0.025232 0.000000 0.048044
#
#
# Mechanical properties :
#
#
# Convention : Reuss Voigt Hill
#
# Bulk Modulus (GPa) = 41.19226 52.10896 46.65061
# Shear Modulus (GPa) = 24.90406 33.73727 29.32066
#
# Velocity S-wave (km/s) = 3.25133 3.78426 3.52787
# Velocity P-wave (km/s) = 5.61960 6.41974 6.03295
#
# Compressibility (1/GPa) = 0.02427641
#
# Stress axis : x y z
#
# Youngs Moduli (GPa) = 112.10208 62.97523 101.32534
#
# Poissons Ratio (x) = 0.13294 0.08314
# Poissons Ratio (y) = 0.23664 0.22948
# Poissons Ratio (z) = 0.09198 0.14262
#
# Static dielectric constant tensor:
#      x y z
#    x 1.947890 0.000000 -0.014380 
#    y 0.000000 1.956090 0.000000 
#    z -0.014380 0.000000 1.879070 
# 
# From -- ./inp_files/43767.got.cif
#   From: 2010.05.17/outbox.cif.g08.bks.cpg/sg13_22_cif.got.tgz:43767.got - 2010.06.03 16:44:36.
