data_PCOD9229170
_publ_section_title
;
Structure prediction by ZEFSAII (Michael W. Deem and Ramdas Pophale) SiO2 
 PCOD9229170
Probable space group: P 2/C
;
_chemical_formula_sum "Si O2"
_cell_formula_units_Z 32
_cell_length_a 21.489583
_cell_length_b 9.194386
_cell_length_c 27.628149
_cell_angle_alpha 90.000000
_cell_angle_beta 162.311451
_cell_angle_gamma 90.000000
_cell_volume 1658.636648
_symmetry_space_group_name_H-M "P 2/C"
_symmetry_group_IT_number 13
_symmetry_cell_setting 'monoclinic'
loop_
_space_group_symop_operation_xyz
x,y,z
-x,y,1/2-z
-x,-y,-z
x,-y,1/2+z
loop_
_atom_site_type_symbol
_atom_site_label
_atom_site_fract_x
_atom_site_fract_y
_atom_site_fract_z
Si Si1 0.831546 0.919172 0.908191
Si Si2 0.969654 0.401590 0.803402
Si Si3 0.696753 0.600656 0.655772
Si Si4 0.668013 0.086353 0.092604
Si Si5 0.928520 0.072846 0.592160
Si Si6 0.653930 0.602382 0.982062
Si Si7 0.202914 0.598572 0.658488
Si Si8 0.620502 0.047664 0.451794
O O1 0.836570 0.749605 0.897799
O O2 0.612353 0.986668 0.733069
O O3 0.844819 0.922400 0.976010
O O4 0.000000 0.000000 0.000000
O O5 0.898007 0.508557 0.791717
O O6 0.793469 0.429289 0.632437
O O7 0.980210 0.231988 0.825911
O O8 0.193816 0.435325 0.948849
O O9 0.500000 0.500000 0.500000
O O10 0.653515 0.743176 0.592008
O O11 0.736965 0.637626 0.741489
O O12 0.887702 0.039014 0.274250
O O13 0.500000 0.000000 0.000000
O O14 0.667577 0.036528 0.036279
O O15 0.772354 0.025784 0.518931
O O16 0.427075 0.536351 0.808276
O O17 0.630470 0.777747 0.967136
O O18 0.000000 0.500000 0.500000
#
# Coordination Sequence:
#
# PCOD9229170 Si02
#       8
#     4   4   4   4   4   4   4   4
#     4  11  23  41  61  89 125 166 211 255 319 380
#     4  10  19  37  65  91 123 156 212 261 319 373
#     4  12  24  40  61  94 129 167 216 263 316 382
#     4  12  23  39  63  93 129 163 209 263 315 373
#     4  11  21  40  67  92 121 165 210 263 323 377
#     4   9  18  38  62  90 122 161 204 260 314 378
#     4  11  23  41  61  90 128 167 214 261 314 381
#     4  10  21  39  64  94 123 160 209 265 311 383
#
# _framework density 19.292953000000001
#
# number of rings (size 3 to 8) (size 9 to 14) (size 15 to 20)
#    0.000    1.250    2.500    5.250    0.000    1.000 
#    4.500    1.875    0.000    0.000    0.000    0.000 
#    0.000    0.000    0.000    0.000    0.000    0.000 
#
# Total GULP energy -178463.389853 kJ/mol
# GULP energy per Si atom -5576.980933 kJ/mol
# Density = 1.924904 g / cm^3
# Si number density = 19.292953 Si / 1000 Ang^3
#
#
#
# Elastic Constant Matrix: (Units=GPa)
#
#
# Indices 1 2 3 4 5 6 
#
# 1 118.1829 28.8640 25.9106 0.0000 7.8801 0.0000
# 2 28.8640 57.6797 18.4363 0.0000 13.3185 0.0000
# 3 25.9106 18.4363 93.6014 0.0000 13.1457 0.0000
# 4 0.0000 0.0000 0.0000 28.4013 0.0000 5.9638
# 5 7.8801 13.3185 13.1457 0.0000 47.3922 0.0000
# 6 0.0000 0.0000 0.0000 5.9638 0.0000 24.5285
#
#
#
# Elastic Compliance Matrix: (Units=1/GPa)
#
#
# Indices 1 2 3 4 5 6 
#
# 1 0.009944 -0.004393 -0.001903 0.000000 0.000109 0.000000
# 2 -0.004393 0.021351 -0.002340 0.000000 -0.004620 0.000000
# 3 -0.001903 -0.002340 0.012002 0.000000 -0.002355 0.000000
# 4 0.000000 0.000000 0.000000 0.037104 0.000000 -0.009021
# 5 0.000109 -0.004620 -0.002355 0.000000 0.023034 0.000000
# 6 0.000000 0.000000 0.000000 -0.009021 0.000000 0.042962
#
#
# Mechanical properties :
#
#
# Convention : Reuss Voigt Hill
#
# Bulk Modulus (GPa) = 38.42571 46.20955 42.31763
# Shear Modulus (GPa) = 29.01160 33.14794 31.07977
#
# Velocity S-wave (km/s) = 3.88202 4.14954 4.01800
# Velocity P-wave (km/s) = 6.32879 6.85286 6.59603
#
# Compressibility (1/GPa) = 0.02602424
#
# Stress axis : x y z
#
# Youngs Moduli (GPa) = 100.55968 46.83723 83.31927
#
# Poissons Ratio (x) = 0.20577 0.15854
# Poissons Ratio (y) = 0.44179 0.19499
# Poissons Ratio (z) = 0.19134 0.10961
#
# Static dielectric constant tensor:
#      x y z
#    x 1.858780 0.000000 -0.008080 
#    y 0.000000 1.647310 0.000000 
#    z -0.008080 0.000000 1.677160 
# 
# From -- ./inp_files/93616.got.cif
#   From: 2010.05.17/outbox.cif.g08.bks.cpg/sg13_47_cif.got.tgz:93616.got - 2010.06.03 16:44:36.
