data_PCOD9229004
_publ_section_title
;
Structure prediction by ZEFSAII (Michael W. Deem and Ramdas Pophale) SiO2 
 PCOD9229004
Probable space group: P 2/C
;
_chemical_formula_sum "Si O2"
_cell_formula_units_Z 26
_cell_length_a 9.253580
_cell_length_b 8.872619
_cell_length_c 25.480806
_cell_angle_alpha 90.000000
_cell_angle_beta 139.862958
_cell_angle_gamma 90.000000
_cell_volume 1348.581570
_symmetry_space_group_name_H-M "P 2/C"
_symmetry_group_IT_number 13
_symmetry_cell_setting 'monoclinic'
loop_
_space_group_symop_operation_xyz
x,y,z
-x,y,1/2-z
-x,-y,-z
x,-y,1/2+z
loop_
_atom_site_type_symbol
_atom_site_label
_atom_site_fract_x
_atom_site_fract_y
_atom_site_fract_z
Si Si1 0.274030 0.117194 0.709109
Si Si2 0.280206 0.810546 0.653674
Si Si3 0.541968 0.140743 0.973562
Si Si4 0.000000 0.809859 0.750000
Si Si5 0.935171 0.651915 0.624564
Si Si6 0.470787 0.054579 0.363653
Si Si7 0.085921 0.676767 0.334537
O O1 0.500000 0.194869 0.750000
O O2 0.367389 0.033062 0.785998
O O3 0.085312 0.227161 0.677332
O O4 0.198817 0.979496 0.649717
O O5 0.500000 0.782506 0.750000
O O6 0.103566 0.686362 0.623198
O O7 0.366751 0.821560 0.617880
O O8 0.610134 0.058053 0.938617
O O9 0.316503 0.231622 0.898182
O O10 0.715856 0.255289 0.047324
O O11 0.500000 0.000000 0.000000
O O12 0.959053 0.721346 0.792681
O O13 0.238681 0.891917 0.826517
O O14 0.886127 0.482009 0.628063
O O15 0.000000 0.660021 0.250000
#
# Coordination Sequence:
#
# PCOD9229004 Si02
#       7
#     4   4   4   2   4   4   4
#     4   9  18  36  62  89 114 156 215 253 291 364
#     4   9  19  37  64  90 120 160 215 255 302 367
#     4  12  24  38  65  93 123 158 210 273 311 353
#     4  12  18  36  62  94 116 156 210 250 308 364
#     4  12  24  38  59  93 129 163 198 256 319 379
#     4  10  19  36  66  93 117 155 218 260 299 364
#     4  12  24  40  63  90 128 167 204 251 318 385
#
# _framework density 19.279516000000001
#
# number of rings (size 3 to 8) (size 9 to 14) (size 15 to 20)
#    0.000    1.538    6.923    2.308    0.000    1.231 
#    0.000    0.000    0.000    4.615    0.000    0.000 
#    0.000    0.000    0.000    0.000    0.000    0.000 
#
# Total GULP energy -144811.765414 kJ/mol
# GULP energy per Si atom -5569.683285 kJ/mol
# Density = 1.923564 g / cm^3
# Si number density = 19.279516 Si / 1000 Ang^3
#
#
#
# Elastic Constant Matrix: (Units=GPa)
#
#
# Indices 1 2 3 4 5 6 
#
# 1 89.9469 28.4565 14.4612 0.0000 10.0396 0.0000
# 2 28.4565 74.1689 28.1137 0.0000 4.2259 0.0000
# 3 14.4612 28.1137 63.6229 0.0000 2.6387 0.0000
# 4 0.0000 0.0000 0.0000 19.5099 0.0000 -3.1101
# 5 10.0396 4.2259 2.6387 0.0000 16.6033 0.0000
# 6 0.0000 0.0000 0.0000 -3.1101 0.0000 12.6658
#
#
#
# Elastic Compliance Matrix: (Units=1/GPa)
#
#
# Indices 1 2 3 4 5 6 
#
# 1 0.013421 -0.004457 -0.000797 0.000000 -0.006854 0.000000
# 2 -0.004457 0.017826 -0.006832 0.000000 -0.000756 0.000000
# 3 -0.000797 -0.006832 0.018951 0.000000 -0.000791 0.000000
# 4 0.000000 0.000000 0.000000 0.053344 0.000000 0.013099
# 5 -0.006854 -0.000756 -0.000791 0.000000 0.064692 0.000000
# 6 0.000000 0.000000 0.000000 0.013099 0.000000 0.082169
#
#
# Mechanical properties :
#
#
# Convention : Reuss Voigt Hill
#
# Bulk Modulus (GPa) = 38.42440 41.08905 39.75672
# Shear Modulus (GPa) = 17.65233 20.20296 18.92765
#
# Velocity S-wave (km/s) = 3.02917 3.24064 3.13669
# Velocity P-wave (km/s) = 5.67520 5.94650 5.81243
#
# Compressibility (1/GPa) = 0.02602513
#
# Stress axis : x y z
#
# Youngs Moduli (GPa) = 74.51137 56.09937 52.76858
#
# Poissons Ratio (x) = 0.25001 0.04205
# Poissons Ratio (y) = 0.33206 0.36054
# Poissons Ratio (z) = 0.05938 0.38329
#
# Static dielectric constant tensor:
#      x y z
#    x 1.807640 0.000000 0.017940 
#    y 0.000000 1.695390 0.000000 
#    z 0.017940 0.000000 1.644330 
# 
# From -- ./inp_files/69635.got.cif
#   From: 2010.05.17/outbox.cif.g08.bks.cpg/sg13_35_cif.got.tgz:69635.got - 2010.06.03 16:44:36.
