data_PCOD9229618
_publ_section_title
;
Structure prediction by ZEFSAII (Michael W. Deem and Ramdas Pophale) SiO2 
 PCOD9229618
Probable space group: P 2/C
;
_chemical_formula_sum "Si O2"
_cell_formula_units_Z 28
_cell_length_a 21.262562
_cell_length_b 14.614495
_cell_length_c 9.024008
_cell_angle_alpha 90.000000
_cell_angle_beta 149.618156
_cell_angle_gamma 90.000000
_cell_volume 1418.220374
_symmetry_space_group_name_H-M "P 2/C"
_symmetry_group_IT_number 13
_symmetry_cell_setting 'monoclinic'
loop_
_space_group_symop_operation_xyz
x,y,z
-x,y,1/2-z
-x,-y,-z
x,-y,1/2+z
loop_
_atom_site_type_symbol
_atom_site_label
_atom_site_fract_x
_atom_site_fract_y
_atom_site_fract_z
Si Si1 0.348554 0.906328 0.274042
Si Si2 0.000775 0.602015 0.430119
Si Si3 0.353945 0.407623 0.799529
Si Si4 0.227766 0.259160 0.387972
Si Si5 0.239212 0.726203 0.560485
Si Si6 0.643223 0.576751 0.866533
Si Si7 0.638786 0.104072 0.345956
O O1 0.342025 0.905047 0.438751
O O2 0.490781 0.875979 0.521995
O O3 0.335523 0.008270 0.183349
O O4 0.243554 0.840377 0.991448
O O5 0.000000 0.589349 0.250000
O O6 0.000000 0.500000 0.500000
O O7 0.114897 0.671603 0.698722
O O8 0.881180 0.665183 0.226405
O O9 0.342981 0.313432 0.692351
O O10 0.296312 0.486962 0.581070
O O11 0.301505 0.401752 0.859162
O O12 0.497625 0.434898 0.099941
O O13 0.232642 0.253281 0.220989
O O14 0.346607 0.655871 0.733227
O O15 0.271970 0.817617 0.537742
#
# Coordination Sequence:
#
# PCOD9229618 Si02
#       7
#     4   4   4   4   4   4   4
#     4  10  21  38  61  90 121 151 186 231 285 344
#     4  10  24  42  59  82 113 152 197 244 288 334
#     4  10  20  33  50  76 109 142 179 226 281 341
#     4  11  22  37  57  81 111 148 191 236 284 338
#     4  11  22  37  57  81 111 148 191 236 284 338
#     4  10  20  33  50  76 109 142 179 226 281 341
#     4  10  21  38  61  90 121 151 186 231 285 344
#
# _framework density 19.743053
#
# number of rings (size 3 to 8) (size 9 to 14) (size 15 to 20)
#    0.000    1.714    0.000    4.286    0.000   11.429 
#    0.000    0.714    0.000    0.000    0.000    0.000 
#    0.000    0.000    0.000    0.000    0.000    0.000 
#
# Total GULP energy -156062.147711 kJ/mol
# GULP energy per Si atom -5573.648133 kJ/mol
# Density = 1.969812 g / cm^3
# Si number density = 19.743053 Si / 1000 Ang^3
#
#
#
# Elastic Constant Matrix: (Units=GPa)
#
#
# Indices 1 2 3 4 5 6 
#
# 1 84.6202 52.2271 28.7269 0.0000 2.5878 0.0000
# 2 52.2271 137.3340 20.4555 0.0000 4.8730 0.0000
# 3 28.7269 20.4555 18.8210 0.0000 5.2850 0.0000
# 4 0.0000 0.0000 0.0000 15.9947 0.0000 -6.0518
# 5 2.5878 4.8730 5.2850 0.0000 15.9264 0.0000
# 6 0.0000 0.0000 0.0000 -6.0518 0.0000 35.0303
#
#
#
# Elastic Compliance Matrix: (Units=1/GPa)
#
#
# Indices 1 2 3 4 5 6 
#
# 1 0.028588 -0.005137 -0.041009 0.000000 0.010535 0.000000
# 2 -0.005137 0.009615 -0.002224 0.000000 -0.001369 0.000000
# 3 -0.041009 -0.002224 0.128008 0.000000 -0.035134 0.000000
# 4 0.000000 0.000000 0.000000 0.066893 0.000000 0.011556
# 5 0.010535 -0.001369 -0.035134 0.000000 0.073155 0.000000
# 6 0.000000 0.000000 0.000000 0.011556 0.000000 0.030543
#
#
# Mechanical properties :
#
#
# Convention : Reuss Voigt Hill
#
# Bulk Modulus (GPa) = 14.39473 49.28825 31.84149
# Shear Modulus (GPa) = 10.94809 22.68133 16.81471
#
# Velocity S-wave (km/s) = 2.35740 3.39311 2.92152
# Velocity P-wave (km/s) = 3.83623 6.35374 5.24817
#
# Compressibility (1/GPa) = 0.06946985
#
# Stress axis : x y z
#
# Youngs Moduli (GPa) = 34.97997 104.00271 7.81199
#
# Poissons Ratio (x) = 0.53430 0.32036
# Poissons Ratio (y) = 0.17971 0.01738
# Poissons Ratio (z) = 1.43449 0.23135
#
# Static dielectric constant tensor:
#      x y z
#    x 1.723960 0.000000 0.006960 
#    y 0.000000 1.767040 0.000000 
#    z 0.006960 0.000000 1.799900 
# 
# From -- ./inp_files/23628.got.cif
#   From: 2010.05.17/outbox.cif.g08.bks.cpg/sg13_12_cif.got.tgz:23628.got - 2010.06.03 16:44:36.
