data_PCOD9229421
_publ_section_title
;
Structure prediction by ZEFSAII (Michael W. Deem and Ramdas Pophale) SiO2 
 PCOD9229421
Probable space group: P 2/C
;
_chemical_formula_sum "Si O2"
_cell_formula_units_Z 24
_cell_length_a 14.218022
_cell_length_b 5.290907
_cell_length_c 14.011370
_cell_angle_alpha 90.000000
_cell_angle_beta 106.647602
_cell_angle_gamma 90.000000
_cell_volume 1009.843101
_symmetry_space_group_name_H-M "P 2/C"
_symmetry_group_IT_number 13
_symmetry_cell_setting 'monoclinic'
loop_
_space_group_symop_operation_xyz
x,y,z
-x,y,1/2-z
-x,-y,-z
x,-y,1/2+z
loop_
_atom_site_type_symbol
_atom_site_label
_atom_site_fract_x
_atom_site_fract_y
_atom_site_fract_z
Si Si1 0.728090 0.240298 0.992734
Si Si2 0.431535 0.606606 0.821935
Si Si3 0.098442 0.108961 0.984522
Si Si4 0.227425 0.436019 0.167706
Si Si5 0.384200 0.091528 0.909748
Si Si6 0.808701 0.350569 0.655777
O O1 0.736832 0.466323 0.071816
O O2 0.649525 0.025578 0.996888
O O3 0.723063 0.354548 0.886546
O O4 0.836062 0.125255 0.027579
O O5 0.500000 0.576665 0.750000
O O6 0.323062 0.663871 0.748913
O O7 0.433775 0.353369 0.888255
O O8 0.448317 0.860966 0.886955
O O9 0.162820 0.257311 0.082171
O O10 0.103451 0.275577 0.889441
O O11 0.000000 0.000000 0.000000
O O12 0.160465 0.537300 0.234458
O O13 0.270349 0.132059 0.839907
#
# Coordination Sequence:
#
# PCOD9229421 Si02
#       6
#     4   4   4   4   4   4
#     4  10  20  40  66  91 133 176 221 276 343 408
#     4  11  23  40  68 100 134 178 235 284 334 410
#     4  10  23  40  66  98 136 173 230 289 336 405
#     4  10  22  39  68  93 130 189 223 271 359 402
#     4  10  19  40  65  91 134 177 217 284 337 392
#     4   9  20  40  66  90 133 184 222 275 337 412
#
# _framework density 23.766069999999999
#
# number of rings (size 3 to 8) (size 9 to 14) (size 15 to 20)
#    0.000    2.000    3.333    0.500    4.667    2.667 
#    0.000    6.667    0.000    0.000    0.000    0.000 
#    0.000    0.000    0.000    0.000    0.000    0.000 
#
# Total GULP energy -133694.905149 kJ/mol
# GULP energy per Si atom -5570.621048 kJ/mol
# Density = 2.371198 g / cm^3
# Si number density = 23.766070 Si / 1000 Ang^3
#
#
#
# Elastic Constant Matrix: (Units=GPa)
#
#
# Indices 1 2 3 4 5 6 
#
# 1 144.1206 63.8951 45.6623 0.0000 -36.8872 0.0000
# 2 63.8951 131.1738 42.3273 0.0000 -22.5726 0.0000
# 3 45.6623 42.3273 98.1739 0.0000 -35.3774 0.0000
# 4 0.0000 0.0000 0.0000 12.7319 0.0000 -6.0448
# 5 -36.8872 -22.5726 -35.3774 0.0000 37.9881 0.0000
# 6 0.0000 0.0000 0.0000 -6.0448 0.0000 30.1069
#
#
#
# Elastic Compliance Matrix: (Units=1/GPa)
#
#
# Indices 1 2 3 4 5 6 
#
# 1 0.010739 -0.003711 -0.000650 0.000000 0.007618 0.000000
# 2 -0.003711 0.010307 -0.002723 0.000000 -0.000015 0.000000
# 3 -0.000650 -0.002723 0.016333 0.000000 0.012961 0.000000
# 4 0.000000 0.000000 0.000000 0.086819 0.000000 0.017431
# 5 0.007618 -0.000015 0.012961 0.000000 0.045783 0.000000
# 6 0.000000 0.000000 0.000000 0.017431 0.000000 0.036715
#
#
# Mechanical properties :
#
#
# Convention : Reuss Voigt Hill
#
# Bulk Modulus (GPa) = 43.08171 75.24862 59.16517
# Shear Modulus (GPa) = 21.87213 30.93762 26.40488
#
# Velocity S-wave (km/s) = 3.03695 3.61190 3.33683
# Velocity P-wave (km/s) = 5.51944 7.00895 6.30831
#
# Compressibility (1/GPa) = 0.02321170
#
# Stress axis : x y z
#
# Youngs Moduli (GPa) = 93.11469 97.02030 61.22518
#
# Poissons Ratio (x) = 0.35999 0.03981
# Poissons Ratio (y) = 0.34550 0.16674
# Poissons Ratio (z) = 0.06054 0.26422
#
# Static dielectric constant tensor:
#      x y z
#    x 1.898590 0.000000 -0.013460 
#    y 0.000000 2.102980 0.000000 
#    z -0.013460 0.000000 1.994900 
# 
# From -- ./inp_files/52282.got.cif
#   From: 2010.05.17/outbox.cif.g08.bks.cpg/sg13_27_cif.got.tgz:52282.got - 2010.06.03 16:44:36.
