data_PCOD9229181
_publ_section_title
;
Structure prediction by ZEFSAII (Michael W. Deem and Ramdas Pophale) SiO2 
 PCOD9229181
Probable space group: P 2/C
;
_chemical_formula_sum "Si O2"
_cell_formula_units_Z 20
_cell_length_a 10.073638
_cell_length_b 11.340441
_cell_length_c 11.172945
_cell_angle_alpha 90.000000
_cell_angle_beta 40.100847
_cell_angle_gamma 90.000000
_cell_volume 822.168437
_symmetry_space_group_name_H-M "P 2/C"
_symmetry_group_IT_number 13
_symmetry_cell_setting 'monoclinic'
loop_
_space_group_symop_operation_xyz
x,y,z
-x,y,1/2-z
-x,-y,-z
x,-y,1/2+z
loop_
_atom_site_type_symbol
_atom_site_label
_atom_site_fract_x
_atom_site_fract_y
_atom_site_fract_z
Si Si1 0.748250 0.420994 0.909694
Si Si2 0.211778 0.433415 0.887607
Si Si3 0.705958 0.820399 0.544017
Si Si4 0.252888 0.005827 0.684423
Si Si5 0.962548 0.179351 0.487991
O O1 0.687405 0.445036 0.814001
O O2 0.000000 0.410943 0.750000
O O3 0.698109 0.506867 0.055159
O O4 0.653980 0.293204 0.001929
O O5 0.000000 0.500000 0.000000
O O6 0.162059 0.297227 0.956455
O O7 0.500000 0.862126 0.750000
O O8 0.877615 0.781622 0.519179
O O9 0.794862 0.922565 0.402068
O O10 0.118871 0.886730 0.789372
O O11 0.500000 0.000000 0.500000
O O12 0.187238 0.083209 0.846011
#
# Coordination Sequence:
#
# PCOD9229181 Si02
#       5
#     4   4   4   4   4
#     4  10  19  37  67  94 131 176 228 283 340 415
#     4  10  19  37  69  98 129 176 233 279 348 409
#     4  12  21  39  68  95 130 179 227 281 355 420
#     4  11  23  39  66  99 130 173 229 283 338 417
#     4  11  22  41  67  95 134 182 222 283 351 410
#
# _framework density 24.325915999999999
#
# number of rings (size 3 to 8) (size 9 to 14) (size 15 to 20)
#    0.000    1.200    8.000    0.600    0.000    0.000 
#    0.000   13.000    8.800    0.000    0.000    0.000 
#    0.000    0.000    0.000    0.000    0.000    0.000 
#
# Total GULP energy -111729.548161 kJ/mol
# GULP energy per Si atom -5586.477408 kJ/mol
# Density = 2.427055 g / cm^3
# Si number density = 24.325916 Si / 1000 Ang^3
#
#
#
# Elastic Constant Matrix: (Units=GPa)
#
#
# Indices 1 2 3 4 5 6 
#
# 1 93.6501 24.5915 57.2608 0.0000 20.8929 0.0000
# 2 24.5915 89.9061 89.3307 0.0000 29.5306 0.0000
# 3 57.2608 89.3307 205.8644 0.0000 5.5331 0.0000
# 4 0.0000 0.0000 0.0000 18.9805 0.0000 29.6173
# 5 20.8929 29.5306 5.5331 0.0000 51.1964 0.0000
# 6 0.0000 0.0000 0.0000 29.6173 0.0000 7.3731
#
#
#
# Elastic Compliance Matrix: (Units=1/GPa)
#
#
# Indices 1 2 3 4 5 6 
#
# 1 0.014846 0.004261 -0.005766 0.000000 -0.007893 0.000000
# 2 0.004261 0.028453 -0.013082 0.000000 -0.016737 0.000000
# 3 -0.005766 -0.013082 0.011907 0.000000 0.008612 0.000000
# 4 0.000000 0.000000 0.000000 -0.010001 0.000000 0.040173
# 5 -0.007893 -0.016737 0.008612 0.000000 0.031477 0.000000
# 6 0.000000 0.000000 0.000000 0.040173 0.000000 -0.025745
#
#
# Mechanical properties :
#
#
# Convention : Reuss Voigt Hill
#
# Bulk Modulus (GPa) = 38.41531 81.30960 59.86245
# Shear Modulus (GPa) = 56.31474 30.05918 43.18696
#
# Velocity S-wave (km/s) = 4.81667 3.51905 4.21806
# Velocity P-wave (km/s) = 6.83813 7.07172 6.95591
#
# Compressibility (1/GPa) = 0.02603129
#
# Stress axis : x y z
#
# Youngs Moduli (GPa) = 67.35962 35.14593 83.98701
#
# Poissons Ratio (x) = -0.14977 0.48429
# Poissons Ratio (y) = -0.28704 1.09871
# Poissons Ratio (z) = 0.38841 0.45978
#
# Static dielectric constant tensor:
#      x y z
#    x 1.795040 0.000000 -0.093750 
#    y 0.000000 1.923550 0.000000 
#    z -0.093750 0.000000 1.970980 
# 
# From -- ./inp_files/33577.got.cif
#   From: 2010.05.17/outbox.cif.g08.bks.cpg/sg13_17_cif.got.tgz:33577.got - 2010.06.03 16:44:36.
