data_PCOD9229856
_publ_section_title
;
Structure prediction by ZEFSAII (Michael W. Deem and Ramdas Pophale) SiO2 
 PCOD9229856
Probable space group: P 2/C
;
_chemical_formula_sum "Si O2"
_cell_formula_units_Z 20
_cell_length_a 9.212819
_cell_length_b 15.584342
_cell_length_c 8.217500
_cell_angle_alpha 90.000000
_cell_angle_beta 132.712778
_cell_angle_gamma 90.000000
_cell_volume 866.898394
_symmetry_space_group_name_H-M "P 2/C"
_symmetry_group_IT_number 13
_symmetry_cell_setting 'monoclinic'
loop_
_space_group_symop_operation_xyz
x,y,z
-x,y,1/2-z
-x,-y,-z
x,-y,1/2+z
loop_
_atom_site_type_symbol
_atom_site_label
_atom_site_fract_x
_atom_site_fract_y
_atom_site_fract_z
Si Si1 0.740160 0.910920 0.625159
Si Si2 0.261863 0.209807 0.067510
Si Si3 0.954394 0.388524 0.539857
Si Si4 0.341376 0.459413 0.757996
Si Si5 0.739446 0.099162 0.749026
O O1 0.787535 0.851863 0.817524
O O2 0.500380 0.906325 0.431657
O O3 0.805172 0.889430 0.488224
O O4 0.801077 0.007078 0.722321
O O5 0.500000 0.222817 0.250000
O O6 0.153212 0.298898 0.018000
O O7 0.211112 0.169477 0.851821
O O8 0.801677 0.457514 0.358172
O O9 0.174585 0.385153 0.636103
O O10 0.000000 0.427062 0.750000
O O11 0.500000 0.427707 0.750000
O O12 0.500000 0.500000 0.000000
#
# Coordination Sequence:
#
# PCOD9229856 Si02
#       5
#     4   4   4   4   4
#     4   9  15  27  52  90 134 191 257 301 359 435
#     4  10  20  34  59  97 149 196 241 314 370 421
#     4  11  24  42  73 108 147 189 239 299 369 451
#     4  11  23  46  78 108 140 190 238 292 370 452
#     4   9  15  27  52  89 133 192 255 304 359 432
#
# _framework density 23.070753
#
# number of rings (size 3 to 8) (size 9 to 14) (size 15 to 20)
#    0.000    2.000    4.000    0.600    0.000    0.000 
#    0.000    4.000    0.000    1.200    0.000    0.000 
#    0.000    1.600    0.000    0.000    0.000    0.000 
#
# Total GULP energy -111430.763282 kJ/mol
# GULP energy per Si atom -5571.538164 kJ/mol
# Density = 2.301824 g / cm^3
# Si number density = 23.070753 Si / 1000 Ang^3
#
#
#
# Elastic Constant Matrix: (Units=GPa)
#
#
# Indices 1 2 3 4 5 6 
#
# 1 206.4793 69.9289 66.8168 0.0000 18.3380 0.0000
# 2 69.9289 125.9673 48.1388 0.0000 -1.8158 0.0000
# 3 66.8168 48.1388 133.6480 0.0000 -11.1671 0.0000
# 4 0.0000 0.0000 0.0000 41.6320 0.0000 12.8409
# 5 18.3380 -1.8158 -11.1671 0.0000 49.9416 0.0000
# 6 0.0000 0.0000 0.0000 12.8409 0.0000 39.6805
#
#
#
# Elastic Compliance Matrix: (Units=1/GPa)
#
#
# Indices 1 2 3 4 5 6 
#
# 1 0.006997 -0.002887 -0.002733 0.000000 -0.003285 0.000000
# 2 -0.002887 0.010406 -0.002226 0.000000 0.000941 0.000000
# 3 -0.002733 -0.002226 0.009913 0.000000 0.003139 0.000000
# 4 0.000000 0.000000 0.000000 0.026683 0.000000 -0.008635
# 5 -0.003285 0.000941 0.003139 0.000000 0.021966 0.000000
# 6 0.000000 0.000000 0.000000 -0.008635 0.000000 0.027996
#
#
# Mechanical properties :
#
#
# Convention : Reuss Voigt Hill
#
# Bulk Modulus (GPa) = 86.03308 92.87373 89.45340
# Shear Modulus (GPa) = 40.47725 44.99816 42.73771
#
# Velocity S-wave (km/s) = 4.19320 4.42117 4.30869
# Velocity P-wave (km/s) = 7.79845 8.14897 7.97564
#
# Compressibility (1/GPa) = 0.01162344
#
# Stress axis : x y z
#
# Youngs Moduli (GPa) = 142.91787 96.10170 100.88245
#
# Poissons Ratio (x) = 0.27748 0.27567
# Poissons Ratio (y) = 0.41266 0.22455
# Poissons Ratio (z) = 0.39054 0.21391
#
# Static dielectric constant tensor:
#      x y z
#    x 1.852660 0.000000 -0.041540 
#    y 0.000000 1.820340 0.000000 
#    z -0.041540 0.000000 1.920190 
# 
# From -- ./inp_files/13176.got.cif
#   From: 2010.05.17/outbox.cif.g08.bks.cpg/sg13_7_cif.got.tgz:13176.got - 2010.06.03 16:44:36.
