data_PCOD9229505
_publ_section_title
;
Structure prediction by ZEFSAII (Michael W. Deem and Ramdas Pophale) SiO2 
 PCOD9229505
Probable space group: P 2/C
;
_chemical_formula_sum "Si O2"
_cell_formula_units_Z 30
_cell_length_a 11.645819
_cell_length_b 6.619058
_cell_length_c 22.631848
_cell_angle_alpha 90.000000
_cell_angle_beta 65.595065
_cell_angle_gamma 90.000000
_cell_volume 1588.681413
_symmetry_space_group_name_H-M "P 2/C"
_symmetry_group_IT_number 13
_symmetry_cell_setting 'monoclinic'
loop_
_space_group_symop_operation_xyz
x,y,z
-x,y,1/2-z
-x,-y,-z
x,-y,1/2+z
loop_
_atom_site_type_symbol
_atom_site_label
_atom_site_fract_x
_atom_site_fract_y
_atom_site_fract_z
Si Si1 0.794601 0.165857 0.346694
Si Si2 0.000000 0.863710 0.250000
Si Si3 0.789672 0.445084 0.767854
Si Si4 0.165689 0.346164 0.363803
Si Si5 0.926861 0.907343 0.929177
Si Si6 0.087890 0.748891 0.434499
Si Si7 0.608411 0.083120 0.810632
Si Si8 0.672387 0.009218 0.660442
O O1 0.812310 0.386703 0.313775
O O2 0.808418 0.151501 0.414178
O O3 0.906494 0.012376 0.303994
O O4 0.670198 0.067859 0.344739
O O5 0.906129 0.711057 0.236556
O O6 0.781569 0.557937 0.707317
O O7 0.668420 0.305376 0.806521
O O8 0.104266 0.513999 0.418639
O O9 0.050432 0.196021 0.373699
O O10 0.276358 0.211755 0.368146
O O11 0.914185 0.815398 0.997114
O O12 0.967172 0.141647 0.929762
O O13 0.214667 0.842499 0.379779
O O14 0.651863 0.014852 0.735547
O O15 0.457993 0.072630 0.841723
#
# Coordination Sequence:
#
# PCOD9229505 Si02
#       8
#     4   2   4   4   4   4   4   4
#     4  11  21  35  53  84 116 146 185 232 292 340
#     4  10  20  30  52  80 122 144 172 230 282 360
#     4  11  20  33  55  86 113 151 185 227 304 343
#     4  11  19  34  59  85 110 148 192 235 285 340
#     4  10  22  36  58  84 122 148 188 236 275 351
#     4  10  21  39  58  85 112 158 192 227 285 337
#     4  10  22  38  55  83 114 147 191 243 289 343
#     4  10  21  39  57  80 113 146 197 241 283 335
#
# _framework density 18.883583999999999
#
# number of rings (size 3 to 8) (size 9 to 14) (size 15 to 20)
#    0.000    1.600    2.667    3.200    3.733    2.133 
#    0.000    0.667    0.000    1.600    0.000    0.000 
#    0.000    0.000    0.000    0.000    0.000    0.000 
#
# Total GULP energy -167352.986244 kJ/mol
# GULP energy per Si atom -5578.432875 kJ/mol
# Density = 1.884060 g / cm^3
# Si number density = 18.883584 Si / 1000 Ang^3
#
#
#
# Elastic Constant Matrix: (Units=GPa)
#
#
# Indices 1 2 3 4 5 6 
#
# 1 107.2753 21.8491 15.7928 0.0000 10.8290 0.0000
# 2 21.8491 47.8249 0.9608 0.0000 5.3605 0.0000
# 3 15.7928 0.9608 31.6769 0.0000 11.1512 0.0000
# 4 0.0000 0.0000 0.0000 4.0097 0.0000 6.3053
# 5 10.8290 5.3605 11.1512 0.0000 25.2869 0.0000
# 6 0.0000 0.0000 0.0000 6.3053 0.0000 17.8903
#
#
#
# Elastic Compliance Matrix: (Units=1/GPa)
#
#
# Indices 1 2 3 4 5 6 
#
# 1 0.011185 -0.004830 -0.004858 0.000000 -0.001623 0.000000
# 2 -0.004830 0.023538 0.003223 0.000000 -0.004343 0.000000
# 3 -0.004858 0.003223 0.039539 0.000000 -0.016039 0.000000
# 4 0.000000 0.000000 0.000000 0.559440 0.000000 -0.197169
# 5 -0.001623 -0.004343 -0.016039 0.000000 0.048235 0.000000
# 6 0.000000 0.000000 0.000000 -0.197169 0.000000 0.125386
#
#
# Mechanical properties :
#
#
# Convention : Reuss Voigt Hill
#
# Bulk Modulus (GPa) = 16.30494 29.33140 22.81817
# Shear Modulus (GPa) = 5.94744 19.31568 12.63156
#
# Velocity S-wave (km/s) = 1.77662 3.20172 2.58915
# Velocity P-wave (km/s) = 3.58632 5.40689 4.58782
#
# Compressibility (1/GPa) = 0.06133110
#
# Stress axis : x y z
#
# Youngs Moduli (GPa) = 89.40786 42.48394 25.29135
#
# Poissons Ratio (x) = 0.20521 0.12287
# Poissons Ratio (y) = 0.43186 -0.08151
# Poissons Ratio (z) = 0.43436 -0.13692
#
# Static dielectric constant tensor:
#      x y z
#    x 1.661660 0.000000 0.035810 
#    y 0.000000 1.697310 0.000000 
#    z 0.035810 0.000000 1.683710 
# 
# From -- ./inp_files/85806.got.cif
#   From: 2010.05.17/outbox.cif.g08.bks.cpg/sg13_43_cif.got.tgz:85806.got - 2010.06.03 16:44:36.
