data_PCOD9229255
_publ_section_title
;
Structure prediction by ZEFSAII (Michael W. Deem and Ramdas Pophale) SiO2 
 PCOD9229255
Probable space group: P 2/C
;
_chemical_formula_sum "Si O2"
_cell_formula_units_Z 32
_cell_length_a 8.788480
_cell_length_b 10.439915
_cell_length_c 20.015020
_cell_angle_alpha 90.000000
_cell_angle_beta 121.357624
_cell_angle_gamma 90.000000
_cell_volume 1568.165999
_symmetry_space_group_name_H-M "P 2/C"
_symmetry_group_IT_number 13
_symmetry_cell_setting 'monoclinic'
loop_
_space_group_symop_operation_xyz
x,y,z
-x,y,1/2-z
-x,-y,-z
x,-y,1/2+z
loop_
_atom_site_type_symbol
_atom_site_label
_atom_site_fract_x
_atom_site_fract_y
_atom_site_fract_z
Si Si1 0.000689 0.817743 0.940334
Si Si2 0.352011 0.684980 0.985723
Si Si3 0.600588 0.099998 0.573913
Si Si4 0.037453 0.112914 0.920328
Si Si5 0.811325 0.850653 0.244961
Si Si6 0.467910 0.437944 0.082719
Si Si7 0.695117 0.343951 0.321581
Si Si8 0.802369 0.451690 0.735022
O O1 0.151323 0.729811 0.941949
O O2 0.821080 0.777039 0.861970
O O3 0.057713 0.963753 0.942767
O O4 0.983499 0.805511 0.016782
O O5 0.458472 0.684333 0.940291
O O6 0.462077 0.785640 0.054422
O O7 0.366575 0.540446 0.014310
O O8 0.780388 0.148008 0.577106
O O9 0.674047 0.070186 0.666155
O O10 0.500000 0.000000 0.500000
O O11 0.864418 0.116263 0.832967
O O12 0.768403 0.699078 0.238531
O O13 0.000000 0.864662 0.250000
O O14 0.342312 0.403662 0.114808
O O15 0.648691 0.503688 0.149731
O O16 0.500000 0.308385 0.250000
O O17 0.777470 0.453835 0.292630
O O18 0.000000 0.465590 0.750000
#
# Coordination Sequence:
#
# PCOD9229255 Si02
#       8
#     4   4   4   4   4   4   4   4
#     4  11  23  43  61  90 127 168 216 260 321 379
#     4  11  22  38  64  93 125 162 214 259 316 385
#     4  11  20  41  66  92 124 166 210 264 317 379
#     4  10  23  42  63  89 129 165 213 267 310 384
#     4   9  20  38  61  91 121 161 209 259 314 374
#     4  10  22  39  59  94 126 161 209 261 316 387
#     4  10  23  42  62  89 128 166 207 266 325 375
#     4  10  19  38  63  88 126 162 209 262 316 384
#
# _framework density 20.406002000000001
#
# number of rings (size 3 to 8) (size 9 to 14) (size 15 to 20)
#    0.000    1.750    2.500    1.500    1.750    0.500 
#    6.750    1.250    0.000    0.000    0.000    0.000 
#    0.000    0.000    0.000    0.000    0.000    0.000 
#
# Total GULP energy -178302.409253 kJ/mol
# GULP energy per Si atom -5571.950289 kJ/mol
# Density = 2.035956 g / cm^3
# Si number density = 20.406002 Si / 1000 Ang^3
#
#
#
# Elastic Constant Matrix: (Units=GPa)
#
#
# Indices 1 2 3 4 5 6 
#
# 1 71.5040 15.2531 21.1843 0.0000 4.6666 0.0000
# 2 15.2531 30.8769 13.0004 0.0000 7.2751 0.0000
# 3 21.1843 13.0004 86.7554 0.0000 -3.3247 0.0000
# 4 0.0000 0.0000 0.0000 32.9561 0.0000 9.9887
# 5 4.6666 7.2751 -3.3247 0.0000 28.0286 0.0000
# 6 0.0000 0.0000 0.0000 9.9887 0.0000 -5.5271
#
#
#
# Elastic Compliance Matrix: (Units=1/GPa)
#
#
# Indices 1 2 3 4 5 6 
#
# 1 0.016368 -0.006454 -0.003084 0.000000 -0.001416 0.000000
# 2 -0.006454 0.039909 -0.004782 0.000000 -0.009852 0.000000
# 3 -0.003084 -0.004782 0.013123 0.000000 0.003311 0.000000
# 4 0.000000 0.000000 0.000000 0.019605 0.000000 0.035430
# 5 -0.001416 -0.009852 0.003311 0.000000 0.038863 0.000000
# 6 0.000000 0.000000 0.000000 0.035430 0.000000 -0.116896
#
#
# Mechanical properties :
#
#
# Convention : Reuss Voigt Hill
#
# Bulk Modulus (GPa) = 24.53319 32.00131 28.26725
# Shear Modulus (GPa) = 93.98540 20.40475 57.19508
#
# Velocity S-wave (km/s) = 6.79395 3.16561 5.29994
# Velocity P-wave (km/s) = 8.57859 5.39238 7.16485
#
# Compressibility (1/GPa) = 0.04076111
#
# Stress axis : x y z
#
# Youngs Moduli (GPa) = 61.09484 25.05672 76.20076
#
# Poissons Ratio (x) = 0.16171 0.23500
# Poissons Ratio (y) = 0.39429 0.36440
# Poissons Ratio (z) = 0.18841 0.11982
#
# Static dielectric constant tensor:
#      x y z
#    x 1.735600 0.000000 -0.031270 
#    y 0.000000 1.736860 0.000000 
#    z -0.031270 0.000000 1.790890 
# 
# From -- ./inp_files/76477.got.cif
#   From: 2010.05.17/outbox.cif.g08.bks.cpg/sg13_39_cif.got.tgz:76477.got - 2010.06.03 16:44:36.
