data_PCOD9229911
_publ_section_title
;
Structure prediction by ZEFSAII (Michael W. Deem and Ramdas Pophale) SiO2 
 PCOD9229911
Probable space group: P 2/C
;
_chemical_formula_sum "Si O2"
_cell_formula_units_Z 30
_cell_length_a 6.266592
_cell_length_b 12.371766
_cell_length_c 24.944834
_cell_angle_alpha 90.000000
_cell_angle_beta 71.116633
_cell_angle_gamma 90.000000
_cell_volume 1829.857211
_symmetry_space_group_name_H-M "P 2/C"
_symmetry_group_IT_number 13
_symmetry_cell_setting 'monoclinic'
loop_
_space_group_symop_operation_xyz
x,y,z
-x,y,1/2-z
-x,-y,-z
x,-y,1/2+z
loop_
_atom_site_type_symbol
_atom_site_label
_atom_site_fract_x
_atom_site_fract_y
_atom_site_fract_z
Si Si1 0.415278 0.884263 0.572933
Si Si2 0.809448 0.955464 0.807233
Si Si3 0.500000 0.944769 0.250000
Si Si4 0.567208 0.664791 0.520754
Si Si5 0.954195 0.818547 0.195309
Si Si6 0.222544 0.068437 0.970671
Si Si7 0.029468 0.727219 0.420401
Si Si8 0.758450 0.448763 0.535495
O O1 0.238020 0.889497 0.635592
O O2 0.528527 0.767268 0.561515
O O3 0.311877 0.894638 0.521678
O O4 0.587345 0.985265 0.566660
O O5 0.000000 0.914949 0.750000
O O6 0.587657 0.979085 0.790442
O O7 0.891191 0.074376 0.818825
O O8 0.703215 0.867857 0.215224
O O9 0.788296 0.698172 0.467503
O O10 0.607767 0.555444 0.551029
O O11 0.359882 0.630310 0.498653
O O12 0.000000 0.767396 0.250000
O O13 0.001012 0.749065 0.139578
O O14 0.146049 0.167823 0.939056
O O15 0.000000 0.000000 0.000000
O O16 0.192966 0.626123 0.417911
O O17 0.000000 0.500000 0.500000
#
# Coordination Sequence:
#
# PCOD9229911 Si02
#       8
#     4   4   2   4   4   4   4   4
#     4  11  21  32  51  78 111 141 172 215 265 323
#     4   9  19  33  46  70 105 143 180 211 250 312
#     4   8  16  34  48  68 100 148 180 202 252 308
#     4  10  20  35  52  78 104 134 175 220 267 318
#     4   9  19  31  48  73 105 141 176 208 251 314
#     4  11  21  30  46  83 114 141 164 207 273 326
#     4  11  19  33  53  77 111 139 168 219 267 323
#     4   9  20  36  52  73 102 135 180 214 269 314
#
# _framework density 16.394721000000001
#
# number of rings (size 3 to 8) (size 9 to 14) (size 15 to 20)
#    0.000    2.400    2.667    1.600    1.867    3.200 
#    0.000    0.000    0.000    0.000    0.000   22.400 
#    0.000    0.000    0.000    0.000    0.000    0.000 
#
# Total GULP energy -167003.268123 kJ/mol
# GULP energy per Si atom -5566.775604 kJ/mol
# Density = 1.635741 g / cm^3
# Si number density = 16.394721 Si / 1000 Ang^3
#
#
#
# Elastic Constant Matrix: (Units=GPa)
#
#
# Indices 1 2 3 4 5 6 
#
# 1 65.0742 21.1158 22.0286 0.0000 12.2697 0.0000
# 2 21.1158 85.5590 51.1330 0.0000 4.7217 0.0000
# 3 22.0286 51.1330 111.6419 0.0000 3.1714 0.0000
# 4 0.0000 0.0000 0.0000 15.3721 0.0000 5.5117
# 5 12.2697 4.7217 3.1714 0.0000 9.7022 0.0000
# 6 0.0000 0.0000 0.0000 5.5117 0.0000 27.0461
#
#
#
# Elastic Compliance Matrix: (Units=1/GPa)
#
#
# Indices 1 2 3 4 5 6 
#
# 1 0.021832 -0.002528 -0.002423 0.000000 -0.025587 0.000000
# 2 -0.002528 0.016679 -0.007066 0.000000 -0.002610 0.000000
# 3 -0.002423 -0.007066 0.012604 0.000000 0.002383 0.000000
# 4 0.000000 0.000000 0.000000 0.070181 0.000000 -0.014302
# 5 -0.025587 -0.002610 0.002383 0.000000 0.135919 0.000000
# 6 0.000000 0.000000 0.000000 -0.014302 0.000000 0.039889
#
#
# Mechanical properties :
#
#
# Convention : Reuss Voigt Hill
#
# Bulk Modulus (GPa) = 36.92689 50.09220 43.50955
# Shear Modulus (GPa) = 15.14398 21.62394 18.38396
#
# Velocity S-wave (km/s) = 3.04256 3.63569 3.35227
# Velocity P-wave (km/s) = 5.90893 6.94582 6.44825
#
# Compressibility (1/GPa) = 0.02708053
#
# Stress axis : x y z
#
# Youngs Moduli (GPa) = 45.80420 59.95671 79.34022
#
# Poissons Ratio (x) = 0.15156 0.19225
# Poissons Ratio (y) = 0.11579 0.56062
# Poissons Ratio (z) = 0.11099 0.42366
#
# Static dielectric constant tensor:
#      x y z
#    x 1.620720 0.000000 0.018730 
#    y 0.000000 1.558930 0.000000 
#    z 0.018730 0.000000 1.550470 
# 
# From -- ./inp_files/83680.got.cif
#   From: 2010.05.17/outbox.cif.g08.bks.cpg/sg13_42_cif.got.tgz:83680.got - 2010.06.03 16:44:36.
