data_PCOD9229430
_publ_section_title
;
Structure prediction by ZEFSAII (Michael W. Deem and Ramdas Pophale) SiO2 
 PCOD9229430
Probable space group: P 2/C
;
_chemical_formula_sum "Si O2"
_cell_formula_units_Z 28
_cell_length_a 8.701765
_cell_length_b 15.362271
_cell_length_c 15.526047
_cell_angle_alpha 90.000000
_cell_angle_beta 34.433964
_cell_angle_gamma 90.000000
_cell_volume 1173.606482
_symmetry_space_group_name_H-M "P 2/C"
_symmetry_group_IT_number 13
_symmetry_cell_setting 'monoclinic'
loop_
_space_group_symop_operation_xyz
x,y,z
-x,y,1/2-z
-x,-y,-z
x,-y,1/2+z
loop_
_atom_site_type_symbol
_atom_site_label
_atom_site_fract_x
_atom_site_fract_y
_atom_site_fract_z
Si Si1 0.720206 0.967221 0.829510
Si Si2 0.488699 0.283884 0.602261
Si Si3 0.351617 0.518706 0.159260
Si Si4 0.769393 0.872064 0.183535
Si Si5 0.716371 0.229991 0.325190
Si Si6 0.864895 0.442175 0.988760
Si Si7 0.956655 0.734534 0.542210
O O1 0.638755 0.869670 0.842203
O O2 0.000000 0.957500 0.750000
O O3 0.784191 0.036470 0.725204
O O4 0.500000 0.000000 0.000000
O O5 0.399993 0.380913 0.660263
O O6 0.295295 0.205093 0.719134
O O7 0.524389 0.275209 0.483008
O O8 0.757302 0.273772 0.537606
O O9 0.030513 0.516684 0.329518
O O10 0.500000 0.500000 0.000000
O O11 0.545484 0.460272 0.129214
O O12 0.500000 0.879430 0.250000
O O13 0.014507 0.830419 0.014546
O O14 0.000000 0.231426 0.250000
O O15 0.747433 0.272056 0.217697
O O16 0.917094 0.342007 0.991650
O O17 0.000000 0.500000 0.000000
#
# Coordination Sequence:
#
# PCOD9229430 Si02
#       7
#     4   4   4   4   4   4   4
#     4  11  23  44  70 104 139 181 229 280 342 404
#     4  10  19  40  66  93 131 182 228 259 336 423
#     4  12  27  44  69  99 133 180 228 280 341 411
#     4  10  21  40  71  96 133 182 229 276 338 411
#     4   9  20  37  67  98 132 178 224 271 331 413
#     4  12  25  44  69  99 136 173 225 287 339 396
#     4  10  21  39  66  98 132 179 226 274 340 407
#
# _framework density 23.858080999999999
#
# number of rings (size 3 to 8) (size 9 to 14) (size 15 to 20)
#    0.000    1.429    4.286    0.857    4.000    1.714 
#    2.571    0.000    0.000    0.000    0.000    0.000 
#    0.000    0.000    0.000    0.000    0.000    0.000 
#
# Total GULP energy -156308.892262 kJ/mol
# GULP energy per Si atom -5582.460438 kJ/mol
# Density = 2.380378 g / cm^3
# Si number density = 23.858081 Si / 1000 Ang^3
#
#
#
# Elastic Constant Matrix: (Units=GPa)
#
#
# Indices 1 2 3 4 5 6 
#
# 1 50.5020 26.4308 37.1023 0.0000 13.3951 0.0000
# 2 26.4308 102.8290 13.3071 0.0000 0.4985 0.0000
# 3 37.1023 13.3071 108.0488 0.0000 15.5317 0.0000
# 4 0.0000 0.0000 0.0000 33.8672 0.0000 5.8331
# 5 13.3951 0.4985 15.5317 0.0000 34.2539 0.0000
# 6 0.0000 0.0000 0.0000 5.8331 0.0000 6.0361
#
#
#
# Elastic Compliance Matrix: (Units=1/GPa)
#
#
# Indices 1 2 3 4 5 6 
#
# 1 0.032414 -0.007121 -0.009035 0.000000 -0.008475 0.000000
# 2 -0.007121 0.011453 0.000704 0.000000 0.002299 0.000000
# 3 -0.009035 0.000704 0.012585 0.000000 -0.002183 0.000000
# 4 0.000000 0.000000 0.000000 0.035423 0.000000 -0.034232
# 5 -0.008475 0.002299 -0.002183 0.000000 0.033465 0.000000
# 6 0.000000 0.000000 0.000000 -0.034232 0.000000 0.198750
#
#
# Mechanical properties :
#
#
# Convention : Reuss Voigt Hill
#
# Bulk Modulus (GPa) = 39.14260 46.11780 42.63020
# Shear Modulus (GPa) = 13.75481 27.13410 20.44445
#
# Velocity S-wave (km/s) = 2.40370 3.37607 2.93049
# Velocity P-wave (km/s) = 4.91383 5.87955 5.41825
#
# Compressibility (1/GPa) = 0.02554761
#
# Stress axis : x y z
#
# Youngs Moduli (GPa) = 30.85094 87.31337 79.46162
#
# Poissons Ratio (x) = 0.62178 0.71795
# Poissons Ratio (y) = 0.21970 -0.05597
# Poissons Ratio (z) = 0.27874 -0.06150
#
# Static dielectric constant tensor:
#      x y z
#    x 1.921560 0.000000 0.010840 
#    y 0.000000 1.884370 0.000000 
#    z 0.010840 0.000000 2.038780 
# 
# From -- ./inp_files/47888.got.cif
#   From: 2010.05.17/outbox.cif.g08.bks.cpg/sg13_24_cif.got.tgz:47888.got - 2010.06.03 16:44:36.
