data_PCOD9229655
_publ_section_title
;
Structure prediction by ZEFSAII (Michael W. Deem and Ramdas Pophale) SiO2 
 PCOD9229655
Probable space group: P 2/C
;
_chemical_formula_sum "Si O2"
_cell_formula_units_Z 28
_cell_length_a 19.832855
_cell_length_b 12.918137
_cell_length_c 19.891254
_cell_angle_alpha 90.000000
_cell_angle_beta 14.896918
_cell_angle_gamma 90.000000
_cell_volume 1310.137707
_symmetry_space_group_name_H-M "P 2/C"
_symmetry_group_IT_number 13
_symmetry_cell_setting 'monoclinic'
loop_
_space_group_symop_operation_xyz
x,y,z
-x,y,1/2-z
-x,-y,-z
x,-y,1/2+z
loop_
_atom_site_type_symbol
_atom_site_label
_atom_site_fract_x
_atom_site_fract_y
_atom_site_fract_z
Si Si1 0.578121 0.632043 0.487618
Si Si2 0.000000 0.178888 0.750000
Si Si3 0.390632 0.898310 0.281430
Si Si4 0.000000 0.519376 0.750000
Si Si5 0.094648 0.340850 0.553966
Si Si6 0.108155 0.018036 0.215941
Si Si7 0.735941 0.658462 0.104739
Si Si8 0.711497 0.603587 0.862416
O O1 0.840359 0.693681 0.255780
O O2 0.419879 0.663440 0.573374
O O3 0.699593 0.517963 0.355763
O O4 0.353491 0.631212 0.762131
O O5 0.841740 0.253175 0.952299
O O6 0.162464 0.098804 0.639984
O O7 0.500000 0.929758 0.250000
O O8 0.305176 0.780093 0.365459
O O9 0.151864 0.970839 0.489820
O O10 0.648810 0.920586 0.989399
O O11 0.018751 0.438809 0.793958
O O12 0.212840 0.598031 0.514186
O O13 0.000000 0.070153 0.250000
O O14 0.485160 0.617035 0.385891
O O15 0.998706 0.638652 0.895901
#
# Coordination Sequence:
#
# PCOD9229655 Si02
#       8
#     4   2   4   2   4   4   4   4
#     4  11  22  41  59  79 116 164 219 247 273 336
#     4   9  22  37  64  92 126 149 200 241 330 358
#     4  10  20  33  55  83 120 149 190 227 299 367
#     4  11  24  35  52  88 136 147 184 235 306 368
#     4  11  23  38  59  90 118 162 191 252 299 358
#     4   8  18  35  52  80 120 146 186 240 279 380
#     4  12  24  35  58  87 121 163 188 243 301 360
#     4  11  23  40  58  79 115 170 213 241 279 335
#
# _framework density 21.3718
#
# number of rings (size 3 to 8) (size 9 to 14) (size 15 to 20)
#    0.429    1.143    2.857    1.714    5.000    8.000 
#    0.000    0.000    0.000    0.000    0.000   20.000 
#    0.000    0.000    0.000    0.000    0.000    0.000 
#
# Total GULP energy -155951.480378 kJ/mol
# GULP energy per Si atom -5569.695728 kJ/mol
# Density = 2.132316 g / cm^3
# Si number density = 21.371800 Si / 1000 Ang^3
#
#
#
# Elastic Constant Matrix: (Units=GPa)
#
#
# Indices 1 2 3 4 5 6 
#
# 1 42.0208 13.7153 28.3297 0.0000 -6.2579 0.0000
# 2 13.7153 94.6359 18.1493 0.0000 -7.9381 0.0000
# 3 28.3297 18.1493 87.6815 0.0000 -34.7521 0.0000
# 4 0.0000 0.0000 0.0000 26.8274 0.0000 -8.7185
# 5 -6.2579 -7.9381 -34.7521 0.0000 26.0546 0.0000
# 6 0.0000 0.0000 0.0000 -8.7185 0.0000 12.6145
#
#
#
# Elastic Compliance Matrix: (Units=1/GPa)
#
#
# Indices 1 2 3 4 5 6 
#
# 1 0.033196 -0.002979 -0.015506 0.000000 -0.013616 0.000000
# 2 -0.002979 0.011277 -0.000622 0.000000 0.001890 0.000000
# 3 -0.015506 -0.000622 0.031807 0.000000 0.038511 0.000000
# 4 0.000000 0.000000 0.000000 0.048073 0.000000 0.033226
# 5 -0.013616 0.001890 0.038511 0.000000 0.087054 0.000000
# 6 0.000000 0.000000 0.000000 0.033226 0.000000 0.102238
#
#
# Mechanical properties :
#
#
# Convention : Reuss Voigt Hill
#
# Bulk Modulus (GPa) = 26.27092 38.30297 32.28695
# Shear Modulus (GPa) = 13.71562 24.04222 18.87892
#
# Velocity S-wave (km/s) = 2.53605 3.35767 2.97536
# Velocity P-wave (km/s) = 4.57104 5.74395 5.19073
#
# Compressibility (1/GPa) = 0.03806490
#
# Stress axis : x y z
#
# Youngs Moduli (GPa) = 30.12409 88.67986 31.43929
#
# Poissons Ratio (x) = 0.26422 0.48748
# Poissons Ratio (y) = 0.08975 0.01957
# Poissons Ratio (z) = 0.46709 0.05520
#
# Static dielectric constant tensor:
#      x y z
#    x 1.847220 0.000000 -0.004850 
#    y 0.000000 1.781660 0.000000 
#    z -0.004850 0.000000 1.906610 
# 
# From -- ./inp_files/89204.got.cif
#   From: 2010.05.17/outbox.cif.g08.bks.cpg/sg13_45_cif.got.tgz:89204.got - 2010.06.03 16:44:36.
