data_PCOD9229915
_publ_section_title
;
Structure prediction by ZEFSAII (Michael W. Deem and Ramdas Pophale) SiO2 
 PCOD9229915
Probable space group: P 2/C
;
_chemical_formula_sum "Si O2"
_cell_formula_units_Z 20
_cell_length_a 5.140317
_cell_length_b 16.038365
_cell_length_c 12.097684
_cell_angle_alpha 90.000000
_cell_angle_beta 87.900741
_cell_angle_gamma 90.000000
_cell_volume 996.691294
_symmetry_space_group_name_H-M "P 2/C"
_symmetry_group_IT_number 13
_symmetry_cell_setting 'monoclinic'
loop_
_space_group_symop_operation_xyz
x,y,z
-x,y,1/2-z
-x,-y,-z
x,-y,1/2+z
loop_
_atom_site_type_symbol
_atom_site_label
_atom_site_fract_x
_atom_site_fract_y
_atom_site_fract_z
Si Si1 0.536243 0.052545 0.615425
Si Si2 0.033689 0.161643 0.623035
Si Si3 0.867870 0.340423 0.555663
Si Si4 0.390561 0.442165 0.602569
Si Si5 0.739474 0.614875 0.813123
O O1 0.500000 0.023288 0.750000
O O2 0.828462 0.087731 0.605774
O O3 0.323949 0.126597 0.605657
O O4 0.500000 0.000000 0.500000
O O5 0.945944 0.244400 0.562655
O O6 0.000000 0.187481 0.750000
O O7 0.629189 0.380221 0.630995
O O8 0.756454 0.353571 0.435897
O O9 0.134179 0.391697 0.570292
O O10 0.500000 0.500000 0.500000
O O11 0.288085 0.514399 0.685132
O O12 0.500000 0.650248 0.750000
O O13 0.000000 0.639008 0.750000
#
# Coordination Sequence:
#
# PCOD9229915 Si02
#       5
#     4   4   4   4   4
#     4  10  21  41  67  93 122 154 189 233 287 354
#     4  10  22  39  61  89 118 149 187 238 293 340
#     4  11  21  37  56  79 112 148 190 239 289 342
#     4  10  20  35  53  73 104 151 201 244 283 332
#     4  11  21  34  51  76 110 152 196 242 287 334
#
# _framework density 20.066392
#
# number of rings (size 3 to 8) (size 9 to 14) (size 15 to 20)
#    0.000    1.600    0.000    7.800    0.000    2.400 
#    0.000    3.000    0.000    0.000    0.000    0.000 
#    0.000    0.000    0.000    0.000    0.000    0.000 
#
# Total GULP energy -111362.177558 kJ/mol
# GULP energy per Si atom -5568.108878 kJ/mol
# Density = 2.002072 g / cm^3
# Si number density = 20.066392 Si / 1000 Ang^3
#
#
#
# Elastic Constant Matrix: (Units=GPa)
#
#
# Indices 1 2 3 4 5 6 
#
# 1 120.4354 0.7974 19.5087 0.0000 13.7304 0.0000
# 2 0.7974 44.0842 37.9399 0.0000 4.7902 0.0000
# 3 19.5087 37.9399 99.0731 0.0000 15.7504 0.0000
# 4 0.0000 0.0000 0.0000 26.1976 0.0000 14.1568
# 5 13.7304 4.7902 15.7504 0.0000 30.0958 0.0000
# 6 0.0000 0.0000 0.0000 14.1568 0.0000 20.9757
#
#
#
# Elastic Compliance Matrix: (Units=1/GPa)
#
#
# Indices 1 2 3 4 5 6 
#
# 1 0.008993 0.001889 -0.001957 0.000000 -0.003379 0.000000
# 2 0.001889 0.034296 -0.013635 0.000000 0.000815 0.000000
# 3 -0.001957 -0.013635 0.016594 0.000000 -0.005621 0.000000
# 4 0.000000 0.000000 0.000000 0.060086 0.000000 -0.040553
# 5 -0.003379 0.000815 -0.005621 0.000000 0.037581 0.000000
# 6 0.000000 0.000000 0.000000 -0.040553 0.000000 0.075044
#
#
# Mechanical properties :
#
#
# Convention : Reuss Voigt Hill
#
# Bulk Modulus (GPa) = 30.79170 42.23162 36.51166
# Shear Modulus (GPa) = 18.46211 29.14361 23.80286
#
# Velocity S-wave (km/s) = 3.03653 3.81512 3.44787
# Velocity P-wave (km/s) = 5.26044 6.36384 5.83826
#
# Compressibility (1/GPa) = 0.03247628
#
# Stress axis : x y z
#
# Youngs Moduli (GPa) = 111.19828 29.15813 60.26245
#
# Poissons Ratio (x) = -0.05507 0.11792
# Poissons Ratio (y) = -0.21001 0.82168
# Poissons Ratio (z) = 0.21760 0.39757
#
# Static dielectric constant tensor:
#      x y z
#    x 1.729910 0.000000 -0.027970 
#    y 0.000000 1.729970 0.000000 
#    z -0.027970 0.000000 1.844170 
# 
# From -- ./inp_files/26307.got.cif
#   From: 2010.05.17/outbox.cif.g08.bks.cpg/sg13_14_cif.got.tgz:26307.got - 2010.06.03 16:44:36.
