data_PCOD9229009
_publ_section_title
;
Structure prediction by ZEFSAII (Michael W. Deem and Ramdas Pophale) SiO2 
 PCOD9229009
Probable space group: P 2/C
;
_chemical_formula_sum "Si O2"
_cell_formula_units_Z 16
_cell_length_a 5.759605
_cell_length_b 9.068566
_cell_length_c 19.649195
_cell_angle_alpha 90.000000
_cell_angle_beta 140.327441
_cell_angle_gamma 90.000000
_cell_volume 655.191795
_symmetry_space_group_name_H-M "P 2/C"
_symmetry_group_IT_number 13
_symmetry_cell_setting 'monoclinic'
loop_
_space_group_symop_operation_xyz
x,y,z
-x,y,1/2-z
-x,-y,-z
x,-y,1/2+z
loop_
_atom_site_type_symbol
_atom_site_label
_atom_site_fract_x
_atom_site_fract_y
_atom_site_fract_z
Si Si1 0.336847 0.475462 0.628617
Si Si2 0.478881 0.898136 0.559563
Si Si3 0.619950 0.863627 0.353266
Si Si4 0.208547 0.414086 0.385745
O O1 0.482191 0.307311 0.659657
O O2 0.651854 0.561108 0.659956
O O3 0.000000 0.500000 0.500000
O O4 0.157493 0.527077 0.660035
O O5 0.739358 0.761856 0.600266
O O6 0.053177 0.852934 0.466401
O O7 0.500000 0.000000 0.500000
O O8 0.545884 0.006994 0.637909
O O9 0.500000 0.900146 0.250000
O O10 0.500000 0.500000 0.500000
#
# Coordination Sequence:
#
# PCOD9229009 Si02
#       4
#     4   4   4   4
#     4  10  19  39  66  95 124 172 222 279 341 410
#     4  11  23  41  70  96 136 187 227 288 353 421
#     4  11  25  42  67 100 139 181 237 289 349 419
#     4  10  19  36  68  95 124 170 227 272 344 409
#
# _framework density 24.42033
#
# number of rings (size 3 to 8) (size 9 to 14) (size 15 to 20)
#    0.000    1.500    5.000    3.000    3.500    1.000 
#    0.000    1.250    5.500    0.000    0.000    0.000 
#    0.000    0.000    0.000    0.000    0.000    0.000 
#
# Total GULP energy -89280.810112 kJ/mol
# GULP energy per Si atom -5580.050632 kJ/mol
# Density = 2.436475 g / cm^3
# Si number density = 24.420330 Si / 1000 Ang^3
#
#
#
# Elastic Constant Matrix: (Units=GPa)
#
#
# Indices 1 2 3 4 5 6 
#
# 1 139.6555 48.2277 44.3249 0.0000 -4.0150 0.0000
# 2 48.2277 192.7239 16.5646 0.0000 -13.0825 0.0000
# 3 44.3249 16.5646 66.5447 0.0000 0.2284 0.0000
# 4 0.0000 0.0000 0.0000 20.1641 0.0000 -26.7001
# 5 -4.0150 -13.0825 0.2284 0.0000 74.7377 0.0000
# 6 0.0000 0.0000 0.0000 -26.7001 0.0000 38.8555
#
#
#
# Elastic Compliance Matrix: (Units=1/GPa)
#
#
# Indices 1 2 3 4 5 6 
#
# 1 0.009731 -0.001905 -0.006008 0.000000 0.000208 0.000000
# 2 -0.001905 0.005741 -0.000163 0.000000 0.000903 0.000000
# 3 -0.006008 -0.000163 0.019072 0.000000 -0.000410 0.000000
# 4 0.000000 0.000000 0.000000 0.550428 0.000000 0.378234
# 5 0.000208 0.000903 -0.000410 0.000000 0.013551 0.000000
# 6 0.000000 0.000000 0.000000 0.378234 0.000000 0.285646
#
#
# Mechanical properties :
#
#
# Convention : Reuss Voigt Hill
#
# Bulk Modulus (GPa) = 54.37560 68.57316 61.47438
# Shear Modulus (GPa) = 5.51602 46.07191 25.79396
#
# Velocity S-wave (km/s) = 1.50455 4.34824 3.25353
# Velocity P-wave (km/s) = 5.03320 7.30417 6.27232
#
# Compressibility (1/GPa) = 0.01839060
#
# Stress axis : x y z
#
# Youngs Moduli (GPa) = 102.76230 174.19364 52.43349
#
# Poissons Ratio (x) = 0.33177 0.31505
# Poissons Ratio (y) = 0.19572 0.00857
# Poissons Ratio (z) = 0.61744 0.02847
#
# Static dielectric constant tensor:
#      x y z
#    x 1.861700 0.000000 0.031430 
#    y 0.000000 1.752310 0.000000 
#    z 0.031430 0.000000 2.023610 
# 
# From -- ./inp_files/43270.got.cif
#   From: 2010.05.17/outbox.cif.g08.bks.cpg/sg13_22_cif.got.tgz:43270.got - 2010.06.03 16:44:36.
