data_PCOD9229369
_publ_section_title
;
Structure prediction by ZEFSAII (Michael W. Deem and Ramdas Pophale) SiO2 
 PCOD9229369
Probable space group: P 2/C
;
_chemical_formula_sum "Si O2"
_cell_formula_units_Z 26
_cell_length_a 5.017860
_cell_length_b 9.385394
_cell_length_c 24.474271
_cell_angle_alpha 90.000000
_cell_angle_beta 106.912015
_cell_angle_gamma 90.000000
_cell_volume 1102.758632
_symmetry_space_group_name_H-M "P 2/C"
_symmetry_group_IT_number 13
_symmetry_cell_setting 'monoclinic'
loop_
_space_group_symop_operation_xyz
x,y,z
-x,y,1/2-z
-x,-y,-z
x,-y,1/2+z
loop_
_atom_site_type_symbol
_atom_site_label
_atom_site_fract_x
_atom_site_fract_y
_atom_site_fract_z
Si Si1 0.643221 0.087231 0.460171
Si Si2 0.444679 0.154919 0.333846
Si Si3 0.500000 0.761491 0.250000
Si Si4 0.031994 0.815364 0.068061
Si Si5 0.367145 0.432214 0.641021
Si Si6 0.098812 0.564873 0.815125
Si Si7 0.952089 0.032768 0.821676
O O1 0.476775 0.161638 0.401724
O O2 0.826022 0.200440 0.504769
O O3 0.500000 0.000000 0.500000
O O4 0.800360 0.957568 0.439542
O O5 0.269079 0.293358 0.306174
O O6 0.738458 0.098048 0.326425
O O7 0.221481 0.031827 0.310253
O O8 0.503657 0.664274 0.303241
O O9 0.233616 0.857510 0.222222
O O10 0.202991 0.673511 0.091358
O O11 0.924743 0.874088 0.119987
O O12 0.651618 0.494634 0.634702
O O13 0.166661 0.547710 0.659947
O O14 0.000000 0.504063 0.750000
#
# Coordination Sequence:
#
# PCOD9229369 Si02
#       7
#     4   4   2   4   4   4   4
#     4  10  19  39  65  93 125 159 195 267 332 359
#     4  11  24  40  60  92 125 161 207 247 314 377
#     4  10  22  38  62  90 120 150 208 258 312 356
#     4   9  21  37  64  94 123 155 205 254 322 366
#     4  11  24  43  63  90 121 170 210 252 299 372
#     4  12  25  43  62  84 127 176 206 247 301 367
#     4  10  22  36  61  93 120 152 196 266 307 369
#
# _framework density 23.577238000000001
#
# number of rings (size 3 to 8) (size 9 to 14) (size 15 to 20)
#    0.000    1.538    3.077    0.923    4.308    4.923 
#    0.000    1.538    0.000    0.000    0.000    0.000 
#    0.000    0.000    0.000    0.000    0.000    0.000 
#
# Total GULP energy -144890.234134 kJ/mol
# GULP energy per Si atom -5572.701313 kJ/mol
# Density = 2.352357 g / cm^3
# Si number density = 23.577238 Si / 1000 Ang^3
#
#
#
# Elastic Constant Matrix: (Units=GPa)
#
#
# Indices 1 2 3 4 5 6 
#
# 1 74.2640 -0.0608 21.4194 0.0000 9.5413 0.0000
# 2 -0.0608 44.0533 7.2409 0.0000 10.0371 0.0000
# 3 21.4194 7.2409 65.8812 0.0000 16.5416 0.0000
# 4 0.0000 0.0000 0.0000 -1.9249 0.0000 -158.4410
# 5 9.5413 10.0371 16.5416 0.0000 25.2347 0.0000
# 6 0.0000 0.0000 0.0000 -158.4410 0.0000 -721.6803
#
#
#
# Elastic Compliance Matrix: (Units=1/GPa)
#
#
# Indices 1 2 3 4 5 6 
#
# 1 0.015135 0.001526 -0.004189 0.000000 -0.003584 0.000000
# 2 0.001526 0.025121 -0.000722 0.000000 -0.010095 0.000000
# 3 -0.004189 -0.000722 0.019332 0.000000 -0.010801 0.000000
# 4 0.000000 0.000000 0.000000 0.030432 0.000000 -0.006681
# 5 -0.003584 -0.010095 -0.010801 0.000000 0.052079 0.000000
# 6 0.000000 0.000000 0.000000 -0.006681 0.000000 0.000081
#
#
# Mechanical properties :
#
#
# Convention : Reuss Voigt Hill
#
# Bulk Modulus (GPa) = 18.93299 26.82194 22.87747
# Shear Modulus (GPa) = 30.01986 -129.30084 -49.64049
#
# Velocity S-wave (km/s) = 3.57214 -7.41353 -4.59349
# Velocity P-wave (km/s) = 5.00612 7.86636 4.29060
#
# Compressibility (1/GPa) = 0.05281786
#
# Stress axis : x y z
#
# Youngs Moduli (GPa) = 66.07088 39.80779 51.72744
#
# Poissons Ratio (x) = -0.06074 0.21667
# Poissons Ratio (y) = -0.10082 0.03737
# Poissons Ratio (z) = 0.27675 0.02876
#
# Static dielectric constant tensor:
#      x y z
#    x 1.976820 0.000000 -0.179160 
#    y 0.000000 1.997480 0.000000 
#    z -0.179160 0.000000 1.554970 
# 
# From -- ./inp_files/90224.got.cif
#   From: 2010.05.17/outbox.cif.g08.bks.cpg/sg13_46_cif.got.tgz:90224.got - 2010.06.03 16:44:36.
