data_PCOD9229674
_publ_section_title
;
Structure prediction by ZEFSAII (Michael W. Deem and Ramdas Pophale) SiO2 
 PCOD9229674
Probable space group: P 2/C
;
_chemical_formula_sum "Si O2"
_cell_formula_units_Z 20
_cell_length_a 9.058170
_cell_length_b 8.179839
_cell_length_c 27.476512
_cell_angle_alpha 90.000000
_cell_angle_beta 25.791816
_cell_angle_gamma 90.000000
_cell_volume 885.805551
_symmetry_space_group_name_H-M "P 2/C"
_symmetry_group_IT_number 13
_symmetry_cell_setting 'monoclinic'
loop_
_space_group_symop_operation_xyz
x,y,z
-x,y,1/2-z
-x,-y,-z
x,-y,1/2+z
loop_
_atom_site_type_symbol
_atom_site_label
_atom_site_fract_x
_atom_site_fract_y
_atom_site_fract_z
Si Si1 0.911527 0.842853 0.700354
Si Si2 0.906629 0.192971 0.827188
Si Si3 0.221688 0.754872 0.952579
Si Si4 0.615694 0.351386 0.999335
Si Si5 0.853798 0.110499 0.474787
O O1 0.586901 0.751978 0.817793
O O2 0.272888 0.759324 0.606824
O O3 0.910123 0.865515 0.642491
O O4 0.892396 0.023799 0.729209
O O5 0.000000 0.287008 0.750000
O O6 0.911904 0.273942 0.878127
O O7 0.515153 0.147732 0.936378
O O8 0.236390 0.621318 0.990900
O O9 0.952577 0.767827 0.989052
O O10 0.156166 0.926134 0.001408
O O11 0.500000 0.500000 0.000000
#
# Coordination Sequence:
#
# PCOD9229674 Si02
#       5
#     4   4   4   4   4
#     4  11  19  38  60  87 117 156 205 252 306 364
#     4  11  19  37  58  84 114 154 205 258 302 358
#     4  11  20  35  60  91 122 152 201 255 312 354
#     4  11  23  38  58  84 120 162 202 243 300 378
#     4  10  20  33  58  94 118 148 193 262 307 351
#
# _framework density 22.578316000000001
#
# number of rings (size 3 to 8) (size 9 to 14) (size 15 to 20)
#    0.000    1.200    6.000    2.400    0.000    1.600 
#    0.000    5.000    0.000    4.800    0.000    0.000 
#    0.000    0.000    0.000    0.000    0.000    0.000 
#
# Total GULP energy -111601.473477 kJ/mol
# GULP energy per Si atom -5580.073674 kJ/mol
# Density = 2.252693 g / cm^3
# Si number density = 22.578316 Si / 1000 Ang^3
#
#
#
# Elastic Constant Matrix: (Units=GPa)
#
#
# Indices 1 2 3 4 5 6 
#
# 1 119.0274 5.7600 2.1894 0.0000 31.7012 0.0000
# 2 5.7600 35.9332 -1.3359 0.0000 7.9009 0.0000
# 3 2.1894 -1.3359 53.8716 0.0000 33.1894 0.0000
# 4 0.0000 0.0000 0.0000 1.2115 0.0000 3.6596
# 5 31.7012 7.9009 33.1894 0.0000 41.7239 0.0000
# 6 0.0000 0.0000 0.0000 3.6596 0.0000 29.6863
#
#
#
# Elastic Compliance Matrix: (Units=1/GPa)
#
#
# Indices 1 2 3 4 5 6 
#
# 1 0.013463 0.002762 0.012051 0.000000 -0.020338 0.000000
# 2 0.002762 0.031504 0.011055 0.000000 -0.016858 0.000000
# 3 0.012051 0.011055 0.049571 0.000000 -0.050681 0.000000
# 4 0.000000 0.000000 0.000000 1.315165 0.000000 -0.162129
# 5 -0.020338 -0.016858 -0.050681 0.000000 0.082926 0.000000
# 6 0.000000 0.000000 0.000000 -0.162129 0.000000 0.053672
#
#
# Mechanical properties :
#
#
# Convention : Reuss Voigt Hill
#
# Bulk Modulus (GPa) = 6.83652 24.67326 15.75489
# Shear Modulus (GPa) = 3.23976 28.00561 15.62269
#
# Velocity S-wave (km/s) = 1.19917 3.52572 2.63332
# Velocity P-wave (km/s) = 2.22527 5.24651 4.02974
#
# Compressibility (1/GPa) = 0.14627324
#
# Stress axis : x y z
#
# Youngs Moduli (GPa) = 74.27857 31.74175 20.17327
#
# Poissons Ratio (x) = -0.08767 -0.24311
# Poissons Ratio (y) = -0.20515 -0.22301
# Poissons Ratio (z) = -0.89515 -0.35089
#
# Static dielectric constant tensor:
#      x y z
#    x 1.864940 0.000000 0.038660 
#    y 0.000000 1.934250 0.000000 
#    z 0.038660 0.000000 1.858290 
# 
# From -- ./inp_files/28147.got.cif
#   From: 2010.05.17/outbox.cif.g08.bks.cpg/sg13_15_cif.got.tgz:28147.got - 2010.06.03 16:44:36.
