data_PCOD9229549
_publ_section_title
;
Structure prediction by ZEFSAII (Michael W. Deem and Ramdas Pophale) SiO2 
 PCOD9229549
Probable space group: P 2/C
;
_chemical_formula_sum "Si O2"
_cell_formula_units_Z 28
_cell_length_a 16.001661
_cell_length_b 13.910929
_cell_length_c 8.179036
_cell_angle_alpha 90.000000
_cell_angle_beta 51.934483
_cell_angle_gamma 90.000000
_cell_volume 1433.398717
_symmetry_space_group_name_H-M "P 2/C"
_symmetry_group_IT_number 13
_symmetry_cell_setting 'monoclinic'
loop_
_space_group_symop_operation_xyz
x,y,z
-x,y,1/2-z
-x,-y,-z
x,-y,1/2+z
loop_
_atom_site_type_symbol
_atom_site_label
_atom_site_fract_x
_atom_site_fract_y
_atom_site_fract_z
Si Si1 0.453919 0.600617 0.489324
Si Si2 0.279411 0.257380 0.594144
Si Si3 0.500000 0.265981 0.250000
Si Si4 0.958047 0.316682 0.044290
Si Si5 0.079818 0.132645 0.850803
Si Si6 0.832755 0.361157 0.517939
Si Si7 0.000000 0.956749 0.750000
Si Si8 0.770525 0.420116 0.099582
O O1 0.500000 0.618519 0.250000
O O2 0.500000 0.500000 0.500000
O O3 0.486248 0.673437 0.597362
O O4 0.324772 0.593211 0.653361
O O5 0.390833 0.211848 0.413597
O O6 0.184843 0.185620 0.668283
O O7 0.258918 0.292544 0.802978
O O8 0.269302 0.356890 0.504770
O O9 0.887965 0.317973 0.292527
O O10 0.885031 0.377015 0.010729
O O11 0.984243 0.209949 0.948813
O O12 0.071745 0.361597 0.960765
O O13 0.065046 0.031189 0.782212
O O14 0.075180 0.108459 0.048704
O O15 0.789941 0.468054 0.543310
#
# Coordination Sequence:
#
# PCOD9229549 Si02
#       8
#     4   4   2   4   4   4   2   4
#     4  11  23  36  53  74 107 153 214 256 279 308
#     4  10  21  36  55  77 111 145 186 232 279 317
#     4  10  22  38  56  82 106 152 196 240 290 332
#     4  10  21  34  50  78 112 142 184 225 276 338
#     4  10  20  37  58  85 110 140 169 225 285 345
#     4  10  20  32  49  74 112 152 189 222 269 315
#     4  10  20  36  62  86 108 132 176 210 284 372
#     4  11  22  32  51  76 106 158 194 232 269 316
#
# _framework density 19.533992000000001
#
# number of rings (size 3 to 8) (size 9 to 14) (size 15 to 20)
#    0.000    1.714    0.714    4.714    6.000    5.143 
#    0.000    0.000    0.000    0.857    0.000    0.000 
#    0.000    0.000    0.000    0.000    0.000    0.000 
#
# Total GULP energy -156210.856065 kJ/mol
# GULP energy per Si atom -5578.959145 kJ/mol
# Density = 1.948953 g / cm^3
# Si number density = 19.533992 Si / 1000 Ang^3
#
#
#
# Elastic Constant Matrix: (Units=GPa)
#
#
# Indices 1 2 3 4 5 6 
#
# 1 49.5104 6.3422 30.5668 0.0000 -1.7938 0.0000
# 2 6.3422 50.2445 24.3208 0.0000 -4.5716 0.0000
# 3 30.5668 24.3208 155.4580 0.0000 -11.8751 0.0000
# 4 0.0000 0.0000 0.0000 -7.9567 0.0000 12.4381
# 5 -1.7938 -4.5716 -11.8751 0.0000 37.9042 0.0000
# 6 0.0000 0.0000 0.0000 12.4381 0.0000 6.5774
#
#
#
# Elastic Compliance Matrix: (Units=1/GPa)
#
#
# Indices 1 2 3 4 5 6 
#
# 1 0.023022 -0.000796 -0.004432 0.000000 -0.000395 0.000000
# 2 -0.000796 0.021654 -0.003109 0.000000 0.001600 0.000000
# 3 -0.004432 -0.003109 0.007936 0.000000 0.001901 0.000000
# 4 0.000000 0.000000 0.000000 -0.031769 0.000000 0.060076
# 5 -0.000395 0.001600 0.001901 0.000000 0.027152 0.000000
# 6 0.000000 0.000000 0.000000 0.060076 0.000000 0.038431
#
#
# Mechanical properties :
#
#
# Convention : Reuss Voigt Hill
#
# Bulk Modulus (GPa) = 27.82714 41.96359 34.89536
# Shear Modulus (GPa) = 43.44845 20.23720 31.84282
#
# Velocity S-wave (km/s) = 4.72131 3.22219 4.04186
# Velocity P-wave (km/s) = 6.63306 5.94746 6.29959
#
# Compressibility (1/GPa) = 0.03593614
#
# Stress axis : x y z
#
# Youngs Moduli (GPa) = 43.43701 46.18166 126.01290
#
# Poissons Ratio (x) = 0.03678 0.55852
# Poissons Ratio (y) = 0.03460 0.39175
# Poissons Ratio (z) = 0.19252 0.14357
#
# Static dielectric constant tensor:
#      x y z
#    x 1.772630 0.000000 0.026560 
#    y 0.000000 1.642990 0.000000 
#    z 0.026560 0.000000 1.743570 
# 
# From -- ./inp_files/21962.got.cif
#   From: 2010.05.17/outbox.cif.g08.bks.cpg/sg13_11_cif.got.tgz:21962.got - 2010.06.03 16:44:36.
