data_PCOD9229627
_publ_section_title
;
Structure prediction by ZEFSAII (Michael W. Deem and Ramdas Pophale) SiO2 
 PCOD9229627
Probable space group: P 2/C
;
_chemical_formula_sum "Si O2"
_cell_formula_units_Z 24
_cell_length_a 5.412533
_cell_length_b 11.071631
_cell_length_c 15.628053
_cell_angle_alpha 90.000000
_cell_angle_beta 88.423695
_cell_angle_gamma 90.000000
_cell_volume 936.165554
_symmetry_space_group_name_H-M "P 2/C"
_symmetry_group_IT_number 13
_symmetry_cell_setting 'monoclinic'
loop_
_space_group_symop_operation_xyz
x,y,z
-x,y,1/2-z
-x,-y,-z
x,-y,1/2+z
loop_
_atom_site_type_symbol
_atom_site_label
_atom_site_fract_x
_atom_site_fract_y
_atom_site_fract_z
Si Si1 0.847977 0.787457 0.019085
Si Si2 0.924460 0.560749 0.911593
Si Si3 0.752957 0.724879 0.203971
Si Si4 0.245583 0.017272 0.294576
Si Si5 0.572142 0.391899 0.153921
Si Si6 0.653340 0.846941 0.537997
O O1 0.890279 0.701644 0.936959
O O2 0.616375 0.872062 0.998448
O O3 0.123245 0.839043 0.032547
O O4 0.768195 0.709383 0.101788
O O5 0.654597 0.526979 0.879277
O O6 0.157592 0.547854 0.847114
O O7 0.000000 0.500000 0.000000
O O8 0.500000 0.681549 0.250000
O O9 0.000000 0.684591 0.250000
O O10 0.752775 0.872226 0.209747
O O11 0.500000 0.060561 0.250000
O O12 0.250632 0.064477 0.390269
O O13 0.000000 0.062493 0.250000
O O14 0.500000 0.352595 0.250000
O O15 0.609927 0.281662 0.086919
#
# Coordination Sequence:
#
# PCOD9229627 Si02
#       6
#     4   4   4   4   4   4
#     4  10  21  36  55  78 103 140 180 219 274 321
#     4  10  21  38  57  79 111 142 173 221 274 323
#     4  10  21  37  54  74 106 145 185 226 264 312
#     4  10  20  33  51  77 110 146 179 218 267 312
#     4  10  20  35  57  83 110 139 173 216 268 324
#     4  10  20  33  54  81 108 137 173 219 268 325
#
# _framework density 25.636488
#
# number of rings (size 3 to 8) (size 9 to 14) (size 15 to 20)
#    0.000    2.000    0.000    3.500    0.000    4.000 
#    0.000    2.500    0.000    0.000    0.000    0.000 
#    0.000    0.000    0.000    0.000    0.000    0.000 
#
# Total GULP energy -134274.892080 kJ/mol
# GULP energy per Si atom -5594.787170 kJ/mol
# Density = 2.557814 g / cm^3
# Si number density = 25.636488 Si / 1000 Ang^3
#
#
#
# Elastic Constant Matrix: (Units=GPa)
#
#
# Indices 1 2 3 4 5 6 
#
# 1 269.4246 48.8395 74.3463 0.0000 -17.3166 0.0000
# 2 48.8395 50.6382 12.6181 0.0000 9.3722 0.0000
# 3 74.3463 12.6181 95.4952 0.0000 -22.2176 0.0000
# 4 0.0000 0.0000 0.0000 31.8459 0.0000 16.7576
# 5 -17.3166 9.3722 -22.2176 0.0000 52.8865 0.0000
# 6 0.0000 0.0000 0.0000 16.7576 0.0000 35.4947
#
#
#
# Elastic Compliance Matrix: (Units=1/GPa)
#
#
# Indices 1 2 3 4 5 6 
#
# 1 0.005609 -0.004779 -0.003448 0.000000 0.001235 0.000000
# 2 -0.004779 0.025908 -0.001258 0.000000 -0.006684 0.000000
# 3 -0.003448 -0.001258 0.014532 0.000000 0.005199 0.000000
# 4 0.000000 0.000000 0.000000 0.041781 0.000000 -0.019725
# 5 0.001235 -0.006684 0.005199 0.000000 0.022681 0.000000
# 6 0.000000 0.000000 0.000000 -0.019725 0.000000 0.037486
#
#
# Mechanical properties :
#
#
# Convention : Reuss Voigt Hill
#
# Bulk Modulus (GPa) = 36.92911 76.35176 56.64044
# Shear Modulus (GPa) = 28.41046 42.69568 35.55307
#
# Velocity S-wave (km/s) = 3.33258 4.08539 3.72804
# Velocity P-wave (km/s) = 5.40780 7.21810 6.37751
#
# Compressibility (1/GPa) = 0.02707891
#
# Stress axis : x y z
#
# Youngs Moduli (GPa) = 178.29554 38.59855 68.81514
#
# Poissons Ratio (x) = 0.18446 0.23726
# Poissons Ratio (y) = 0.85205 0.08656
# Poissons Ratio (z) = 0.61472 0.04855
#
# Static dielectric constant tensor:
#      x y z
#    x 1.864240 0.000000 0.041360 
#    y 0.000000 2.079000 0.000000 
#    z 0.041360 0.000000 1.926230 
# 
# From -- ./inp_files/43979.got.cif
#   From: 2010.05.17/outbox.cif.g08.bks.cpg/sg13_22_cif.got.tgz:43979.got - 2010.06.03 16:44:36.
