data_PCOD9229283
_publ_section_title
;
Structure prediction by ZEFSAII (Michael W. Deem and Ramdas Pophale) SiO2 
 PCOD9229283
Probable space group: P 2/C
;
_chemical_formula_sum "Si O2"
_cell_formula_units_Z 20
_cell_length_a 10.610661
_cell_length_b 12.344455
_cell_length_c 13.975493
_cell_angle_alpha 90.000000
_cell_angle_beta 30.864517
_cell_angle_gamma 90.000000
_cell_volume 939.089800
_symmetry_space_group_name_H-M "P 2/C"
_symmetry_group_IT_number 13
_symmetry_cell_setting 'monoclinic'
loop_
_space_group_symop_operation_xyz
x,y,z
-x,y,1/2-z
-x,-y,-z
x,-y,1/2+z
loop_
_atom_site_type_symbol
_atom_site_label
_atom_site_fract_x
_atom_site_fract_y
_atom_site_fract_z
Si Si1 0.746195 0.372502 0.873201
Si Si2 0.604931 0.867038 0.457645
Si Si3 0.519644 0.433991 0.625978
Si Si4 0.879834 0.951622 0.673710
Si Si5 0.308865 0.793554 0.463642
O O1 0.707134 0.247731 0.922421
O O2 0.712317 0.385036 0.781111
O O3 0.000000 0.410627 0.750000
O O4 0.560164 0.452384 0.047241
O O5 0.395044 0.906590 0.667231
O O6 0.445475 0.847630 0.464446
O O7 0.813770 0.952096 0.291478
O O8 0.500000 0.455351 0.750000
O O9 0.715899 0.334115 0.492182
O O10 0.064193 0.859474 0.594585
O O11 0.000000 0.000000 0.500000
O O12 0.500000 0.795955 0.250000
#
# Coordination Sequence:
#
# PCOD9229283 Si02
#       5
#     4   4   4   4   4
#     4  10  22  42  64  96 137 173 223 285 339 393
#     4  10  23  40  61  94 133 172 217 279 337 398
#     4   9  21  41  68  96 129 176 231 274 336 409
#     4  11  22  39  65  93 129 179 222 274 334 411
#     4  10  19  38  65  93 126 172 226 271 338 408
#
# _framework density 21.297218000000001
#
# number of rings (size 3 to 8) (size 9 to 14) (size 15 to 20)
#    0.000    2.000    2.000    0.600    0.000    8.800 
#    3.600    0.000    0.000    0.000    0.000    0.000 
#    0.000    0.000    0.000    0.000    0.000    0.000 
#
# Total GULP energy -111486.726022 kJ/mol
# GULP energy per Si atom -5574.336301 kJ/mol
# Density = 2.124874 g / cm^3
# Si number density = 21.297218 Si / 1000 Ang^3
#
#
#
# Elastic Constant Matrix: (Units=GPa)
#
#
# Indices 1 2 3 4 5 6 
#
# 1 82.7715 2.1990 16.8644 0.0000 9.0413 0.0000
# 2 2.1990 106.3647 8.9443 0.0000 -0.3501 0.0000
# 3 16.8644 8.9443 83.9656 0.0000 6.1677 0.0000
# 4 0.0000 0.0000 0.0000 21.2911 0.0000 -3.7871
# 5 9.0413 -0.3501 6.1677 0.0000 24.7253 0.0000
# 6 0.0000 0.0000 0.0000 -3.7871 0.0000 33.0445
#
#
#
# Elastic Compliance Matrix: (Units=1/GPa)
#
#
# Indices 1 2 3 4 5 6 
#
# 1 0.013009 -0.000090 -0.002296 0.000000 -0.004186 0.000000
# 2 -0.000090 0.009491 -0.001024 0.000000 0.000423 0.000000
# 3 -0.002296 -0.001024 0.012651 0.000000 -0.002331 0.000000
# 4 0.000000 0.000000 0.000000 0.047945 0.000000 0.005495
# 5 -0.004186 0.000423 -0.002331 0.000000 0.042562 0.000000
# 6 0.000000 0.000000 0.000000 0.005495 0.000000 0.030892
#
#
# Mechanical properties :
#
#
# Convention : Reuss Voigt Hill
#
# Bulk Modulus (GPa) = 35.29605 36.56857 35.93231
# Shear Modulus (GPa) = 28.93293 32.15178 30.54235
#
# Velocity S-wave (km/s) = 3.68982 3.88966 3.79106
# Velocity P-wave (km/s) = 5.89594 6.11396 6.00594
#
# Compressibility (1/GPa) = 0.02833178
#
# Stress axis : x y z
#
# Youngs Moduli (GPa) = 76.87106 105.36329 79.04487
#
# Poissons Ratio (x) = 0.00945 0.18147
# Poissons Ratio (y) = 0.00689 0.08095
# Poissons Ratio (z) = 0.17648 0.10790
#
# Static dielectric constant tensor:
#      x y z
#    x 1.808710 0.000000 -0.023870 
#    y 0.000000 1.812430 0.000000 
#    z -0.023870 0.000000 1.826780 
# 
# From -- ./inp_files/51047.got.cif
#   From: 2010.05.17/outbox.cif.g08.bks.cpg/sg13_26_cif.got.tgz:51047.got - 2010.06.03 16:44:36.
