data_PCOD9229885
_publ_section_title
;
Structure prediction by ZEFSAII (Michael W. Deem and Ramdas Pophale) SiO2 
 PCOD9229885
Probable space group: P 2/C
;
_chemical_formula_sum "Si O2"
_cell_formula_units_Z 22
_cell_length_a 9.649727
_cell_length_b 6.557040
_cell_length_c 21.594845
_cell_angle_alpha 90.000000
_cell_angle_beta 45.424260
_cell_angle_gamma 90.000000
_cell_volume 973.307551
_symmetry_space_group_name_H-M "P 2/C"
_symmetry_group_IT_number 13
_symmetry_cell_setting 'monoclinic'
loop_
_space_group_symop_operation_xyz
x,y,z
-x,y,1/2-z
-x,-y,-z
x,-y,1/2+z
loop_
_atom_site_type_symbol
_atom_site_label
_atom_site_fract_x
_atom_site_fract_y
_atom_site_fract_z
Si Si1 0.448827 0.951228 0.425553
Si Si2 0.005797 0.898496 0.931200
Si Si3 0.000000 0.157785 0.250000
Si Si4 0.379511 0.694036 0.019098
Si Si5 0.748385 0.138660 0.745898
Si Si6 0.020019 0.524421 0.852794
O O1 0.225272 0.900298 0.512832
O O2 0.583043 0.843205 0.434970
O O3 0.522271 0.883283 0.335121
O O4 0.458040 0.193112 0.433760
O O5 0.067616 0.664572 0.897417
O O6 0.154909 0.034564 0.844250
O O7 0.000000 0.000000 0.000000
O O8 0.956634 0.312461 0.320040
O O9 0.845147 0.001710 0.269367
O O10 0.158918 0.626967 0.079189
O O11 0.500000 0.500000 0.000000
O O12 0.811686 0.374940 0.724882
#
# Coordination Sequence:
#
# PCOD9229885 Si02
#       6
#     4   4   2   4   4   4
#     4  11  23  39  65  98 137 173 217 283 334 399
#     4  11  26  46  64  92 135 182 233 279 330 400
#     4  10  20  34  62 100 138 168 214 276 346 404
#     4  11  20  36  64 102 137 168 215 268 351 408
#     4  11  23  40  64  96 133 174 223 280 340 405
#     4  11  21  40  65  98 136 182 217 281 345 411
#
# _framework density 22.603338000000001
#
# number of rings (size 3 to 8) (size 9 to 14) (size 15 to 20)
#    0.000    1.091    3.636    3.818    5.091    2.909 
#    0.000    0.000    0.000    4.364    0.000    0.000 
#    0.000    0.000    0.000    0.000    0.000    0.000 
#
# Total GULP energy -122720.874283 kJ/mol
# GULP energy per Si atom -5578.221558 kJ/mol
# Density = 2.255189 g / cm^3
# Si number density = 22.603338 Si / 1000 Ang^3
#
#
#
# Elastic Constant Matrix: (Units=GPa)
#
#
# Indices 1 2 3 4 5 6 
#
# 1 35.0965 24.0360 25.6397 0.0000 7.3343 0.0000
# 2 24.0360 146.9354 61.5567 0.0000 4.6751 0.0000
# 3 25.6397 61.5567 162.9721 0.0000 15.6799 0.0000
# 4 0.0000 0.0000 0.0000 38.7288 0.0000 -3.3386
# 5 7.3343 4.6751 15.6799 0.0000 21.8090 0.0000
# 6 0.0000 0.0000 0.0000 -3.3386 0.0000 11.8100
#
#
#
# Elastic Compliance Matrix: (Units=1/GPa)
#
#
# Indices 1 2 3 4 5 6 
#
# 1 0.035512 -0.004209 -0.003153 0.000000 -0.008774 0.000000
# 2 -0.004209 0.008589 -0.002730 0.000000 0.001537 0.000000
# 3 -0.003153 -0.002730 0.008063 0.000000 -0.004151 0.000000
# 4 0.000000 0.000000 0.000000 0.026466 0.000000 0.007482
# 5 -0.008774 0.001537 -0.004151 0.000000 0.051458 0.000000
# 6 0.000000 0.000000 0.000000 0.007482 0.000000 0.086789
#
#
# Mechanical properties :
#
#
# Convention : Reuss Voigt Hill
#
# Bulk Modulus (GPa) = 31.26962 63.05207 47.16085
# Shear Modulus (GPa) = 20.18404 30.05435 25.11919
#
# Velocity S-wave (km/s) = 2.99150 3.65038 3.33724
# Velocity P-wave (km/s) = 5.07899 6.76185 5.97992
#
# Compressibility (1/GPa) = 0.03197992
#
# Stress axis : x y z
#
# Youngs Moduli (GPa) = 28.15920 116.42837 124.03003
#
# Poissons Ratio (x) = 0.49006 0.39107
# Poissons Ratio (y) = 0.11852 0.33858
# Poissons Ratio (z) = 0.08879 0.31783
#
# Static dielectric constant tensor:
#      x y z
#    x 1.926840 0.000000 -0.009920 
#    y 0.000000 1.379010 0.000000 
#    z -0.009920 0.000000 1.942990 
# 
# From -- ./inp_files/85733.got.cif
#   From: 2010.05.17/outbox.cif.g08.bks.cpg/sg13_43_cif.got.tgz:85733.got - 2010.06.03 16:44:36.
