data_PCOD9229732
_publ_section_title
;
Structure prediction by ZEFSAII (Michael W. Deem and Ramdas Pophale) SiO2 
 PCOD9229732
Probable space group: P 2/C
;
_chemical_formula_sum "Si O2"
_cell_formula_units_Z 28
_cell_length_a 7.067456
_cell_length_b 7.463034
_cell_length_c 26.250231
_cell_angle_alpha 90.000000
_cell_angle_beta 62.415486
_cell_angle_gamma 90.000000
_cell_volume 1227.175026
_symmetry_space_group_name_H-M "P 2/C"
_symmetry_group_IT_number 13
_symmetry_cell_setting 'monoclinic'
loop_
_space_group_symop_operation_xyz
x,y,z
-x,y,1/2-z
-x,-y,-z
x,-y,1/2+z
loop_
_atom_site_type_symbol
_atom_site_label
_atom_site_fract_x
_atom_site_fract_y
_atom_site_fract_z
Si Si1 0.590099 0.742403 0.900317
Si Si2 0.759007 0.528139 0.045812
Si Si3 0.389733 0.221165 0.810676
Si Si4 0.498837 0.138154 0.594164
Si Si5 0.969617 0.749341 0.694742
Si Si6 0.965457 0.181279 0.812744
Si Si7 0.612131 0.402700 0.169577
O O1 0.837254 0.688232 0.866886
O O2 0.530429 0.728966 0.846904
O O3 0.544264 0.944228 0.923674
O O4 0.424044 0.611904 0.948968
O O5 0.659394 0.723742 0.047739
O O6 0.760391 0.485461 0.106111
O O7 0.000000 0.500000 0.000000
O O8 0.500000 0.120401 0.750000
O O9 0.402771 0.116949 0.861393
O O10 0.508035 0.413191 0.801182
O O11 0.150673 0.261224 0.823765
O O12 0.266311 0.221064 0.635438
O O13 0.000000 0.691632 0.750000
O O14 0.997359 0.965512 0.690824
O O15 0.747196 0.687385 0.697382
O O16 0.000000 0.236534 0.750000
#
# Coordination Sequence:
#
# PCOD9229732 Si02
#       7
#     4   4   4   4   4   4   4
#     4   9  21  38  58  82 116 149 189 235 278 338
#     4   9  21  41  61  83 109 147 195 245 301 336
#     4  11  21  31  53  80 117 155 187 224 274 336
#     4  10  20  38  58  82 113 150 187 237 283 335
#     4  10  21  34  55  83 115 153 185 223 277 338
#     4  10  20  34  53  81 114 156 189 220 273 341
#     4   9  22  35  53  82 113 147 187 238 275 332
#
# _framework density 22.816631999999998
#
# number of rings (size 3 to 8) (size 9 to 14) (size 15 to 20)
#    0.857    1.429    1.429    0.857    4.000    1.143 
#    0.000    0.714    0.000    1.714    0.000    0.000 
#    0.000    0.000    0.000    0.000    0.000    0.000 
#
# Total GULP energy -156066.353139 kJ/mol
# GULP energy per Si atom -5573.798326 kJ/mol
# Density = 2.276470 g / cm^3
# Si number density = 22.816632 Si / 1000 Ang^3
#
#
#
# Elastic Constant Matrix: (Units=GPa)
#
#
# Indices 1 2 3 4 5 6 
#
# 1 83.4995 -0.8452 -12.5120 0.0000 -16.0127 0.0000
# 2 -0.8452 74.4377 3.4640 0.0000 -13.3243 0.0000
# 3 -12.5120 3.4640 49.0972 0.0000 -30.5770 0.0000
# 4 0.0000 0.0000 0.0000 13.9396 0.0000 -5.6228
# 5 -16.0127 -13.3243 -30.5770 0.0000 34.8591 0.0000
# 6 0.0000 0.0000 0.0000 -5.6228 0.0000 24.2878
#
#
#
# Elastic Compliance Matrix: (Units=1/GPa)
#
#
# Indices 1 2 3 4 5 6 
#
# 1 0.024850 0.006285 0.031947 0.000000 0.041840 0.000000
# 2 0.006285 0.016670 0.013647 0.000000 0.021229 0.000000
# 3 0.031947 0.013647 0.088015 0.000000 0.097094 0.000000
# 4 0.000000 0.000000 0.000000 0.079127 0.000000 0.018319
# 5 0.041840 0.021229 0.097094 0.000000 0.141188 0.000000
# 6 0.000000 0.000000 0.000000 0.018319 0.000000 0.045414
#
#
# Mechanical properties :
#
#
# Convention : Reuss Voigt Hill
#
# Bulk Modulus (GPa) = 4.28647 20.80533 12.54590
# Shear Modulus (GPa) = 13.54014 29.07916 21.30965
#
# Velocity S-wave (km/s) = 2.43869 3.57385 3.05938
# Velocity P-wave (km/s) = 3.13247 5.11548 4.24149
#
# Compressibility (1/GPa) = 0.23329209
#
# Stress axis : x y z
#
# Youngs Moduli (GPa) = 40.24085 59.98667 11.36168
#
# Poissons Ratio (x) = -0.37700 -0.36297
# Poissons Ratio (y) = -0.25290 -0.15505
# Poissons Ratio (z) = -1.28556 -0.81862
#
# Static dielectric constant tensor:
#      x y z
#    x 1.862790 0.000000 0.015250 
#    y 0.000000 1.901050 0.000000 
#    z 0.015250 0.000000 1.914880 
# 
# From -- ./inp_files/94954.got.cif
#   From: 2010.05.17/outbox.cif.g08.bks.cpg/sg13_48_cif.got.tgz:94954.got - 2010.06.03 16:44:36.
