data_PCOD9230016
_publ_section_title
;
Structure prediction by ZEFSAII (Michael W. Deem and Ramdas Pophale) SiO2 
 PCOD9230016
Probable space group: P 2/C
;
_chemical_formula_sum "Si O2"
_cell_formula_units_Z 30
_cell_length_a 11.367163
_cell_length_b 6.104144
_cell_length_c 21.964979
_cell_angle_alpha 90.000000
_cell_angle_beta 109.417092
_cell_angle_gamma 90.000000
_cell_volume 1437.395331
_symmetry_space_group_name_H-M "P 2/C"
_symmetry_group_IT_number 13
_symmetry_cell_setting 'monoclinic'
loop_
_space_group_symop_operation_xyz
x,y,z
-x,y,1/2-z
-x,-y,-z
x,-y,1/2+z
loop_
_atom_site_type_symbol
_atom_site_label
_atom_site_fract_x
_atom_site_fract_y
_atom_site_fract_z
Si Si1 0.639459 0.760662 0.491124
Si Si2 0.359290 0.500088 0.205465
Si Si3 0.223873 0.954951 0.390766
Si Si4 0.500000 0.081061 0.750000
Si Si5 0.344236 0.769959 0.809829
Si Si6 0.605483 0.585722 0.090243
Si Si7 0.811771 0.477978 0.934196
Si Si8 0.957598 0.184774 0.540803
O O1 0.507859 0.755698 0.434618
O O2 0.629437 0.546723 0.532601
O O3 0.746774 0.711862 0.462111
O O4 0.678313 0.959842 0.540532
O O5 0.500000 0.427275 0.250000
O O6 0.386991 0.759812 0.208666
O O7 0.284894 0.381402 0.246909
O O8 0.288907 0.439351 0.131974
O O9 0.271174 0.721892 0.374776
O O10 0.098058 0.923695 0.407574
O O11 0.243863 0.120555 0.338142
O O12 0.434595 0.949196 0.793876
O O13 0.421426 0.598398 0.864534
O O14 0.932179 0.358822 0.926049
O O15 0.855339 0.668922 0.987216
O O16 0.000000 0.000000 0.500000
#
# Coordination Sequence:
#
# PCOD9230016 Si02
#       8
#     4   4   4   2   4   4   4   4
#     4  10  20  35  57  97 129 171 207 267 342 396
#     4  10  23  43  64 100 137 170 219 278 336 410
#     4  11  22  39  64  94 133 173 221 277 334 402
#     4  10  22  42  62  96 130 172 216 256 336 406
#     4  11  22  38  64  92 133 179 212 269 340 399
#     4  10  21  37  57  93 140 165 209 269 337 409
#     4  11  23  41  71  93 134 176 224 279 336 397
#     4  11  24  45  66  98 129 178 233 278 328 391
#
# _framework density 20.871085000000001
#
# number of rings (size 3 to 8) (size 9 to 14) (size 15 to 20)
#    0.400    1.067    3.333    2.000    1.867    1.067 
#    2.400    0.000    0.000   12.000    0.000    0.000 
#    0.000    0.000    0.000    0.000    0.000    0.000 
#
# Total GULP energy -167083.224500 kJ/mol
# GULP energy per Si atom -5569.440817 kJ/mol
# Density = 2.082358 g / cm^3
# Si number density = 20.871085 Si / 1000 Ang^3
#
#
#
# Elastic Constant Matrix: (Units=GPa)
#
#
# Indices 1 2 3 4 5 6 
#
# 1 93.8871 33.7661 41.6212 0.0000 -24.1057 0.0000
# 2 33.7661 52.9342 16.0708 0.0000 -16.4794 0.0000
# 3 41.6212 16.0708 86.6911 0.0000 -13.8464 0.0000
# 4 0.0000 0.0000 0.0000 28.1862 0.0000 -9.1997
# 5 -24.1057 -16.4794 -13.8464 0.0000 32.9897 0.0000
# 6 0.0000 0.0000 0.0000 -9.1997 0.0000 28.0344
#
#
#
# Elastic Compliance Matrix: (Units=1/GPa)
#
#
# Indices 1 2 3 4 5 6 
#
# 1 0.017715 -0.007367 -0.006066 0.000000 0.006718 0.000000
# 2 -0.007367 0.025965 -0.000069 0.000000 0.007558 0.000000
# 3 -0.006066 -0.000069 0.014735 0.000000 0.001717 0.000000
# 4 0.000000 0.000000 0.000000 0.039734 0.000000 0.013039
# 5 0.006718 0.007558 0.001717 0.000000 0.039718 0.000000
# 6 0.000000 0.000000 0.000000 0.013039 0.000000 0.039949
#
#
# Mechanical properties :
#
#
# Convention : Reuss Voigt Hill
#
# Bulk Modulus (GPa) = 31.83764 46.26985 39.05375
# Shear Modulus (GPa) = 23.22451 27.31234 25.26842
#
# Velocity S-wave (km/s) = 3.33942 3.62141 3.48327
# Velocity P-wave (km/s) = 5.49150 6.30108 5.91017
#
# Compressibility (1/GPa) = 0.03140936
#
# Stress axis : x y z
#
# Youngs Moduli (GPa) = 56.45045 38.51401 67.86648
#
# Poissons Ratio (x) = 0.28372 0.41170
# Poissons Ratio (y) = 0.41586 0.00470
# Poissons Ratio (z) = 0.34245 0.00267
#
# Static dielectric constant tensor:
#      x y z
#    x 1.826000 0.000000 -0.034910 
#    y 0.000000 1.781790 0.000000 
#    z -0.034910 0.000000 1.772310 
# 
# From -- ./inp_files/77581.got.cif
#   From: 2010.05.17/outbox.cif.g08.bks.cpg/sg13_39_cif.got.tgz:77581.got - 2010.06.03 16:44:36.
