data_PCOD9230241
_publ_section_title
;
Structure prediction by ZEFSAII (Michael W. Deem and Ramdas Pophale) SiO2 
 PCOD9230241
Probable space group: P 2/C
;
_chemical_formula_sum "Si O2"
_cell_formula_units_Z 26
_cell_length_a 12.260490
_cell_length_b 8.637323
_cell_length_c 18.096415
_cell_angle_alpha 90.000000
_cell_angle_beta 139.218810
_cell_angle_gamma 90.000000
_cell_volume 1251.719817
_symmetry_space_group_name_H-M "P 2/C"
_symmetry_group_IT_number 13
_symmetry_cell_setting 'monoclinic'
loop_
_space_group_symop_operation_xyz
x,y,z
-x,y,1/2-z
-x,-y,-z
x,-y,1/2+z
loop_
_atom_site_type_symbol
_atom_site_label
_atom_site_fract_x
_atom_site_fract_y
_atom_site_fract_z
Si Si1 0.000000 0.347531 0.250000
Si Si2 0.463481 0.394065 0.593547
Si Si3 0.249787 0.404694 0.864949
Si Si4 0.175516 0.827131 0.975293
Si Si5 0.923974 0.326520 0.452697
Si Si6 0.241360 0.814390 0.485110
Si Si7 0.567626 0.706684 0.708863
O O1 0.118405 0.470652 0.268312
O O2 0.087961 0.244637 0.357156
O O3 0.629678 0.342906 0.636536
O O4 0.353733 0.486830 0.475925
O O5 0.353576 0.259006 0.570541
O O6 0.513130 0.528009 0.675298
O O7 0.180975 0.265332 0.878824
O O8 0.068768 0.780648 0.992600
O O9 0.197393 0.008412 0.974662
O O10 0.845558 0.278503 0.491724
O O11 0.766421 0.298465 0.316131
O O12 0.000000 0.500000 0.500000
O O13 0.445190 0.791135 0.587922
O O14 0.500000 0.777613 0.750000
#
# Coordination Sequence:
#
# PCOD9230241 Si02
#       7
#     2   4   4   4   4   4   4
#     4  10  20  36  58  84 116 156 200 242 280 336
#     4   9  18  34  57  80 108 148 192 234 277 345
#     4   9  18  35  56  79 109 149 197 234 276 337
#     4  11  22  37  58  89 122 150 189 242 299 343
#     4  11  21  39  64  86 114 152 198 243 283 343
#     4  10  22  38  57  85 121 154 187 240 298 346
#     4   9  18  36  58  82 112 152 196 237 287 346
#
# _framework density 20.771422999999999
#
# number of rings (size 3 to 8) (size 9 to 14) (size 15 to 20)
#    0.000    2.154    0.000    5.077    0.000    2.462 
#    0.000   10.000    0.000    0.000    0.000    0.000 
#    0.000    0.000    0.000    0.000    0.000    0.000 
#
# Total GULP energy -144878.341580 kJ/mol
# GULP energy per Si atom -5572.243907 kJ/mol
# Density = 2.072415 g / cm^3
# Si number density = 20.771423 Si / 1000 Ang^3
#
#
#
# Elastic Constant Matrix: (Units=GPa)
#
#
# Indices 1 2 3 4 5 6 
#
# 1 94.7491 42.1160 27.1474 0.0000 28.6123 0.0000
# 2 42.1160 134.4810 33.1440 0.0000 27.0451 0.0000
# 3 27.1474 33.1440 57.1402 0.0000 19.1281 0.0000
# 4 0.0000 0.0000 0.0000 16.3374 0.0000 -7.2404
# 5 28.6123 27.0451 19.1281 0.0000 23.8206 0.0000
# 6 0.0000 0.0000 0.0000 -7.2404 0.0000 17.7697
#
#
#
# Elastic Compliance Matrix: (Units=1/GPa)
#
#
# Indices 1 2 3 4 5 6 
#
# 1 0.016878 -0.001424 -0.001296 0.000000 -0.017616 0.000000
# 2 -0.001424 0.010056 -0.002608 0.000000 -0.007612 0.000000
# 3 -0.001296 -0.002608 0.024777 0.000000 -0.015379 0.000000
# 4 0.000000 0.000000 0.000000 0.074698 0.000000 0.030436
# 5 -0.017616 -0.007612 -0.015379 0.000000 0.084133 0.000000
# 6 0.000000 0.000000 0.000000 0.030436 0.000000 0.068677
#
#
# Mechanical properties :
#
#
# Convention : Reuss Voigt Hill
#
# Bulk Modulus (GPa) = 24.35691 54.57612 39.46651
# Shear Modulus (GPa) = 16.47130 23.84975 20.16053
#
# Velocity S-wave (km/s) = 2.81904 3.39219 3.11881
# Velocity P-wave (km/s) = 4.72733 6.45556 5.65782
#
# Compressibility (1/GPa) = 0.04105611
#
# Stress axis : x y z
#
# Youngs Moduli (GPa) = 59.24863 99.44789 40.35933
#
# Poissons Ratio (x) = 0.14158 0.05230
# Poissons Ratio (y) = 0.08435 0.10526
# Poissons Ratio (z) = 0.07677 0.25936
#
# Static dielectric constant tensor:
#      x y z
#    x 1.773550 0.000000 0.018930 
#    y 0.000000 1.687060 0.000000 
#    z 0.018930 0.000000 1.883270 
# 
# From -- ./inp_files/78348.got.cif
#   From: 2010.05.17/outbox.cif.g08.bks.cpg/sg13_40_cif.got.tgz:78348.got - 2010.06.03 16:44:36.
