data_PCOD9230932
_publ_section_title
;
Structure prediction by ZEFSAII (Michael W. Deem and Ramdas Pophale) SiO2 
 PCOD9230932
Probable space group: P 2/C
;
_chemical_formula_sum "Si O2"
_cell_formula_units_Z 28
_cell_length_a 8.744468
_cell_length_b 12.178344
_cell_length_c 20.569989
_cell_angle_alpha 90.000000
_cell_angle_beta 43.568479
_cell_angle_gamma 90.000000
_cell_volume 1509.781906
_symmetry_space_group_name_H-M "P 2/C"
_symmetry_group_IT_number 13
_symmetry_cell_setting 'monoclinic'
loop_
_space_group_symop_operation_xyz
x,y,z
-x,y,1/2-z
-x,-y,-z
x,-y,1/2+z
loop_
_atom_site_type_symbol
_atom_site_label
_atom_site_fract_x
_atom_site_fract_y
_atom_site_fract_z
Si Si1 0.752387 0.836610 0.551255
Si Si2 0.432180 0.972861 0.155185
Si Si3 0.695988 0.377630 0.982141
Si Si4 0.000000 0.131394 0.750000
Si Si5 0.539158 0.394907 0.580714
Si Si6 0.154408 0.320718 0.796854
Si Si7 0.500000 0.886001 0.750000
Si Si8 0.246495 0.220392 0.905426
O O1 0.703202 0.732794 0.521660
O O2 0.655280 0.819580 0.653736
O O3 0.016171 0.845969 0.475574
O O4 0.616346 0.943896 0.569511
O O5 0.220914 0.941863 0.177442
O O6 0.556432 0.862793 0.138950
O O7 0.362267 0.035307 0.243432
O O8 0.542802 0.362840 0.966041
O O9 0.945839 0.397607 0.878705
O O10 0.613303 0.479485 0.050486
O O11 0.953465 0.213961 0.704801
O O12 0.334210 0.374256 0.693528
O O13 0.733685 0.316515 0.547263
O O14 0.257203 0.279274 0.832506
#
# Coordination Sequence:
#
# PCOD9230932 Si02
#       8
#     4   4   4   2   4   4   2   4
#     4   9  22  40  59  87 126 164 198 256 304 380
#     4  10  20  38  60  91 121 162 199 258 310 368
#     4  10  22  43  59  88 132 157 210 253 317 368
#     4  12  20  36  66  90 124 154 218 252 304 380
#     4  11  22  39  65  91 122 164 207 264 304 368
#     4  11  21  38  65  92 117 163 206 263 303 365
#     4   8  20  40  58  82 126 162 198 242 314 360
#     4  11  21  39  63  93 120 159 213 253 310 362
#
# _framework density 18.545725000000001
#
# number of rings (size 3 to 8) (size 9 to 14) (size 15 to 20)
#    0.857    0.857    2.857    1.714    0.000    2.286 
#    7.714    3.571    3.143    0.000    0.000    0.000 
#    0.000    0.000    0.000    0.000    0.000    0.000 
#
# Total GULP energy -156041.412301 kJ/mol
# GULP energy per Si atom -5572.907582 kJ/mol
# Density = 1.850351 g / cm^3
# Si number density = 18.545725 Si / 1000 Ang^3
#
#
#
# Elastic Constant Matrix: (Units=GPa)
#
#
# Indices 1 2 3 4 5 6 
#
# 1 107.8112 51.4912 27.0306 0.0000 -24.5699 0.0000
# 2 51.4912 81.2591 34.4602 0.0000 -3.6088 0.0000
# 3 27.0306 34.4602 79.4283 0.0000 -9.0933 0.0000
# 4 0.0000 0.0000 0.0000 27.1330 0.0000 -0.5831
# 5 -24.5699 -3.6088 -9.0933 0.0000 22.9606 0.0000
# 6 0.0000 0.0000 0.0000 -0.5831 0.0000 29.1381
#
#
#
# Elastic Compliance Matrix: (Units=1/GPa)
#
#
# Indices 1 2 3 4 5 6 
#
# 1 0.018752 -0.011339 0.000661 0.000000 0.018546 0.000000
# 2 -0.011339 0.021939 -0.006970 0.000000 -0.011446 0.000000
# 3 0.000661 -0.006970 0.016073 0.000000 0.005978 0.000000
# 4 0.000000 0.000000 0.000000 0.036871 0.000000 0.000738
# 5 0.018546 -0.011446 0.005978 0.000000 0.063967 0.000000
# 6 0.000000 0.000000 0.000000 0.000738 0.000000 0.034334
#
#
# Mechanical properties :
#
#
# Convention : Reuss Voigt Hill
#
# Bulk Modulus (GPa) = 46.57987 54.94031 50.76009
# Shear Modulus (GPa) = 21.33206 26.21409 23.77308
#
# Velocity S-wave (km/s) = 3.39520 3.76371 3.58420
# Velocity P-wave (km/s) = 6.36715 6.96964 6.67520
#
# Compressibility (1/GPa) = 0.02146850
#
# Stress axis : x y z
#
# Youngs Moduli (GPa) = 53.32766 45.58077 62.21548
#
# Poissons Ratio (x) = 0.51685 -0.04114
# Poissons Ratio (y) = 0.60470 0.43363
# Poissons Ratio (z) = -0.03526 0.31769
#
# Static dielectric constant tensor:
#      x y z
#    x 1.658520 0.000000 -0.019700 
#    y 0.000000 1.637100 0.000000 
#    z -0.019700 0.000000 1.673870 
# 
# From -- ./inp_files/76231.got.cif
#   From: 2010.05.17/outbox.cif.g08.bks.cpg/sg13_39_cif.got.tgz:76231.got - 2010.06.03 16:44:36.
