data_PCOD9230465
_publ_section_title
;
Structure prediction by ZEFSAII (Michael W. Deem and Ramdas Pophale) SiO2 
 PCOD9230465
Probable space group: P 2/C
;
_chemical_formula_sum "Si O2"
_cell_formula_units_Z 32
_cell_length_a 11.886179
_cell_length_b 9.189210
_cell_length_c 19.913069
_cell_angle_alpha 90.000000
_cell_angle_beta 53.049942
_cell_angle_gamma 90.000000
_cell_volume 1738.170040
_symmetry_space_group_name_H-M "P 2/C"
_symmetry_group_IT_number 13
_symmetry_cell_setting 'monoclinic'
loop_
_space_group_symop_operation_xyz
x,y,z
-x,y,1/2-z
-x,-y,-z
x,-y,1/2+z
loop_
_atom_site_type_symbol
_atom_site_label
_atom_site_fract_x
_atom_site_fract_y
_atom_site_fract_z
Si Si1 0.905780 0.961404 0.098728
Si Si2 0.638332 0.419479 0.976360
Si Si3 0.086611 0.433184 0.151771
Si Si4 0.917002 0.901320 0.850967
Si Si5 0.371196 0.110686 0.347192
Si Si6 0.062085 0.627044 0.406929
Si Si7 0.236438 0.416434 0.421977
Si Si8 0.369994 0.074872 0.508573
O O1 0.913714 0.794227 0.119054
O O2 0.749868 0.005637 0.135737
O O3 0.967735 0.056957 0.135746
O O4 0.000000 0.000000 0.000000
O O5 0.771408 0.477987 0.887997
O O6 0.630132 0.245969 0.973846
O O7 0.500000 0.500000 0.000000
O O8 0.682159 0.453618 0.038193
O O9 0.123408 0.266840 0.121160
O O10 0.000000 0.426156 0.250000
O O11 0.993007 0.518766 0.130930
O O12 0.000000 0.916886 0.750000
O O13 0.777636 0.000132 0.914738
O O14 0.500000 0.096306 0.250000
O O15 0.316084 0.278080 0.363141
O O16 0.390259 0.073174 0.419832
O O17 0.201172 0.556853 0.389979
O O18 0.923888 0.634654 0.504372
O O19 0.500000 0.000000 0.500000
#
# Coordination Sequence:
#
# PCOD9230465 Si02
#       8
#     4   4   4   4   4   4   4   4
#     4  12  22  39  66  96 125 162 211 265 316 375
#     4  10  21  38  61  85 121 164 199 248 308 373
#     4  10  22  40  62  93 122 156 209 261 314 371
#     4  11  24  41  67  93 124 169 214 265 320 378
#     4  11  24  42  62  90 130 171 211 258 322 387
#     4  10  20  36  65  92 118 155 206 263 310 360
#     4   9  19  38  62  89 115 160 206 252 308 372
#     4  11  24  42  63  93 128 171 211 259 319 382
#
# _framework density 18.410166
#
# number of rings (size 3 to 8) (size 9 to 14) (size 15 to 20)
#    0.000    1.500    2.500    3.000    5.250    3.000 
#    6.750    0.625    0.000    0.000    0.000    0.000 
#    0.000    0.000    0.000    0.000    0.000    0.000 
#
# Total GULP energy -178454.016449 kJ/mol
# GULP energy per Si atom -5576.688014 kJ/mol
# Density = 1.836826 g / cm^3
# Si number density = 18.410166 Si / 1000 Ang^3
#
#
#
# Elastic Constant Matrix: (Units=GPa)
#
#
# Indices 1 2 3 4 5 6 
#
# 1 123.0276 63.5730 43.2558 0.0000 -12.0294 0.0000
# 2 63.5730 121.0276 52.3120 0.0000 -6.3850 0.0000
# 3 43.2558 52.3120 97.4045 0.0000 -7.7200 0.0000
# 4 0.0000 0.0000 0.0000 27.6929 0.0000 -5.7042
# 5 -12.0294 -6.3850 -7.7200 0.0000 22.4234 0.0000
# 6 0.0000 0.0000 0.0000 -5.7042 0.0000 37.4453
#
#
#
# Elastic Compliance Matrix: (Units=1/GPa)
#
#
# Indices 1 2 3 4 5 6 
#
# 1 0.011957 -0.005090 -0.002244 0.000000 0.004193 0.000000
# 2 -0.005090 0.012954 -0.004750 0.000000 -0.000677 0.000000
# 3 -0.002244 -0.004750 0.013994 0.000000 0.002261 0.000000
# 4 0.000000 0.000000 0.000000 0.037280 0.000000 0.005679
# 5 0.004193 -0.000677 0.002261 0.000000 0.047431 0.000000
# 6 0.000000 0.000000 0.000000 0.005679 0.000000 0.027571
#
#
# Mechanical properties :
#
#
# Convention : Reuss Voigt Hill
#
# Bulk Modulus (GPa) = 67.86144 73.30463 70.58303
# Shear Modulus (GPa) = 27.73664 29.66690 28.70177
#
# Velocity S-wave (km/s) = 3.88570 4.01863 3.95272
# Velocity P-wave (km/s) = 7.55463 7.83814 7.69769
#
# Compressibility (1/GPa) = 0.01473591
#
# Stress axis : x y z
#
# Youngs Moduli (GPa) = 83.63080 77.19894 71.46164
#
# Poissons Ratio (x) = 0.39292 0.16038
# Poissons Ratio (y) = 0.42565 0.33946
# Poissons Ratio (z) = 0.18769 0.36672
#
# Static dielectric constant tensor:
#      x y z
#    x 1.623980 0.000000 0.030510 
#    y 0.000000 1.660210 0.000000 
#    z 0.030510 0.000000 1.624640 
# 
# From -- ./inp_files/78271.got.cif
#   From: 2010.05.17/outbox.cif.g08.bks.cpg/sg13_40_cif.got.tgz:78271.got - 2010.06.03 16:44:36.
