data_PCOD9230007
_publ_section_title
;
Structure prediction by ZEFSAII (Michael W. Deem and Ramdas Pophale) SiO2 
 PCOD9230007
Probable space group: P 2/C
;
_chemical_formula_sum "Si O2"
_cell_formula_units_Z 24
_cell_length_a 29.255435
_cell_length_b 4.955851
_cell_length_c 24.990805
_cell_angle_alpha 90.000000
_cell_angle_beta 18.534325
_cell_angle_gamma 90.000000
_cell_volume 1151.750241
_symmetry_space_group_name_H-M "P 2/C"
_symmetry_group_IT_number 13
_symmetry_cell_setting 'monoclinic'
loop_
_space_group_symop_operation_xyz
x,y,z
-x,y,1/2-z
-x,-y,-z
x,-y,1/2+z
loop_
_atom_site_type_symbol
_atom_site_label
_atom_site_fract_x
_atom_site_fract_y
_atom_site_fract_z
Si Si1 0.759147 0.352653 0.337393
Si Si2 0.305527 0.278811 0.418374
Si Si3 0.148922 0.223524 0.053537
Si Si4 0.094287 0.591906 0.494051
Si Si5 0.145832 0.928017 0.870618
Si Si6 0.365185 0.149724 0.471829
O O1 0.756309 0.224208 0.281389
O O2 0.701964 0.654345 0.408689
O O3 0.925058 0.349803 0.172193
O O4 0.666531 0.156610 0.477629
O O5 0.267354 0.587807 0.450180
O O6 0.291240 0.216037 0.497155
O O7 0.467218 0.210799 0.221438
O O8 0.198909 0.084672 0.503870
O O9 0.131991 0.329824 0.012264
O O10 0.000000 0.259143 0.250000
O O11 0.117014 0.286040 0.449885
O O12 0.185149 0.789660 0.354188
O O13 0.000000 0.000000 0.000000
#
# Coordination Sequence:
#
# PCOD9230007 Si02
#       6
#     4   4   4   4   4   4
#     4  11  20  36  61  88 111 147 195 235 286 334
#     4  11  24  40  57  86 117 152 190 232 288 334
#     4  12  24  39  61  86 118 152 187 228 288 355
#     4  11  21  36  58  88 121 148 182 241 293 336
#     4  10  20  35  57  87 119 148 188 240 289 331
#     4  11  22  38  61  83 115 150 193 241 274 336
#
# _framework density 20.837851000000001
#
# number of rings (size 3 to 8) (size 9 to 14) (size 15 to 20)
#    0.000    1.000    0.000   10.500    0.000    2.667 
#    0.000    0.000    0.000   20.000    0.000    0.000 
#    0.000    0.000    0.000    0.000    0.000    0.000 
#
# Total GULP energy -134192.928257 kJ/mol
# GULP energy per Si atom -5591.372011 kJ/mol
# Density = 2.079042 g / cm^3
# Si number density = 20.837851 Si / 1000 Ang^3
#
#
#
# Elastic Constant Matrix: (Units=GPa)
#
#
# Indices 1 2 3 4 5 6 
#
# 1 70.0544 0.7427 1.9765 0.0000 15.5336 0.0000
# 2 0.7427 84.1630 -4.4109 0.0000 -0.0270 0.0000
# 3 1.9765 -4.4109 40.7219 0.0000 4.8303 0.0000
# 4 0.0000 0.0000 0.0000 19.9534 0.0000 15.8563
# 5 15.5336 -0.0270 4.8303 0.0000 17.7808 0.0000
# 6 0.0000 0.0000 0.0000 15.8563 0.0000 27.3505
#
#
#
# Elastic Compliance Matrix: (Units=1/GPa)
#
#
# Indices 1 2 3 4 5 6 
#
# 1 0.017745 -0.000109 0.000998 0.000000 -0.015774 0.000000
# 2 -0.000109 0.011952 0.001329 0.000000 -0.000247 0.000000
# 3 0.000998 0.001329 0.025580 0.000000 -0.007819 0.000000
# 4 0.000000 0.000000 0.000000 0.092930 0.000000 -0.053876
# 5 -0.015774 -0.000247 -0.007819 0.000000 0.072144 0.000000
# 6 0.000000 0.000000 0.000000 -0.053876 0.000000 0.067797
#
#
# Mechanical properties :
#
#
# Convention : Reuss Voigt Hill
#
# Bulk Modulus (GPa) = 16.74675 21.28398 19.01537
# Shear Modulus (GPa) = 16.46812 26.12568 21.29690
#
# Velocity S-wave (km/s) = 2.81427 3.54469 3.20039
# Velocity P-wave (km/s) = 4.31443 5.19513 4.77513
#
# Compressibility (1/GPa) = 0.05971307
#
# Stress axis : x y z
#
# Youngs Moduli (GPa) = 56.35312 83.66615 39.09332
#
# Poissons Ratio (x) = 0.00915 -0.03901
# Poissons Ratio (y) = 0.00616 -0.05197
# Poissons Ratio (z) = -0.05624 -0.11122
#
# Static dielectric constant tensor:
#      x y z
#    x 1.758000 0.000000 0.028300 
#    y 0.000000 1.719150 0.000000 
#    z 0.028300 0.000000 1.726900 
# 
# From -- ./inp_files/89397.got.cif
#   From: 2010.05.17/outbox.cif.g08.bks.cpg/sg13_45_cif.got.tgz:89397.got - 2010.06.03 16:44:36.
