data_PCOD9230881
_publ_section_title
;
Structure prediction by ZEFSAII (Michael W. Deem and Ramdas Pophale) SiO2 
 PCOD9230881
Probable space group: P 2/C
;
_chemical_formula_sum "Si O2"
_cell_formula_units_Z 28
_cell_length_a 9.104415
_cell_length_b 16.969668
_cell_length_c 11.786559
_cell_angle_alpha 90.000000
_cell_angle_beta 131.151183
_cell_angle_gamma 90.000000
_cell_volume 1371.176854
_symmetry_space_group_name_H-M "P 2/C"
_symmetry_group_IT_number 13
_symmetry_cell_setting 'monoclinic'
loop_
_space_group_symop_operation_xyz
x,y,z
-x,y,1/2-z
-x,-y,-z
x,-y,1/2+z
loop_
_atom_site_type_symbol
_atom_site_label
_atom_site_fract_x
_atom_site_fract_y
_atom_site_fract_z
Si Si1 0.636145 0.316403 0.929276
Si Si2 0.858705 0.309535 0.569938
Si Si3 0.225061 0.155675 0.408417
Si Si4 0.105169 0.582223 0.068197
Si Si5 0.378783 0.578605 0.426532
Si Si6 0.114056 0.006017 0.933049
Si Si7 0.407514 0.845565 0.579971
O O1 0.500000 0.306501 0.750000
O O2 0.765081 0.393730 0.972320
O O3 0.507335 0.343634 0.969105
O O4 0.742265 0.235697 0.006752
O O5 0.748934 0.393071 0.533707
O O6 0.721827 0.234142 0.492914
O O7 0.000000 0.297216 0.750000
O O8 0.987712 0.335708 0.528951
O O9 0.230661 0.076133 0.484639
O O10 0.407598 0.151228 0.412692
O O11 0.000000 0.159293 0.250000
O O12 0.240731 0.571668 0.247242
O O13 0.000000 0.500000 0.000000
O O14 0.500000 0.500000 0.500000
O O15 0.000000 0.009466 0.750000
O O16 0.258604 0.080567 0.999387
O O17 0.000000 0.000000 0.000000
O O18 0.500000 0.846983 0.750000
#
# Coordination Sequence:
#
# PCOD9230881 Si02
#       7
#     4   4   4   4   4   4   4
#     4  10  22  39  62  90 125 169 218 268 333 398
#     4  10  22  40  63  90 128 173 220 271 342 407
#     4  11  25  44  66  98 136 174 224 276 335 402
#     4  10  22  36  59  91 123 166 219 276 336 405
#     4  10  20  38  59  86 124 166 217 270 331 402
#     4  11  26  48  75 107 144 184 230 284 346 419
#     4  12  25  43  69 102 137 178 227 283 343 410
#
# _framework density 20.420414000000001
#
# number of rings (size 3 to 8) (size 9 to 14) (size 15 to 20)
#    0.000    1.429    1.429    3.429    4.000    4.000 
#    0.000    0.000    0.000    0.000    0.000    0.000 
#    0.000    0.000    0.000    0.000    0.000    0.000 
#
# Total GULP energy -155919.676713 kJ/mol
# GULP energy per Si atom -5568.559883 kJ/mol
# Density = 2.037394 g / cm^3
# Si number density = 20.420414 Si / 1000 Ang^3
#
#
#
# Elastic Constant Matrix: (Units=GPa)
#
#
# Indices 1 2 3 4 5 6 
#
# 1 113.2776 55.6677 44.3418 0.0000 -2.9386 0.0000
# 2 55.6677 183.6804 65.4983 0.0000 20.1010 0.0000
# 3 44.3418 65.4983 61.8452 0.0000 8.9316 0.0000
# 4 0.0000 0.0000 0.0000 -3.4794 0.0000 22.8426
# 5 -2.9386 20.1010 8.9316 0.0000 28.6203 0.0000
# 6 0.0000 0.0000 0.0000 22.8426 0.0000 48.6334
#
#
#
# Elastic Compliance Matrix: (Units=1/GPa)
#
#
# Indices 1 2 3 4 5 6 
#
# 1 0.013002 -0.001457 -0.008503 0.000000 0.005012 0.000000
# 2 -0.001457 0.009240 -0.008150 0.000000 -0.004096 0.000000
# 3 -0.008503 -0.008150 0.031622 0.000000 -0.005017 0.000000
# 4 0.000000 0.000000 0.000000 -0.070381 0.000000 0.033057
# 5 0.005012 -0.004096 -0.005017 0.000000 0.039897 0.000000
# 6 0.000000 0.000000 0.000000 0.033057 0.000000 0.005035
#
#
# Mechanical properties :
#
#
# Convention : Reuss Voigt Hill
#
# Bulk Modulus (GPa) = 56.67526 76.64653 66.66089
# Shear Modulus (GPa) = 70.90432 27.64122 49.27277
#
# Velocity S-wave (km/s) = 5.89895 3.68313 4.91747
# Velocity P-wave (km/s) = 8.61460 7.46345 8.05960
#
# Compressibility (1/GPa) = 0.01764438
#
# Stress axis : x y z
#
# Youngs Moduli (GPa) = 76.90865 108.22319 31.62358
#
# Poissons Ratio (x) = 0.15767 0.26891
# Poissons Ratio (y) = 0.11205 0.25773
# Poissons Ratio (z) = 0.65398 0.88200
#
# Static dielectric constant tensor:
#      x y z
#    x 1.823410 0.000000 0.057010 
#    y 0.000000 1.528280 0.000000 
#    z 0.057010 0.000000 1.728080 
# 
# From -- ./inp_files/30504.got.cif
#   From: 2010.05.17/outbox.cif.g08.bks.cpg/sg13_16_cif.got.tgz:30504.got - 2010.06.03 16:44:36.
