data_PCOD9230629
_publ_section_title
;
Structure prediction by ZEFSAII (Michael W. Deem and Ramdas Pophale) SiO2 
 PCOD9230629
Probable space group: P 2/C
;
_chemical_formula_sum "Si O2"
_cell_formula_units_Z 26
_cell_length_a 17.288626
_cell_length_b 9.381630
_cell_length_c 8.301491
_cell_angle_alpha 90.000000
_cell_angle_beta 64.829793
_cell_angle_gamma 90.000000
_cell_volume 1218.615374
_symmetry_space_group_name_H-M "P 2/C"
_symmetry_group_IT_number 13
_symmetry_cell_setting 'monoclinic'
loop_
_space_group_symop_operation_xyz
x,y,z
-x,y,1/2-z
-x,-y,-z
x,-y,1/2+z
loop_
_atom_site_type_symbol
_atom_site_label
_atom_site_fract_x
_atom_site_fract_y
_atom_site_fract_z
Si Si1 0.446401 0.377739 0.639257
Si Si2 0.000000 0.901902 0.250000
Si Si3 0.893902 0.865981 0.644060
Si Si4 0.277188 0.865078 0.904260
Si Si5 0.725963 0.550590 0.703101
Si Si6 0.211720 0.317389 0.030153
Si Si7 0.668035 0.879411 0.293080
O O1 0.500000 0.343159 0.750000
O O2 0.500000 0.500000 0.500000
O O3 0.358152 0.459279 0.747754
O O4 0.412030 0.225795 0.602110
O O5 0.955202 0.821443 0.439783
O O6 0.065430 0.004973 0.289975
O O7 0.807694 0.902268 0.621656
O O8 0.866951 0.751309 0.803605
O O9 0.283103 0.695394 0.887038
O O10 0.350195 0.962778 0.758139
O O11 0.279672 0.896481 0.089236
O O12 0.802459 0.443906 0.585487
O O13 0.735864 0.603079 0.875720
O O14 0.269754 0.196376 0.894166
#
# Coordination Sequence:
#
# PCOD9230629 Si02
#       7
#     4   2   4   4   4   4   4
#     4  11  22  39  59  84 120 160 195 242 310 373
#     4  10  20  38  58  94 132 164 196 234 318 378
#     4  10  21  35  62  91 126 163 198 251 301 367
#     4  11  21  38  61  88 118 152 204 260 299 335
#     4  10  20  37  61  86 115 156 204 249 296 361
#     4  10  20  37  60  89 115 154 207 248 294 349
#     4  11  22  36  59  89 118 153 206 257 298 360
#
# _framework density 21.335688999999999
#
# number of rings (size 3 to 8) (size 9 to 14) (size 15 to 20)
#    0.000    1.538    0.000    8.308    0.000    1.231 
#    0.000    3.846    0.000   11.077    0.000    0.000 
#    0.000    0.000    0.000    0.000    0.000    0.000 
#
# Total GULP energy -144844.356288 kJ/mol
# GULP energy per Si atom -5570.936780 kJ/mol
# Density = 2.128713 g / cm^3
# Si number density = 21.335689 Si / 1000 Ang^3
#
#
#
# Elastic Constant Matrix: (Units=GPa)
#
#
# Indices 1 2 3 4 5 6 
#
# 1 67.2106 16.7530 3.2416 0.0000 10.8077 0.0000
# 2 16.7530 78.4182 14.4939 0.0000 -13.1296 0.0000
# 3 3.2416 14.4939 91.3743 0.0000 -1.7722 0.0000
# 4 0.0000 0.0000 0.0000 17.2431 0.0000 -28.3670
# 5 10.8077 -13.1296 -1.7722 0.0000 33.2953 0.0000
# 6 0.0000 0.0000 0.0000 -28.3670 0.0000 -4.0858
#
#
#
# Elastic Compliance Matrix: (Units=1/GPa)
#
#
# Indices 1 2 3 4 5 6 
#
# 1 0.017339 -0.004980 0.000028 0.000000 -0.007591 0.000000
# 2 -0.004980 0.015484 -0.002132 0.000000 0.007609 0.000000
# 3 0.000028 -0.002132 0.011276 0.000000 -0.000249 0.000000
# 4 0.000000 0.000000 0.000000 0.004669 0.000000 -0.032414
# 5 -0.007591 0.007609 -0.000249 0.000000 0.035486 0.000000
# 6 0.000000 0.000000 0.000000 -0.032414 0.000000 -0.019703
#
#
# Mechanical properties :
#
#
# Convention : Reuss Voigt Hill
#
# Bulk Modulus (GPa) = 33.41056 33.99779 33.70417
# Shear Modulus (GPa) = 56.37175 22.79150 39.58162
#
# Velocity S-wave (km/s) = 5.14575 3.27193 4.31186
# Velocity P-wave (km/s) = 7.14132 5.49939 6.37345
#
# Compressibility (1/GPa) = 0.02993066
#
# Stress axis : x y z
#
# Youngs Moduli (GPa) = 57.67241 64.58209 88.68132
#
# Poissons Ratio (x) = 0.32164 -0.00245
# Poissons Ratio (y) = 0.28723 0.18906
# Poissons Ratio (z) = -0.00159 0.13768
#
# Static dielectric constant tensor:
#      x y z
#    x 1.775940 0.000000 -0.033380 
#    y 0.000000 1.860590 0.000000 
#    z -0.033380 0.000000 1.881790 
# 
# From -- ./inp_files/22506.got.cif
#   From: 2010.05.17/outbox.cif.g08.bks.cpg/sg13_12_cif.got.tgz:22506.got - 2010.06.03 16:44:36.
