data_PCOD9230894
_publ_section_title
;
Structure prediction by ZEFSAII (Michael W. Deem and Ramdas Pophale) SiO2 
 PCOD9230894
Probable space group: P 2/C
;
_chemical_formula_sum "Si O2"
_cell_formula_units_Z 26
_cell_length_a 9.760104
_cell_length_b 15.778868
_cell_length_c 14.610564
_cell_angle_alpha 90.000000
_cell_angle_beta 138.650273
_cell_angle_gamma 90.000000
_cell_volume 1486.520733
_symmetry_space_group_name_H-M "P 2/C"
_symmetry_group_IT_number 13
_symmetry_cell_setting 'monoclinic'
loop_
_space_group_symop_operation_xyz
x,y,z
-x,y,1/2-z
-x,-y,-z
x,-y,1/2+z
loop_
_atom_site_type_symbol
_atom_site_label
_atom_site_fract_x
_atom_site_fract_y
_atom_site_fract_z
Si Si1 0.358986 0.801573 0.337071
Si Si2 0.000000 0.496966 0.750000
Si Si3 0.158063 0.213380 0.412208
Si Si4 0.220445 0.396620 0.520440
Si Si5 0.117774 0.028650 0.469025
Si Si6 0.709287 0.393833 0.737114
Si Si7 0.000000 0.901884 0.250000
Si Si8 0.500000 0.918206 0.250000
O O1 0.598455 0.800436 0.492234
O O2 0.286524 0.707099 0.277196
O O3 0.365874 0.856820 0.247325
O O4 0.197461 0.844957 0.323679
O O5 0.175456 0.440509 0.787985
O O6 0.906660 0.552809 0.620182
O O7 0.169432 0.296929 0.480667
O O8 0.083689 0.126537 0.422976
O O9 0.000000 0.229544 0.250000
O O10 0.463733 0.412996 0.621072
O O11 0.192197 0.416098 0.614115
O O12 0.360417 0.025859 0.614423
O O13 0.000000 0.000000 0.500000
O O14 0.055158 0.964345 0.359793
#
# Coordination Sequence:
#
# PCOD9230894 Si02
#       8
#     4   2   4   4   4   4   2   2
#     4  10  21  37  59  84 112 156 192 234 286 350
#     4  12  21  35  60  92 114 142 188 243 281 332
#     4  10  20  38  60  83 112 153 199 233 279 347
#     4  10  21  38  60  84 112 154 189 228 281 348
#     4  11  22  36  56  86 116 147 190 242 286 329
#     4  10  21  38  58  84 116 148 189 232 286 335
#     4  12  23  35  58  88 118 146 194 243 293 334
#     4  10  20  38  60  80 114 158 198 228 282 352
#
# _framework density 17.490506
#
# number of rings (size 3 to 8) (size 9 to 14) (size 15 to 20)
#    0.000    1.538    3.077    4.154    0.000    3.692 
#    0.000    0.000    0.000    0.000    0.000    0.000 
#    0.000    0.000    0.000    0.000    0.000    0.000 
#
# Total GULP energy -144976.731620 kJ/mol
# GULP energy per Si atom -5576.028139 kJ/mol
# Density = 1.745070 g / cm^3
# Si number density = 17.490506 Si / 1000 Ang^3
#
#
#
# Elastic Constant Matrix: (Units=GPa)
#
#
# Indices 1 2 3 4 5 6 
#
# 1 100.7688 53.2560 19.6063 0.0000 -9.0811 0.0000
# 2 53.2560 82.7855 37.5208 0.0000 3.1200 0.0000
# 3 19.6063 37.5208 100.5986 0.0000 -17.0565 0.0000
# 4 0.0000 0.0000 0.0000 21.9010 0.0000 11.7717
# 5 -9.0811 3.1200 -17.0565 0.0000 20.7573 0.0000
# 6 0.0000 0.0000 0.0000 11.7717 0.0000 -14.8139
#
#
#
# Elastic Compliance Matrix: (Units=1/GPa)
#
#
# Indices 1 2 3 4 5 6 
#
# 1 0.017410 -0.013380 0.003752 0.000000 0.012711 0.000000
# 2 -0.013380 0.025966 -0.010145 0.000000 -0.018093 0.000000
# 3 0.003752 -0.010145 0.015720 0.000000 0.016084 0.000000
# 4 0.000000 0.000000 0.000000 0.031995 0.000000 0.025424
# 5 0.012711 -0.018093 0.016084 0.000000 0.069672 0.000000
# 6 0.000000 0.000000 0.000000 0.025424 0.000000 -0.047301
#
#
# Mechanical properties :
#
#
# Convention : Reuss Voigt Hill
#
# Bulk Modulus (GPa) = 51.14518 56.10214 53.62366
# Shear Modulus (GPa) = 31.34315 17.15353 24.24834
#
# Velocity S-wave (km/s) = 4.23781 3.13506 3.72744
# Velocity P-wave (km/s) = 7.29729 6.72683 7.01786
#
# Compressibility (1/GPa) = 0.01955219
#
# Stress axis : x y z
#
# Youngs Moduli (GPa) = 57.43714 38.51126 63.61356
#
# Poissons Ratio (x) = 0.51527 -0.23870
# Poissons Ratio (y) = 0.76850 0.64534
# Poissons Ratio (z) = -0.21552 0.39069
#
# Static dielectric constant tensor:
#      x y z
#    x 1.848870 0.000000 0.469610 
#    y 0.000000 1.589310 0.000000 
#    z 0.469610 0.000000 2.389800 
# 
# From -- ./inp_files/47854.got.cif
#   From: 2010.05.17/outbox.cif.g08.bks.cpg/sg13_24_cif.got.tgz:47854.got - 2010.06.03 16:44:36.
