data_PCOD9230902
_publ_section_title
;
Structure prediction by ZEFSAII (Michael W. Deem and Ramdas Pophale) SiO2 
 PCOD9230902
Probable space group: P 2/C
;
_chemical_formula_sum "Si O2"
_cell_formula_units_Z 30
_cell_length_a 22.020842
_cell_length_b 13.948395
_cell_length_c 8.915583
_cell_angle_alpha 90.000000
_cell_angle_beta 141.823279
_cell_angle_gamma 90.000000
_cell_volume 1692.618014
_symmetry_space_group_name_H-M "P 2/C"
_symmetry_group_IT_number 13
_symmetry_cell_setting 'monoclinic'
loop_
_space_group_symop_operation_xyz
x,y,z
-x,y,1/2-z
-x,-y,-z
x,-y,1/2+z
loop_
_atom_site_type_symbol
_atom_site_label
_atom_site_fract_x
_atom_site_fract_y
_atom_site_fract_z
Si Si1 0.123604 0.429088 0.748290
Si Si2 0.398989 0.626521 0.486940
Si Si3 0.819347 0.615293 0.815898
Si Si4 0.944843 0.298701 0.336308
Si Si5 0.212761 0.729308 0.232021
Si Si6 0.091079 0.879351 0.141169
Si Si7 0.000000 0.037160 0.750000
Si Si8 0.602142 0.418038 0.868540
O O1 0.165450 0.529541 0.774064
O O2 0.198222 0.348936 0.833132
O O3 0.017544 0.391341 0.484272
O O4 0.127624 0.422153 0.933541
O O5 0.314107 0.703924 0.348394
O O6 0.381276 0.528245 0.546623
O O7 0.407104 0.595547 0.328541
O O8 0.500000 0.665574 0.750000
O O9 0.879602 0.701318 0.859811
O O10 0.703988 0.633068 0.613346
O O11 0.012096 0.205425 0.462335
O O12 0.871107 0.294494 0.054291
O O13 0.190023 0.830776 0.267076
O O14 0.074213 0.906175 0.282916
O O15 0.062292 0.969471 0.982813
O O16 0.500000 0.387839 0.750000
#
# Coordination Sequence:
#
# PCOD9230902 Si02
#       8
#     4   4   4   4   4   4   2   4
#     4  11  23  33  50  71 108 152 193 223 263 324
#     4  11  22  37  56  74 103 147 193 243 281 315
#     4  12  22  35  51  74 106 156 193 231 273 314
#     4  11  22  37  50  79 113 147 179 227 267 320
#     4  11  21  38  55  79 111 144 183 233 277 316
#     4  10  21  37  59  84 116 141 175 216 267 337
#     4  10  20  38  60  84 112 146 174 206 268 346
#     4  11  22  36  53  72 102 146 206 243 275 310
#
# _framework density 17.724022000000001
#
# number of rings (size 3 to 8) (size 9 to 14) (size 15 to 20)
#    0.000    1.067    4.000    5.200    5.600    1.067 
#    0.000    0.000    0.000    0.000    0.000    0.933 
#    0.000    0.000    0.000    0.000    0.000    0.000 
#
# Total GULP energy -167349.658984 kJ/mol
# GULP energy per Si atom -5578.321966 kJ/mol
# Density = 1.768368 g / cm^3
# Si number density = 17.724022 Si / 1000 Ang^3
#
#
#
# Elastic Constant Matrix: (Units=GPa)
#
#
# Indices 1 2 3 4 5 6 
#
# 1 139.7763 36.1454 51.0189 0.0000 -1.9504 0.0000
# 2 36.1454 31.9995 15.1912 0.0000 -0.6406 0.0000
# 3 51.0189 15.1912 77.6154 0.0000 1.6469 0.0000
# 4 0.0000 0.0000 0.0000 13.3854 0.0000 -2.7430
# 5 -1.9504 -0.6406 1.6469 0.0000 41.2070 0.0000
# 6 0.0000 0.0000 0.0000 -2.7430 0.0000 35.3959
#
#
#
# Elastic Compliance Matrix: (Units=1/GPa)
#
#
# Indices 1 2 3 4 5 6 
#
# 1 0.012114 -0.010896 -0.005844 0.000000 0.000638 0.000000
# 2 -0.010896 0.044280 -0.001509 0.000000 0.000233 0.000000
# 3 -0.005844 -0.001509 0.017041 0.000000 -0.000981 0.000000
# 4 0.000000 0.000000 0.000000 0.075914 0.000000 0.005883
# 5 0.000638 0.000233 -0.000981 0.000000 0.024341 0.000000
# 6 0.000000 0.000000 0.000000 0.005883 0.000000 0.028708
#
#
# Mechanical properties :
#
#
# Convention : Reuss Voigt Hill
#
# Bulk Modulus (GPa) = 27.07326 50.45580 38.76453
# Shear Modulus (GPa) = 19.90384 27.80004 23.85194
#
# Velocity S-wave (km/s) = 3.35473 3.96472 3.67241
# Velocity P-wave (km/s) = 5.50579 7.03477 6.31671
#
# Compressibility (1/GPa) = 0.03693682
#
# Stress axis : x y z
#
# Youngs Moduli (GPa) = 82.54974 22.58372 58.68064
#
# Poissons Ratio (x) = 0.24608 0.34291
# Poissons Ratio (y) = 0.89950 0.08855
# Poissons Ratio (z) = 0.48239 0.03408
#
# Static dielectric constant tensor:
#      x y z
#    x 1.689360 0.000000 0.014050 
#    y 0.000000 1.610250 0.000000 
#    z 0.014050 0.000000 1.629030 
# 
# From -- ./inp_files/23508.got.cif
#   From: 2010.05.17/outbox.cif.g08.bks.cpg/sg13_12_cif.got.tgz:23508.got - 2010.06.03 16:44:36.
