data_PCOD9230329
_publ_section_title
;
Structure prediction by ZEFSAII (Michael W. Deem and Ramdas Pophale) SiO2 
 PCOD9230329
Probable space group: P 2/C
;
_chemical_formula_sum "Si O2"
_cell_formula_units_Z 28
_cell_length_a 20.509259
_cell_length_b 10.976901
_cell_length_c 17.672316
_cell_angle_alpha 90.000000
_cell_angle_beta 159.693871
_cell_angle_gamma 90.000000
_cell_volume 1380.694788
_symmetry_space_group_name_H-M "P 2/C"
_symmetry_group_IT_number 13
_symmetry_cell_setting 'monoclinic'
loop_
_space_group_symop_operation_xyz
x,y,z
-x,y,1/2-z
-x,-y,-z
x,-y,1/2+z
loop_
_atom_site_type_symbol
_atom_site_label
_atom_site_fract_x
_atom_site_fract_y
_atom_site_fract_z
Si Si1 0.874816 0.891050 0.968777
Si Si2 0.689995 0.719087 0.412686
Si Si3 0.389365 0.998257 0.707169
Si Si4 0.266960 0.378901 0.703940
Si Si5 0.119055 0.739748 0.728370
Si Si6 0.766686 0.009075 0.698335
Si Si7 0.681501 0.652318 0.694027
O O1 0.804557 0.989324 0.828503
O O2 0.784499 0.762523 0.848126
O O3 0.796031 0.930262 0.964542
O O4 0.097702 0.894106 0.195107
O O5 0.500000 0.687142 0.250000
O O6 0.664438 0.859656 0.358673
O O7 0.710675 0.638631 0.361404
O O8 0.851808 0.712327 0.651965
O O9 0.500000 0.964844 0.750000
O O10 0.548813 0.975897 0.943920
O O11 0.249080 0.521287 0.702861
O O12 0.084573 0.298537 0.523357
O O13 0.456186 0.337040 0.952501
O O14 0.170315 0.880482 0.771086
O O15 0.265317 0.666395 0.836141
#
# Coordination Sequence:
#
# PCOD9230329 Si02
#       7
#     4   4   4   4   4   4   4
#     4  10  22  36  58  83 121 154 189 234 284 354
#     4  11  19  37  61  87 119 141 189 250 287 337
#     4  11  21  37  59  87 120 150 187 239 293 348
#     4  11  22  37  63  85 114 155 193 242 297 332
#     4  11  20  37  62  89 112 145 194 247 288 341
#     4  10  20  36  60  90 112 150 193 232 295 344
#     4  10  23  41  57  85 118 152 199 242 281 344
#
# _framework density 20.279644000000001
#
# number of rings (size 3 to 8) (size 9 to 14) (size 15 to 20)
#    0.000    1.429    4.286    3.000    0.000    4.000 
#    0.000    0.714    6.286    0.000    0.000    0.000 
#    0.000    0.000    0.000    0.000    0.000    0.000 
#
# Total GULP energy -156354.310017 kJ/mol
# GULP energy per Si atom -5584.082501 kJ/mol
# Density = 2.023349 g / cm^3
# Si number density = 20.279644 Si / 1000 Ang^3
#
#
#
# Elastic Constant Matrix: (Units=GPa)
#
#
# Indices 1 2 3 4 5 6 
#
# 1 72.2377 26.5709 -4.0346 0.0000 1.3812 0.0000
# 2 26.5709 74.8741 27.2478 0.0000 7.3851 0.0000
# 3 -4.0346 27.2478 71.9816 0.0000 15.5026 0.0000
# 4 0.0000 0.0000 0.0000 21.2495 0.0000 6.2142
# 5 1.3812 7.3851 15.5026 0.0000 32.0484 0.0000
# 6 0.0000 0.0000 0.0000 6.2142 0.0000 16.2355
#
#
#
# Elastic Compliance Matrix: (Units=1/GPa)
#
#
# Indices 1 2 3 4 5 6 
#
# 1 0.016752 -0.007269 0.003891 0.000000 -0.000929 0.000000
# 2 -0.007269 0.018663 -0.007382 0.000000 -0.000416 0.000000
# 3 0.003891 -0.007382 0.018502 0.000000 -0.007417 0.000000
# 4 0.000000 0.000000 0.000000 0.052991 0.000000 -0.020283
# 5 -0.000929 -0.000416 -0.007417 0.000000 0.034926 0.000000
# 6 0.000000 0.000000 0.000000 -0.020283 0.000000 0.069356
#
#
# Mechanical properties :
#
#
# Convention : Reuss Voigt Hill
#
# Bulk Modulus (GPa) = 30.86841 35.40683 33.13762
# Shear Modulus (GPa) = 20.53288 25.19396 22.86342
#
# Velocity S-wave (km/s) = 3.18541 3.52849 3.36133
# Velocity P-wave (km/s) = 5.36503 5.83931 5.60719
#
# Compressibility (1/GPa) = 0.03239557
#
# Stress axis : x y z
#
# Youngs Moduli (GPa) = 59.69436 53.58196 54.04720
#
# Poissons Ratio (x) = 0.38949 -0.21028
# Poissons Ratio (y) = 0.43392 0.39900
# Poissons Ratio (z) = -0.23225 0.39557
#
# Static dielectric constant tensor:
#      x y z
#    x 1.739910 0.000000 0.011270 
#    y 0.000000 1.677470 0.000000 
#    z 0.011270 0.000000 1.797390 
# 
# From -- ./inp_files/70728.got.cif
#   From: 2010.05.17/outbox.cif.g08.bks.cpg/sg13_36_cif.got.tgz:70728.got - 2010.06.03 16:44:36.
