data_PCOD9230431
_publ_section_title
;
Structure prediction by ZEFSAII (Michael W. Deem and Ramdas Pophale) SiO2 
 PCOD9230431
Probable space group: P 2/C
;
_chemical_formula_sum "Si O2"
_cell_formula_units_Z 20
_cell_length_a 23.506976
_cell_length_b 4.748912
_cell_length_c 8.981990
_cell_angle_alpha 90.000000
_cell_angle_beta 42.616316
_cell_angle_gamma 90.000000
_cell_volume 678.901869
_symmetry_space_group_name_H-M "P 2/C"
_symmetry_group_IT_number 13
_symmetry_cell_setting 'monoclinic'
loop_
_space_group_symop_operation_xyz
x,y,z
-x,y,1/2-z
-x,-y,-z
x,-y,1/2+z
loop_
_atom_site_type_symbol
_atom_site_label
_atom_site_fract_x
_atom_site_fract_y
_atom_site_fract_z
Si Si1 0.500000 0.197541 0.250000
Si Si2 0.394237 0.830614 0.212336
Si Si3 0.151124 0.434232 0.111185
Si Si4 0.706115 0.761085 0.821128
Si Si5 0.143708 0.932328 0.307578
Si Si6 0.000000 0.754550 0.250000
O O1 0.440426 0.346280 0.489665
O O2 0.450059 0.004416 0.226389
O O3 0.342864 0.654862 0.435568
O O4 0.344867 0.059978 0.205177
O O5 0.147609 0.104266 0.145183
O O6 0.066209 0.555015 0.205185
O O7 0.148344 0.602044 0.272967
O O8 0.237573 0.530567 0.870328
O O9 0.773430 0.968051 0.769126
O O10 0.057248 0.043790 0.539559
#
# Coordination Sequence:
#
# PCOD9230431 Si02
#       6
#     2   4   4   4   4   2
#     4   8  16  28  60 100 138 182 220 274 332 412
#     4   9  16  34  58 101 140 178 226 273 340 404
#     4  11  24  42  64  97 135 178 230 281 344 400
#     4  10  20  36  63  93 141 171 229 277 341 397
#     4  11  24  42  64  97 135 178 230 281 344 400
#     4  10  24  40  66  92 132 182 230 284 338 400
#
# _framework density 29.459340000000001
#
# number of rings (size 3 to 8) (size 9 to 14) (size 15 to 20)
#    0.000    2.000    2.000    1.200    0.000    8.000 
#    0.000    0.000    0.000    0.000    0.000   70.000 
#    0.000    0.000    0.000    0.000    0.000    0.000 
#
# Total GULP energy -112068.605455 kJ/mol
# GULP energy per Si atom -5603.430273 kJ/mol
# Density = 2.939229 g / cm^3
# Si number density = 29.459340 Si / 1000 Ang^3
#
#
#
# Elastic Constant Matrix: (Units=GPa)
#
#
# Indices 1 2 3 4 5 6 
#
# 1 198.8538 33.5670 45.9476 0.0000 25.5882 0.0000
# 2 33.5670 95.0891 17.5106 0.0000 11.4109 0.0000
# 3 45.9476 17.5106 238.5101 0.0000 29.9386 0.0000
# 4 0.0000 0.0000 0.0000 36.9717 0.0000 30.5306
# 5 25.5882 11.4109 29.9386 0.0000 34.7600 0.0000
# 6 0.0000 0.0000 0.0000 30.5306 0.0000 43.4141
#
#
#
# Elastic Compliance Matrix: (Units=1/GPa)
#
#
# Indices 1 2 3 4 5 6 
#
# 1 0.005853 -0.001562 -0.000601 0.000000 -0.003278 0.000000
# 2 -0.001562 0.011398 -0.000236 0.000000 -0.002388 0.000000
# 3 -0.000601 -0.000236 0.004777 0.000000 -0.003594 0.000000
# 4 0.000000 0.000000 0.000000 0.064511 0.000000 -0.045367
# 5 -0.003278 -0.002388 -0.003594 0.000000 0.035062 0.000000
# 6 0.000000 0.000000 0.000000 -0.045367 0.000000 0.054938
#
#
# Mechanical properties :
#
#
# Convention : Reuss Voigt Hill
#
# Bulk Modulus (GPa) = 58.04153 80.72261 69.38207
# Shear Modulus (GPa) = 26.72649 52.05767 39.39208
#
# Velocity S-wave (km/s) = 3.01530 4.20825 3.66070
# Velocity P-wave (km/s) = 5.64515 7.14656 6.43976
#
# Compressibility (1/GPa) = 0.01722904
#
# Stress axis : x y z
#
# Youngs Moduli (GPa) = 170.84404 87.73487 209.33433
#
# Poissons Ratio (x) = 0.13705 0.12590
# Poissons Ratio (y) = 0.26688 0.04942
# Poissons Ratio (z) = 0.10275 0.02071
#
# Static dielectric constant tensor:
#      x y z
#    x 2.340180 0.000000 -0.038640 
#    y 0.000000 2.159340 0.000000 
#    z -0.038640 0.000000 2.452730 
# 
# From -- ./inp_files/23722.got.cif
#   From: 2010.05.17/outbox.cif.g08.bks.cpg/sg13_12_cif.got.tgz:23722.got - 2010.06.03 16:44:36.
