data_PCOD9230429
_publ_section_title
;
Structure prediction by ZEFSAII (Michael W. Deem and Ramdas Pophale) SiO2 
 PCOD9230429
Probable space group: P 2/C
;
_chemical_formula_sum "Si O2"
_cell_formula_units_Z 28
_cell_length_a 15.091788
_cell_length_b 5.259210
_cell_length_c 17.838279
_cell_angle_alpha 90.000000
_cell_angle_beta 56.581727
_cell_angle_gamma 90.000000
_cell_volume 1181.762325
_symmetry_space_group_name_H-M "P 2/C"
_symmetry_group_IT_number 13
_symmetry_cell_setting 'monoclinic'
loop_
_space_group_symop_operation_xyz
x,y,z
-x,y,1/2-z
-x,-y,-z
x,-y,1/2+z
loop_
_atom_site_type_symbol
_atom_site_label
_atom_site_fract_x
_atom_site_fract_y
_atom_site_fract_z
Si Si1 0.803814 0.456865 0.417231
Si Si2 0.424398 0.968016 0.857923
Si Si3 0.492545 0.523214 0.162327
Si Si4 0.924190 0.036407 0.872815
Si Si5 0.808406 0.165640 0.559085
Si Si6 0.717938 0.312500 0.316507
Si Si7 0.839427 0.803988 0.218238
O O1 0.844722 0.739999 0.384180
O O2 0.792242 0.407706 0.511620
O O3 0.706565 0.361927 0.411016
O O4 0.892277 0.239740 0.356303
O O5 0.500000 0.935010 0.750000
O O6 0.426446 0.698692 0.897716
O O7 0.476483 0.198118 0.879854
O O8 0.306733 0.035397 0.887939
O O9 0.500000 0.555456 0.250000
O O10 0.380824 0.414619 0.185926
O O11 0.045053 0.112949 0.807324
O O12 0.894839 0.000362 0.974483
O O13 0.841516 0.212314 0.627413
O O14 0.808952 0.520039 0.256446
O O15 0.755036 0.026960 0.279584
#
# Coordination Sequence:
#
# PCOD9230429 Si02
#       7
#     4   4   4   4   4   4   4
#     4  10  25  43  63  89 143 170 205 262 336 380
#     4  10  20  36  63  91 119 158 209 263 319 368
#     4  10  20  37  59  90 122 154 207 267 314 364
#     4  10  24  42  66  91 134 171 218 256 325 384
#     4  10  25  42  68  94 135 168 214 271 324 377
#     4  12  25  42  65  99 131 167 219 271 315 382
#     4  12  24  39  71  96 125 174 226 264 308 377
#
# _framework density 23.693427
#
# number of rings (size 3 to 8) (size 9 to 14) (size 15 to 20)
#    0.857    0.571    0.000    6.429    4.000    4.000 
#    0.000    1.429    0.000    0.000    0.000    0.000 
#    0.000    0.000    0.000    0.000    0.000    0.000 
#
# Total GULP energy -156322.323150 kJ/mol
# GULP energy per Si atom -5582.940113 kJ/mol
# Density = 2.363950 g / cm^3
# Si number density = 23.693427 Si / 1000 Ang^3
#
#
#
# Elastic Constant Matrix: (Units=GPa)
#
#
# Indices 1 2 3 4 5 6 
#
# 1 96.7143 -2.3419 4.8039 0.0000 13.5444 0.0000
# 2 -2.3419 136.9798 12.5200 0.0000 3.3624 0.0000
# 3 4.8039 12.5200 60.6536 0.0000 14.7653 0.0000
# 4 0.0000 0.0000 0.0000 12.9112 0.0000 -5.4474
# 5 13.5444 3.3624 14.7653 0.0000 43.0454 0.0000
# 6 0.0000 0.0000 0.0000 -5.4474 0.0000 27.1178
#
#
#
# Elastic Compliance Matrix: (Units=1/GPa)
#
#
# Indices 1 2 3 4 5 6 
#
# 1 0.010827 0.000276 -0.000087 0.000000 -0.003398 0.000000
# 2 0.000276 0.007448 -0.001524 0.000000 -0.000146 0.000000
# 3 -0.000087 -0.001524 0.018301 0.000000 -0.006131 0.000000
# 4 0.000000 0.000000 0.000000 0.084624 0.000000 0.016999
# 5 -0.003398 -0.000146 -0.006131 0.000000 0.026415 0.000000
# 6 0.000000 0.000000 0.000000 0.016999 0.000000 0.040291
#
#
# Mechanical properties :
#
#
# Convention : Reuss Voigt Hill
#
# Bulk Modulus (GPa) = 29.49280 36.03463 32.76372
# Shear Modulus (GPa) = 24.76759 35.23928 30.00344
#
# Velocity S-wave (km/s) = 3.23667 3.86074 3.56240
# Velocity P-wave (km/s) = 5.14225 5.92583 5.54789
#
# Compressibility (1/GPa) = 0.03390658
#
# Stress axis : x y z
#
# Youngs Moduli (GPa) = 92.36447 134.26552 54.64177
#
# Poissons Ratio (x) = -0.03712 0.00477
# Poissons Ratio (y) = -0.02554 0.08326
# Poissons Ratio (z) = 0.00806 0.20458
#
# Static dielectric constant tensor:
#      x y z
#    x 1.986780 0.000000 0.190140 
#    y 0.000000 1.922420 0.000000 
#    z 0.190140 0.000000 2.219410 
# 
# From -- ./inp_files/67484.got.cif
#   From: 2010.05.17/outbox.cif.g08.bks.cpg/sg13_34_cif.got.tgz:67484.got - 2010.06.03 16:44:36.
