data_PCOD9230291
_publ_section_title
;
Structure prediction by ZEFSAII (Michael W. Deem and Ramdas Pophale) SiO2 
 PCOD9230291
Probable space group: P 2/C
;
_chemical_formula_sum "Si O2"
_cell_formula_units_Z 32
_cell_length_a 20.213678
_cell_length_b 16.041502
_cell_length_c 14.400909
_cell_angle_alpha 90.000000
_cell_angle_beta 20.044551
_cell_angle_gamma 90.000000
_cell_volume 1600.510916
_symmetry_space_group_name_H-M "P 2/C"
_symmetry_group_IT_number 13
_symmetry_cell_setting 'monoclinic'
loop_
_space_group_symop_operation_xyz
x,y,z
-x,y,1/2-z
-x,-y,-z
x,-y,1/2+z
loop_
_atom_site_type_symbol
_atom_site_label
_atom_site_fract_x
_atom_site_fract_y
_atom_site_fract_z
Si Si1 0.178699 0.007424 0.443399
Si Si2 0.993128 0.836409 0.100120
Si Si3 0.056928 0.343386 0.569573
Si Si4 0.596988 0.886955 0.715629
Si Si5 0.180315 0.562877 0.261133
Si Si6 0.763901 0.826086 0.216774
Si Si7 0.801580 0.657509 0.065043
Si Si8 0.561614 0.439614 0.502109
O O1 0.219916 0.919007 0.344319
O O2 0.352745 0.043540 0.275243
O O3 0.115678 0.079600 0.453858
O O4 0.000000 0.997692 0.750000
O O5 0.094198 0.754448 0.005665
O O6 0.798608 0.847694 0.417551
O O7 0.925612 0.820413 0.083940
O O8 0.874530 0.372707 0.747298
O O9 0.000000 0.362133 0.750000
O O10 0.249575 0.389926 0.281868
O O11 0.500000 0.922623 0.750000
O O12 0.445220 0.821692 0.957826
O O13 0.191337 0.612008 0.343997
O O14 0.365236 0.502100 0.013954
O O15 0.000000 0.500000 0.500000
O O16 0.783096 0.754931 0.114778
O O17 0.619839 0.621716 0.246796
O O18 0.000000 0.640991 0.750000
O O19 0.500000 0.500000 0.500000
#
# Coordination Sequence:
#
# PCOD9230291 Si02
#       8
#     4   4   4   4   4   4   4   4
#     4  10  20  36  59  88 120 166 211 247 309 372
#     4  10  21  37  60  90 128 160 202 263 319 359
#     4  11  21  38  67  96 125 157 205 264 320 373
#     4   9  20  36  57  87 125 159 200 266 309 361
#     4   9  20  42  64  90 121 154 205 260 313 380
#     4  11  21  37  60  88 126 167 210 248 308 371
#     4  11  23  41  64  87 129 171 206 254 306 373
#     4   9  22  41  62  90 121 159 206 256 314 382
#
# _framework density 19.993615999999999
#
# number of rings (size 3 to 8) (size 9 to 14) (size 15 to 20)
#    0.000    2.000    1.250    2.250    3.500    4.500 
#    0.000    8.750    0.000    0.000    0.000    0.000 
#    0.000    0.000    0.000    0.000    0.000    0.000 
#
# Total GULP energy -178583.062772 kJ/mol
# GULP energy per Si atom -5580.720712 kJ/mol
# Density = 1.994811 g / cm^3
# Si number density = 19.993616 Si / 1000 Ang^3
#
#
#
# Elastic Constant Matrix: (Units=GPa)
#
#
# Indices 1 2 3 4 5 6 
#
# 1 75.5246 28.5144 37.8414 0.0000 -13.4969 0.0000
# 2 28.5144 115.1531 38.2408 0.0000 -11.8038 0.0000
# 3 37.8414 38.2408 89.6565 0.0000 -11.8934 0.0000
# 4 0.0000 0.0000 0.0000 7.1317 0.0000 -21.6506
# 5 -13.4969 -11.8038 -11.8934 0.0000 25.7857 0.0000
# 6 0.0000 0.0000 0.0000 -21.6506 0.0000 -7.1367
#
#
#
# Elastic Compliance Matrix: (Units=1/GPa)
#
#
# Indices 1 2 3 4 5 6 
#
# 1 0.018002 -0.001860 -0.006037 0.000000 0.005787 0.000000
# 2 -0.001860 0.010504 -0.003394 0.000000 0.002270 0.000000
# 3 -0.006037 -0.003394 0.015471 0.000000 0.002422 0.000000
# 4 0.000000 0.000000 0.000000 0.013734 0.000000 -0.041664
# 5 0.005787 0.002270 0.002422 0.000000 0.043966 0.000000
# 6 0.000000 0.000000 0.000000 -0.041664 0.000000 -0.013724
#
#
# Mechanical properties :
#
#
# Convention : Reuss Voigt Hill
#
# Bulk Modulus (GPa) = 46.74069 54.39193 50.56631
# Shear Modulus (GPa) = 42.49269 16.87198 29.68233
#
# Velocity S-wave (km/s) = 4.61511 2.90809 3.85722
# Velocity P-wave (km/s) = 7.19914 6.20804 6.72188
#
# Compressibility (1/GPa) = 0.02139464
#
# Stress axis : x y z
#
# Youngs Moduli (GPa) = 55.54963 95.19763 64.63727
#
# Poissons Ratio (x) = 0.17703 0.39023
# Poissons Ratio (y) = 0.10330 0.21941
# Poissons Ratio (z) = 0.33537 0.32315
#
# Static dielectric constant tensor:
#      x y z
#    x 1.703720 0.000000 -0.016630 
#    y 0.000000 1.712070 0.000000 
#    z -0.016630 0.000000 1.708150 
# 
# From -- ./inp_files/57861.got.cif
#   From: 2010.05.17/outbox.cif.g08.bks.cpg/sg13_29_cif.got.tgz:57861.got - 2010.06.03 16:44:36.
