data_PCOD9230689
_publ_section_title
;
Structure prediction by ZEFSAII (Michael W. Deem and Ramdas Pophale) SiO2 
 PCOD9230689
Probable space group: P 2/C
;
_chemical_formula_sum "Si O2"
_cell_formula_units_Z 28
_cell_length_a 20.802622
_cell_length_b 15.415255
_cell_length_c 8.916546
_cell_angle_alpha 90.000000
_cell_angle_beta 149.009352
_cell_angle_gamma 90.000000
_cell_volume 1472.267699
_symmetry_space_group_name_H-M "P 2/C"
_symmetry_group_IT_number 13
_symmetry_cell_setting 'monoclinic'
loop_
_space_group_symop_operation_xyz
x,y,z
-x,y,1/2-z
-x,-y,-z
x,-y,1/2+z
loop_
_atom_site_type_symbol
_atom_site_label
_atom_site_fract_x
_atom_site_fract_y
_atom_site_fract_z
Si Si1 0.502792 0.699325 0.073933
Si Si2 0.250000 0.400161 0.059657
Si Si3 0.000000 0.998947 0.250000
Si Si4 0.997210 0.300673 0.562769
Si Si5 0.392131 0.121661 0.788471
Si Si6 0.892130 0.121661 0.280050
Si Si7 0.249998 0.409273 0.420948
Si Si8 0.500000 0.998947 0.250000
O O1 0.500000 0.709380 0.250000
O O2 0.519772 0.794426 0.038711
O O3 0.624278 0.641299 0.280332
O O4 0.375335 0.652667 0.771287
O O5 0.250000 0.411747 0.239886
O O6 0.124668 0.347330 0.769952
O O7 0.249998 0.493947 0.984202
O O8 0.083626 0.060841 0.313758
O O9 0.078561 0.937525 0.516965
O O10 0.000000 0.290616 0.750000
O O11 0.980228 0.205573 0.459618
O O12 0.875726 0.358701 0.283229
O O13 0.250000 0.152216 0.498057
O O14 0.421438 0.062475 0.702716
O O15 0.416376 0.060842 0.979257
#
# Coordination Sequence:
#
# PCOD9230689 Si02
#       8
#     4   4   2   4   4   4   4   2
#     4  10  20  37  62  86 120 159 196 242 303 367
#     4  10  22  38  60  87 115 156 200 243 297 362
#     4  10  24  38  62  92 118 162 202 254 298 360
#     4  10  20  37  62  86 120 159 196 242 303 367
#     4  11  21  42  62  90 124 159 204 248 305 356
#     4  11  21  42  62  90 124 159 204 248 305 356
#     4  10  20  40  60  83 115 156 198 245 303 354
#     4  10  24  38  62  92 118 162 202 254 298 360
#
# _framework density 19.018281000000002
#
# number of rings (size 3 to 8) (size 9 to 14) (size 15 to 20)
#    0.000    1.714    2.857    1.714    0.000    0.000 
#   18.000    0.000    0.000    0.000    0.000    0.000 
#    0.000    0.000    0.000    0.000    0.000    0.000 
#
# Total GULP energy -156411.612912 kJ/mol
# GULP energy per Si atom -5586.129033 kJ/mol
# Density = 1.897499 g / cm^3
# Si number density = 19.018281 Si / 1000 Ang^3
#
#
#
# Elastic Constant Matrix: (Units=GPa)
#
#
# Indices 1 2 3 4 5 6 
#
# 1 47.8473 47.9854 50.1259 0.0000 5.7194 0.0000
# 2 47.9854 168.9957 63.9356 0.0000 14.3860 0.0000
# 3 50.1259 63.9356 89.8838 0.0000 32.2003 0.0000
# 4 0.0000 0.0000 0.0000 28.6447 0.0000 15.3283
# 5 5.7194 14.3860 32.2003 0.0000 25.9189 0.0000
# 6 0.0000 0.0000 0.0000 15.3283 0.0000 11.6540
#
#
#
# Elastic Compliance Matrix: (Units=1/GPa)
#
#
# Indices 1 2 3 4 5 6 
#
# 1 0.107956 -0.004631 -0.088833 0.000000 0.089110 0.000000
# 2 -0.004631 0.008639 -0.003984 0.000000 0.001176 0.000000
# 3 -0.088833 -0.003984 0.100344 0.000000 -0.102848 0.000000
# 4 0.000000 0.000000 0.000000 0.117876 0.000000 -0.155041
# 5 0.089110 0.001176 -0.102848 0.000000 0.146038 0.000000
# 6 0.000000 0.000000 0.000000 -0.155041 0.000000 0.289731
#
#
# Mechanical properties :
#
#
# Convention : Reuss Voigt Hill
#
# Bulk Modulus (GPa) = 45.36601 70.09117 57.72859
# Shear Modulus (GPa) = 5.13965 22.88884 14.01424
#
# Velocity S-wave (km/s) = 1.64570 3.47294 2.71750
# Velocity P-wave (km/s) = 5.24565 7.28123 6.34560
#
# Compressibility (1/GPa) = 0.02204293
#
# Stress axis : x y z
#
# Youngs Moduli (GPa) = 9.26300 115.74790 9.96573
#
# Poissons Ratio (x) = 0.53606 0.88529
# Poissons Ratio (y) = 0.04290 0.03970
# Poissons Ratio (z) = 0.82286 0.46114
#
# Static dielectric constant tensor:
#      x y z
#    x 1.647300 0.000000 0.002590 
#    y 0.000000 1.618550 0.000000 
#    z 0.002590 0.000000 1.650170 
# 
# From -- ./inp_files/16900.got.cif
#   From: 2010.05.17/outbox.cif.g08.bks.cpg/sg13_9_cif.got.tgz:16900.got - 2010.06.03 16:44:36.
