data_PCOD9230949
_publ_section_title
;
Structure prediction by ZEFSAII (Michael W. Deem and Ramdas Pophale) SiO2 
 PCOD9230949
Probable space group: P 2/C
;
_chemical_formula_sum "Si O2"
_cell_formula_units_Z 32
_cell_length_a 11.265124
_cell_length_b 6.918982
_cell_length_c 23.765691
_cell_angle_alpha 90.000000
_cell_angle_beta 104.140878
_cell_angle_gamma 90.000000
_cell_volume 1796.243069
_symmetry_space_group_name_H-M "P 2/C"
_symmetry_group_IT_number 13
_symmetry_cell_setting 'monoclinic'
loop_
_space_group_symop_operation_xyz
x,y,z
-x,y,1/2-z
-x,-y,-z
x,-y,1/2+z
loop_
_atom_site_type_symbol
_atom_site_label
_atom_site_fract_x
_atom_site_fract_y
_atom_site_fract_z
Si Si1 0.443078 0.572807 0.898823
Si Si2 0.598475 0.904589 0.969167
Si Si3 0.045723 0.490385 0.360484
Si Si4 0.253608 0.451673 0.972409
Si Si5 0.239164 0.476913 0.284522
Si Si6 0.331861 0.292713 0.580726
Si Si7 0.086535 0.146111 0.207363
Si Si8 0.194955 0.252570 0.681146
O O1 0.524109 0.762476 0.918836
O O2 0.356465 0.546487 0.943397
O O3 0.357148 0.578064 0.834499
O O4 0.534323 0.391453 0.905146
O O5 0.661742 0.080093 0.944554
O O6 0.696991 0.764976 0.010953
O O7 0.500000 0.000000 0.000000
O O8 0.126855 0.527960 0.424742
O O9 0.133638 0.531598 0.317272
O O10 0.996732 0.271793 0.345247
O O11 0.929279 0.627655 0.344016
O O12 0.253287 0.568758 0.030600
O O13 0.185551 0.295985 0.243884
O O14 0.256402 0.651890 0.243297
O O15 0.279700 0.280142 0.637025
O O16 0.000000 0.085926 0.250000
O O17 0.153808 0.965642 0.187983
#
# Coordination Sequence:
#
# PCOD9230949 Si02
#       8
#     4   4   4   4   4   4   4   4
#     4  10  20  38  61  84 110 145 192 240 282 334
#     4  11  19  36  59  85 115 143 188 236 284 335
#     4   9  20  38  61  84 108 146 191 236 283 335
#     4  10  20  38  61  85 109 144 192 238 282 336
#     4   9  20  38  61  84 108 146 191 237 283 333
#     4  11  23  36  55  84 116 154 182 232 289 339
#     4   9  18  36  58  82 112 148 192 237 278 335
#     4  11  22  37  55  81 120 151 187 228 287 344
#
# _framework density 17.814959999999999
#
# number of rings (size 3 to 8) (size 9 to 14) (size 15 to 20)
#    0.000    2.000    2.500    2.625    0.000    7.000 
#    2.250    1.250    0.000    0.000    0.000    0.000 
#    0.000    0.000    0.000    0.000    0.000    0.000 
#
# Total GULP energy -178572.276732 kJ/mol
# GULP energy per Si atom -5580.383648 kJ/mol
# Density = 1.777441 g / cm^3
# Si number density = 17.814960 Si / 1000 Ang^3
#
#
#
# Elastic Constant Matrix: (Units=GPa)
#
#
# Indices 1 2 3 4 5 6 
#
# 1 16.8420 11.1345 26.9285 0.0000 7.5323 0.0000
# 2 11.1345 80.6169 31.7013 0.0000 -5.8453 0.0000
# 3 26.9285 31.7013 92.6486 0.0000 6.3835 0.0000
# 4 0.0000 0.0000 0.0000 9.0648 0.0000 2.2881
# 5 7.5323 -5.8453 6.3835 0.0000 27.4093 0.0000
# 6 0.0000 0.0000 0.0000 2.2881 0.0000 5.1492
#
#
#
# Elastic Compliance Matrix: (Units=1/GPa)
#
#
# Indices 1 2 3 4 5 6 
#
# 1 0.131118 -0.007026 -0.033660 0.000000 -0.029692 0.000000
# 2 -0.007026 0.015218 -0.003579 0.000000 0.006010 0.000000
# 3 -0.033660 -0.003579 0.021563 0.000000 0.003465 0.000000
# 4 0.000000 0.000000 0.000000 0.124254 0.000000 -0.055214
# 5 -0.029692 0.006010 0.003465 0.000000 0.045118 0.000000
# 6 0.000000 0.000000 0.000000 -0.055214 0.000000 0.218740
#
#
# Mechanical properties :
#
#
# Convention : Reuss Voigt Hill
#
# Bulk Modulus (GPa) = 12.59946 36.62624 24.61285
# Shear Modulus (GPa) = 7.45161 16.34755 11.89958
#
# Velocity S-wave (km/s) = 2.04740 3.03253 2.58729
# Velocity P-wave (km/s) = 3.56046 5.73285 4.77192
#
# Compressibility (1/GPa) = 0.07936848
#
# Stress axis : x y z
#
# Youngs Moduli (GPa) = 7.62674 65.71220 46.37652
#
# Poissons Ratio (x) = 0.46170 1.56102
# Poissons Ratio (y) = 0.05359 0.16598
# Poissons Ratio (z) = 0.25671 0.23518
#
# Static dielectric constant tensor:
#      x y z
#    x 1.595520 0.000000 0.003080 
#    y 0.000000 1.595660 0.000000 
#    z 0.003080 0.000000 1.612000 
# 
# From -- ./inp_files/91851.got.cif
#   From: 2010.05.17/outbox.cif.g08.bks.cpg/sg13_46_cif.got.tgz:91851.got - 2010.06.03 16:44:36.
