data_PCOD9230225
_publ_section_title
;
Structure prediction by ZEFSAII (Michael W. Deem and Ramdas Pophale) SiO2 
 PCOD9230225
Probable space group: P 2/C
;
_chemical_formula_sum "Si O2"
_cell_formula_units_Z 24
_cell_length_a 11.577964
_cell_length_b 19.880292
_cell_length_c 14.181483
_cell_angle_alpha 90.000000
_cell_angle_beta 160.177917
_cell_angle_gamma 90.000000
_cell_volume 1106.891549
_symmetry_space_group_name_H-M "P 2/C"
_symmetry_group_IT_number 13
_symmetry_cell_setting 'monoclinic'
loop_
_space_group_symop_operation_xyz
x,y,z
-x,y,1/2-z
-x,-y,-z
x,-y,1/2+z
loop_
_atom_site_type_symbol
_atom_site_label
_atom_site_fract_x
_atom_site_fract_y
_atom_site_fract_z
Si Si1 0.742677 0.050138 0.129181
Si Si2 0.403860 0.393318 0.568639
Si Si3 0.403350 0.459084 0.067302
Si Si4 0.248220 0.146385 0.634489
Si Si5 0.629675 0.677892 0.068123
Si Si6 0.788524 0.241161 0.404949
O O1 0.000000 0.016864 0.250000
O O2 0.964512 0.100133 0.365230
O O3 0.495116 0.096479 0.878627
O O4 0.500000 0.000000 0.000000
O O5 0.500000 0.382817 0.750000
O O6 0.553410 0.467586 0.655627
O O7 0.529757 0.334294 0.599205
O O8 0.000000 0.395382 0.250000
O O9 0.500000 0.446345 0.250000
O O10 0.464738 0.394025 0.051473
O O11 0.000000 0.467242 0.750000
O O12 0.500000 0.180579 0.750000
O O13 0.069844 0.193669 0.574414
O O14 0.018646 0.703818 0.379429
O O15 0.409099 0.728168 0.836540
O O16 0.500000 0.208567 0.250000
#
# Coordination Sequence:
#
# PCOD9230225 Si02
#       6
#     4   4   4   4   4   4
#     4  10  21  39  67 100 131 165 205 248 300 356
#     4  10  22  38  57  85 114 148 199 257 322 392
#     4  10  20  36  58  82 112 147 191 254 324 388
#     4  10  23  43  63  91 131 171 208 250 301 355
#     4  12  23  39  60  84 117 157 205 261 318 377
#     4  12  26  41  62  90 122 166 215 258 306 368
#
# _framework density 21.682341000000001
#
# number of rings (size 3 to 8) (size 9 to 14) (size 15 to 20)
#    0.000    1.333    0.000    6.000    0.000    3.333 
#    0.000    6.667    0.000    0.000    0.000    0.000 
#    0.000    0.000    0.000    0.000    0.000    0.000 
#
# Total GULP energy -134010.485392 kJ/mol
# GULP energy per Si atom -5583.770225 kJ/mol
# Density = 2.163299 g / cm^3
# Si number density = 21.682341 Si / 1000 Ang^3
#
#
#
# Elastic Constant Matrix: (Units=GPa)
#
#
# Indices 1 2 3 4 5 6 
#
# 1 133.4637 58.1715 47.7855 0.0000 9.3752 0.0000
# 2 58.1715 47.4521 22.9209 0.0000 13.4843 0.0000
# 3 47.7855 22.9209 130.1067 0.0000 -25.6017 0.0000
# 4 0.0000 0.0000 0.0000 26.0148 0.0000 9.4987
# 5 9.3752 13.4843 -25.6017 0.0000 53.7814 0.0000
# 6 0.0000 0.0000 0.0000 9.4987 0.0000 38.6266
#
#
#
# Elastic Compliance Matrix: (Units=1/GPa)
#
#
# Indices 1 2 3 4 5 6 
#
# 1 0.017003 -0.019800 -0.002607 0.000000 0.000759 0.000000
# 2 -0.019800 0.050253 -0.003730 0.000000 -0.010924 0.000000
# 3 -0.002607 -0.003730 0.010564 0.000000 0.006418 0.000000
# 4 0.000000 0.000000 0.000000 0.042232 0.000000 -0.010385
# 5 0.000759 -0.010924 0.006418 0.000000 0.024256 0.000000
# 6 0.000000 0.000000 0.000000 -0.010385 0.000000 0.028443
#
#
# Mechanical properties :
#
#
# Convention : Reuss Voigt Hill
#
# Bulk Modulus (GPa) = 39.14808 63.19758 51.17283
# Shear Modulus (GPa) = 21.40956 35.82753 28.61854
#
# Velocity S-wave (km/s) = 3.14573 4.06936 3.63699
# Velocity P-wave (km/s) = 5.59363 7.16170 6.42567
#
# Compressibility (1/GPa) = 0.02554404
#
# Stress axis : x y z
#
# Youngs Moduli (GPa) = 58.81320 19.89924 94.66335
#
# Poissons Ratio (x) = 0.39401 0.24681
# Poissons Ratio (y) = 1.16452 0.35313
# Poissons Ratio (z) = 0.15334 0.07423
#
# Static dielectric constant tensor:
#      x y z
#    x 1.840980 0.000000 0.035400 
#    y 0.000000 1.826910 0.000000 
#    z 0.035400 0.000000 1.760570 
# 
# From -- ./inp_files/51696.got.cif
#   From: 2010.05.17/outbox.cif.g08.bks.cpg/sg13_26_cif.got.tgz:51696.got - 2010.06.03 16:44:36.
