data_PCOD9230004
_publ_section_title
;
Structure prediction by ZEFSAII (Michael W. Deem and Ramdas Pophale) SiO2 
 PCOD9230004
Probable space group: P 2/C
;
_chemical_formula_sum "Si O2"
_cell_formula_units_Z 26
_cell_length_a 12.729683
_cell_length_b 9.087490
_cell_length_c 13.968002
_cell_angle_alpha 90.000000
_cell_angle_beta 56.258740
_cell_angle_gamma 90.000000
_cell_volume 1343.650949
_symmetry_space_group_name_H-M "P 2/C"
_symmetry_group_IT_number 13
_symmetry_cell_setting 'monoclinic'
loop_
_space_group_symop_operation_xyz
x,y,z
-x,y,1/2-z
-x,-y,-z
x,-y,1/2+z
loop_
_atom_site_type_symbol
_atom_site_label
_atom_site_fract_x
_atom_site_fract_y
_atom_site_fract_z
Si Si1 0.821680 0.854417 0.180908
Si Si2 0.330350 0.366361 0.073470
Si Si3 0.332198 0.854125 0.747148
Si Si4 0.000000 0.057149 0.750000
Si Si5 0.384364 0.906306 0.927204
Si Si6 0.619967 0.694348 0.392926
Si Si7 0.821920 0.847367 0.966504
O O1 0.700910 0.750903 0.262447
O O2 0.871590 0.827374 0.048924
O O3 0.775121 0.024156 0.209756
O O4 0.921699 0.843203 0.215493
O O5 0.320536 0.278445 0.179150
O O6 0.328475 0.538675 0.095337
O O7 0.469039 0.328140 0.959108
O O8 0.219820 0.302467 0.063272
O O9 0.344060 0.814557 0.853086
O O10 0.466073 0.931248 0.654630
O O11 0.087420 0.949076 0.642694
O O12 0.306621 0.055840 0.962037
O O13 0.359012 0.816963 0.035920
#
# Coordination Sequence:
#
# PCOD9230004 Si02
#       7
#     4   4   4   2   4   4   4
#     4  11  22  37  60  85 111 149 196 243 286 336
#     4  10  20  35  57  86 120 151 180 228 294 358
#     4   9  17  32  56  83 109 142 185 234 290 347
#     4  12  22  40  60  82 112 152 200 254 284 322
#     4   9  17  32  56  83 109 142 185 234 290 347
#     4  10  20  35  57  86 120 151 180 228 294 358
#     4  11  22  37  60  85 111 149 196 243 286 336
#
# _framework density 19.350263000000002
#
# number of rings (size 3 to 8) (size 9 to 14) (size 15 to 20)
#    0.000    1.846    3.077    1.385    0.000    5.538 
#    0.000    3.846    0.000    1.846    0.000    0.000 
#    0.000    0.000    0.000    0.000    0.000    0.000 
#
# Total GULP energy -145133.000665 kJ/mol
# GULP energy per Si atom -5582.038487 kJ/mol
# Density = 1.930622 g / cm^3
# Si number density = 19.350263 Si / 1000 Ang^3
#
#
#
# Elastic Constant Matrix: (Units=GPa)
#
#
# Indices 1 2 3 4 5 6 
#
# 1 56.1517 2.1857 7.8666 0.0000 18.2785 0.0000
# 2 2.1857 37.3862 -2.7503 0.0000 5.6809 0.0000
# 3 7.8666 -2.7503 71.5843 0.0000 19.6883 0.0000
# 4 0.0000 0.0000 0.0000 7.2121 0.0000 -0.8462
# 5 18.2785 5.6809 19.6883 0.0000 15.9854 0.0000
# 6 0.0000 0.0000 0.0000 -0.8462 0.0000 20.0309
#
#
#
# Elastic Compliance Matrix: (Units=1/GPa)
#
#
# Indices 1 2 3 4 5 6 
#
# 1 0.034352 0.007544 0.012182 0.000000 -0.056964 0.000000
# 2 0.007544 0.031633 0.008848 0.000000 -0.030765 0.000000
# 3 0.012182 0.008848 0.026717 0.000000 -0.049980 0.000000
# 4 0.000000 0.000000 0.000000 0.139346 0.000000 0.005886
# 5 -0.056964 -0.030765 -0.049980 0.000000 0.200184 0.000000
# 6 0.000000 0.000000 0.000000 0.005886 0.000000 0.050172
#
#
# Mechanical properties :
#
#
# Convention : Reuss Voigt Hill
#
# Bulk Modulus (GPa) = 6.67340 19.96958 13.32149
# Shear Modulus (GPa) = 10.52177 19.16702 14.84440
#
# Velocity S-wave (km/s) = 2.33438 3.15068 2.77274
# Velocity P-wave (km/s) = 3.27445 4.85574 4.14127
#
# Compressibility (1/GPa) = 0.14984876
#
# Stress axis : x y z
#
# Youngs Moduli (GPa) = 29.11070 31.61301 37.42925
#
# Poissons Ratio (x) = -0.23848 -0.45597
# Poissons Ratio (y) = -0.21961 -0.33117
# Poissons Ratio (z) = -0.35463 -0.27971
#
# Static dielectric constant tensor:
#      x y z
#    x 1.715950 0.000000 0.005050 
#    y 0.000000 1.627620 0.000000 
#    z 0.005050 0.000000 1.711070 
# 
# From -- ./inp_files/49929.got.cif
#   From: 2010.05.17/outbox.cif.g08.bks.cpg/sg13_25_cif.got.tgz:49929.got - 2010.06.03 16:44:36.
