data_PCOD9230031
_publ_section_title
;
Structure prediction by ZEFSAII (Michael W. Deem and Ramdas Pophale) SiO2 
 PCOD9230031
Probable space group: P 2/C
;
_chemical_formula_sum "Si O2"
_cell_formula_units_Z 32
_cell_length_a 22.301304
_cell_length_b 6.365385
_cell_length_c 21.765959
_cell_angle_alpha 90.000000
_cell_angle_beta 152.416817
_cell_angle_gamma 90.000000
_cell_volume 1430.696150
_symmetry_space_group_name_H-M "P 2/C"
_symmetry_group_IT_number 13
_symmetry_cell_setting 'monoclinic'
loop_
_space_group_symop_operation_xyz
x,y,z
-x,y,1/2-z
-x,-y,-z
x,-y,1/2+z
loop_
_atom_site_type_symbol
_atom_site_label
_atom_site_fract_x
_atom_site_fract_y
_atom_site_fract_z
Si Si1 0.386300 0.257033 0.786980
Si Si2 0.798597 0.960321 0.832308
Si Si3 0.987202 0.755159 0.922389
Si Si4 0.370757 0.962884 0.144706
Si Si5 0.815776 0.297478 0.577032
Si Si6 0.834834 0.415224 0.455842
Si Si7 0.077141 0.071918 0.261298
Si Si8 0.336461 0.335594 0.503581
O O1 0.286585 0.444938 0.679646
O O2 0.536553 0.327521 0.924252
O O3 0.332118 0.098944 0.790162
O O4 0.370534 0.109879 0.713180
O O5 0.846086 0.806436 0.821173
O O6 0.810107 0.809247 0.902234
O O7 0.907562 0.141073 0.937162
O O8 0.034130 0.519732 0.952134
O O9 0.000866 0.877344 0.870481
O O10 0.500000 0.097745 0.250000
O O11 0.379861 0.764473 0.107914
O O12 0.251207 0.095107 0.013913
O O13 0.846249 0.421324 0.540904
O O14 0.907655 0.176146 0.709685
O O15 0.721715 0.438717 0.532933
O O16 0.000000 0.163598 0.250000
O O17 0.214344 0.188391 0.375123
#
# Coordination Sequence:
#
# PCOD9230031 Si02
#       8
#     4   4   4   4   4   4   4   4
#     4  10  20  35  58  89 122 149 194 256 300 357
#     4  10  21  40  64  89 112 156 203 255 307 353
#     4  10  23  41  61  85 121 153 205 255 297 359
#     4   9  18  30  50  80 118 149 181 232 289 349
#     4  11  21  32  55  87 117 156 195 235 302 370
#     4  11  20  33  63  90 117 152 199 251 307 358
#     4  11  24  40  58  83 122 160 196 242 303 369
#     4  10  22  36  53  87 122 156 194 239 302 359
#
# _framework density 22.366736
#
# number of rings (size 3 to 8) (size 9 to 14) (size 15 to 20)
#    0.000    1.750    2.500    1.875    5.250    3.500 
#    0.000    0.625    0.000    1.500    0.000    0.000 
#    0.000    0.000    0.000    0.000    0.000    0.000 
#
# Total GULP energy -178218.611925 kJ/mol
# GULP energy per Si atom -5569.331623 kJ/mol
# Density = 2.231583 g / cm^3
# Si number density = 22.366736 Si / 1000 Ang^3
#
#
#
# Elastic Constant Matrix: (Units=GPa)
#
#
# Indices 1 2 3 4 5 6 
#
# 1 71.1730 18.9945 9.8926 0.0000 17.3819 0.0000
# 2 18.9945 75.3523 12.8110 0.0000 14.3622 0.0000
# 3 9.8926 12.8110 49.0838 0.0000 15.5500 0.0000
# 4 0.0000 0.0000 0.0000 29.2674 0.0000 5.0326
# 5 17.3819 14.3622 15.5500 0.0000 24.1650 0.0000
# 6 0.0000 0.0000 0.0000 5.0326 0.0000 15.3318
#
#
#
# Elastic Compliance Matrix: (Units=1/GPa)
#
#
# Indices 1 2 3 4 5 6 
#
# 1 0.017401 -0.002298 0.000785 0.000000 -0.011656 0.000000
# 2 -0.002298 0.015343 -0.001477 0.000000 -0.006515 0.000000
# 3 0.000785 -0.001477 0.025751 0.000000 -0.016257 0.000000
# 4 0.000000 0.000000 0.000000 0.036212 0.000000 -0.011886
# 5 -0.011656 -0.006515 -0.016257 0.000000 0.064100 0.000000
# 6 0.000000 0.000000 0.000000 -0.011886 0.000000 0.069126
#
#
# Mechanical properties :
#
#
# Convention : Reuss Voigt Hill
#
# Bulk Modulus (GPa) = 19.04214 31.00060 25.02137
# Shear Modulus (GPa) = 19.88718 24.01358 21.95038
#
# Velocity S-wave (km/s) = 2.98508 3.28018 3.13611
# Velocity P-wave (km/s) = 4.51808 5.31379 4.93201
#
# Compressibility (1/GPa) = 0.05251510
#
# Stress axis : x y z
#
# Youngs Moduli (GPa) = 57.46748 65.17493 38.83337
#
# Poissons Ratio (x) = 0.14979 -0.03050
# Poissons Ratio (y) = 0.13208 0.05737
# Poissons Ratio (z) = -0.04514 0.09629
#
# Static dielectric constant tensor:
#      x y z
#    x 1.924570 0.000000 0.073660 
#    y 0.000000 1.857540 0.000000 
#    z 0.073660 0.000000 1.935070 
# 
# From -- ./inp_files/88777.got.cif
#   From: 2010.05.17/outbox.cif.g08.bks.cpg/sg13_45_cif.got.tgz:88777.got - 2010.06.03 16:44:36.
