data_PCOD9230567
_publ_section_title
;
Structure prediction by ZEFSAII (Michael W. Deem and Ramdas Pophale) SiO2 
 PCOD9230567
Probable space group: P 2/C
;
_chemical_formula_sum "Si O2"
_cell_formula_units_Z 32
_cell_length_a 11.940680
_cell_length_b 5.296033
_cell_length_c 27.563078
_cell_angle_alpha 90.000000
_cell_angle_beta 70.708683
_cell_angle_gamma 90.000000
_cell_volume 1645.170488
_symmetry_space_group_name_H-M "P 2/C"
_symmetry_group_IT_number 13
_symmetry_cell_setting 'monoclinic'
loop_
_space_group_symop_operation_xyz
x,y,z
-x,y,1/2-z
-x,-y,-z
x,-y,1/2+z
loop_
_atom_site_type_symbol
_atom_site_label
_atom_site_fract_x
_atom_site_fract_y
_atom_site_fract_z
Si Si1 0.956901 0.598694 0.311164
Si Si2 0.359318 0.327784 0.203988
Si Si3 0.806082 0.100621 0.350011
Si Si4 0.343380 0.243990 0.035352
Si Si5 0.609613 0.341782 0.138331
Si Si6 0.215814 0.416000 0.805347
Si Si7 0.603169 0.040082 0.713520
Si Si8 0.619406 0.256310 0.026152
O O1 0.895961 0.326428 0.324050
O O2 0.000000 0.648036 0.250000
O O3 0.075517 0.578507 0.326891
O O4 0.869209 0.828351 0.338302
O O5 0.298462 0.142129 0.174252
O O6 0.476360 0.455523 0.163843
O O7 0.261682 0.497795 0.245303
O O8 0.402401 0.166426 0.243436
O O9 0.748584 0.165142 0.410065
O O10 0.476590 0.250775 0.038721
O O11 0.327265 0.522960 0.015449
O O12 0.339909 0.022698 0.995508
O O13 0.706934 0.454197 0.162079
O O14 0.645389 0.331263 0.077758
O O15 0.589709 0.057134 0.161182
O O16 0.263426 0.134223 0.802066
O O17 0.500000 0.223967 0.750000
#
# Coordination Sequence:
#
# PCOD9230567 Si02
#       8
#     4   4   4   4   4   4   4   4
#     4  12  26  40  65  91 130 174 221 249 299 367
#     4  10  20  37  58  91 130 160 208 254 325 385
#     4  12  24  43  64  92 127 176 202 267 312 370
#     4  10  22  41  64  91 129 156 209 265 324 377
#     4  10  21  36  63  93 126 164 201 265 334 379
#     4  11  22  38  57  91 130 169 212 257 304 396
#     4   9  19  34  55  88 124 164 196 249 313 387
#     4  10  21  40  64  98 120 158 206 270 323 382
#
# _framework density 19.450872
#
# number of rings (size 3 to 8) (size 9 to 14) (size 15 to 20)
#    0.000    1.500    2.500    3.750    5.250    0.000 
#    0.000    0.000    0.000    4.500    0.000    0.000 
#    0.000    0.000    0.000    0.000    0.000    0.000 
#
# Total GULP energy -178227.718139 kJ/mol
# GULP energy per Si atom -5569.616192 kJ/mol
# Density = 1.940660 g / cm^3
# Si number density = 19.450872 Si / 1000 Ang^3
#
#
#
# Elastic Constant Matrix: (Units=GPa)
#
#
# Indices 1 2 3 4 5 6 
#
# 1 93.7473 5.1619 11.5859 0.0000 9.5341 0.0000
# 2 5.1619 50.7805 1.1638 0.0000 1.4760 0.0000
# 3 11.5859 1.1638 87.6533 0.0000 8.4494 0.0000
# 4 0.0000 0.0000 0.0000 19.4251 0.0000 -4.6477
# 5 9.5341 1.4760 8.4494 0.0000 19.6198 0.0000
# 6 0.0000 0.0000 0.0000 -4.6477 0.0000 26.7431
#
#
#
# Elastic Compliance Matrix: (Units=1/GPa)
#
#
# Indices 1 2 3 4 5 6 
#
# 1 0.011355 -0.000986 -0.001005 0.000000 -0.005011 0.000000
# 2 -0.000986 0.019823 -0.000037 0.000000 -0.000996 0.000000
# 3 -0.001005 -0.000037 0.011992 0.000000 -0.004674 0.000000
# 4 0.000000 0.000000 0.000000 0.053713 0.000000 0.009335
# 5 -0.005011 -0.000996 -0.004674 0.000000 0.055492 0.000000
# 6 0.000000 0.000000 0.000000 0.009335 0.000000 0.039015
#
#
# Mechanical properties :
#
#
# Convention : Reuss Voigt Hill
#
# Bulk Modulus (GPa) = 25.56522 29.77825 27.67173
# Shear Modulus (GPa) = 23.98279 27.44226 25.71252
#
# Velocity S-wave (km/s) = 3.51521 3.76020 3.63977
# Velocity P-wave (km/s) = 5.44496 5.84764 5.64989
#
# Compressibility (1/GPa) = 0.03911564
#
# Stress axis : x y z
#
# Youngs Moduli (GPa) = 88.06665 50.44752 83.38615
#
# Poissons Ratio (x) = 0.04972 0.08378
# Poissons Ratio (y) = 0.08680 0.00307
# Poissons Ratio (z) = 0.08849 0.00186
#
# Static dielectric constant tensor:
#      x y z
#    x 1.848100 0.000000 -0.059650 
#    y 0.000000 1.823640 0.000000 
#    z -0.059650 0.000000 1.686880 
# 
# From -- ./inp_files/85973.got.cif
#   From: 2010.05.17/outbox.cif.g08.bks.cpg/sg13_43_cif.got.tgz:85973.got - 2010.06.03 16:44:36.
