data_PCOD9230659
_publ_section_title
;
Structure prediction by ZEFSAII (Michael W. Deem and Ramdas Pophale) SiO2 
 PCOD9230659
Probable space group: P 2/C
;
_chemical_formula_sum "Si O2"
_cell_formula_units_Z 18
_cell_length_a 6.862872
_cell_length_b 6.140112
_cell_length_c 21.146668
_cell_angle_alpha 90.000000
_cell_angle_beta 112.399454
_cell_angle_gamma 90.000000
_cell_volume 823.861834
_symmetry_space_group_name_H-M "P 2/C"
_symmetry_group_IT_number 13
_symmetry_cell_setting 'monoclinic'
loop_
_space_group_symop_operation_xyz
x,y,z
-x,y,1/2-z
-x,-y,-z
x,-y,1/2+z
loop_
_atom_site_type_symbol
_atom_site_label
_atom_site_fract_x
_atom_site_fract_y
_atom_site_fract_z
Si Si1 0.644268 0.376363 0.866183
Si Si2 0.740142 0.755206 0.956365
Si Si3 0.016626 0.956919 0.402232
Si Si4 0.652424 0.994827 0.656677
Si Si5 0.500000 0.722934 0.750000
O O1 0.706050 0.500711 0.938402
O O2 0.427768 0.242538 0.845244
O O3 0.626507 0.564835 0.812187
O O4 0.820334 0.203498 0.869088
O O5 0.526081 0.877590 0.909011
O O6 0.811772 0.827215 0.034319
O O7 0.924640 0.845641 0.932758
O O8 0.128114 0.022758 0.351707
O O9 0.639542 0.874835 0.722216
#
# Coordination Sequence:
#
# PCOD9230659 Si02
#       5
#     4   4   4   4   2
#     4  10  21  38  58  82 113 150 192 237 280 337
#     4   9  20  37  58  89 123 143 177 237 291 344
#     4  10  20  37  61  89 115 147 187 231 289 345
#     4  10  21  38  59  83 114 153 191 233 284 338
#     4  10  22  42  54  74 118 154 192 244 282 322
#
# _framework density 21.848323000000001
#
# number of rings (size 3 to 8) (size 9 to 14) (size 15 to 20)
#    0.000    2.222    0.000    2.000    0.000    4.444 
#    0.000   26.667    0.000    0.000    0.000    0.000 
#    0.000    0.000    0.000    0.000    0.000    0.000 
#
# Total GULP energy -100639.102127 kJ/mol
# GULP energy per Si atom -5591.061229 kJ/mol
# Density = 2.179860 g / cm^3
# Si number density = 21.848323 Si / 1000 Ang^3
#
#
#
# Elastic Constant Matrix: (Units=GPa)
#
#
# Indices 1 2 3 4 5 6 
#
# 1 60.9153 16.5783 2.9081 0.0000 -21.0234 0.0000
# 2 16.5783 71.2952 9.4762 0.0000 -14.3376 0.0000
# 3 2.9081 9.4762 48.8592 0.0000 -9.5534 0.0000
# 4 0.0000 0.0000 0.0000 37.4013 0.0000 5.4327
# 5 -21.0234 -14.3376 -9.5534 0.0000 36.0668 0.0000
# 6 0.0000 0.0000 0.0000 5.4327 0.0000 5.3489
#
#
#
# Elastic Compliance Matrix: (Units=1/GPa)
#
#
# Indices 1 2 3 4 5 6 
#
# 1 0.021105 -0.002779 0.001553 0.000000 0.011608 0.000000
# 2 -0.002779 0.015774 -0.002093 0.000000 0.004096 0.000000
# 3 0.001553 -0.002093 0.021931 0.000000 0.005882 0.000000
# 4 0.000000 0.000000 0.000000 0.031364 0.000000 -0.031856
# 5 0.011608 0.004096 0.005882 0.000000 0.037679 0.000000
# 6 0.000000 0.000000 0.000000 -0.031856 0.000000 0.219310
#
#
# Mechanical properties :
#
#
# Convention : Reuss Voigt Hill
#
# Bulk Modulus (GPa) = 19.16798 26.55501 22.86149
# Shear Modulus (GPa) = 13.47008 25.90386 19.68697
#
# Velocity S-wave (km/s) = 2.48569 3.44702 3.00505
# Velocity P-wave (km/s) = 4.12680 5.29370 4.74625
#
# Compressibility (1/GPa) = 0.05217033
#
# Stress axis : x y z
#
# Youngs Moduli (GPa) = 47.38231 63.39364 45.59839
#
# Poissons Ratio (x) = 0.17620 -0.07080
# Poissons Ratio (y) = 0.13170 0.09544
# Poissons Ratio (z) = -0.07357 0.13269
#
# Static dielectric constant tensor:
#      x y z
#    x 1.759650 0.000000 0.024450 
#    y 0.000000 1.807290 0.000000 
#    z 0.024450 0.000000 1.853220 
# 
# From -- ./inp_files/62111.got.cif
#   From: 2010.05.17/outbox.cif.g08.bks.cpg/sg13_32_cif.got.tgz:62111.got - 2010.06.03 16:44:36.
