data_PCOD9230424
_publ_section_title
;
Structure prediction by ZEFSAII (Michael W. Deem and Ramdas Pophale) SiO2 
 PCOD9230424
Probable space group: P 2/C
;
_chemical_formula_sum "Si O2"
_cell_formula_units_Z 28
_cell_length_a 29.624095
_cell_length_b 8.174932
_cell_length_c 30.026442
_cell_angle_alpha 90.000000
_cell_angle_beta 170.639995
_cell_angle_gamma 90.000000
_cell_volume 1182.641568
_symmetry_space_group_name_H-M "P 2/C"
_symmetry_group_IT_number 13
_symmetry_cell_setting 'monoclinic'
loop_
_space_group_symop_operation_xyz
x,y,z
-x,y,1/2-z
-x,-y,-z
x,-y,1/2+z
loop_
_atom_site_type_symbol
_atom_site_label
_atom_site_fract_x
_atom_site_fract_y
_atom_site_fract_z
Si Si1 0.363373 0.660585 0.343499
Si Si2 0.500544 0.908533 0.297739
Si Si3 0.994796 0.291593 0.311368
Si Si4 0.734733 0.381226 0.515612
Si Si5 0.124649 0.255470 0.701718
Si Si6 0.886920 0.369060 0.306656
Si Si7 0.456793 0.169492 0.323630
O O1 0.500000 0.500000 0.500000
O O2 0.212431 0.760992 0.235669
O O3 0.630016 0.730805 0.577434
O O4 0.132292 0.620402 0.081711
O O5 0.500000 0.999415 0.250000
O O6 0.373920 0.012486 0.214416
O O7 0.804670 0.854190 0.607995
O O8 0.308378 0.749875 0.104275
O O9 0.977542 0.301815 0.347648
O O10 0.874417 0.456462 0.172785
O O11 0.500000 0.409437 0.250000
O O12 0.589164 0.287426 0.414856
O O13 0.000000 0.294499 0.750000
O O14 0.204286 0.443228 0.791171
O O15 0.804990 0.236699 0.403846
O O16 0.304622 0.139086 0.908087
#
# Coordination Sequence:
#
# PCOD9230424 Si02
#       7
#     4   4   4   4   4   4   4
#     4  10  20  36  63 100 140 168 204 269 336 400
#     4  12  27  47  65  91 132 185 226 262 333 409
#     4  12  25  44  68  95 132 173 224 275 327 401
#     4  12  25  42  67 101 131 168 224 295 347 376
#     4  11  21  39  65 100 134 168 215 270 336 388
#     4  11  21  38  65 101 134 168 215 271 332 391
#     4  12  25  42  67  96 134 172 223 276 325 399
#
# _framework density 23.675812000000001
#
# number of rings (size 3 to 8) (size 9 to 14) (size 15 to 20)
#    0.000    0.571    1.429    9.857    2.000    1.143 
#    0.000    0.000    0.000   17.143    0.000    0.000 
#    0.000    0.000    0.000    0.000    0.000    0.000 
#
# Total GULP energy -156701.318819 kJ/mol
# GULP energy per Si atom -5596.475672 kJ/mol
# Density = 2.362192 g / cm^3
# Si number density = 23.675812 Si / 1000 Ang^3
#
#
#
# Elastic Constant Matrix: (Units=GPa)
#
#
# Indices 1 2 3 4 5 6 
#
# 1 168.8001 11.8694 62.6243 0.0000 -1.7550 0.0000
# 2 11.8694 35.6076 10.0703 0.0000 -3.5684 0.0000
# 3 62.6243 10.0703 136.9761 0.0000 10.7340 0.0000
# 4 0.0000 0.0000 0.0000 16.8050 0.0000 3.1819
# 5 -1.7550 -3.5684 10.7340 0.0000 56.3506 0.0000
# 6 0.0000 0.0000 0.0000 3.1819 0.0000 21.9795
#
#
#
# Elastic Compliance Matrix: (Units=1/GPa)
#
#
# Indices 1 2 3 4 5 6 
#
# 1 0.007244 -0.001415 -0.003267 0.000000 0.000758 0.000000
# 2 -0.001415 0.029241 -0.001670 0.000000 0.002126 0.000000
# 3 -0.003267 -0.001670 0.009069 0.000000 -0.001935 0.000000
# 4 0.000000 0.000000 0.000000 0.061183 0.000000 -0.008857
# 5 0.000758 0.002126 -0.001935 0.000000 0.018273 0.000000
# 6 0.000000 0.000000 0.000000 -0.008857 0.000000 0.046779
#
#
# Mechanical properties :
#
#
# Convention : Reuss Voigt Hill
#
# Bulk Modulus (GPa) = 30.44116 56.72353 43.58234
# Shear Modulus (GPa) = 25.58321 36.14834 30.86577
#
# Velocity S-wave (km/s) = 3.29076 3.91167 3.61457
# Velocity P-wave (km/s) = 5.22725 6.66424 5.98900
#
# Compressibility (1/GPa) = 0.03285026
#
# Stress axis : x y z
#
# Youngs Moduli (GPa) = 138.05248 34.19901 110.27033
#
# Poissons Ratio (x) = 0.04838 0.36027
# Poissons Ratio (y) = 0.19529 0.18410
# Poissons Ratio (z) = 0.45104 0.05710
#
# Static dielectric constant tensor:
#      x y z
#    x 1.920940 0.000000 0.033810 
#    y 0.000000 1.930080 0.000000 
#    z 0.033810 0.000000 1.869730 
# 
# From -- ./inp_files/98102.got.cif
#   From: 2010.05.17/outbox.cif.g08.bks.cpg/sg13_50_cif.got.tgz:98102.got - 2010.06.03 16:44:36.
