data_PCOD9230356
_publ_section_title
;
Structure prediction by ZEFSAII (Michael W. Deem and Ramdas Pophale) SiO2 
 PCOD9230356
Probable space group: P 2/C
;
_chemical_formula_sum "Si O2"
_cell_formula_units_Z 20
_cell_length_a 15.080278
_cell_length_b 10.364565
_cell_length_c 9.463548
_cell_angle_alpha 90.000000
_cell_angle_beta 144.411132
_cell_angle_gamma 90.000000
_cell_volume 860.817861
_symmetry_space_group_name_H-M "P 2/C"
_symmetry_group_IT_number 13
_symmetry_cell_setting 'monoclinic'
loop_
_space_group_symop_operation_xyz
x,y,z
-x,y,1/2-z
-x,-y,-z
x,-y,1/2+z
loop_
_atom_site_type_symbol
_atom_site_label
_atom_site_fract_x
_atom_site_fract_y
_atom_site_fract_z
Si Si1 0.455313 0.707613 0.965312
Si Si2 0.319263 0.090108 0.486295
Si Si3 0.679905 0.503876 0.401444
Si Si4 0.136692 0.422761 0.607953
Si Si5 0.752756 0.852775 0.291323
O O1 0.336282 0.783611 0.909249
O O2 0.377015 0.628296 0.740793
O O3 0.562549 0.613948 0.198977
O O4 0.576604 0.805433 0.054814
O O5 0.235389 0.116293 0.525929
O O6 0.237830 0.977536 0.294013
O O7 0.500000 0.058941 0.750000
O O8 0.718674 0.476684 0.613418
O O9 0.830926 0.542206 0.511579
O O10 0.142622 0.267362 0.621321
O O11 0.000000 0.500000 0.500000
#
# Coordination Sequence:
#
# PCOD9230356 Si02
#       5
#     4   4   4   4   4
#     4   9  20  36  61 104 135 164 204 269 349 394
#     4  10  20  36  60  99 141 169 204 267 338 407
#     4  10  23  37  65  92 135 167 217 276 332 390
#     4  11  25  43  62  92 125 181 230 273 320 376
#     4  10  23  36  64  96 135 168 218 265 333 397
#
# _framework density 23.233718
#
# number of rings (size 3 to 8) (size 9 to 14) (size 15 to 20)
#    0.000    2.000    0.000    3.000   16.800    5.600 
#    0.000    0.000    0.000    1.200    5.200    0.000 
#    0.000    0.000    0.000    0.000    0.000    0.000 
#
# Total GULP energy -111835.976641 kJ/mol
# GULP energy per Si atom -5591.798832 kJ/mol
# Density = 2.318084 g / cm^3
# Si number density = 23.233718 Si / 1000 Ang^3
#
#
#
# Elastic Constant Matrix: (Units=GPa)
#
#
# Indices 1 2 3 4 5 6 
#
# 1 102.5671 53.6246 20.5679 0.0000 -4.7584 0.0000
# 2 53.6246 153.8615 33.0121 0.0000 -11.1636 0.0000
# 3 20.5679 33.0121 57.0704 0.0000 -14.0541 0.0000
# 4 0.0000 0.0000 0.0000 23.6297 0.0000 -6.0320
# 5 -4.7584 -11.1636 -14.0541 0.0000 23.5797 0.0000
# 6 0.0000 0.0000 0.0000 -6.0320 0.0000 34.7182
#
#
#
# Elastic Compliance Matrix: (Units=1/GPa)
#
#
# Indices 1 2 3 4 5 6 
#
# 1 0.012172 -0.003786 -0.002383 0.000000 -0.000756 0.000000
# 2 -0.003786 0.008623 -0.003289 0.000000 0.001358 0.000000
# 3 -0.002383 -0.003289 0.023185 0.000000 0.011781 0.000000
# 4 0.000000 0.000000 0.000000 0.044284 0.000000 0.007694
# 5 -0.000756 0.001358 0.011781 0.000000 0.049921 0.000000
# 6 0.000000 0.000000 0.000000 0.007694 0.000000 0.030140
#
#
# Mechanical properties :
#
#
# Convention : Reuss Voigt Hill
#
# Bulk Modulus (GPa) = 39.89848 58.65646 49.27747
# Shear Modulus (GPa) = 25.56302 30.13847 27.85075
#
# Velocity S-wave (km/s) = 3.32061 3.60555 3.46601
# Velocity P-wave (km/s) = 5.64906 6.52951 6.10517
#
# Compressibility (1/GPa) = 0.02506361
#
# Stress axis : x y z
#
# Youngs Moduli (GPa) = 82.15724 115.96849 43.13187
#
# Poissons Ratio (x) = 0.43903 0.10279
# Poissons Ratio (y) = 0.31103 0.14187
# Poissons Ratio (z) = 0.19579 0.38144
#
# Static dielectric constant tensor:
#      x y z
#    x 1.985870 0.000000 0.035090 
#    y 0.000000 1.888340 0.000000 
#    z 0.035090 0.000000 1.868480 
# 
# From -- ./inp_files/21446.got.cif
#   From: 2010.05.17/outbox.cif.g08.bks.cpg/sg13_11_cif.got.tgz:21446.got - 2010.06.03 16:44:36.
