data_PCOD9230362
_publ_section_title
;
Structure prediction by ZEFSAII (Michael W. Deem and Ramdas Pophale) SiO2 
 PCOD9230362
Probable space group: P 2/C
;
_chemical_formula_sum "Si O2"
_cell_formula_units_Z 30
_cell_length_a 19.557774
_cell_length_b 14.109412
_cell_length_c 14.852320
_cell_angle_alpha 90.000000
_cell_angle_beta 160.195001
_cell_angle_gamma 90.000000
_cell_volume 1388.646446
_symmetry_space_group_name_H-M "P 2/C"
_symmetry_group_IT_number 13
_symmetry_cell_setting 'monoclinic'
loop_
_space_group_symop_operation_xyz
x,y,z
-x,y,1/2-z
-x,-y,-z
x,-y,1/2+z
loop_
_atom_site_type_symbol
_atom_site_label
_atom_site_fract_x
_atom_site_fract_y
_atom_site_fract_z
Si Si1 0.758763 0.381660 0.755119
Si Si2 0.515763 0.927317 0.374870
Si Si3 0.298818 0.072103 0.789014
Si Si4 0.451035 0.768762 0.793885
Si Si5 0.977127 0.777937 0.617920
Si Si6 0.851140 0.408171 0.393689
Si Si7 0.000000 0.299196 0.750000
Si Si8 0.616500 0.285322 0.973988
O O1 0.573049 0.328056 0.474907
O O2 0.749064 0.489031 0.777455
O O3 0.822889 0.308941 0.912882
O O4 0.955909 0.395461 0.934334
O O5 0.500000 0.954986 0.250000
O O6 0.357043 0.953561 0.257657
O O7 0.514354 0.813607 0.373652
O O8 0.707362 0.980564 0.655409
O O9 0.099516 0.133260 0.533519
O O10 0.459831 0.146166 0.033945
O O11 0.500000 0.787113 0.750000
O O12 0.208476 0.759040 0.497767
O O13 0.182534 0.745795 0.828294
O O14 0.000000 0.801375 0.750000
O O15 0.675915 0.343519 0.134364
O O16 0.943990 0.367155 0.598603
O O17 0.500000 0.339643 0.750000
#
# Coordination Sequence:
#
# PCOD9230362 Si02
#       8
#     4   4   4   4   4   4   2   4
#     4   9  21  40  60  86 131 164 211 263 314 367
#     4  10  20  39  64  89 122 159 204 262 312 378
#     4  10  22  39  64  90 123 160 207 256 318 381
#     4  11  22  42  64  93 130 169 205 267 321 380
#     4  10  20  36  61  88 118 164 205 250 309 372
#     4  10  21  40  59  95 123 167 217 261 313 387
#     4  12  24  36  66  92 128 168 216 256 322 392
#     4  10  21  38  61  84 123 161 207 259 306 366
#
# _framework density 21.603770999999998
#
# number of rings (size 3 to 8) (size 9 to 14) (size 15 to 20)
#    0.000    1.867    1.333    2.800    0.933    2.667 
#    2.400    0.000   22.000    0.000    0.000    0.000 
#    0.000    0.000    0.000    0.000    0.000    0.000 
#
# Total GULP energy -167248.975163 kJ/mol
# GULP energy per Si atom -5574.965839 kJ/mol
# Density = 2.155460 g / cm^3
# Si number density = 21.603771 Si / 1000 Ang^3
#
#
#
# Elastic Constant Matrix: (Units=GPa)
#
#
# Indices 1 2 3 4 5 6 
#
# 1 76.5544 13.4621 36.7159 0.0000 -20.0581 0.0000
# 2 13.4621 57.5655 28.8771 0.0000 -11.0283 0.0000
# 3 36.7159 28.8771 108.8311 0.0000 -15.1995 0.0000
# 4 0.0000 0.0000 0.0000 23.2298 0.0000 -26.1058
# 5 -20.0581 -11.0283 -15.1995 0.0000 44.1837 0.0000
# 6 0.0000 0.0000 0.0000 -26.1058 0.0000 32.6396
#
#
#
# Elastic Compliance Matrix: (Units=1/GPa)
#
#
# Indices 1 2 3 4 5 6 
#
# 1 0.016996 -0.000431 -0.004787 0.000000 0.005961 0.000000
# 2 -0.000431 0.020528 -0.004846 0.000000 0.003261 0.000000
# 3 -0.004787 -0.004846 0.012203 0.000000 0.000815 0.000000
# 4 0.000000 0.000000 0.000000 0.425547 0.000000 0.340360
# 5 0.005961 0.003261 0.000815 0.000000 0.026434 0.000000
# 6 0.000000 0.000000 0.000000 0.340360 0.000000 0.302864
#
#
# Mechanical properties :
#
#
# Convention : Reuss Voigt Hill
#
# Bulk Modulus (GPa) = 33.78483 44.56236 39.17359
# Shear Modulus (GPa) = 5.99113 30.93701 18.46407
#
# Velocity S-wave (km/s) = 1.66710 3.78831 2.92664
# Velocity P-wave (km/s) = 4.40204 6.30927 5.43989
#
# Compressibility (1/GPa) = 0.02959908
#
# Stress axis : x y z
#
# Youngs Moduli (GPa) = 58.83653 48.71396 81.94591
#
# Poissons Ratio (x) = 0.02101 0.39227
# Poissons Ratio (y) = 0.02538 0.39710
# Poissons Ratio (z) = 0.28165 0.23606
#
# Static dielectric constant tensor:
#      x y z
#    x 1.807360 0.000000 0.041090 
#    y 0.000000 1.821850 0.000000 
#    z 0.041090 0.000000 1.822500 
# 
# From -- ./inp_files/57823.got.cif
#   From: 2010.05.17/outbox.cif.g08.bks.cpg/sg13_29_cif.got.tgz:57823.got - 2010.06.03 16:44:36.
