data_PCOD9230478
_publ_section_title
;
Structure prediction by ZEFSAII (Michael W. Deem and Ramdas Pophale) SiO2 
 PCOD9230478
Probable space group: P 2/C
;
_chemical_formula_sum "Si O2"
_cell_formula_units_Z 24
_cell_length_a 15.300403
_cell_length_b 14.064305
_cell_length_c 9.794334
_cell_angle_alpha 90.000000
_cell_angle_beta 150.943814
_cell_angle_gamma 90.000000
_cell_volume 1023.610448
_symmetry_space_group_name_H-M "P 2/C"
_symmetry_group_IT_number 13
_symmetry_cell_setting 'monoclinic'
loop_
_space_group_symop_operation_xyz
x,y,z
-x,y,1/2-z
-x,-y,-z
x,-y,1/2+z
loop_
_atom_site_type_symbol
_atom_site_label
_atom_site_fract_x
_atom_site_fract_y
_atom_site_fract_z
Si Si1 0.704336 0.920146 0.490310
Si Si2 0.836963 0.430149 0.283662
Si Si3 0.309434 0.235877 0.109443
Si Si4 0.056948 0.776042 0.533981
Si Si5 0.617839 0.920353 0.080163
Si Si6 0.353486 0.451733 0.203259
O O1 0.500000 0.881076 0.250000
O O2 0.863884 0.865666 0.781500
O O3 0.693869 0.024775 0.549854
O O4 0.743268 0.902660 0.382590
O O5 0.888921 0.322601 0.318439
O O6 0.799139 0.434636 0.392877
O O7 0.000000 0.500000 0.500000
O O8 0.695298 0.478072 0.986714
O O9 0.179159 0.224769 0.063232
O O10 0.480315 0.166066 0.362512
O O11 0.383423 0.343097 0.200408
O O12 0.158015 0.220770 0.784645
O O13 0.500000 0.000000 0.000000
O O14 0.500000 0.500000 0.500000
#
# Coordination Sequence:
#
# PCOD9230478 Si02
#       6
#     4   4   4   4   4   4
#     4  10  20  38  64  93 120 171 212 278 325 396
#     4  11  22  42  66  96 140 177 219 276 332 402
#     4  10  20  38  62  93 128 175 215 269 329 401
#     4  10  20  36  66  90 125 175 224 255 336 410
#     4  10  20  39  63  90 126 160 220 269 329 380
#     4  11  24  40  67 102 135 178 224 271 334 403
#
# _framework density 23.446421000000001
#
# number of rings (size 3 to 8) (size 9 to 14) (size 15 to 20)
#    0.000    1.667    5.000    1.000    2.333    0.000 
#    0.000   10.000    0.000    0.000    0.000    0.000 
#    0.000    0.000    0.000    0.000    0.000    0.000 
#
# Total GULP energy -133754.145633 kJ/mol
# GULP energy per Si atom -5573.089401 kJ/mol
# Density = 2.339306 g / cm^3
# Si number density = 23.446421 Si / 1000 Ang^3
#
#
#
# Elastic Constant Matrix: (Units=GPa)
#
#
# Indices 1 2 3 4 5 6 
#
# 1 104.4393 35.2902 45.5613 0.0000 -12.3334 0.0000
# 2 35.2902 195.6484 105.5459 0.0000 -3.1131 0.0000
# 3 45.5613 105.5459 173.1482 0.0000 -23.0081 0.0000
# 4 0.0000 0.0000 0.0000 45.8630 0.0000 -3.5908
# 5 -12.3334 -3.1131 -23.0081 0.0000 38.9456 0.0000
# 6 0.0000 0.0000 0.0000 -3.5908 0.0000 24.7853
#
#
#
# Elastic Compliance Matrix: (Units=1/GPa)
#
#
# Indices 1 2 3 4 5 6 
#
# 1 0.011031 -0.000812 -0.002118 0.000000 0.002177 0.000000
# 2 -0.000812 0.007873 -0.004922 0.000000 -0.002536 0.000000
# 3 -0.002118 -0.004922 0.009975 0.000000 0.004829 0.000000
# 4 0.000000 0.000000 0.000000 0.022054 0.000000 0.003195
# 5 0.002177 -0.002536 0.004829 0.000000 0.029016 0.000000
# 6 0.000000 0.000000 0.000000 0.003195 0.000000 0.040809
#
#
# Mechanical properties :
#
#
# Convention : Reuss Voigt Hill
#
# Bulk Modulus (GPa) = 75.91386 94.00342 84.95864
# Shear Modulus (GPa) = 35.49776 41.04136 38.26956
#
# Velocity S-wave (km/s) = 3.89523 4.18835 4.04445
# Velocity P-wave (km/s) = 7.25798 7.97306 7.62391
#
# Compressibility (1/GPa) = 0.01317282
#
# Stress axis : x y z
#
# Youngs Moduli (GPa) = 90.65764 127.02031 100.25277
#
# Poissons Ratio (x) = 0.10319 0.21234
# Poissons Ratio (y) = 0.07365 0.49346
# Poissons Ratio (z) = 0.19202 0.62522
#
# Static dielectric constant tensor:
#      x y z
#    x 2.025420 0.000000 -0.143930 
#    y 0.000000 1.943400 0.000000 
#    z -0.143930 0.000000 1.983410 
# 
# From -- ./inp_files/40964.got.cif
#   From: 2010.05.17/outbox.cif.g08.bks.cpg/sg13_21_cif.got.tgz:40964.got - 2010.06.03 16:44:36.
