data_PCOD9230520
_publ_section_title
;
Structure prediction by ZEFSAII (Michael W. Deem and Ramdas Pophale) SiO2 
 PCOD9230520
Probable space group: P 2/C
;
_chemical_formula_sum "Si O2"
_cell_formula_units_Z 32
_cell_length_a 9.766215
_cell_length_b 11.113245
_cell_length_c 20.434567
_cell_angle_alpha 90.000000
_cell_angle_beta 49.218899
_cell_angle_gamma 90.000000
_cell_volume 1679.381106
_symmetry_space_group_name_H-M "P 2/C"
_symmetry_group_IT_number 13
_symmetry_cell_setting 'monoclinic'
loop_
_space_group_symop_operation_xyz
x,y,z
-x,y,1/2-z
-x,-y,-z
x,-y,1/2+z
loop_
_atom_site_type_symbol
_atom_site_label
_atom_site_fract_x
_atom_site_fract_y
_atom_site_fract_z
Si Si1 0.293206 0.281395 0.984081
Si Si2 0.785371 0.313136 0.334771
Si Si3 0.529507 0.954011 0.386974
Si Si4 0.829921 0.792736 0.349188
Si Si5 0.630216 0.838357 0.768324
Si Si6 0.590765 0.554887 0.407359
Si Si7 0.951083 0.156687 0.074139
Si Si8 0.188961 0.083512 0.516944
O O1 0.261049 0.282388 0.073964
O O2 0.092515 0.264022 0.019585
O O3 0.407730 0.166322 0.923119
O O4 0.413438 0.395310 0.925081
O O5 0.656715 0.234184 0.327597
O O6 0.722225 0.450765 0.340876
O O7 0.000000 0.298160 0.250000
O O8 0.716113 0.908137 0.359006
O O9 0.573563 0.026294 0.306872
O O10 0.395515 0.045277 0.466669
O O11 0.705341 0.674628 0.386906
O O12 0.882425 0.827002 0.406197
O O13 0.000000 0.773862 0.250000
O O14 0.500000 0.795384 0.750000
O O15 0.827265 0.830453 0.675273
O O16 0.500000 0.500000 0.500000
O O17 0.826278 0.140120 0.049931
O O18 0.067936 0.036147 0.050113
#
# Coordination Sequence:
#
# PCOD9230520 Si02
#       8
#     4   4   4   4   4   4   4   4
#     4   9  20  39  60  86 113 158 201 239 291 359
#     4  11  22  38  64  86 116 154 205 257 297 345
#     4  10  22  34  56  84 120 156 189 235 290 356
#     4  11  22  37  59  88 117 153 202 248 295 351
#     4  12  24  35  57  91 126 156 194 247 302 355
#     4   9  21  38  63  84 108 149 203 253 300 342
#     4  10  20  37  55  88 124 160 194 231 300 365
#     4  10  21  35  58  85 127 158 188 239 294 362
#
# _framework density 19.054638000000001
#
# number of rings (size 3 to 8) (size 9 to 14) (size 15 to 20)
#    0.000    1.750    2.500    1.500    8.750    0.500 
#    0.000    0.000    5.500    2.250    0.000    0.000 
#    0.000    0.000    0.000    0.000    0.000    0.000 
#
# Total GULP energy -178153.653848 kJ/mol
# GULP energy per Si atom -5567.301683 kJ/mol
# Density = 1.901127 g / cm^3
# Si number density = 19.054638 Si / 1000 Ang^3
#
#
#
# Elastic Constant Matrix: (Units=GPa)
#
#
# Indices 1 2 3 4 5 6 
#
# 1 70.6878 36.8923 23.0809 0.0000 -5.1792 0.0000
# 2 36.8923 72.3764 20.3445 0.0000 -2.7987 0.0000
# 3 23.0809 20.3445 57.8841 0.0000 -17.1876 0.0000
# 4 0.0000 0.0000 0.0000 23.0643 0.0000 -5.6202
# 5 -5.1792 -2.7987 -17.1876 0.0000 24.7650 0.0000
# 6 0.0000 0.0000 0.0000 -5.6202 0.0000 7.0206
#
#
#
# Elastic Compliance Matrix: (Units=1/GPa)
#
#
# Indices 1 2 3 4 5 6 
#
# 1 0.020499 -0.009032 -0.005075 0.000000 -0.000256 0.000000
# 2 -0.009032 0.019438 -0.003954 0.000000 -0.002436 0.000000
# 3 -0.005075 -0.003954 0.025495 0.000000 0.016186 0.000000
# 4 0.000000 0.000000 0.000000 0.053864 0.000000 0.043120
# 5 -0.000256 -0.002436 0.016186 0.000000 0.051285 0.000000
# 6 0.000000 0.000000 0.000000 0.043120 0.000000 0.176958
#
#
# Mechanical properties :
#
#
# Convention : Reuss Voigt Hill
#
# Bulk Modulus (GPa) = 34.11816 40.17597 37.14706
# Shear Modulus (GPa) = 12.70868 19.01199 15.86034
#
# Velocity S-wave (km/s) = 2.58536 3.16216 2.88820
# Velocity P-wave (km/s) = 5.18232 5.87050 5.53711
#
# Compressibility (1/GPa) = 0.02930990
#
# Stress axis : x y z
#
# Youngs Moduli (GPa) = 48.78255 51.44621 39.22263
#
# Poissons Ratio (x) = 0.46467 0.19907
# Poissons Ratio (y) = 0.44062 0.15507
# Poissons Ratio (z) = 0.24759 0.20340
#
# Static dielectric constant tensor:
#      x y z
#    x 1.687430 0.000000 -0.023510 
#    y 0.000000 1.673270 0.000000 
#    z -0.023510 0.000000 1.679900 
# 
# From -- ./inp_files/76423.got.cif
#   From: 2010.05.17/outbox.cif.g08.bks.cpg/sg13_39_cif.got.tgz:76423.got - 2010.06.03 16:44:36.
