data_PCOD9230746
_publ_section_title
;
Structure prediction by ZEFSAII (Michael W. Deem and Ramdas Pophale) SiO2 
 PCOD9230746
Probable space group: P 2/C
;
_chemical_formula_sum "Si O2"
_cell_formula_units_Z 18
_cell_length_a 11.528390
_cell_length_b 7.347803
_cell_length_c 17.615274
_cell_angle_alpha 90.000000
_cell_angle_beta 29.263648
_cell_angle_gamma 90.000000
_cell_volume 729.411459
_symmetry_space_group_name_H-M "P 2/C"
_symmetry_group_IT_number 13
_symmetry_cell_setting 'monoclinic'
loop_
_space_group_symop_operation_xyz
x,y,z
-x,y,1/2-z
-x,-y,-z
x,-y,1/2+z
loop_
_atom_site_type_symbol
_atom_site_label
_atom_site_fract_x
_atom_site_fract_y
_atom_site_fract_z
Si Si1 0.292691 0.291794 0.808624
Si Si2 0.238209 0.698892 0.890735
Si Si3 0.163193 0.235030 0.596294
Si Si4 0.491702 0.709505 0.480275
Si Si5 0.000000 0.104743 0.250000
O O1 0.500000 0.237740 0.750000
O O2 0.276079 0.512973 0.823636
O O3 0.372751 0.253892 0.676421
O O4 0.023269 0.223750 0.982110
O O5 0.500000 0.795333 0.750000
O O6 0.193421 0.652376 0.004551
O O7 0.397513 0.190425 0.509672
O O8 0.000000 0.338389 0.750000
O O9 0.036919 0.039234 0.659529
O O10 0.500000 0.500000 0.500000
O O11 0.227159 0.773960 0.623852
#
# Coordination Sequence:
#
# PCOD9230746 Si02
#       5
#     4   4   4   4   2
#     4  10  21  37  59  95 137 167 220 282 338 393
#     4  10  20  37  63  92 130 180 218 274 337 400
#     4  10  22  44  68  94 137 181 226 273 339 411
#     4  12  24  40  71 104 133 177 235 290 339 399
#     4  10  26  42  70 100 138 180 228 280 350 412
#
# _framework density 24.677432
#
# number of rings (size 3 to 8) (size 9 to 14) (size 15 to 20)
#    0.667    0.889    2.222    3.333    1.556    7.111 
#    0.000    1.111    0.000   12.000    0.000    0.000 
#    0.000    0.000    0.000    0.000    0.000    0.000 
#
# Total GULP energy -100362.819276 kJ/mol
# GULP energy per Si atom -5575.712182 kJ/mol
# Density = 2.462127 g / cm^3
# Si number density = 24.677432 Si / 1000 Ang^3
#
#
#
# Elastic Constant Matrix: (Units=GPa)
#
#
# Indices 1 2 3 4 5 6 
#
# 1 133.1423 20.8810 62.1463 0.0000 -22.4719 0.0000
# 2 20.8810 88.3439 32.3608 0.0000 -12.9283 0.0000
# 3 62.1463 32.3608 138.4724 0.0000 -51.8813 0.0000
# 4 0.0000 0.0000 0.0000 19.7407 0.0000 -9.6613
# 5 -22.4719 -12.9283 -51.8813 0.0000 61.1369 0.0000
# 6 0.0000 0.0000 0.0000 -9.6613 0.0000 7.2101
#
#
#
# Elastic Compliance Matrix: (Units=1/GPa)
#
#
# Indices 1 2 3 4 5 6 
#
# 1 0.009548 -0.000753 -0.004184 0.000000 -0.000201 0.000000
# 2 -0.000753 0.012441 -0.002474 0.000000 0.000254 0.000000
# 3 -0.004184 -0.002474 0.013057 0.000000 0.009019 0.000000
# 4 0.000000 0.000000 0.000000 0.147168 0.000000 0.197199
# 5 -0.000201 0.000254 0.009019 0.000000 0.023990 0.000000
# 6 0.000000 0.000000 0.000000 0.197199 0.000000 0.402932
#
#
# Mechanical properties :
#
#
# Convention : Reuss Voigt Hill
#
# Bulk Modulus (GPa) = 49.44949 65.63719 57.54334
# Shear Modulus (GPa) = 7.92770 33.92225 20.92497
#
# Velocity S-wave (km/s) = 1.79430 3.71162 2.91510
# Velocity P-wave (km/s) = 4.93706 6.70999 5.89061
#
# Compressibility (1/GPa) = 0.02022265
#
# Stress axis : x y z
#
# Youngs Moduli (GPa) = 104.73241 80.37981 76.58815
#
# Poissons Ratio (x) = 0.06056 0.32046
# Poissons Ratio (y) = 0.07891 0.18947
# Poissons Ratio (z) = 0.43823 0.19885
#
# Static dielectric constant tensor:
#      x y z
#    x 2.092470 0.000000 -0.117460 
#    y 0.000000 1.963890 0.000000 
#    z -0.117460 0.000000 2.039090 
# 
# From -- ./inp_files/66235.got.cif
#   From: 2010.05.17/outbox.cif.g08.bks.cpg/sg13_34_cif.got.tgz:66235.got - 2010.06.03 16:44:36.
