data_PCOD9230669
_publ_section_title
;
Structure prediction by ZEFSAII (Michael W. Deem and Ramdas Pophale) SiO2 
 PCOD9230669
Probable space group: P 2/C
;
_chemical_formula_sum "Si O2"
_cell_formula_units_Z 18
_cell_length_a 16.176881
_cell_length_b 5.087634
_cell_length_c 23.583880
_cell_angle_alpha 90.000000
_cell_angle_beta 159.688763
_cell_angle_gamma 90.000000
_cell_volume 673.759695
_symmetry_space_group_name_H-M "P 2/C"
_symmetry_group_IT_number 13
_symmetry_cell_setting 'monoclinic'
loop_
_space_group_symop_operation_xyz
x,y,z
-x,y,1/2-z
-x,-y,-z
x,-y,1/2+z
loop_
_atom_site_type_symbol
_atom_site_label
_atom_site_fract_x
_atom_site_fract_y
_atom_site_fract_z
Si Si1 0.000000 0.306577 0.750000
Si Si2 0.270893 0.377868 0.822627
Si Si3 0.456922 0.556729 0.103445
Si Si4 0.725830 0.185127 0.353757
Si Si5 0.121806 0.307222 0.485525
O O1 0.876814 0.193094 0.728513
O O2 0.778383 0.465504 0.581390
O O3 0.378041 0.273047 0.832229
O O4 0.100279 0.623391 0.697160
O O5 0.500000 0.500000 0.000000
O O6 0.606985 0.300408 0.220005
O O7 0.352722 0.699323 0.092101
O O8 0.500000 0.161945 0.250000
O O9 0.863840 0.432875 0.467666
O O10 0.875423 0.929090 0.468278
#
# Coordination Sequence:
#
# PCOD9230669 Si02
#       5
#     2   4   4   4   4
#     4   8  16  34  62  92 128 170 214 270 324 376
#     4   9  18  36  63  94 127 168 217 265 318 381
#     4   9  18  34  62  93 128 169 215 262 320 386
#     4  10  20  37  61  90 127 165 203 255 315 373
#     4  10  21  38  61  90 127 165 204 258 315 371
#
# _framework density 26.715758000000001
#
# number of rings (size 3 to 8) (size 9 to 14) (size 15 to 20)
#    0.000    2.667    0.000    2.000    0.000    1.778 
#    0.000    5.556    0.000  140.000    0.000    0.000 
#    0.000    0.000    0.000    0.000    0.000    0.000 
#
# Total GULP energy -100409.039031 kJ/mol
# GULP energy per Si atom -5578.279946 kJ/mol
# Density = 2.665495 g / cm^3
# Si number density = 26.715758 Si / 1000 Ang^3
#
#
#
# Elastic Constant Matrix: (Units=GPa)
#
#
# Indices 1 2 3 4 5 6 
#
# 1 182.8591 52.0114 41.7167 0.0000 17.9643 0.0000
# 2 52.0114 144.6971 52.0721 0.0000 -19.7669 0.0000
# 3 41.7167 52.0721 181.2078 0.0000 -21.1606 0.0000
# 4 0.0000 0.0000 0.0000 -13.8797 0.0000 6.8281
# 5 17.9643 -19.7669 -21.1606 0.0000 43.1913 0.0000
# 6 0.0000 0.0000 0.0000 6.8281 0.0000 10.8756
#
#
#
# Elastic Compliance Matrix: (Units=1/GPa)
#
#
# Indices 1 2 3 4 5 6 
#
# 1 0.007029 -0.002679 -0.001414 0.000000 -0.004842 0.000000
# 2 -0.002679 0.009013 -0.001444 0.000000 0.004532 0.000000
# 3 -0.001414 -0.001444 0.006630 0.000000 0.003175 0.000000
# 4 0.000000 0.000000 0.000000 -0.055046 0.000000 0.034560
# 5 -0.004842 0.004532 0.003175 0.000000 0.028797 0.000000
# 6 0.000000 0.000000 0.000000 0.034560 0.000000 0.070251
#
#
# Mechanical properties :
#
#
# Convention : Reuss Voigt Hill
#
# Bulk Modulus (GPa) = 86.22487 88.92937 87.57712
# Shear Modulus (GPa) = 61.26478 32.23502 46.74990
#
# Velocity S-wave (km/s) = 4.79394 3.47737 4.18772
# Velocity P-wave (km/s) = 7.93646 7.03437 7.49899
#
# Compressibility (1/GPa) = 0.01159758
#
# Stress axis : x y z
#
# Youngs Moduli (GPa) = 142.26700 110.95357 150.83644
#
# Poissons Ratio (x) = 0.29728 0.21324
# Poissons Ratio (y) = 0.38118 0.21779
# Poissons Ratio (z) = 0.20113 0.16021
#
# Static dielectric constant tensor:
#      x y z
#    x 2.271890 0.000000 -0.015480 
#    y 0.000000 2.021660 0.000000 
#    z -0.015480 0.000000 2.140860 
# 
# From -- ./inp_files/93097.got.cif
#   From: 2010.05.17/outbox.cif.g08.bks.cpg/sg13_47_cif.got.tgz:93097.got - 2010.06.03 16:44:36.
