data_PCOD9230002
_publ_section_title
;
Structure prediction by ZEFSAII (Michael W. Deem and Ramdas Pophale) SiO2 
 PCOD9230002
Probable space group: P 2/C
;
_chemical_formula_sum "Si O2"
_cell_formula_units_Z 32
_cell_length_a 26.629093
_cell_length_b 12.394023
_cell_length_c 11.350523
_cell_angle_alpha 90.000000
_cell_angle_beta 156.492639
_cell_angle_gamma 90.000000
_cell_volume 1494.213051
_symmetry_space_group_name_H-M "P 2/C"
_symmetry_group_IT_number 13
_symmetry_cell_setting 'monoclinic'
loop_
_space_group_symop_operation_xyz
x,y,z
-x,y,1/2-z
-x,-y,-z
x,-y,1/2+z
loop_
_atom_site_type_symbol
_atom_site_label
_atom_site_fract_x
_atom_site_fract_y
_atom_site_fract_z
Si Si1 0.862521 0.852400 0.015902
Si Si2 0.627010 0.741596 0.102921
Si Si3 0.189379 0.090388 0.602165
Si Si4 0.297356 0.350374 0.280809
Si Si5 0.270080 0.571114 0.334755
Si Si6 0.084240 0.407912 0.628659
Si Si7 0.526582 0.371226 0.045035
Si Si8 0.940107 0.167769 0.950154
O O1 0.886951 0.862004 0.208881
O O2 0.000000 0.837844 0.250000
O O3 0.799172 0.964784 0.841579
O O4 0.767930 0.751662 0.797924
O O5 0.500000 0.743051 0.750000
O O6 0.581499 0.704734 0.134063
O O7 0.701251 0.851681 0.236429
O O8 0.717378 0.644035 0.253490
O O9 0.161888 0.153936 0.665018
O O10 0.060758 0.100778 0.250249
O O11 0.319413 0.451856 0.412914
O O12 0.421183 0.333447 0.467974
O O13 0.193664 0.389667 0.961281
O O14 0.139479 0.560132 0.120668
O O15 0.356684 0.635274 0.613234
O O16 0.020083 0.292333 0.473530
O O17 0.000000 0.500000 0.500000
O O18 0.500000 0.500000 0.000000
#
# Coordination Sequence:
#
# PCOD9230002 Si02
#       8
#     4   4   4   4   4   4   4   4
#     4  11  24  42  61  89 129 170 197 253 322 365
#     4  10  21  38  64  89 113 156 212 256 302 348
#     4  11  22  40  69  90 114 168 215 258 294 371
#     4  10  23  37  56  85 127 159 197 247 313 374
#     4  10  20  35  57  85 117 157 199 246 299 375
#     4  10  22  33  53  89 127 154 188 255 312 363
#     4  10  20  38  60  86 118 160 201 251 308 367
#     4  10  22  39  61  91 125 156 211 250 310 376
#
# _framework density 21.415955
#
# number of rings (size 3 to 8) (size 9 to 14) (size 15 to 20)
#    0.000    1.750    3.750    0.375    7.000    0.000 
#    0.000    0.625    2.750    0.000    0.000    0.000 
#    0.000    0.000    0.000    0.000    0.000    0.000 
#
# Total GULP energy -178646.037457 kJ/mol
# GULP energy per Si atom -5582.688671 kJ/mol
# Density = 2.136721 g / cm^3
# Si number density = 21.415955 Si / 1000 Ang^3
#
#
#
# Elastic Constant Matrix: (Units=GPa)
#
#
# Indices 1 2 3 4 5 6 
#
# 1 78.6028 57.2186 33.6553 0.0000 28.6565 0.0000
# 2 57.2186 135.4293 15.6790 0.0000 34.7253 0.0000
# 3 33.6553 15.6790 41.7375 0.0000 13.9368 0.0000
# 4 0.0000 0.0000 0.0000 22.1423 0.0000 5.1967
# 5 28.6565 34.7253 13.9368 0.0000 42.5268 0.0000
# 6 0.0000 0.0000 0.0000 5.1967 0.0000 23.8446
#
#
#
# Elastic Compliance Matrix: (Units=1/GPa)
#
#
# Indices 1 2 3 4 5 6 
#
# 1 0.029045 -0.008452 -0.017983 0.000000 -0.006777 0.000000
# 2 -0.008452 0.011842 0.004148 0.000000 -0.005334 0.000000
# 3 -0.017983 0.004148 0.038162 0.000000 -0.003776 0.000000
# 4 0.000000 0.000000 0.000000 0.047597 0.000000 -0.010373
# 5 -0.006777 -0.005334 -0.003776 0.000000 0.033674 0.000000
# 6 0.000000 0.000000 0.000000 -0.010373 0.000000 0.044199
#
#
# Mechanical properties :
#
#
# Convention : Reuss Voigt Hill
#
# Bulk Modulus (GPa) = 29.00567 52.09726 40.55147
# Shear Modulus (GPa) = 19.18752 27.65052 23.41902
#
# Velocity S-wave (km/s) = 2.99648 3.59711 3.31045
# Velocity P-wave (km/s) = 5.05423 6.45224 5.79555
#
# Compressibility (1/GPa) = 0.03447602
#
# Stress axis : x y z
#
# Youngs Moduli (GPa) = 34.42912 84.44320 26.20375
#
# Poissons Ratio (x) = 0.71370 0.47121
# Poissons Ratio (y) = 0.29099 -0.10868
# Poissons Ratio (z) = 0.61913 -0.35024
#
# Static dielectric constant tensor:
#      x y z
#    x 1.845750 0.000000 -0.027940 
#    y 0.000000 1.774370 0.000000 
#    z -0.027940 0.000000 1.843730 
# 
# From -- ./inp_files/41881.got.cif
#   From: 2010.05.17/outbox.cif.g08.bks.cpg/sg13_21_cif.got.tgz:41881.got - 2010.06.03 16:44:36.
