data_PCOD9230113
_publ_section_title
;
Structure prediction by ZEFSAII (Michael W. Deem and Ramdas Pophale) SiO2 
 PCOD9230113
Probable space group: P 2/C
;
_chemical_formula_sum "Si O2"
_cell_formula_units_Z 28
_cell_length_a 31.891622
_cell_length_b 6.910468
_cell_length_c 32.512287
_cell_angle_alpha 90.000000
_cell_angle_beta 170.864940
_cell_angle_gamma 90.000000
_cell_volume 1137.571830
_symmetry_space_group_name_H-M "P 2/C"
_symmetry_group_IT_number 13
_symmetry_cell_setting 'monoclinic'
loop_
_space_group_symop_operation_xyz
x,y,z
-x,y,1/2-z
-x,-y,-z
x,-y,1/2+z
loop_
_atom_site_type_symbol
_atom_site_label
_atom_site_fract_x
_atom_site_fract_y
_atom_site_fract_z
Si Si1 0.000000 0.675761 0.750000
Si Si2 0.500000 0.600536 0.750000
Si Si3 0.528770 0.025168 0.630650
Si Si4 0.804536 0.295607 0.145716
Si Si5 0.892603 0.131494 0.834462
Si Si6 0.734476 0.617587 0.249675
Si Si7 0.549877 0.312838 0.386152
Si Si8 0.890002 0.526970 0.489437
O O1 0.082507 0.788512 0.787740
O O2 0.752222 0.542167 0.496443
O O3 0.501443 0.730123 0.710833
O O4 0.820151 0.958229 0.898290
O O5 0.398863 0.861837 0.534520
O O6 0.468097 0.202354 0.602783
O O7 0.334715 0.005943 0.403761
O O8 0.972041 0.307847 0.349844
O O9 0.767311 0.520816 0.098723
O O10 0.911891 0.353869 0.834578
O O11 0.800600 0.179140 0.791978
O O12 0.727494 0.610097 0.292530
O O13 0.000000 0.500000 0.500000
O O14 0.500000 0.500000 0.000000
O O15 0.296079 0.413257 0.159871
#
# Coordination Sequence:
#
# PCOD9230113 Si02
#       8
#     2   2   4   4   4   4   4   4
#     4  10  22  40  62  92 124 160 210 262 316 384
#     4  10  20  36  66  86 120 160 208 260 314 380
#     4  11  24  39  65  89 131 163 214 263 324 381
#     4  11  23  41  64  94 124 173 209 270 322 390
#     4  10  21  41  58  96 125 166 211 271 312 388
#     4  10  20  35  63  95 126 168 215 266 324 388
#     4  10  21  41  61  93 123 166 212 264 320 385
#     4  10  20  37  67  89 124 170 217 252 329 391
#
# _framework density 24.613831999999999
#
# number of rings (size 3 to 8) (size 9 to 14) (size 15 to 20)
#    0.000    1.714    2.857    2.571    4.000    0.000 
#    0.000   10.000    0.000    0.000    0.000    0.000 
#    0.000    0.000    0.000    0.000    0.000    0.000 
#
# Total GULP energy -156188.488907 kJ/mol
# GULP energy per Si atom -5578.160318 kJ/mol
# Density = 2.455781 g / cm^3
# Si number density = 24.613832 Si / 1000 Ang^3
#
#
#
# Elastic Constant Matrix: (Units=GPa)
#
#
# Indices 1 2 3 4 5 6 
#
# 1 184.5770 18.4878 28.7892 0.0000 5.3651 0.0000
# 2 18.4878 32.1835 -5.5270 0.0000 1.7944 0.0000
# 3 28.7892 -5.5270 120.9077 0.0000 5.5838 0.0000
# 4 0.0000 0.0000 0.0000 21.5449 0.0000 7.0975
# 5 5.3651 1.7944 5.5838 0.0000 40.1793 0.0000
# 6 0.0000 0.0000 0.0000 7.0975 0.0000 23.2208
#
#
#
# Elastic Compliance Matrix: (Units=1/GPa)
#
#
# Indices 1 2 3 4 5 6 
#
# 1 0.006052 -0.003726 -0.001592 0.000000 -0.000420 0.000000
# 2 -0.003726 0.033716 0.002491 0.000000 -0.001354 0.000000
# 3 -0.001592 0.002491 0.008816 0.000000 -0.001124 0.000000
# 4 0.000000 0.000000 0.000000 0.051612 0.000000 -0.015775
# 5 -0.000420 -0.001354 -0.001124 0.000000 0.025161 0.000000
# 6 0.000000 0.000000 0.000000 -0.015775 0.000000 0.047887
#
#
# Mechanical properties :
#
#
# Convention : Reuss Voigt Hill
#
# Bulk Modulus (GPa) = 23.29444 46.79647 35.04545
# Shear Modulus (GPa) = 25.87912 36.71687 31.29800
#
# Velocity S-wave (km/s) = 3.24606 3.86647 3.56976
# Velocity P-wave (km/s) = 4.85115 6.24390 5.59106
#
# Compressibility (1/GPa) = 0.04292869
#
# Stress axis : x y z
#
# Youngs Moduli (GPa) = 165.24744 29.65978 113.43562
#
# Poissons Ratio (x) = 0.11052 0.18057
# Poissons Ratio (y) = 0.61575 -0.28257
# Poissons Ratio (z) = 0.26305 -0.07388
#
# Static dielectric constant tensor:
#      x y z
#    x 2.045480 0.000000 -0.030620 
#    y 0.000000 2.103850 0.000000 
#    z -0.030620 0.000000 2.009060 
# 
# From -- ./inp_files/98136.got.cif
#   From: 2010.05.17/outbox.cif.g08.bks.cpg/sg13_50_cif.got.tgz:98136.got - 2010.06.03 16:44:36.
