data_PCOD9230363
_publ_section_title
;
Structure prediction by ZEFSAII (Michael W. Deem and Ramdas Pophale) SiO2 
 PCOD9230363
Probable space group: P 2/C
;
_chemical_formula_sum "Si O2"
_cell_formula_units_Z 24
_cell_length_a 10.325811
_cell_length_b 8.107119
_cell_length_c 21.326660
_cell_angle_alpha 90.000000
_cell_angle_beta 42.109251
_cell_angle_gamma 90.000000
_cell_volume 1197.133010
_symmetry_space_group_name_H-M "P 2/C"
_symmetry_group_IT_number 13
_symmetry_cell_setting 'monoclinic'
loop_
_space_group_symop_operation_xyz
x,y,z
-x,y,1/2-z
-x,-y,-z
x,-y,1/2+z
loop_
_atom_site_type_symbol
_atom_site_label
_atom_site_fract_x
_atom_site_fract_y
_atom_site_fract_z
Si Si1 0.768874 0.014664 0.582829
Si Si2 0.461310 0.923986 0.946064
Si Si3 0.821394 0.239275 0.268128
Si Si4 0.486122 0.446493 0.433420
Si Si5 0.260529 0.366156 0.906415
Si Si6 0.837168 0.689642 0.619081
O O1 0.695918 0.186189 0.637749
O O2 0.689340 0.023851 0.540829
O O3 0.713429 0.839334 0.633249
O O4 0.000000 0.000000 0.500000
O O5 0.665723 0.906130 0.836306
O O6 0.385795 0.734588 0.973060
O O7 0.500000 0.000000 0.000000
O O8 0.699234 0.400955 0.332057
O O9 0.874635 0.260447 0.176987
O O10 0.000000 0.217435 0.250000
O O11 0.500000 0.500000 0.500000
O O12 0.382953 0.569474 0.422321
O O13 0.266281 0.514660 0.854565
O O14 0.041992 0.337817 0.010780
#
# Coordination Sequence:
#
# PCOD9230363 Si02
#       6
#     4   4   4   4   4   4
#     4  10  21  37  63  94 124 167 211 262 315 383
#     4  10  22  38  61  90 127 167 217 262 323 388
#     4  10  23  39  64  91 130 172 208 276 330 378
#     4  10  20  36  61  88 122 165 213 257 318 383
#     4  10  20  36  65  93 122 166 209 257 314 391
#     4  10  20  40  61  93 128 162 214 257 323 379
#
# _framework density 20.047898
#
# number of rings (size 3 to 8) (size 9 to 14) (size 15 to 20)
#    1.000    1.000    1.667    2.000    4.667    2.667 
#    0.000    5.000    0.000    5.000    0.000    0.000 
#    0.000    0.000    0.000    0.000    0.000    0.000 
#
# Total GULP energy -133637.165122 kJ/mol
# GULP energy per Si atom -5568.215213 kJ/mol
# Density = 2.000227 g / cm^3
# Si number density = 20.047898 Si / 1000 Ang^3
#
#
#
# Elastic Constant Matrix: (Units=GPa)
#
#
# Indices 1 2 3 4 5 6 
#
# 1 129.7532 36.7114 14.8539 0.0000 13.1037 0.0000
# 2 36.7114 130.6662 11.2347 0.0000 3.7788 0.0000
# 3 14.8539 11.2347 56.1140 0.0000 10.5392 0.0000
# 4 0.0000 0.0000 0.0000 13.9607 0.0000 6.9141
# 5 13.1037 3.7788 10.5392 0.0000 34.4025 0.0000
# 6 0.0000 0.0000 0.0000 6.9141 0.0000 37.5239
#
#
#
# Elastic Compliance Matrix: (Units=1/GPa)
#
#
# Indices 1 2 3 4 5 6 
#
# 1 0.008776 -0.002271 -0.001366 0.000000 -0.002675 0.000000
# 2 -0.002271 0.008380 -0.001131 0.000000 0.000291 0.000000
# 3 -0.001366 -0.001131 0.019404 0.000000 -0.005300 0.000000
# 4 0.000000 0.000000 0.000000 0.078823 0.000000 -0.014524
# 5 -0.002675 0.000291 -0.005300 0.000000 0.031678 0.000000
# 6 0.000000 0.000000 0.000000 -0.014524 0.000000 0.029326
#
#
# Mechanical properties :
#
#
# Convention : Reuss Voigt Hill
#
# Bulk Modulus (GPa) = 37.00435 49.12594 43.06514
# Shear Modulus (GPa) = 25.65005 34.09297 29.87151
#
# Velocity S-wave (km/s) = 3.58080 4.12828 3.86425
# Velocity P-wave (km/s) = 5.96609 6.87612 6.43721
#
# Compressibility (1/GPa) = 0.02702385
#
# Stress axis : x y z
#
# Youngs Moduli (GPa) = 113.94783 119.33252 51.53470
#
# Poissons Ratio (x) = 0.27099 0.07040
# Poissons Ratio (y) = 0.25876 0.05830
# Poissons Ratio (z) = 0.15566 0.13500
#
# Static dielectric constant tensor:
#      x y z
#    x 1.700470 0.000000 -0.014770 
#    y 0.000000 1.831700 0.000000 
#    z -0.014770 0.000000 1.723240 
# 
# From -- ./inp_files/75182.got.cif
#   From: 2010.05.17/outbox.cif.g08.bks.cpg/sg13_38_cif.got.tgz:75182.got - 2010.06.03 16:44:36.
