data_PCOD9230156
_publ_section_title
;
Structure prediction by ZEFSAII (Michael W. Deem and Ramdas Pophale) SiO2 
 PCOD9230156
Probable space group: P 2/C
;
_chemical_formula_sum "Si O2"
_cell_formula_units_Z 32
_cell_length_a 20.754221
_cell_length_b 14.383334
_cell_length_c 9.037577
_cell_angle_alpha 90.000000
_cell_angle_beta 137.585736
_cell_angle_gamma 90.000000
_cell_volume 1819.663511
_symmetry_space_group_name_H-M "P 2/C"
_symmetry_group_IT_number 13
_symmetry_cell_setting 'monoclinic'
loop_
_space_group_symop_operation_xyz
x,y,z
-x,y,1/2-z
-x,-y,-z
x,-y,1/2+z
loop_
_atom_site_type_symbol
_atom_site_label
_atom_site_fract_x
_atom_site_fract_y
_atom_site_fract_z
Si Si1 0.898226 0.542764 0.880568
Si Si2 0.331575 0.988510 0.183011
Si Si3 0.396611 0.131012 0.064644
Si Si4 0.214410 0.096698 0.219562
Si Si5 0.108938 0.271827 0.942090
Si Si6 0.116762 0.374520 0.450107
Si Si7 0.063523 0.051058 0.487057
Si Si8 0.804786 0.778824 0.219752
O O1 0.853844 0.588384 0.660132
O O2 0.902723 0.626968 0.004860
O O3 0.852858 0.454660 0.883304
O O4 0.000000 0.500000 0.000000
O O5 0.375462 0.911955 0.366920
O O6 0.398110 0.043287 0.180629
O O7 0.290348 0.068546 0.222308
O O8 0.253837 0.937499 0.945193
O O9 0.500000 0.177394 0.250000
O O10 0.306187 0.194011 0.957686
O O11 0.127098 0.030318 0.026829
O O12 0.175158 0.201009 0.147365
O O13 0.157909 0.273759 0.863726
O O14 0.000000 0.234177 0.750000
O O15 0.163526 0.280336 0.584620
O O16 0.000000 0.364756 0.250000
O O17 0.134853 0.126069 0.675444
O O18 0.000000 0.000000 0.500000
O O19 0.000000 0.094905 0.250000
#
# Coordination Sequence:
#
# PCOD9230156 Si02
#       8
#     4   4   4   4   4   4   4   4
#     4  10  21  37  56  80 115 152 198 227 273 342
#     4  10  20  39  57  77 115 147 198 247 290 337
#     4  11  23  40  62  82 110 154 203 254 302 339
#     4  11  20  34  52  78 114 155 190 236 276 335
#     4  12  22  34  54  81 118 159 195 231 280 336
#     4  10  20  36  55  82 114 151 187 231 283 339
#     4  12  23  33  49  75 118 161 195 225 275 337
#     4  12  23  37  55  83 118 151 198 243 287 347
#
# _framework density 17.585667999999998
#
# number of rings (size 3 to 8) (size 9 to 14) (size 15 to 20)
#    0.000    1.000    3.750    6.750    1.750    0.000 
#    0.000    0.000    0.000    0.000    0.000    3.500 
#    0.000    0.000    0.000    0.000    0.000    0.000 
#
# Total GULP energy -178535.236214 kJ/mol
# GULP energy per Si atom -5579.226132 kJ/mol
# Density = 1.754564 g / cm^3
# Si number density = 17.585668 Si / 1000 Ang^3
#
#
#
# Elastic Constant Matrix: (Units=GPa)
#
#
# Indices 1 2 3 4 5 6 
#
# 1 72.8965 21.9080 52.1761 0.0000 -1.5667 0.0000
# 2 21.9080 81.3875 28.1314 0.0000 3.8812 0.0000
# 3 52.1761 28.1314 83.3302 0.0000 1.4734 0.0000
# 4 0.0000 0.0000 0.0000 26.5453 0.0000 -11.6526
# 5 -1.5667 3.8812 1.4734 0.0000 26.6636 0.0000
# 6 0.0000 0.0000 0.0000 -11.6526 0.0000 21.2642
#
#
#
# Elastic Compliance Matrix: (Units=1/GPa)
#
#
# Indices 1 2 3 4 5 6 
#
# 1 0.025191 -0.001625 -0.015269 0.000000 0.002560 0.000000
# 2 -0.001625 0.014099 -0.003708 0.000000 -0.001943 0.000000
# 3 -0.015269 -0.003708 0.022842 0.000000 -0.001620 0.000000
# 4 0.000000 0.000000 0.000000 0.049604 0.000000 0.027183
# 5 0.002560 -0.001943 -0.001620 0.000000 0.038027 0.000000
# 6 0.000000 0.000000 0.000000 0.027183 0.000000 0.061923
#
#
# Mechanical properties :
#
#
# Convention : Reuss Voigt Hill
#
# Bulk Modulus (GPa) = 47.78666 49.11613 48.45139
# Shear Modulus (GPa) = 19.24077 23.92120 21.58098
#
# Velocity S-wave (km/s) = 3.31133 3.69218 3.50693
# Velocity P-wave (km/s) = 6.46935 6.79460 6.63397
#
# Compressibility (1/GPa) = 0.02092634
#
# Stress axis : x y z
#
# Youngs Moduli (GPa) = 39.69717 70.92936 43.77992
#
# Poissons Ratio (x) = 0.11527 0.66850
# Poissons Ratio (y) = 0.06451 0.16232
# Poissons Ratio (z) = 0.60615 0.26298
#
# Static dielectric constant tensor:
#      x y z
#    x 1.617350 0.000000 -0.003170 
#    y 0.000000 1.611060 0.000000 
#    z -0.003170 0.000000 1.642250 
# 
# From -- ./inp_files/23572.got.cif
#   From: 2010.05.17/outbox.cif.g08.bks.cpg/sg13_12_cif.got.tgz:23572.got - 2010.06.03 16:44:36.
