data_PCOD9230042
_publ_section_title
;
Structure prediction by ZEFSAII (Michael W. Deem and Ramdas Pophale) SiO2 
 PCOD9230042
Probable space group: P 2/C
;
_chemical_formula_sum "Si O2"
_cell_formula_units_Z 32
_cell_length_a 16.326129
_cell_length_b 12.194788
_cell_length_c 22.374103
_cell_angle_alpha 90.000000
_cell_angle_beta 21.043457
_cell_angle_gamma 90.000000
_cell_volume 1599.519039
_symmetry_space_group_name_H-M "P 2/C"
_symmetry_group_IT_number 13
_symmetry_cell_setting 'monoclinic'
loop_
_space_group_symop_operation_xyz
x,y,z
-x,y,1/2-z
-x,-y,-z
x,-y,1/2+z
loop_
_atom_site_type_symbol
_atom_site_label
_atom_site_fract_x
_atom_site_fract_y
_atom_site_fract_z
Si Si1 0.829999 0.619140 0.421238
Si Si2 0.656618 0.892286 0.902310
Si Si3 0.541112 0.796196 0.108803
Si Si4 0.285978 0.820242 0.935823
Si Si5 0.731008 0.599723 0.056410
Si Si6 0.431281 0.762952 0.658527
Si Si7 0.852610 0.056287 0.473975
Si Si8 0.070149 0.759761 0.483073
O O1 0.874189 0.718983 0.437729
O O2 0.828557 0.506609 0.458081
O O3 0.579669 0.652362 0.565288
O O4 0.000000 0.619303 0.250000
O O5 0.614930 0.807571 0.875920
O O6 0.921764 0.928016 0.719822
O O7 0.601114 0.832165 0.001714
O O8 0.500000 0.000000 0.000000
O O9 0.671904 0.690281 0.046246
O O10 0.274223 0.766851 0.297093
O O11 0.631916 0.893057 0.090974
O O12 0.500000 0.784410 0.750000
O O13 0.405276 0.848803 0.918542
O O14 0.174919 0.930554 0.989183
O O15 0.500000 0.571929 0.250000
O O16 0.885660 0.660608 0.000314
O O17 0.191971 0.752945 0.856082
O O18 0.897887 0.129486 0.500896
#
# Coordination Sequence:
#
# PCOD9230042 Si02
#       8
#     4   4   4   4   4   4   4   4
#     4  10  23  39  61  84 119 156 195 237 303 367
#     4  11  23  35  54  86 127 162 192 243 295 355
#     4  10  20  36  62  87 113 156 198 243 298 348
#     4  10  21  38  62  82 116 161 204 238 296 362
#     4   9  19  40  66  87 111 151 208 248 290 358
#     4   9  23  39  54  87 123 151 193 247 297 348
#     4  10  20  35  59  85 117 155 200 242 292 356
#     4   9  19  40  62  90 115 145 202 260 292 339
#
# _framework density 20.006014
#
# number of rings (size 3 to 8) (size 9 to 14) (size 15 to 20)
#    0.750    1.500    0.000    3.375    1.750    4.000 
#    0.000    8.125    0.000    0.000    0.000    0.000 
#    0.000    0.000    0.000    0.000    0.000    0.000 
#
# Total GULP energy -178397.703155 kJ/mol
# GULP energy per Si atom -5574.928224 kJ/mol
# Density = 1.996048 g / cm^3
# Si number density = 20.006014 Si / 1000 Ang^3
#
#
#
# Elastic Constant Matrix: (Units=GPa)
#
#
# Indices 1 2 3 4 5 6 
#
# 1 35.0835 1.0187 10.0946 0.0000 7.2078 0.0000
# 2 1.0187 115.4143 32.0171 0.0000 12.7343 0.0000
# 3 10.0946 32.0171 86.8232 0.0000 -0.2118 0.0000
# 4 0.0000 0.0000 0.0000 14.2208 0.0000 11.7484
# 5 7.2078 12.7343 -0.2118 0.0000 30.0730 0.0000
# 6 0.0000 0.0000 0.0000 11.7484 0.0000 5.5172
#
#
#
# Elastic Compliance Matrix: (Units=1/GPa)
#
#
# Indices 1 2 3 4 5 6 
#
# 1 0.031417 0.001852 -0.004356 0.000000 -0.008345 0.000000
# 2 0.001852 0.010298 -0.004025 0.000000 -0.004833 0.000000
# 3 -0.004356 -0.004025 0.013515 0.000000 0.002843 0.000000
# 4 0.000000 0.000000 0.000000 -0.092624 0.000000 0.197235
# 5 -0.008345 -0.004833 0.002843 0.000000 0.037319 0.000000
# 6 0.000000 0.000000 0.000000 0.197235 0.000000 -0.238742
#
#
# Mechanical properties :
#
#
# Convention : Reuss Voigt Hill
#
# Bulk Modulus (GPa) = 23.71192 35.95354 29.83273
# Shear Modulus (GPa) = -23.61810 22.90825 -0.35492
#
# Velocity S-wave (km/s) = -3.43964 3.38756 -0.42166
# Velocity P-wave (km/s) = 1.97401 5.77158 3.83500
#
# Compressibility (1/GPa) = 0.04217289
#
# Stress axis : x y z
#
# Youngs Moduli (GPa) = 31.82949 97.10843 73.99106
#
# Poissons Ratio (x) = -0.17983 0.32231
# Poissons Ratio (y) = -0.05894 0.29778
# Poissons Ratio (z) = 0.13865 0.39082
#
# Static dielectric constant tensor:
#      x y z
#    x 1.728990 0.000000 -0.022230 
#    y 0.000000 1.696790 0.000000 
#    z -0.022230 0.000000 1.747160 
# 
# From -- ./inp_files/88167.got.cif
#   From: 2010.05.17/outbox.cif.g08.bks.cpg/sg13_45_cif.got.tgz:88167.got - 2010.06.03 16:44:36.
