data_PCOD9230240
_publ_section_title
;
Structure prediction by ZEFSAII (Michael W. Deem and Ramdas Pophale) SiO2 
 PCOD9230240
Probable space group: P 2/C
;
_chemical_formula_sum "Si O2"
_cell_formula_units_Z 24
_cell_length_a 14.953283
_cell_length_b 9.777046
_cell_length_c 14.498609
_cell_angle_alpha 90.000000
_cell_angle_beta 144.326466
_cell_angle_gamma 90.000000
_cell_volume 1236.126079
_symmetry_space_group_name_H-M "P 2/C"
_symmetry_group_IT_number 13
_symmetry_cell_setting 'monoclinic'
loop_
_space_group_symop_operation_xyz
x,y,z
-x,y,1/2-z
-x,-y,-z
x,-y,1/2+z
loop_
_atom_site_type_symbol
_atom_site_label
_atom_site_fract_x
_atom_site_fract_y
_atom_site_fract_z
Si Si1 0.500000 0.391028 0.750000
Si Si2 0.659362 0.012234 0.078293
Si Si3 0.863852 0.267977 0.318831
Si Si4 0.190879 0.201090 0.677702
Si Si5 0.000000 0.252023 0.250000
Si Si6 0.643679 0.507758 0.189744
Si Si7 0.702987 0.134528 0.929930
O O1 0.429349 0.480085 0.770709
O O2 0.626801 0.281605 0.889917
O O3 0.753388 0.144493 0.193961
O O4 0.766288 0.885083 0.196465
O O5 0.633077 0.029901 0.945689
O O6 0.500000 0.000000 0.000000
O O7 0.933427 0.331083 0.281806
O O8 0.758845 0.381376 0.277761
O O9 0.010811 0.215436 0.500710
O O10 0.262066 0.351984 0.745424
O O11 0.283110 0.128018 0.669059
O O12 0.123344 0.150947 0.395650
O O13 0.500000 0.500000 0.000000
#
# Coordination Sequence:
#
# PCOD9230240 Si02
#       7
#     2   4   4   4   2   4   4
#     4  10  20  36  58  84 116 152 188 226 284 352
#     4  11  20  34  57  84 112 147 189 235 280 334
#     4  10  20  36  58  84 116 152 192 235 283 337
#     4  10  21  37  59  83 113 151 192 235 284 337
#     4   8  16  32  56  78 104 146 190 224 266 334
#     4  11  21  37  60  88 117 152 192 235 283 341
#     4   9  18  34  55  80 108 147 189 225 274 340
#
# _framework density 19.415493999999999
#
# number of rings (size 3 to 8) (size 9 to 14) (size 15 to 20)
#    0.000    2.000    0.000    6.000    0.000    0.000 
#    0.000    3.333    0.000    8.000    0.000    0.000 
#    0.000    0.000    0.000    0.000    0.000    0.000 
#
# Total GULP energy -133707.219481 kJ/mol
# GULP energy per Si atom -5571.134145 kJ/mol
# Density = 1.937130 g / cm^3
# Si number density = 19.415494 Si / 1000 Ang^3
#
#
#
# Elastic Constant Matrix: (Units=GPa)
#
#
# Indices 1 2 3 4 5 6 
#
# 1 100.1205 45.0824 20.2908 0.0000 5.4011 0.0000
# 2 45.0824 74.3951 26.5714 0.0000 -4.8412 0.0000
# 3 20.2908 26.5714 95.8583 0.0000 17.4655 0.0000
# 4 0.0000 0.0000 0.0000 17.4300 0.0000 -7.4757
# 5 5.4011 -4.8412 17.4655 0.0000 27.2247 0.0000
# 6 0.0000 0.0000 0.0000 -7.4757 0.0000 29.8210
#
#
#
# Elastic Compliance Matrix: (Units=1/GPa)
#
#
# Indices 1 2 3 4 5 6 
#
# 1 0.014250 -0.009061 0.000344 0.000000 -0.004659 0.000000
# 2 -0.009061 0.021602 -0.005772 0.000000 0.009342 0.000000
# 3 0.000344 -0.005772 0.013768 0.000000 -0.009927 0.000000
# 4 0.000000 0.000000 0.000000 0.064284 0.000000 0.016115
# 5 -0.004659 0.009342 -0.009927 0.000000 0.045686 0.000000
# 6 0.000000 0.000000 0.000000 0.016115 0.000000 0.037573
#
#
# Mechanical properties :
#
#
# Convention : Reuss Voigt Hill
#
# Bulk Modulus (GPa) = 48.44541 50.47367 49.45954
# Shear Modulus (GPa) = 21.45722 26.79040 24.12381
#
# Velocity S-wave (km/s) = 3.32800 3.71866 3.52874
# Velocity P-wave (km/s) = 6.30663 6.67015 6.49094
#
# Compressibility (1/GPa) = 0.02064179
#
# Stress axis : x y z
#
# Youngs Moduli (GPa) = 70.17719 46.29143 72.63249
#
# Poissons Ratio (x) = 0.41946 -0.02501
# Poissons Ratio (y) = 0.63589 0.41924
# Poissons Ratio (z) = -0.02417 0.26720
#
# Static dielectric constant tensor:
#      x y z
#    x 1.748980 0.000000 -0.005470 
#    y 0.000000 1.648280 0.000000 
#    z -0.005470 0.000000 1.640910 
# 
# From -- ./inp_files/53230.got.cif
#   From: 2010.05.17/outbox.cif.g08.bks.cpg/sg13_27_cif.got.tgz:53230.got - 2010.06.03 16:44:36.
