data_PCOD9230476
_publ_section_title
;
Structure prediction by ZEFSAII (Michael W. Deem and Ramdas Pophale) SiO2 
 PCOD9230476
Probable space group: P 2/C
;
_chemical_formula_sum "Si O2"
_cell_formula_units_Z 20
_cell_length_a 19.684137
_cell_length_b 6.979224
_cell_length_c 14.341061
_cell_angle_alpha 90.000000
_cell_angle_beta 26.613985
_cell_angle_gamma 90.000000
_cell_volume 882.593714
_symmetry_space_group_name_H-M "P 2/C"
_symmetry_group_IT_number 13
_symmetry_cell_setting 'monoclinic'
loop_
_space_group_symop_operation_xyz
x,y,z
-x,y,1/2-z
-x,-y,-z
x,-y,1/2+z
loop_
_atom_site_type_symbol
_atom_site_label
_atom_site_fract_x
_atom_site_fract_y
_atom_site_fract_z
Si Si1 0.786242 0.423934 0.713755
Si Si2 0.156658 0.025932 0.100712
Si Si3 0.981161 0.255504 0.927791
Si Si4 0.635184 0.761663 0.010085
Si Si5 0.292107 0.982818 0.242778
O O1 0.867340 0.570549 0.542691
O O2 0.695269 0.243997 0.787020
O O3 0.922121 0.326291 0.604167
O O4 0.688208 0.560532 0.901158
O O5 0.000000 0.114172 0.250000
O O6 0.228706 0.147449 0.095219
O O7 0.279090 0.990523 0.869643
O O8 0.101502 0.821359 0.206717
O O9 0.872671 0.075236 0.081950
O O10 0.500000 0.743676 0.250000
O O11 0.605487 0.900366 0.956450
#
# Coordination Sequence:
#
# PCOD9230476 Si02
#       5
#     4   4   4   4   4
#     4  10  20  36  66  88 124 169 205 252 316 368
#     4  10  22  40  63 100 125 155 210 264 312 363
#     4   9  19  35  61  94 124 149 203 259 314 362
#     4  11  25  44  61  89 131 172 209 251 310 378
#     4  10  21  41  64  91 127 164 209 257 314 372
#
# _framework density 22.660484
#
# number of rings (size 3 to 8) (size 9 to 14) (size 15 to 20)
#    0.000    2.000    2.000    0.600   14.000    1.600 
#   14.400    1.000    0.000    0.000    0.000    0.000 
#    0.000    0.000    0.000    0.000    0.000    0.000 
#
# Total GULP energy -111512.938407 kJ/mol
# GULP energy per Si atom -5575.646920 kJ/mol
# Density = 2.260891 g / cm^3
# Si number density = 22.660484 Si / 1000 Ang^3
#
#
#
# Elastic Constant Matrix: (Units=GPa)
#
#
# Indices 1 2 3 4 5 6 
#
# 1 38.6155 23.0217 32.3172 0.0000 12.0879 0.0000
# 2 23.0217 169.1355 75.9301 0.0000 22.9109 0.0000
# 3 32.3172 75.9301 167.9892 0.0000 24.7362 0.0000
# 4 0.0000 0.0000 0.0000 22.9323 0.0000 13.9933
# 5 12.0879 22.9109 24.7362 0.0000 35.6824 0.0000
# 6 0.0000 0.0000 0.0000 13.9933 0.0000 14.8045
#
#
#
# Elastic Compliance Matrix: (Units=1/GPa)
#
#
# Indices 1 2 3 4 5 6 
#
# 1 0.032819 -0.001441 -0.004634 0.000000 -0.006980 0.000000
# 2 -0.001441 0.007725 -0.002846 0.000000 -0.002499 0.000000
# 3 -0.004634 -0.002846 0.008498 0.000000 -0.002493 0.000000
# 4 0.000000 0.000000 0.000000 0.103031 0.000000 -0.097386
# 5 -0.006980 -0.002499 -0.002493 0.000000 0.033722 0.000000
# 6 0.000000 0.000000 0.000000 -0.097386 0.000000 0.159596
#
#
# Mechanical properties :
#
#
# Convention : Reuss Voigt Hill
#
# Bulk Modulus (GPa) = 32.05343 70.91977 51.48660
# Shear Modulus (GPa) = 13.38205 30.98194 22.18199
#
# Velocity S-wave (km/s) = 2.43275 3.70161 3.13211
# Velocity P-wave (km/s) = 4.69753 7.04513 5.98751
#
# Compressibility (1/GPa) = 0.03119791
#
# Stress axis : x y z
#
# Youngs Moduli (GPa) = 30.47018 129.45173 117.67370
#
# Poissons Ratio (x) = 0.18655 0.54536
# Poissons Ratio (y) = 0.04391 0.33495
# Poissons Ratio (z) = 0.14121 0.36848
#
# Static dielectric constant tensor:
#      x y z
#    x 1.898710 0.000000 -0.021670 
#    y 0.000000 1.846070 0.000000 
#    z -0.021670 0.000000 1.921250 
# 
# From -- ./inp_files/71972.got.cif
#   From: 2010.05.17/outbox.cif.g08.bks.cpg/sg13_36_cif.got.tgz:71972.got - 2010.06.03 16:44:36.
