data_PCOD9230861
_publ_section_title
;
Structure prediction by ZEFSAII (Michael W. Deem and Ramdas Pophale) SiO2 
 PCOD9230861
Probable space group: P 2/C
;
_chemical_formula_sum "Si O2"
_cell_formula_units_Z 32
_cell_length_a 29.558525
_cell_length_b 7.756043
_cell_length_c 12.929281
_cell_angle_alpha 90.000000
_cell_angle_beta 30.672544
_cell_angle_gamma 90.000000
_cell_volume 1512.094396
_symmetry_space_group_name_H-M "P 2/C"
_symmetry_group_IT_number 13
_symmetry_cell_setting 'monoclinic'
loop_
_space_group_symop_operation_xyz
x,y,z
-x,y,1/2-z
-x,-y,-z
x,-y,1/2+z
loop_
_atom_site_type_symbol
_atom_site_label
_atom_site_fract_x
_atom_site_fract_y
_atom_site_fract_z
Si Si1 0.810907 0.949415 0.339914
Si Si2 0.885955 0.732960 0.580943
Si Si3 0.453635 0.734259 0.180467
Si Si4 0.390663 0.652839 0.757045
Si Si5 0.909186 0.689052 0.296343
Si Si6 0.672983 0.848824 0.244182
Si Si7 0.222654 0.532922 0.541437
Si Si8 0.364344 0.044880 0.454418
O O1 0.876831 0.088075 0.159334
O O2 0.748628 0.024482 0.553522
O O3 0.873804 0.810139 0.272580
O O4 0.735583 0.944639 0.396686
O O5 0.876989 0.746831 0.474386
O O6 0.811698 0.614789 0.783431
O O7 0.985544 0.668434 0.405868
O O8 0.418566 0.535925 0.246360
O O9 0.409742 0.834974 0.169985
O O10 0.413676 0.859658 0.346439
O O11 0.556440 0.705792 0.950812
O O12 0.410706 0.802156 0.799083
O O13 0.286549 0.629029 0.938928
O O14 0.861566 0.511474 0.361564
O O15 0.641328 0.901331 0.417124
O O16 0.717743 0.662515 0.142266
#
# Coordination Sequence:
#
# PCOD9230861 Si02
#       8
#     4   4   4   4   4   4   4   4
#     4  10  20  38  58  85 121 159 200 253 308 369
#     4  10  23  38  58  89 122 155 206 260 311 374
#     4   9  21  40  60  87 127 157 200 257 302 361
#     4  10  20  38  62  86 119 164 199 250 310 360
#     4  11  21  37  62  87 117 163 203 252 321 379
#     4   9  21  37  58  89 119 158 200 254 302 360
#     4  10  21  39  59  88 125 156 202 259 307 376
#     4  11  20  37  63  90 120 161 203 251 304 367
#
# _framework density 21.162699
#
# number of rings (size 3 to 8) (size 9 to 14) (size 15 to 20)
#    0.000    2.000    1.250    2.625    1.750    0.500 
#    0.000    0.000    0.000   13.500    0.000    0.000 
#    0.000    0.000    0.000    0.000    0.000    0.000 
#
# Total GULP energy -178321.612496 kJ/mol
# GULP energy per Si atom -5572.550390 kJ/mol
# Density = 2.111453 g / cm^3
# Si number density = 21.162699 Si / 1000 Ang^3
#
#
#
# Elastic Constant Matrix: (Units=GPa)
#
#
# Indices 1 2 3 4 5 6 
#
# 1 51.7217 6.6819 21.8973 0.0000 6.1050 0.0000
# 2 6.6819 64.1311 22.5476 0.0000 7.4754 0.0000
# 3 21.8973 22.5476 90.7058 0.0000 9.5187 0.0000
# 4 0.0000 0.0000 0.0000 -147.6556 0.0000 25.4046
# 5 6.1050 7.4754 9.5187 0.0000 16.1698 0.0000
# 6 0.0000 0.0000 0.0000 25.4046 0.0000 5.4983
#
#
#
# Elastic Compliance Matrix: (Units=1/GPa)
#
#
# Indices 1 2 3 4 5 6 
#
# 1 0.021988 0.000017 -0.004733 0.000000 -0.005523 0.000000
# 2 0.000017 0.017604 -0.003757 0.000000 -0.005933 0.000000
# 3 -0.004733 -0.003757 0.013570 0.000000 -0.004464 0.000000
# 4 0.000000 0.000000 0.000000 -0.003773 0.000000 0.017433
# 5 -0.005523 -0.005933 -0.004464 0.000000 0.069300 0.000000
# 6 0.000000 0.000000 0.000000 0.017433 0.000000 0.101324
#
#
# Mechanical properties :
#
#
# Convention : Reuss Voigt Hill
#
# Bulk Modulus (GPa) = 27.61301 34.31248 30.96274
# Shear Modulus (GPa) = 20.07786 -14.83537 2.62124
#
# Velocity S-wave (km/s) = 3.08350 -2.65054 1.11414
# Velocity P-wave (km/s) = 5.07480 2.62330 4.03951
#
# Compressibility (1/GPa) = 0.03621481
#
# Stress axis : x y z
#
# Youngs Moduli (GPa) = 45.48006 56.80544 73.69385
#
# Poissons Ratio (x) = -0.00096 0.34876
# Poissons Ratio (y) = -0.00077 0.27690
# Poissons Ratio (z) = 0.21524 0.21344
#
# Static dielectric constant tensor:
#      x y z
#    x 1.766630 0.000000 -0.035980 
#    y 0.000000 1.838350 0.000000 
#    z -0.035980 0.000000 1.802160 
# 
# From -- ./inp_files/42755.got.cif
#   From: 2010.05.17/outbox.cif.g08.bks.cpg/sg13_22_cif.got.tgz:42755.got - 2010.06.03 16:44:36.
