data_PCOD9230801
_publ_section_title
;
Structure prediction by ZEFSAII (Michael W. Deem and Ramdas Pophale) SiO2 
 PCOD9230801
Probable space group: P 2/C
;
_chemical_formula_sum "Si O2"
_cell_formula_units_Z 26
_cell_length_a 9.081789
_cell_length_b 8.091389
_cell_length_c 14.696624
_cell_angle_alpha 90.000000
_cell_angle_beta 97.949995
_cell_angle_gamma 90.000000
_cell_volume 1069.591512
_symmetry_space_group_name_H-M "P 2/C"
_symmetry_group_IT_number 13
_symmetry_cell_setting 'monoclinic'
loop_
_space_group_symop_operation_xyz
x,y,z
-x,y,1/2-z
-x,-y,-z
x,-y,1/2+z
loop_
_atom_site_type_symbol
_atom_site_label
_atom_site_fract_x
_atom_site_fract_y
_atom_site_fract_z
Si Si1 0.362703 0.923935 0.701793
Si Si2 0.138775 0.545939 0.078321
Si Si3 0.000000 0.566115 0.750000
Si Si4 0.211033 0.084368 0.936547
Si Si5 0.108610 0.908053 0.104730
Si Si6 0.713805 0.730832 0.637605
Si Si7 0.408492 0.311254 0.043075
O O1 0.500000 0.028116 0.750000
O O2 0.345496 0.767861 0.766195
O O3 0.403211 0.851933 0.607529
O O4 0.214872 0.028125 0.692225
O O5 0.094161 0.525141 0.180172
O O6 0.167901 0.739236 0.066673
O O7 0.282961 0.436482 0.068346
O O8 0.000000 0.500000 0.000000
O O9 0.877868 0.660338 0.674801
O O10 0.056504 0.123924 0.874294
O O11 0.270712 0.910388 0.907246
O O12 0.334003 0.227947 0.947367
O O13 0.136018 0.051660 0.031045
O O14 0.581373 0.635313 0.570845
#
# Coordination Sequence:
#
# PCOD9230801 Si02
#       7
#     4   4   2   4   4   4   4
#     4   9  19  37  59  89 118 158 209 264 322 382
#     4  12  24  44  65  93 136 178 217 276 337 408
#     4  12  26  40  64 100 126 174 232 256 340 410
#     4  10  20  37  66  94 116 165 221 271 331 394
#     4  10  21  38  61  87 128 165 211 270 336 382
#     4  11  21  38  67  93 125 165 224 277 325 403
#     4  10  21  41  64  91 127 169 209 273 342 391
#
# _framework density 24.308344000000002
#
# number of rings (size 3 to 8) (size 9 to 14) (size 15 to 20)
#    0.000    1.538    3.077    2.308    2.154    1.231 
#    2.769    3.077    0.000    0.000    0.000    0.000 
#    0.000    0.000    0.000    0.000    0.000    0.000 
#
# Total GULP energy -144890.313897 kJ/mol
# GULP energy per Si atom -5572.704381 kJ/mol
# Density = 2.425302 g / cm^3
# Si number density = 24.308344 Si / 1000 Ang^3
#
#
#
# Elastic Constant Matrix: (Units=GPa)
#
#
# Indices 1 2 3 4 5 6 
#
# 1 148.7200 44.0165 42.8903 0.0000 47.1637 0.0000
# 2 44.0165 59.9036 3.8344 0.0000 10.1363 0.0000
# 3 42.8903 3.8344 55.2277 0.0000 2.8279 0.0000
# 4 0.0000 0.0000 0.0000 23.0589 0.0000 -3.8122
# 5 47.1637 10.1363 2.8279 0.0000 50.7992 0.0000
# 6 0.0000 0.0000 0.0000 -3.8122 0.0000 38.5189
#
#
#
# Elastic Compliance Matrix: (Units=1/GPa)
#
#
# Indices 1 2 3 4 5 6 
#
# 1 0.017391 -0.009712 -0.012139 0.000000 -0.013533 0.000000
# 2 -0.009712 0.022758 0.005749 0.000000 0.004156 0.000000
# 3 -0.012139 0.005749 0.026692 0.000000 0.008637 0.000000
# 4 0.000000 0.000000 0.000000 0.044088 0.000000 0.004363
# 5 -0.013533 0.004156 0.008637 0.000000 0.030940 0.000000
# 6 0.000000 0.000000 0.000000 0.004363 0.000000 0.026393
#
#
# Mechanical properties :
#
#
# Convention : Reuss Voigt Hill
#
# Bulk Modulus (GPa) = 28.86876 49.48153 39.17514
# Shear Modulus (GPa) = 23.58366 34.01606 28.79986
#
# Velocity S-wave (km/s) = 3.11816 3.74486 3.44579
# Velocity P-wave (km/s) = 4.98656 6.25289 5.65528
#
# Compressibility (1/GPa) = 0.03463952
#
# Stress axis : x y z
#
# Youngs Moduli (GPa) = 57.50182 43.93986 37.46388
#
# Poissons Ratio (x) = 0.42673 0.45476
# Poissons Ratio (y) = 0.55844 -0.21539
# Poissons Ratio (z) = 0.69799 -0.25262
#
# Static dielectric constant tensor:
#      x y z
#    x 2.179160 0.000000 0.093660 
#    y 0.000000 1.903500 0.000000 
#    z 0.093660 0.000000 2.142030 
# 
# From -- ./inp_files/63875.got.cif
#   From: 2010.05.17/outbox.cif.g08.bks.cpg/sg13_32_cif.got.tgz:63875.got - 2010.06.03 16:44:36.
