data_PCOD9230652
_publ_section_title
;
Structure prediction by ZEFSAII (Michael W. Deem and Ramdas Pophale) SiO2 
 PCOD9230652
Probable space group: P 2/C
;
_chemical_formula_sum "Si O2"
_cell_formula_units_Z 28
_cell_length_a 7.541114
_cell_length_b 18.309639
_cell_length_c 18.844412
_cell_angle_alpha 90.000000
_cell_angle_beta 148.753195
_cell_angle_gamma 90.000000
_cell_volume 1349.694715
_symmetry_space_group_name_H-M "P 2/C"
_symmetry_group_IT_number 13
_symmetry_cell_setting 'monoclinic'
loop_
_space_group_symop_operation_xyz
x,y,z
-x,y,1/2-z
-x,-y,-z
x,-y,1/2+z
loop_
_atom_site_type_symbol
_atom_site_label
_atom_site_fract_x
_atom_site_fract_y
_atom_site_fract_z
Si Si1 0.727655 0.737768 0.215888
Si Si2 0.670962 0.401689 0.884941
Si Si3 0.133602 0.071188 0.086189
Si Si4 0.202395 0.707104 0.746634
Si Si5 0.224877 0.802442 0.500527
Si Si6 0.700236 0.170536 0.026715
Si Si7 0.456972 0.556262 0.653897
O O1 0.449228 0.673679 0.122279
O O2 0.561306 0.809089 0.124816
O O3 0.000000 0.712116 0.250000
O O4 0.917616 0.762035 0.353146
O O5 0.500000 0.394854 0.750000
O O6 0.534839 0.475525 0.878554
O O7 0.075597 0.412584 0.013382
O O8 0.500000 0.061936 0.250000
O O9 0.138850 0.133927 0.026618
O O10 0.888678 0.097891 0.066483
O O11 0.000000 0.000000 0.000000
O O12 0.571004 0.742815 0.883957
O O13 0.269028 0.621202 0.758735
O O14 0.000000 0.710417 0.750000
O O15 0.981768 0.763704 0.624567
O O16 0.488579 0.829683 0.528312
O O17 0.500000 0.536140 0.750000
#
# Coordination Sequence:
#
# PCOD9230652 Si02
#       7
#     4   4   4   4   4   4   4
#     4  10  22  38  61  91 122 166 214 259 316 367
#     4  10  21  35  52  84 125 163 206 265 317 364
#     4  12  28  45  69 101 127 165 205 243 313 384
#     4  10  20  37  61  87 116 162 214 257 309 366
#     4  10  23  43  64  94 129 160 211 261 308 372
#     4  10  23  42  65  94 126 164 207 261 310 364
#     4  10  21  34  53  84 121 164 211 257 318 368
#
# _framework density 20.745432999999998
#
# number of rings (size 3 to 8) (size 9 to 14) (size 15 to 20)
#    0.000    1.714    1.429    1.714    8.000    1.143 
#    0.000    0.000    0.000   10.286    0.000    0.000 
#    0.000    0.000    0.000    0.000    0.000    0.000 
#
# Total GULP energy -155986.937621 kJ/mol
# GULP energy per Si atom -5570.962058 kJ/mol
# Density = 2.069822 g / cm^3
# Si number density = 20.745433 Si / 1000 Ang^3
#
#
#
# Elastic Constant Matrix: (Units=GPa)
#
#
# Indices 1 2 3 4 5 6 
#
# 1 44.0899 29.1612 3.8807 0.0000 3.6432 0.0000
# 2 29.1612 93.6463 -14.9579 0.0000 -2.9615 0.0000
# 3 3.8807 -14.9579 60.0738 0.0000 -10.8256 0.0000
# 4 0.0000 0.0000 0.0000 23.5281 0.0000 6.8370
# 5 3.6432 -2.9615 -10.8256 0.0000 19.4403 0.0000
# 6 0.0000 0.0000 0.0000 6.8370 0.0000 -94.1446
#
#
#
# Elastic Compliance Matrix: (Units=1/GPa)
#
#
# Indices 1 2 3 4 5 6 
#
# 1 0.031772 -0.011373 -0.006969 0.000000 -0.011567 0.000000
# 2 -0.011373 0.015422 0.005983 0.000000 0.007812 0.000000
# 3 -0.006969 0.005983 0.021103 0.000000 0.013969 0.000000
# 4 0.000000 0.000000 0.000000 0.041624 0.000000 0.003023
# 5 -0.011567 0.007812 0.013969 0.000000 0.062576 0.000000
# 6 0.000000 0.000000 0.000000 0.003023 0.000000 -0.010402
#
#
# Mechanical properties :
#
#
# Convention : Reuss Voigt Hill
#
# Bulk Modulus (GPa) = 22.94609 25.99755 24.47182
# Shear Modulus (GPa) = 24.83367 1.74649 13.29008
#
# Velocity S-wave (km/s) = 3.46362 0.91853 2.53381
# Velocity P-wave (km/s) = 5.20388 3.69917 4.51465
#
# Compressibility (1/GPa) = 0.04358042
#
# Stress axis : x y z
#
# Youngs Moduli (GPa) = 31.47435 64.84042 47.38609
#
# Poissons Ratio (x) = 0.73740 0.33021
# Poissons Ratio (y) = 0.35794 -0.28349
# Poissons Ratio (z) = 0.21933 -0.38791
#
# Static dielectric constant tensor:
#      x y z
#    x 1.832020 0.000000 0.106240 
#    y 0.000000 1.879020 0.000000 
#    z 0.106240 0.000000 1.851930 
# 
# From -- ./inp_files/76752.got.cif
#   From: 2010.05.17/outbox.cif.g08.bks.cpg/sg13_39_cif.got.tgz:76752.got - 2010.06.03 16:44:36.
