data_PCOD9230605
_publ_section_title
;
Structure prediction by ZEFSAII (Michael W. Deem and Ramdas Pophale) SiO2 
 PCOD9230605
Probable space group: P 2/C
;
_chemical_formula_sum "Si O2"
_cell_formula_units_Z 20
_cell_length_a 12.106168
_cell_length_b 6.280229
_cell_length_c 15.981410
_cell_angle_alpha 90.000000
_cell_angle_beta 133.753544
_cell_angle_gamma 90.000000
_cell_volume 877.662664
_symmetry_space_group_name_H-M "P 2/C"
_symmetry_group_IT_number 13
_symmetry_cell_setting 'monoclinic'
loop_
_space_group_symop_operation_xyz
x,y,z
-x,y,1/2-z
-x,-y,-z
x,-y,1/2+z
loop_
_atom_site_type_symbol
_atom_site_label
_atom_site_fract_x
_atom_site_fract_y
_atom_site_fract_z
Si Si1 0.433476 0.405707 0.084539
Si Si2 0.051727 0.364637 0.655218
Si Si3 0.198723 0.031426 0.932161
Si Si4 0.789601 0.655111 0.432766
Si Si5 0.719354 0.335129 0.140012
O O1 0.358744 0.508473 0.128115
O O2 0.609102 0.340463 0.162986
O O3 0.335889 0.199512 0.007939
O O4 0.387179 0.585885 0.992050
O O5 0.166774 0.307056 0.640141
O O6 0.148103 0.493580 0.774217
O O7 0.956536 0.163414 0.636717
O O8 0.927463 0.525237 0.549750
O O9 0.212431 0.887069 0.856169
O O10 0.218678 0.875093 0.021698
#
# Coordination Sequence:
#
# PCOD9230605 Si02
#       5
#     4   4   4   4   4
#     4   9  20  37  57  83 116 153 193 238 291 351
#     4  10  21  36  57  86 117 150 192 243 294 348
#     4  10  20  37  60  83 116 156 194 239 294 353
#     4   9  20  37  57  83 116 153 193 238 291 351
#     4  10  21  36  57  86 117 150 192 243 294 348
#
# _framework density 22.787799
#
# number of rings (size 3 to 8) (size 9 to 14) (size 15 to 20)
#    0.000    2.400    0.000    1.200    0.000   11.200 
#    0.000    0.000    0.000   21.600    0.000    0.000 
#    0.000    0.000    0.000    0.000    0.000    0.000 
#
# Total GULP energy -111779.472719 kJ/mol
# GULP energy per Si atom -5588.973636 kJ/mol
# Density = 2.273593 g / cm^3
# Si number density = 22.787799 Si / 1000 Ang^3
#
#
#
# Elastic Constant Matrix: (Units=GPa)
#
#
# Indices 1 2 3 4 5 6 
#
# 1 182.7977 72.2078 30.4348 0.0000 20.1300 0.0000
# 2 72.2078 133.1468 16.7977 0.0000 15.3682 0.0000
# 3 30.4348 16.7977 46.4153 0.0000 10.5370 0.0000
# 4 0.0000 0.0000 0.0000 12.6383 0.0000 -2.6868
# 5 20.1300 15.3682 10.5370 0.0000 25.6665 0.0000
# 6 0.0000 0.0000 0.0000 -2.6868 0.0000 28.8814
#
#
#
# Elastic Compliance Matrix: (Units=1/GPa)
#
#
# Indices 1 2 3 4 5 6 
#
# 1 0.007649 -0.003444 -0.003171 0.000000 -0.002635 0.000000
# 2 -0.003444 0.009793 -0.000626 0.000000 -0.002905 0.000000
# 3 -0.003171 -0.000626 0.025585 0.000000 -0.007642 0.000000
# 4 0.000000 0.000000 0.000000 0.080721 0.000000 0.007509
# 5 -0.002635 -0.002905 -0.007642 0.000000 0.045905 0.000000
# 6 0.000000 0.000000 0.000000 0.007509 0.000000 0.035323
#
#
# Mechanical properties :
#
#
# Convention : Reuss Voigt Hill
#
# Bulk Modulus (GPa) = 35.03276 66.80448 50.91862
# Shear Modulus (GPa) = 21.83664 29.63187 25.73425
#
# Velocity S-wave (km/s) = 3.09894 3.60993 3.36415
# Velocity P-wave (km/s) = 5.31144 6.83777 6.12235
#
# Compressibility (1/GPa) = 0.02854471
#
# Stress axis : x y z
#
# Youngs Moduli (GPa) = 130.73423 102.11797 39.08509
#
# Poissons Ratio (x) = 0.35170 0.12394
# Poissons Ratio (y) = 0.45025 0.02447
# Poissons Ratio (z) = 0.41455 0.06394
#
# Static dielectric constant tensor:
#      x y z
#    x 1.942990 0.000000 -0.020180 
#    y 0.000000 1.801890 0.000000 
#    z -0.020180 0.000000 1.839060 
# 
# From -- ./inp_files/65250.got.cif
#   From: 2010.05.17/outbox.cif.g08.bks.cpg/sg13_33_cif.got.tgz:65250.got - 2010.06.03 16:44:36.
