data_PCOD9230327
_publ_section_title
;
Structure prediction by ZEFSAII (Michael W. Deem and Ramdas Pophale) SiO2 
 PCOD9230327
Probable space group: P 2/C
;
_chemical_formula_sum "Si O2"
_cell_formula_units_Z 28
_cell_length_a 5.861745
_cell_length_b 15.084046
_cell_length_c 16.532272
_cell_angle_alpha 90.000000
_cell_angle_beta 116.213779
_cell_angle_gamma 90.000000
_cell_volume 1311.424890
_symmetry_space_group_name_H-M "P 2/C"
_symmetry_group_IT_number 13
_symmetry_cell_setting 'monoclinic'
loop_
_space_group_symop_operation_xyz
x,y,z
-x,y,1/2-z
-x,-y,-z
x,-y,1/2+z
loop_
_atom_site_type_symbol
_atom_site_label
_atom_site_fract_x
_atom_site_fract_y
_atom_site_fract_z
Si Si1 0.500000 0.715025 0.250000
Si Si2 0.011391 0.644481 0.348701
Si Si3 0.937897 0.855940 0.538321
Si Si4 0.368534 0.802513 0.388920
Si Si5 0.500000 0.563401 0.750000
Si Si6 0.024614 0.692154 0.660762
Si Si7 0.787193 0.966090 0.062802
Si Si8 0.683702 0.473534 0.101236
O O1 0.381938 0.775320 0.299054
O O2 0.723736 0.662220 0.329966
O O3 0.211121 0.721289 0.406542
O O4 0.093477 0.544908 0.377687
O O5 0.000000 0.649379 0.250000
O O6 0.653842 0.822889 0.466856
O O7 0.050488 0.771411 0.601400
O O8 0.091913 0.903345 0.489148
O O9 0.925927 0.940992 0.595934
O O10 0.224036 0.895317 0.368967
O O11 0.421847 0.515691 0.822792
O O12 0.735960 0.627056 0.807076
O O13 0.784388 0.626741 0.608734
O O14 0.000000 0.724373 0.750000
O O15 0.500000 0.000000 0.000000
O O16 0.500000 0.500000 0.000000
#
# Coordination Sequence:
#
# PCOD9230327 Si02
#       8
#     2   4   4   4   2   4   4   4
#     4  10  22  37  58  87 124 164 196 251 314 363
#     4  10  21  37  60  87 123 162 200 249 310 374
#     4  10  20  39  63  87 120 162 205 256 316 369
#     4  10  20  36  60  89 120 156 204 252 305 371
#     4  10  24  43  62  89 132 168 208 267 320 377
#     4  10  23  42  64  92 126 162 206 262 320 383
#     4   9  20  37  60  88 120 160 206 257 309 374
#     4  11  24  42  65  94 125 166 215 263 318 387
#
# _framework density 21.350822000000001
#
# number of rings (size 3 to 8) (size 9 to 14) (size 15 to 20)
#    0.000    2.000    0.000    3.000    0.000   12.571 
#    0.000    9.286    0.000    0.857    0.000    0.000 
#    0.000    0.000    0.000    0.000    0.000    0.000 
#
# Total GULP energy -155992.163389 kJ/mol
# GULP energy per Si atom -5571.148692 kJ/mol
# Density = 2.130223 g / cm^3
# Si number density = 21.350822 Si / 1000 Ang^3
#
#
#
# Elastic Constant Matrix: (Units=GPa)
#
#
# Indices 1 2 3 4 5 6 
#
# 1 78.3407 49.8350 23.9701 0.0000 9.1623 0.0000
# 2 49.8350 153.4021 53.4658 0.0000 -3.9980 0.0000
# 3 23.9701 53.4658 76.9254 0.0000 9.1676 0.0000
# 4 0.0000 0.0000 0.0000 18.8636 0.0000 -12.1667
# 5 9.1623 -3.9980 9.1676 0.0000 15.9894 0.0000
# 6 0.0000 0.0000 0.0000 -12.1667 0.0000 29.5132
#
#
#
# Elastic Compliance Matrix: (Units=1/GPa)
#
#
# Indices 1 2 3 4 5 6 
#
# 1 0.018096 -0.006235 0.000125 0.000000 -0.012000 0.000000
# 2 -0.006235 0.011321 -0.007179 0.000000 0.010520 0.000000
# 3 0.000125 -0.007179 0.019506 0.000000 -0.013050 0.000000
# 4 0.000000 0.000000 0.000000 0.072213 0.000000 0.029770
# 5 -0.012000 0.010520 -0.013050 0.000000 0.079530 0.000000
# 6 0.000000 0.000000 0.000000 0.029770 0.000000 0.046156
#
#
# Mechanical properties :
#
#
# Convention : Reuss Voigt Hill
#
# Bulk Modulus (GPa) = 44.75456 62.57890 53.66673
# Shear Modulus (GPa) = 17.80318 24.96639 21.38479
#
# Velocity S-wave (km/s) = 2.89076 3.42327 3.16823
# Velocity P-wave (km/s) = 5.67001 6.70809 6.21078
#
# Compressibility (1/GPa) = 0.02234409
#
# Stress axis : x y z
#
# Youngs Moduli (GPa) = 55.25957 88.33362 51.26728
#
# Poissons Ratio (x) = 0.55078 -0.00640
# Poissons Ratio (y) = 0.34455 0.36805
# Poissons Ratio (z) = -0.00690 0.63415
#
# Static dielectric constant tensor:
#      x y z
#    x 2.019470 0.000000 0.111510 
#    y 0.000000 1.795720 0.000000 
#    z 0.111510 0.000000 1.847620 
# 
# From -- ./inp_files/61712.got.cif
#   From: 2010.05.17/outbox.cif.g08.bks.cpg/sg13_31_cif.got.tgz:61712.got - 2010.06.03 16:44:36.
