data_PCOD9230998
_publ_section_title
;
Structure prediction by ZEFSAII (Michael W. Deem and Ramdas Pophale) SiO2 
 PCOD9230998
Probable space group: P 2/C
;
_chemical_formula_sum "Si O2"
_cell_formula_units_Z 32
_cell_length_a 10.961208
_cell_length_b 12.507409
_cell_length_c 21.381181
_cell_angle_alpha 90.000000
_cell_angle_beta 146.967929
_cell_angle_gamma 90.000000
_cell_volume 1597.865898
_symmetry_space_group_name_H-M "P 2/C"
_symmetry_group_IT_number 13
_symmetry_cell_setting 'monoclinic'
loop_
_space_group_symop_operation_xyz
x,y,z
-x,y,1/2-z
-x,-y,-z
x,-y,1/2+z
loop_
_atom_site_type_symbol
_atom_site_label
_atom_site_fract_x
_atom_site_fract_y
_atom_site_fract_z
Si Si1 0.860138 0.147885 0.532299
Si Si2 0.747761 0.245330 0.886476
Si Si3 0.414240 0.801085 0.776890
Si Si4 0.026080 0.067516 0.446856
Si Si5 0.693034 0.568225 0.150801
Si Si6 0.129535 0.663857 0.746193
Si Si7 0.786085 0.427451 0.996214
Si Si8 0.855444 0.361268 0.592044
O O1 0.633548 0.137963 0.394624
O O2 0.807913 0.238237 0.559871
O O3 0.062927 0.205427 0.580992
O O4 0.921777 0.028126 0.578694
O O5 0.500000 0.241127 0.750000
O O6 0.800636 0.363036 0.937252
O O7 0.788487 0.158628 0.960081
O O8 0.500000 0.743088 0.750000
O O9 0.205948 0.875922 0.669425
O O10 0.318755 0.729221 0.791399
O O11 0.000000 0.000000 0.500000
O O12 0.760335 0.444494 0.181786
O O13 0.698890 0.599901 0.081141
O O14 0.893194 0.626410 0.273845
O O15 0.463716 0.590364 0.086486
O O16 0.000000 0.714265 0.750000
O O17 0.954938 0.628174 0.617510
O O18 0.827240 0.555399 0.022053
#
# Coordination Sequence:
#
# PCOD9230998 Si02
#       8
#     4   4   4   4   4   4   4   4
#     4  11  24  38  65  93 124 168 216 265 324 386
#     4  11  23  39  61  91 129 172 211 268 337 383
#     4  12  22  42  66 101 127 168 223 277 329 392
#     4  10  22  39  63  91 123 169 221 265 328 392
#     4  10  20  38  62  88 123 177 210 250 317 403
#     4  11  22  39  66  98 130 172 220 270 325 392
#     4  11  20  37  61  90 127 162 216 263 321 389
#     4  10  21  38  59  91 121 165 218 249 312 394
#
# _framework density 20.026712
#
# number of rings (size 3 to 8) (size 9 to 14) (size 15 to 20)
#    0.000    1.250    6.250    1.875    5.250    0.500 
#    0.000    5.000    2.750    1.500    0.000    0.000 
#    0.000    0.000    0.000    0.000    0.000    0.000 
#
# Total GULP energy -178461.233657 kJ/mol
# GULP energy per Si atom -5576.913552 kJ/mol
# Density = 1.998113 g / cm^3
# Si number density = 20.026712 Si / 1000 Ang^3
#
#
#
# Elastic Constant Matrix: (Units=GPa)
#
#
# Indices 1 2 3 4 5 6 
#
# 1 76.7874 26.1894 13.5087 0.0000 8.3347 0.0000
# 2 26.1894 92.0912 16.3911 0.0000 -16.3936 0.0000
# 3 13.5087 16.3911 114.9544 0.0000 9.2884 0.0000
# 4 0.0000 0.0000 0.0000 12.1352 0.0000 -4.6330
# 5 8.3347 -16.3936 9.2884 0.0000 22.2010 0.0000
# 6 0.0000 0.0000 0.0000 -4.6330 0.0000 29.9180
#
#
#
# Elastic Compliance Matrix: (Units=1/GPa)
#
#
# Indices 1 2 3 4 5 6 
#
# 1 0.016508 -0.006647 -0.000098 0.000000 -0.011065 0.000000
# 2 -0.006647 0.015989 -0.002747 0.000000 0.015451 0.000000
# 3 -0.000098 -0.002747 0.009587 0.000000 -0.006003 0.000000
# 4 0.000000 0.000000 0.000000 0.087583 0.000000 0.013563
# 5 -0.011065 0.015451 -0.006003 0.000000 0.063118 0.000000
# 6 0.000000 0.000000 0.000000 0.013563 0.000000 0.035525
#
#
# Mechanical properties :
#
#
# Convention : Reuss Voigt Hill
#
# Bulk Modulus (GPa) = 43.29037 44.00125 43.64581
# Shear Modulus (GPa) = 19.60828 28.03376 23.82102
#
# Velocity S-wave (km/s) = 3.13246 3.74547 3.45260
# Velocity P-wave (km/s) = 5.89460 6.38152 6.14289
#
# Compressibility (1/GPa) = 0.02309983
#
# Stress axis : x y z
#
# Youngs Moduli (GPa) = 60.57574 62.54478 104.30385
#
# Poissons Ratio (x) = 0.41573 0.01024
# Poissons Ratio (y) = 0.40264 0.28653
# Poissons Ratio (z) = 0.00594 0.17182
#
# Static dielectric constant tensor:
#      x y z
#    x 1.773570 0.000000 -0.024780 
#    y 0.000000 1.760020 0.000000 
#    z -0.024780 0.000000 1.731970 
# 
# From -- ./inp_files/86601.got.cif
#   From: 2010.05.17/outbox.cif.g08.bks.cpg/sg13_44_cif.got.tgz:86601.got - 2010.06.03 16:44:36.
