data_PCOD9230541
_publ_section_title
;
Structure prediction by ZEFSAII (Michael W. Deem and Ramdas Pophale) SiO2 
 PCOD9230541
Probable space group: P 2/C
;
_chemical_formula_sum "Si O2"
_cell_formula_units_Z 24
_cell_length_a 11.647632
_cell_length_b 16.025764
_cell_length_c 15.395297
_cell_angle_alpha 90.000000
_cell_angle_beta 154.901271
_cell_angle_gamma 90.000000
_cell_volume 1218.972650
_symmetry_space_group_name_H-M "P 2/C"
_symmetry_group_IT_number 13
_symmetry_cell_setting 'monoclinic'
loop_
_space_group_symop_operation_xyz
x,y,z
-x,y,1/2-z
-x,-y,-z
x,-y,1/2+z
loop_
_atom_site_type_symbol
_atom_site_label
_atom_site_fract_x
_atom_site_fract_y
_atom_site_fract_z
Si Si1 0.159427 0.542052 0.213824
Si Si2 0.334783 0.402831 0.225680
Si Si3 0.495183 0.129522 0.938418
Si Si4 0.469979 0.315783 0.480456
Si Si5 0.000000 0.415687 0.250000
Si Si6 0.941099 0.994542 0.808964
Si Si7 0.500000 0.924722 0.250000
O O1 0.385378 0.485417 0.320071
O O2 0.280248 0.620449 0.346133
O O3 0.997095 0.478477 0.165146
O O4 0.971422 0.582582 0.012577
O O5 0.500000 0.397989 0.250000
O O6 0.361835 0.325196 0.308241
O O7 0.244544 0.067180 0.780292
O O8 0.530421 0.128529 0.858576
O O9 0.456915 0.222478 0.945477
O O10 0.750709 0.087393 0.164010
O O11 0.250216 0.354828 0.397129
O O12 0.000000 0.019967 0.750000
O O13 0.219574 0.978098 0.051970
#
# Coordination Sequence:
#
# PCOD9230541 Si02
#       7
#     4   4   4   4   2   4   2
#     4  10  20  37  57  85 115 162 206 249 303 353
#     4  10  20  37  58  81 116 160 203 245 298 361
#     4  10  22  40  62  95 130 156 204 253 310 366
#     4  11  23  37  61  89 122 158 203 258 304 352
#     4  10  20  38  62  82 120 166 206 254 306 358
#     4   9  20  41  67  90 127 167 193 246 309 380
#     4  10  20  38  70  94 118 168 204 240 308 372
#
# _framework density 19.688711999999999
#
# number of rings (size 3 to 8) (size 9 to 14) (size 15 to 20)
#    0.000    2.000    0.000    4.500    3.500    1.333 
#   12.000    0.000    7.333    0.000    0.000    0.000 
#    0.000    0.000    0.000    0.000    0.000    0.000 
#
# Total GULP energy -133731.696200 kJ/mol
# GULP energy per Si atom -5572.154008 kJ/mol
# Density = 1.964390 g / cm^3
# Si number density = 19.688712 Si / 1000 Ang^3
#
#
#
# Elastic Constant Matrix: (Units=GPa)
#
#
# Indices 1 2 3 4 5 6 
#
# 1 95.0076 39.5060 10.4889 0.0000 -9.8407 0.0000
# 2 39.5060 112.2160 53.0354 0.0000 -18.0304 0.0000
# 3 10.4889 53.0354 114.5017 0.0000 -8.1798 0.0000
# 4 0.0000 0.0000 0.0000 2.6097 0.0000 -6.3335
# 5 -9.8407 -18.0304 -8.1798 0.0000 22.8292 0.0000
# 6 0.0000 0.0000 0.0000 -6.3335 0.0000 14.4496
#
#
#
# Elastic Compliance Matrix: (Units=1/GPa)
#
#
# Indices 1 2 3 4 5 6 
#
# 1 0.012539 -0.004603 0.001139 0.000000 0.002178 0.000000
# 2 -0.004603 0.014423 -0.005734 0.000000 0.007353 0.000000
# 3 0.001139 -0.005734 0.011285 0.000000 0.000006 0.000000
# 4 0.000000 0.000000 0.000000 -6.010355 0.000000 -2.634448
# 5 0.002178 0.007353 0.000006 0.000000 0.050552 0.000000
# 6 0.000000 0.000000 0.000000 -2.634448 0.000000 -1.085520
#
#
# Mechanical properties :
#
#
# Convention : Reuss Voigt Hill
#
# Bulk Modulus (GPa) = 50.37136 58.64288 54.50712
# Shear Modulus (GPa) = -0.71612 22.55736 10.92062
#
# Velocity S-wave (km/s) = -0.60375 3.38849 2.35769
# Velocity P-wave (km/s) = 5.01532 6.72003 5.92926
#
# Compressibility (1/GPa) = 0.01985255
#
# Stress axis : x y z
#
# Youngs Moduli (GPa) = 79.74949 69.33343 88.61066
#
# Poissons Ratio (x) = 0.31913 -0.10092
# Poissons Ratio (y) = 0.36707 0.50806
# Poissons Ratio (z) = -0.09082 0.39753
#
# Static dielectric constant tensor:
#      x y z
#    x 1.762350 0.000000 -0.008560 
#    y 0.000000 1.661750 0.000000 
#    z -0.008560 0.000000 1.853530 
# 
# From -- ./inp_files/51370.got.cif
#   From: 2010.05.17/outbox.cif.g08.bks.cpg/sg13_26_cif.got.tgz:51370.got - 2010.06.03 16:44:36.
