data_PCOD9230174
_publ_section_title
;
Structure prediction by ZEFSAII (Michael W. Deem and Ramdas Pophale) SiO2 
 PCOD9230174
Probable space group: P 2/C
;
_chemical_formula_sum "Si O2"
_cell_formula_units_Z 22
_cell_length_a 8.660835
_cell_length_b 15.951522
_cell_length_c 8.508844
_cell_angle_alpha 90.000000
_cell_angle_beta 50.348162
_cell_angle_gamma 90.000000
_cell_volume 905.080494
_symmetry_space_group_name_H-M "P 2/C"
_symmetry_group_IT_number 13
_symmetry_cell_setting 'monoclinic'
loop_
_space_group_symop_operation_xyz
x,y,z
-x,y,1/2-z
-x,-y,-z
x,-y,1/2+z
loop_
_atom_site_type_symbol
_atom_site_label
_atom_site_fract_x
_atom_site_fract_y
_atom_site_fract_z
Si Si1 0.500000 0.973172 0.750000
Si Si2 0.792555 0.041521 0.300905
Si Si3 0.196754 0.268780 0.345801
Si Si4 0.110404 0.148442 0.844865
Si Si5 0.922148 0.412636 0.621894
Si Si6 0.607250 0.712886 0.429711
O O1 0.346327 0.918848 0.746255
O O2 0.632303 0.026131 0.543461
O O3 0.842290 0.949590 0.191390
O O4 0.000000 0.064833 0.250000
O O5 0.300576 0.278093 0.452201
O O6 0.050263 0.188552 0.432534
O O7 0.041220 0.344695 0.443236
O O8 0.370289 0.279546 0.105676
O O9 0.304613 0.206891 0.719111
O O10 0.000000 0.162226 0.750000
O O11 0.697937 0.372021 0.791175
O O12 0.000000 0.412138 0.750000
O O13 0.000000 0.500000 0.500000
#
# Coordination Sequence:
#
# PCOD9230174 Si02
#       6
#     2   4   4   4   4   4
#     4  10  22  36  54  82 114 148 186 230 282 346
#     4  10  20  36  56  80 112 147 185 230 281 336
#     4   8  14  26  44  68  94 122 163 214 258 302
#     4   8  15  26  46  73  95 125 167 216 264 313
#     4   9  17  28  43  65  94 126 162 207 258 311
#     4   8  14  26  44  68  94 121 165 214 254 309
#
# _framework density 24.307230000000001
#
# number of rings (size 3 to 8) (size 9 to 14) (size 15 to 20)
#    0.000    3.273    0.000    2.727    0.000    5.091 
#    0.000    0.000    0.000    4.364    0.000    0.000 
#    0.000    0.000    0.000    0.000    0.000    0.000 
#
# Total GULP energy -122672.786959 kJ/mol
# GULP energy per Si atom -5576.035771 kJ/mol
# Density = 2.425191 g / cm^3
# Si number density = 24.307230 Si / 1000 Ang^3
#
#
#
# Elastic Constant Matrix: (Units=GPa)
#
#
# Indices 1 2 3 4 5 6 
#
# 1 108.9532 37.6878 62.9178 0.0000 -8.9796 0.0000
# 2 37.6878 94.1311 62.3837 0.0000 -9.1785 0.0000
# 3 62.9178 62.3837 182.5214 0.0000 -51.8575 0.0000
# 4 0.0000 0.0000 0.0000 42.8393 0.0000 1.9364
# 5 -8.9796 -9.1785 -51.8575 0.0000 39.2506 0.0000
# 6 0.0000 0.0000 0.0000 1.9364 0.0000 7.2268
#
#
#
# Elastic Compliance Matrix: (Units=1/GPa)
#
#
# Indices 1 2 3 4 5 6 
#
# 1 0.012257 -0.002296 -0.004477 0.000000 -0.003647 0.000000
# 2 -0.002296 0.014751 -0.005474 0.000000 -0.004308 0.000000
# 3 -0.004477 -0.005474 0.013189 0.000000 0.015121 0.000000
# 4 0.000000 0.000000 0.000000 0.023629 0.000000 -0.006331
# 5 -0.003647 -0.004308 0.015121 0.000000 0.043613 0.000000
# 6 0.000000 0.000000 0.000000 -0.006331 0.000000 0.140070
#
#
# Mechanical properties :
#
#
# Convention : Reuss Voigt Hill
#
# Bulk Modulus (GPa) = 63.68274 79.06491 71.37383
# Shear Modulus (GPa) = 18.03505 32.70444 25.36975
#
# Velocity S-wave (km/s) = 2.72685 3.67203 3.23416
# Velocity P-wave (km/s) = 6.01417 7.11171 6.58584
#
# Compressibility (1/GPa) = 0.01570284
#
# Stress axis : x y z
#
# Youngs Moduli (GPa) = 81.58548 67.79369 75.82003
#
# Poissons Ratio (x) = 0.15567 0.33942
# Poissons Ratio (y) = 0.18734 0.41505
# Poissons Ratio (z) = 0.36523 0.37111
#
# Static dielectric constant tensor:
#      x y z
#    x 1.962830 0.000000 0.023090 
#    y 0.000000 1.990990 0.000000 
#    z 0.023090 0.000000 2.037230 
# 
# From -- ./inp_files/13049.got.cif
#   From: 2010.05.17/outbox.cif.g08.bks.cpg/sg13_7_cif.got.tgz:13049.got - 2010.06.03 16:44:36.
