data_PCOD9230889
_publ_section_title
;
Structure prediction by ZEFSAII (Michael W. Deem and Ramdas Pophale) SiO2 
 PCOD9230889
Probable space group: P 2/C
;
_chemical_formula_sum "Si O2"
_cell_formula_units_Z 24
_cell_length_a 7.757739
_cell_length_b 11.212214
_cell_length_c 16.996803
_cell_angle_alpha 90.000000
_cell_angle_beta 51.970677
_cell_angle_gamma 90.000000
_cell_volume 1164.534029
_symmetry_space_group_name_H-M "P 2/C"
_symmetry_group_IT_number 13
_symmetry_cell_setting 'monoclinic'
loop_
_space_group_symop_operation_xyz
x,y,z
-x,y,1/2-z
-x,-y,-z
x,-y,1/2+z
loop_
_atom_site_type_symbol
_atom_site_label
_atom_site_fract_x
_atom_site_fract_y
_atom_site_fract_z
Si Si1 0.112963 0.983193 0.091724
Si Si2 0.415527 0.740321 0.355455
Si Si3 0.338534 0.979367 0.196815
Si Si4 0.375049 0.804578 0.905358
Si Si5 0.429316 0.364188 0.015752
Si Si6 0.032835 0.254235 0.060507
O O1 0.262723 0.975853 0.127346
O O2 0.096739 0.120278 0.068883
O O3 0.869485 0.952295 0.189997
O O4 0.215413 0.897600 0.997276
O O5 0.500000 0.689348 0.250000
O O6 0.515148 0.685650 0.407406
O O7 0.158248 0.723596 0.442369
O O8 0.482689 0.878476 0.339661
O O9 0.436911 0.110124 0.181481
O O10 0.222778 0.739906 0.884030
O O11 0.475204 0.713012 0.939846
O O12 0.500000 0.500000 0.000000
O O13 0.166368 0.340591 0.081779
#
# Coordination Sequence:
#
# PCOD9230889 Si02
#       6
#     4   4   4   4   4   4
#     4  11  20  36  57  97 131 162 204 246 328 404
#     4  10  20  38  59  94 126 156 211 262 309 379
#     4  11  21  32  63  91 133 169 192 255 332 387
#     4  12  20  39  61  91 130 165 203 259 321 381
#     4  10  23  43  65  83 123 176 220 264 310 358
#     4  10  22  36  62  90 124 161 208 251 315 382
#
# _framework density 20.609100999999999
#
# number of rings (size 3 to 8) (size 9 to 14) (size 15 to 20)
#    1.000    0.333    5.000    2.000    2.333    0.667 
#    0.000    0.000    3.667    4.000    0.000    0.000 
#    0.000    0.000    0.000    0.000    0.000    0.000 
#
# Total GULP energy -133920.467283 kJ/mol
# GULP energy per Si atom -5580.019470 kJ/mol
# Density = 2.056219 g / cm^3
# Si number density = 20.609101 Si / 1000 Ang^3
#
#
#
# Elastic Constant Matrix: (Units=GPa)
#
#
# Indices 1 2 3 4 5 6 
#
# 1 136.3428 38.9710 2.0142 0.0000 6.2188 0.0000
# 2 38.9710 88.8798 -7.8099 0.0000 12.3995 0.0000
# 3 2.0142 -7.8099 37.3263 0.0000 6.0291 0.0000
# 4 0.0000 0.0000 0.0000 4.7701 0.0000 -8.1084
# 5 6.2188 12.3995 6.0291 0.0000 29.5454 0.0000
# 6 0.0000 0.0000 0.0000 -8.1084 0.0000 13.4509
#
#
#
# Elastic Compliance Matrix: (Units=1/GPa)
#
#
# Indices 1 2 3 4 5 6 
#
# 1 0.008443 -0.003826 -0.001270 0.000000 0.000088 0.000000
# 2 -0.003826 0.014123 0.004125 0.000000 -0.005964 0.000000
# 3 -0.001270 0.004125 0.028912 0.000000 -0.007364 0.000000
# 4 0.000000 0.000000 0.000000 -8.494116 0.000000 -5.120361
# 5 0.000088 -0.005964 -0.007364 0.000000 0.037833 0.000000
# 6 0.000000 0.000000 0.000000 -5.120361 0.000000 -3.012274
#
#
# Mechanical properties :
#
#
# Convention : Reuss Voigt Hill
#
# Bulk Modulus (GPa) = 20.18777 36.54439 28.36608
# Shear Modulus (GPa) = -0.43865 24.84486 12.20310
#
# Velocity S-wave (km/s) = -0.46185 3.47584 2.43600
# Velocity P-wave (km/s) = 3.08746 5.82059 4.65895
#
# Compressibility (1/GPa) = 0.04953494
#
# Stress axis : x y z
#
# Youngs Moduli (GPa) = 118.44518 70.80645 34.58810
#
# Poissons Ratio (x) = 0.27089 0.04393
# Poissons Ratio (y) = 0.45314 -0.14267
# Poissons Ratio (z) = 0.15045 -0.29205
#
# Static dielectric constant tensor:
#      x y z
#    x 1.781850 0.000000 -0.002830 
#    y 0.000000 1.705940 0.000000 
#    z -0.002830 0.000000 1.805220 
# 
# From -- ./inp_files/64210.got.cif
#   From: 2010.05.17/outbox.cif.g08.bks.cpg/sg13_33_cif.got.tgz:64210.got - 2010.06.03 16:44:36.
