data_PCOD9230826
_publ_section_title
;
Structure prediction by ZEFSAII (Michael W. Deem and Ramdas Pophale) SiO2 
 PCOD9230826
Probable space group: P 2/C
;
_chemical_formula_sum "Si O2"
_cell_formula_units_Z 28
_cell_length_a 6.445908
_cell_length_b 10.688003
_cell_length_c 23.520117
_cell_angle_alpha 90.000000
_cell_angle_beta 60.667903
_cell_angle_gamma 90.000000
_cell_volume 1412.649804
_symmetry_space_group_name_H-M "P 2/C"
_symmetry_group_IT_number 13
_symmetry_cell_setting 'monoclinic'
loop_
_space_group_symop_operation_xyz
x,y,z
-x,y,1/2-z
-x,-y,-z
x,-y,1/2+z
loop_
_atom_site_type_symbol
_atom_site_label
_atom_site_fract_x
_atom_site_fract_y
_atom_site_fract_z
Si Si1 0.111121 0.549530 0.069997
Si Si2 0.542385 0.273177 0.915858
Si Si3 0.295817 0.966766 0.320709
Si Si4 0.987496 0.305524 0.473706
Si Si5 0.310113 0.928984 0.942474
Si Si6 0.356234 0.678545 0.320442
Si Si7 0.214408 0.011967 0.581823
O O1 0.341241 0.606167 0.069677
O O2 0.077781 0.401559 0.067553
O O3 0.876373 0.602913 0.131689
O O4 0.103667 0.612032 0.008498
O O5 0.528598 0.301174 0.850996
O O6 0.691364 0.150280 0.913023
O O7 0.267584 0.255838 0.970627
O O8 0.500000 0.013675 0.250000
O O9 0.277104 0.818166 0.313357
O O10 0.027582 0.018002 0.352740
O O11 0.349936 0.988495 0.380409
O O12 0.172197 0.193905 0.440220
O O13 0.577674 0.914710 0.931417
O O14 0.180697 0.978728 0.017784
O O15 0.500000 0.618594 0.250000
#
# Coordination Sequence:
#
# PCOD9230826 Si02
#       7
#     4   4   4   4   4   4   4
#     4  10  20  38  55  87 116 153 201 251 311 365
#     4  11  19  36  59  90 119 151 205 256 315 372
#     4  11  23  39  56  85 126 159 199 256 320 375
#     4  10  22  35  58  85 123 153 194 260 311 357
#     4  11  23  37  60  89 121 159 205 253 306 374
#     4  10  21  37  56  83 117 156 196 254 314 373
#     4  11  22  35  62  92 118 158 211 253 310 376
#
# _framework density 19.820906999999998
#
# number of rings (size 3 to 8) (size 9 to 14) (size 15 to 20)
#    0.000    1.429    4.286    1.714    4.000    1.143 
#    0.000    0.714    0.000    0.000    3.714    0.000 
#    0.000    0.000    0.000    0.000    0.000    0.000 
#
# Total GULP energy -156231.887577 kJ/mol
# GULP energy per Si atom -5579.710271 kJ/mol
# Density = 1.977579 g / cm^3
# Si number density = 19.820907 Si / 1000 Ang^3
#
#
#
# Elastic Constant Matrix: (Units=GPa)
#
#
# Indices 1 2 3 4 5 6 
#
# 1 96.4966 28.9176 34.1748 0.0000 -5.6065 0.0000
# 2 28.9176 73.9913 25.7711 0.0000 -7.1275 0.0000
# 3 34.1748 25.7711 106.5801 0.0000 -18.4316 0.0000
# 4 0.0000 0.0000 0.0000 14.6187 0.0000 4.7139
# 5 -5.6065 -7.1275 -18.4316 0.0000 23.0234 0.0000
# 6 0.0000 0.0000 0.0000 4.7139 0.0000 31.6432
#
#
#
# Elastic Compliance Matrix: (Units=1/GPa)
#
#
# Indices 1 2 3 4 5 6 
#
# 1 0.012630 -0.003878 -0.003236 0.000000 -0.000715 0.000000
# 2 -0.003878 0.016027 -0.002249 0.000000 0.002217 0.000000
# 3 -0.003236 -0.002249 0.012428 0.000000 0.008465 0.000000
# 4 0.000000 0.000000 0.000000 0.071858 0.000000 -0.010705
# 5 -0.000715 0.002217 0.008465 0.000000 0.050723 0.000000
# 6 0.000000 0.000000 0.000000 -0.010705 0.000000 0.033197
#
#
# Mechanical properties :
#
#
# Convention : Reuss Voigt Hill
#
# Bulk Modulus (GPa) = 44.72169 50.53279 47.62724
# Shear Modulus (GPa) = 22.41749 26.40402 24.41076
#
# Velocity S-wave (km/s) = 3.36669 3.65380 3.51317
# Velocity P-wave (km/s) = 6.14204 6.58410 6.36691
#
# Compressibility (1/GPa) = 0.02236051
#
# Stress axis : x y z
#
# Youngs Moduli (GPa) = 79.17954 62.39310 80.46501
#
# Poissons Ratio (x) = 0.24195 0.26036
# Poissons Ratio (y) = 0.30705 0.18093
# Poissons Ratio (z) = 0.25620 0.14029
#
# Static dielectric constant tensor:
#      x y z
#    x 1.746840 0.000000 0.001060 
#    y 0.000000 1.738680 0.000000 
#    z 0.001060 0.000000 1.715620 
# 
# From -- ./inp_files/73579.got.cif
#   From: 2010.05.17/outbox.cif.g08.bks.cpg/sg13_37_cif.got.tgz:73579.got - 2010.06.03 16:44:36.
