data_PCOD9230535
_publ_section_title
;
Structure prediction by ZEFSAII (Michael W. Deem and Ramdas Pophale) SiO2 
 PCOD9230535
Probable space group: P 2/C
;
_chemical_formula_sum "Si O2"
_cell_formula_units_Z 28
_cell_length_a 19.583169
_cell_length_b 13.055473
_cell_length_c 16.663548
_cell_angle_alpha 90.000000
_cell_angle_beta 20.095679
_cell_angle_gamma 90.000000
_cell_volume 1463.801366
_symmetry_space_group_name_H-M "P 2/C"
_symmetry_group_IT_number 13
_symmetry_cell_setting 'monoclinic'
loop_
_space_group_symop_operation_xyz
x,y,z
-x,y,1/2-z
-x,-y,-z
x,-y,1/2+z
loop_
_atom_site_type_symbol
_atom_site_label
_atom_site_fract_x
_atom_site_fract_y
_atom_site_fract_z
Si Si1 0.996979 0.805038 0.561098
Si Si2 0.423230 0.531696 0.463622
Si Si3 0.652567 0.155149 0.319463
Si Si4 0.731990 0.802614 0.013775
Si Si5 0.293670 0.944751 0.309097
Si Si6 0.786967 0.571431 0.962596
Si Si7 0.625615 0.336381 0.877136
O O1 0.850571 0.807850 0.646659
O O2 0.135887 0.905313 0.417073
O O3 0.160183 0.713528 0.378860
O O4 0.860874 0.806525 0.790943
O O5 0.262389 0.570631 0.577262
O O6 0.350647 0.431912 0.589877
O O7 0.500702 0.617052 0.440186
O O8 0.618519 0.509659 0.195124
O O9 0.506612 0.102064 0.547036
O O10 0.519656 0.246925 0.431211
O O11 0.696836 0.066520 0.206333
O O12 0.500000 0.804790 0.250000
O O13 0.765724 0.891612 0.041623
O O14 0.772903 0.690145 0.004952
O O15 0.000000 0.530696 0.750000
#
# Coordination Sequence:
#
# PCOD9230535 Si02
#       7
#     4   4   4   4   4   4   4
#     4  11  21  35  60  87 118 154 197 244 297 361
#     4  10  21  38  58  91 122 151 205 250 297 361
#     4  10  20  37  57  81 119 153 194 238 293 357
#     4  12  20  35  59  87 118 143 192 250 298 344
#     4  10  21  35  56  86 115 152 188 241 299 348
#     4  11  21  36  62  86 117 155 194 249 307 354
#     4  10  22  38  61  87 122 161 195 249 301 356
#
# _framework density 19.128278000000002
#
# number of rings (size 3 to 8) (size 9 to 14) (size 15 to 20)
#    0.000    1.429    2.857    5.143    0.000    1.143 
#    0.000    3.571    3.143    1.714    0.000    0.000 
#    0.000    0.000    0.000    0.000    0.000    0.000 
#
# Total GULP energy -156248.490183 kJ/mol
# GULP energy per Si atom -5580.303221 kJ/mol
# Density = 1.908474 g / cm^3
# Si number density = 19.128278 Si / 1000 Ang^3
#
#
#
# Elastic Constant Matrix: (Units=GPa)
#
#
# Indices 1 2 3 4 5 6 
#
# 1 67.5104 28.2187 38.6831 0.0000 -11.4733 0.0000
# 2 28.2187 93.2898 39.8176 0.0000 6.1685 0.0000
# 3 38.6831 39.8176 99.2262 0.0000 -24.1150 0.0000
# 4 0.0000 0.0000 0.0000 14.4653 0.0000 -0.6492
# 5 -11.4733 6.1685 -24.1150 0.0000 35.5107 0.0000
# 6 0.0000 0.0000 0.0000 -0.6492 0.0000 22.3241
#
#
#
# Elastic Compliance Matrix: (Units=1/GPa)
#
#
# Indices 1 2 3 4 5 6 
#
# 1 0.020195 -0.004049 -0.005379 0.000000 0.003575 0.000000
# 2 -0.004049 0.015337 -0.006637 0.000000 -0.008480 0.000000
# 3 -0.005379 -0.006637 0.017601 0.000000 0.011368 0.000000
# 4 0.000000 0.000000 0.000000 0.069221 0.000000 0.002013
# 5 0.003575 -0.008480 0.011368 0.000000 0.038508 0.000000
# 6 0.000000 0.000000 0.000000 0.002013 0.000000 0.044853
#
#
# Mechanical properties :
#
#
# Convention : Reuss Voigt Hill
#
# Bulk Modulus (GPa) = 47.61239 52.60724 50.10981
# Shear Modulus (GPa) = 20.42088 24.68049 22.55069
#
# Velocity S-wave (km/s) = 3.27092 3.59592 3.43726
# Velocity P-wave (km/s) = 6.26182 6.69350 6.48125
#
# Compressibility (1/GPa) = 0.02100294
#
# Stress axis : x y z
#
# Youngs Moduli (GPa) = 49.51747 65.19972 56.81501
#
# Poissons Ratio (x) = 0.26400 0.30562
# Poissons Ratio (y) = 0.20050 0.37708
# Poissons Ratio (z) = 0.26636 0.43272
#
# Static dielectric constant tensor:
#      x y z
#    x 1.689970 0.000000 -0.004530 
#    y 0.000000 1.662770 0.000000 
#    z -0.004530 0.000000 1.696760 
# 
# From -- ./inp_files/70661.got.cif
#   From: 2010.05.17/outbox.cif.g08.bks.cpg/sg13_36_cif.got.tgz:70661.got - 2010.06.03 16:44:36.
