data_PCOD9230514
_publ_section_title
;
Structure prediction by ZEFSAII (Michael W. Deem and Ramdas Pophale) SiO2 
 PCOD9230514
Probable space group: P 2/C
;
_chemical_formula_sum "Si O2"
_cell_formula_units_Z 32
_cell_length_a 7.084626
_cell_length_b 8.196927
_cell_length_c 31.391888
_cell_angle_alpha 90.000000
_cell_angle_beta 63.277821
_cell_angle_gamma 90.000000
_cell_volume 1628.294209
_symmetry_space_group_name_H-M "P 2/C"
_symmetry_group_IT_number 13
_symmetry_cell_setting 'monoclinic'
loop_
_space_group_symop_operation_xyz
x,y,z
-x,y,1/2-z
-x,-y,-z
x,-y,1/2+z
loop_
_atom_site_type_symbol
_atom_site_label
_atom_site_fract_x
_atom_site_fract_y
_atom_site_fract_z
Si Si1 0.661965 0.082712 0.516305
Si Si2 0.488042 0.271961 0.613140
Si Si3 0.779768 0.910467 0.146947
Si Si4 0.944408 0.660878 0.804899
Si Si5 0.969085 0.265942 0.803304
Si Si6 0.906057 0.866905 0.559812
Si Si7 0.645870 0.766880 0.695017
Si Si8 0.527553 0.633567 0.626918
O O1 0.532874 0.183791 0.564319
O O2 0.854432 0.184460 0.475215
O O3 0.500000 0.000000 0.500000
O O4 0.793146 0.950726 0.530689
O O5 0.662838 0.221509 0.629908
O O6 0.265155 0.225698 0.656428
O O7 0.501290 0.465084 0.605728
O O8 0.878656 0.827793 0.178852
O O9 0.925773 0.005574 0.097393
O O10 0.619524 0.055861 0.176503
O O11 0.981805 0.464664 0.805184
O O12 0.709174 0.706453 0.844568
O O13 0.000000 0.701202 0.750000
O O14 0.111818 0.753249 0.816761
O O15 0.000000 0.224222 0.750000
O O16 0.728968 0.733922 0.590064
O O17 0.500000 0.755809 0.750000
O O18 0.585593 0.617401 0.670766
#
# Coordination Sequence:
#
# PCOD9230514 Si02
#       8
#     4   4   4   4   4   4   4   4
#     4  10  20  39  64  86 117 152 190 244 307 360
#     4  10  22  39  60  84 116 155 194 245 296 350
#     4  10  22  37  55  84 118 148 195 240 288 347
#     4  10  20  37  54  77 112 157 197 237 285 337
#     4  10  22  36  55  82 115 158 198 237 286 345
#     4   9  21  38  60  88 116 152 191 243 299 354
#     4  11  22  34  56  81 111 157 198 239 287 340
#     4  10  21  39  58  84 119 151 199 243 287 349
#
# _framework density 19.652467999999999
#
# number of rings (size 3 to 8) (size 9 to 14) (size 15 to 20)
#    0.000    2.000    1.250    1.500    1.750    6.000 
#    0.000    0.625    0.000    0.000    0.000    0.000 
#    0.000    0.000    0.000    0.000    0.000    0.000 
#
# Total GULP energy -178264.484297 kJ/mol
# GULP energy per Si atom -5570.765134 kJ/mol
# Density = 1.960774 g / cm^3
# Si number density = 19.652468 Si / 1000 Ang^3
#
#
#
# Elastic Constant Matrix: (Units=GPa)
#
#
# Indices 1 2 3 4 5 6 
#
# 1 85.6239 21.3933 52.0485 0.0000 -11.4681 0.0000
# 2 21.3933 26.2479 24.5262 0.0000 -9.8618 0.0000
# 3 52.0485 24.5262 118.2233 0.0000 -18.7747 0.0000
# 4 0.0000 0.0000 0.0000 -49.3394 0.0000 21.9037
# 5 -11.4681 -9.8618 -18.7747 0.0000 40.7148 0.0000
# 6 0.0000 0.0000 0.0000 21.9037 0.0000 11.7619
#
#
#
# Elastic Compliance Matrix: (Units=1/GPa)
#
#
# Indices 1 2 3 4 5 6 
#
# 1 0.017421 -0.008694 -0.005850 0.000000 0.000104 0.000000
# 2 -0.008694 0.053804 -0.006100 0.000000 0.007770 0.000000
# 3 -0.005850 -0.006100 0.012736 0.000000 0.002748 0.000000
# 4 0.000000 0.000000 0.000000 -0.011095 0.000000 0.020662
# 5 0.000104 0.007770 0.002748 0.000000 0.027739 0.000000
# 6 0.000000 0.000000 0.000000 0.020662 0.000000 0.046542
#
#
# Mechanical properties :
#
#
# Convention : Reuss Voigt Hill
#
# Bulk Modulus (GPa) = 23.43416 47.33678 35.38547
# Shear Modulus (GPa) = 24.67192 9.43593 17.05393
#
# Velocity S-wave (km/s) = 3.54702 2.19359 2.94900
# Velocity P-wave (km/s) = 5.35960 5.52766 5.44428
#
# Compressibility (1/GPa) = 0.04267275
#
# Stress axis : x y z
#
# Youngs Moduli (GPa) = 57.40244 18.58595 78.51911
#
# Poissons Ratio (x) = 0.16159 0.45930
# Poissons Ratio (y) = 0.49906 0.47900
# Poissons Ratio (z) = 0.33578 0.11338
#
# Static dielectric constant tensor:
#      x y z
#    x 1.663430 0.000000 0.010490 
#    y 0.000000 1.693080 0.000000 
#    z 0.010490 0.000000 1.710790 
# 
# From -- ./inp_files/95035.got.cif
#   From: 2010.05.17/outbox.cif.g08.bks.cpg/sg13_48_cif.got.tgz:95035.got - 2010.06.03 16:44:36.
