data_PCOD9230351
_publ_section_title
;
Structure prediction by ZEFSAII (Michael W. Deem and Ramdas Pophale) SiO2 
 PCOD9230351
Probable space group: P 2/C
;
_chemical_formula_sum "Si O2"
_cell_formula_units_Z 22
_cell_length_a 12.108835
_cell_length_b 10.549474
_cell_length_c 8.885714
_cell_angle_alpha 90.000000
_cell_angle_beta 62.664186
_cell_angle_gamma 90.000000
_cell_volume 1008.323777
_symmetry_space_group_name_H-M "P 2/C"
_symmetry_group_IT_number 13
_symmetry_cell_setting 'monoclinic'
loop_
_space_group_symop_operation_xyz
x,y,z
-x,y,1/2-z
-x,-y,-z
x,-y,1/2+z
loop_
_atom_site_type_symbol
_atom_site_label
_atom_site_fract_x
_atom_site_fract_y
_atom_site_fract_z
Si Si1 0.228669 0.135587 0.592544
Si Si2 0.118343 0.921434 0.862613
Si Si3 0.580087 0.667323 0.474021
Si Si4 0.060817 0.630004 0.870775
Si Si5 0.000000 0.332072 0.750000
Si Si6 0.658356 0.435797 0.247394
O O1 0.224579 0.105563 0.419434
O O2 0.356070 0.196151 0.571772
O O3 0.122452 0.243166 0.680228
O O4 0.180074 0.008856 0.699830
O O5 0.069999 0.783209 0.851021
O O6 0.000000 0.000000 0.000000
O O7 0.613987 0.577842 0.313217
O O8 0.434294 0.656064 0.600986
O O9 0.641274 0.599917 0.583790
O O10 0.201185 0.579972 0.790969
O O11 0.000000 0.589910 0.750000
O O12 0.004241 0.610567 0.075591
#
# Coordination Sequence:
#
# PCOD9230351 Si02
#       6
#     4   4   4   4   2   4
#     4  11  20  37  61  93 130 172 219 272 325 396
#     4  11  19  35  60  92 131 174 212 259 333 401
#     4  10  22  44  70  88 126 172 230 280 327 406
#     4  11  22  39  65 101 133 174 224 270 337 412
#     4  10  20  36  60  94 136 168 208 276 326 374
#     4  10  22  45  68  90 123 179 221 274 346 391
#
# _framework density 21.818387000000001
#
# number of rings (size 3 to 8) (size 9 to 14) (size 15 to 20)
#    0.000    1.455    7.273    1.091    0.000    1.455 
#    1.636    2.727    0.000    0.000    0.000    0.000 
#    0.000    0.000    0.000    0.000    0.000    0.000 
#
# Total GULP energy -122861.442876 kJ/mol
# GULP energy per Si atom -5584.611040 kJ/mol
# Density = 2.176873 g / cm^3
# Si number density = 21.818387 Si / 1000 Ang^3
#
#
#
# Elastic Constant Matrix: (Units=GPa)
#
#
# Indices 1 2 3 4 5 6 
#
# 1 112.8120 16.7067 42.6327 0.0000 -6.9670 0.0000
# 2 16.7067 52.1242 56.9074 0.0000 15.0303 0.0000
# 3 42.6327 56.9074 111.4483 0.0000 23.8649 0.0000
# 4 0.0000 0.0000 0.0000 46.8692 0.0000 8.4719
# 5 -6.9670 15.0303 23.8649 0.0000 28.8687 0.0000
# 6 0.0000 0.0000 0.0000 8.4719 0.0000 19.9631
#
#
#
# Elastic Compliance Matrix: (Units=1/GPa)
#
#
# Indices 1 2 3 4 5 6 
#
# 1 0.011742 0.001620 -0.006981 0.000000 0.007761 0.000000
# 2 0.001620 0.044226 -0.022304 0.000000 -0.004198 0.000000
# 3 -0.006981 -0.022304 0.025403 0.000000 -0.011072 0.000000
# 4 0.000000 0.000000 0.000000 0.023109 0.000000 -0.009807
# 5 0.007761 -0.004198 -0.011072 0.000000 0.047851 0.000000
# 6 0.000000 0.000000 0.000000 -0.009807 0.000000 0.054254
#
#
# Mechanical properties :
#
#
# Convention : Reuss Voigt Hill
#
# Bulk Modulus (GPa) = 38.39940 56.54201 47.47070
# Shear Modulus (GPa) = 18.47787 29.81603 24.14695
#
# Velocity S-wave (km/s) = 2.91330 3.70071 3.33036
# Velocity P-wave (km/s) = 5.38091 6.65067 6.04920
#
# Compressibility (1/GPa) = 0.02604207
#
# Stress axis : x y z
#
# Youngs Moduli (GPa) = 85.16606 22.61090 39.36612
#
# Poissons Ratio (x) = -0.03663 0.27480
# Poissons Ratio (y) = -0.13795 0.87800
# Poissons Ratio (z) = 0.59451 0.50430
#
# Static dielectric constant tensor:
#      x y z
#    x 1.833450 0.000000 0.054420 
#    y 0.000000 1.840260 0.000000 
#    z 0.054420 0.000000 1.858280 
# 
# From -- ./inp_files/15573.got.cif
#   From: 2010.05.17/outbox.cif.g08.bks.cpg/sg13_8_cif.got.tgz:15573.got - 2010.06.03 16:44:36.
