data_PCOD9230459
_publ_section_title
;
Structure prediction by ZEFSAII (Michael W. Deem and Ramdas Pophale) SiO2 
 PCOD9230459
Probable space group: P 2/C
;
_chemical_formula_sum "Si O2"
_cell_formula_units_Z 18
_cell_length_a 7.990168
_cell_length_b 5.981319
_cell_length_c 17.839626
_cell_angle_alpha 90.000000
_cell_angle_beta 45.952109
_cell_angle_gamma 90.000000
_cell_volume 612.804387
_symmetry_space_group_name_H-M "P 2/C"
_symmetry_group_IT_number 13
_symmetry_cell_setting 'monoclinic'
loop_
_space_group_symop_operation_xyz
x,y,z
-x,y,1/2-z
-x,-y,-z
x,-y,1/2+z
loop_
_atom_site_type_symbol
_atom_site_label
_atom_site_fract_x
_atom_site_fract_y
_atom_site_fract_z
Si Si1 0.771471 0.854260 0.371461
Si Si2 0.264973 0.557326 0.441042
Si Si3 0.500000 0.754020 0.750000
Si Si4 0.876194 0.915289 0.111366
Si Si5 0.236688 0.644694 0.626967
O O1 0.905679 0.828922 0.408567
O O2 0.000000 0.866259 0.250000
O O3 0.659631 0.609125 0.387746
O O4 0.656006 0.101477 0.399795
O O5 0.428304 0.369965 0.350074
O O6 0.316095 0.758212 0.367054
O O7 0.218188 0.627474 0.542205
O O8 0.000000 0.500000 0.500000
O O9 0.271006 0.896442 0.801147
O O10 0.000000 0.000000 0.000000
O O11 0.000000 0.644850 0.750000
#
# Coordination Sequence:
#
# PCOD9230459 Si02
#       5
#     4   4   2   4   4
#     4  10  20  36  64  98 132 179 229 274 348 417
#     4  12  22  41  68  99 137 183 235 290 350 412
#     4  12  26  40  68 108 140 180 238 294 350 422
#     4  12  22  41  68  99 137 183 235 290 350 412
#     4  10  20  36  64  98 132 179 229 274 348 417
#
# _framework density 29.373159000000001
#
# number of rings (size 3 to 8) (size 9 to 14) (size 15 to 20)
#    0.000    0.889    6.667    0.667    0.000    0.000 
#    0.000    0.000    0.000   24.000    0.000    0.000 
#    0.000    0.000    0.000    0.000    0.000    0.000 
#
# Total GULP energy -100374.304931 kJ/mol
# GULP energy per Si atom -5576.350274 kJ/mol
# Density = 2.930630 g / cm^3
# Si number density = 29.373159 Si / 1000 Ang^3
#
#
#
# Elastic Constant Matrix: (Units=GPa)
#
#
# Indices 1 2 3 4 5 6 
#
# 1 31.1298 26.7663 58.1140 0.0000 15.4683 0.0000
# 2 26.7663 252.0948 57.5119 0.0000 -8.9691 0.0000
# 3 58.1140 57.5119 225.6178 0.0000 5.1374 0.0000
# 4 0.0000 0.0000 0.0000 48.2233 0.0000 2.9847
# 5 15.4683 -8.9691 5.1374 0.0000 52.1125 0.0000
# 6 0.0000 0.0000 0.0000 2.9847 0.0000 46.8746
#
#
#
# Elastic Compliance Matrix: (Units=1/GPa)
#
#
# Indices 1 2 3 4 5 6 
#
# 1 0.087805 -0.005501 -0.020646 0.000000 -0.024974 0.000000
# 2 -0.005501 0.004593 0.000192 0.000000 0.002404 0.000000
# 3 -0.020646 0.000192 0.009583 0.000000 0.005216 0.000000
# 4 0.000000 0.000000 0.000000 0.020819 0.000000 -0.001326
# 5 -0.024974 0.002404 0.005216 0.000000 0.026502 0.000000
# 6 0.000000 0.000000 0.000000 -0.001326 0.000000 0.021418
#
#
# Mechanical properties :
#
#
# Convention : Reuss Voigt Hill
#
# Bulk Modulus (GPa) = 19.97219 88.18075 54.07647
# Shear Modulus (GPa) = 20.89256 53.87209 37.38233
#
# Velocity S-wave (km/s) = 2.66988 4.28724 3.57132
# Velocity P-wave (km/s) = 4.03962 7.38872 5.95449
#
# Compressibility (1/GPa) = 0.05006962
#
# Stress axis : x y z
#
# Youngs Moduli (GPa) = 11.38886 217.73604 104.35684
#
# Poissons Ratio (x) = 1.19783 2.15451
# Poissons Ratio (y) = 0.06265 -0.01999
# Poissons Ratio (z) = 0.23513 -0.04170
#
# Static dielectric constant tensor:
#      x y z
#    x 1.959970 0.000000 -0.032320 
#    y 0.000000 3.709490 0.000000 
#    z -0.032320 0.000000 2.157880 
# 
# From -- ./inp_files/77095.got.cif
#   From: 2010.05.17/outbox.cif.g08.bks.cpg/sg13_39_cif.got.tgz:77095.got - 2010.06.03 16:44:36.
