data_PCOD9230509
_publ_section_title
;
Structure prediction by ZEFSAII (Michael W. Deem and Ramdas Pophale) SiO2 
 PCOD9230509
Probable space group: P 2/C
;
_chemical_formula_sum "Si O2"
_cell_formula_units_Z 22
_cell_length_a 7.081225
_cell_length_b 12.053516
_cell_length_c 11.150832
_cell_angle_alpha 90.000000
_cell_angle_beta 71.600644
_cell_angle_gamma 90.000000
_cell_volume 903.109699
_symmetry_space_group_name_H-M "P 2/C"
_symmetry_group_IT_number 13
_symmetry_cell_setting 'monoclinic'
loop_
_space_group_symop_operation_xyz
x,y,z
-x,y,1/2-z
-x,-y,-z
x,-y,1/2+z
loop_
_atom_site_type_symbol
_atom_site_label
_atom_site_fract_x
_atom_site_fract_y
_atom_site_fract_z
Si Si1 0.251850 0.316540 0.012571
Si Si2 0.883157 0.538565 0.398698
Si Si3 0.231302 0.903192 0.172011
Si Si4 0.195604 0.754862 0.966821
Si Si5 0.244790 0.847422 0.707774
Si Si6 0.500000 0.725051 0.250000
O O1 0.227780 0.422921 0.102007
O O2 0.332126 0.216427 0.076385
O O3 0.040813 0.268983 0.006270
O O4 0.384817 0.344553 0.872065
O O5 0.000000 0.565194 0.250000
O O6 0.000000 0.500000 0.500000
O O7 0.754425 0.355966 0.967251
O O8 0.343131 0.807998 0.221451
O O9 0.000000 0.900595 0.250000
O O10 0.308304 0.025083 0.188704
O O11 0.233349 0.866192 0.033715
O O12 0.285050 0.778082 0.819353
O O13 0.000000 0.847453 0.750000
#
# Coordination Sequence:
#
# PCOD9230509 Si02
#       6
#     4   4   4   4   4   2
#     4  10  21  40  62  99 134 169 221 276 328 386
#     4  10  20  36  70  99 129 173 222 274 331 398
#     4  11  23  41  66  94 131 175 220 266 331 389
#     4  10  20  40  70  95 127 177 222 264 337 395
#     4   9  21  38  66  96 132 173 221 276 325 390
#     4  12  26  40  64  98 134 174 220 276 320 396
#
# _framework density 24.360272999999999
#
# number of rings (size 3 to 8) (size 9 to 14) (size 15 to 20)
#    0.000    1.818    1.818    3.273    5.091    2.909 
#    0.000    0.909    0.000    0.000    0.000    0.000 
#    0.000    0.000    0.000    0.000    0.000    0.000 
#
# Total GULP energy -122924.478464 kJ/mol
# GULP energy per Si atom -5587.476294 kJ/mol
# Density = 2.430483 g / cm^3
# Si number density = 24.360273 Si / 1000 Ang^3
#
#
#
# Elastic Constant Matrix: (Units=GPa)
#
#
# Indices 1 2 3 4 5 6 
#
# 1 62.5365 17.2254 25.2338 0.0000 -0.0984 0.0000
# 2 17.2254 110.4526 30.4941 0.0000 2.5081 0.0000
# 3 25.2338 30.4941 120.1647 0.0000 -3.5994 0.0000
# 4 0.0000 0.0000 0.0000 63.5766 0.0000 25.8157
# 5 -0.0984 2.5081 -3.5994 0.0000 30.7993 0.0000
# 6 0.0000 0.0000 0.0000 25.8157 0.0000 37.0568
#
#
#
# Elastic Compliance Matrix: (Units=1/GPa)
#
#
# Indices 1 2 3 4 5 6 
#
# 1 0.017827 -0.001872 -0.003274 0.000000 -0.000173 0.000000
# 2 -0.001872 0.009969 -0.002169 0.000000 -0.001071 0.000000
# 3 -0.003274 -0.002169 0.009598 0.000000 0.001288 0.000000
# 4 0.000000 0.000000 0.000000 0.021934 0.000000 -0.015280
# 5 -0.000173 -0.001071 0.001288 0.000000 0.032705 0.000000
# 6 0.000000 0.000000 0.000000 -0.015280 0.000000 0.037630
#
#
# Mechanical properties :
#
#
# Convention : Reuss Voigt Hill
#
# Bulk Modulus (GPa) = 43.92771 48.78448 46.35610
# Shear Modulus (GPa) = 32.92046 40.96658 36.94352
#
# Velocity S-wave (km/s) = 3.68013 4.10530 3.89851
# Velocity P-wave (km/s) = 6.01078 6.52235 6.27178
#
# Compressibility (1/GPa) = 0.02276468
#
# Stress axis : x y z
#
# Youngs Moduli (GPa) = 56.09446 100.31377 104.18566
#
# Poissons Ratio (x) = 0.18783 0.34106
# Poissons Ratio (y) = 0.10503 0.22594
# Poissons Ratio (z) = 0.18363 0.21754
#
# Static dielectric constant tensor:
#      x y z
#    x 2.089310 0.000000 0.070240 
#    y 0.000000 1.914320 0.000000 
#    z 0.070240 0.000000 1.924770 
# 
# From -- ./inp_files/29029.got.cif
#   From: 2010.05.17/outbox.cif.g08.bks.cpg/sg13_15_cif.got.tgz:29029.got - 2010.06.03 16:44:36.
