data_PCOD9230024
_publ_section_title
;
Structure prediction by ZEFSAII (Michael W. Deem and Ramdas Pophale) SiO2 
 PCOD9230024
Probable space group: P 2/C
;
_chemical_formula_sum "Si O2"
_cell_formula_units_Z 24
_cell_length_a 12.949177
_cell_length_b 10.031613
_cell_length_c 14.642775
_cell_angle_alpha 90.000000
_cell_angle_beta 34.090081
_cell_angle_gamma 90.000000
_cell_volume 1066.126060
_symmetry_space_group_name_H-M "P 2/C"
_symmetry_group_IT_number 13
_symmetry_cell_setting 'monoclinic'
loop_
_space_group_symop_operation_xyz
x,y,z
-x,y,1/2-z
-x,-y,-z
x,-y,1/2+z
loop_
_atom_site_type_symbol
_atom_site_label
_atom_site_fract_x
_atom_site_fract_y
_atom_site_fract_z
Si Si1 0.253525 0.372627 0.624163
Si Si2 0.757187 0.000570 0.590707
Si Si3 0.781248 0.873865 0.896633
Si Si4 0.179843 0.094728 0.762357
Si Si5 0.293992 0.307559 0.393616
Si Si6 0.300991 0.357973 0.185192
O O1 0.179388 0.249446 0.738392
O O2 0.198477 0.353611 0.557886
O O3 0.477913 0.366792 0.463584
O O4 0.213959 0.514254 0.699037
O O5 0.687180 0.852516 0.622237
O O6 0.976941 0.969615 0.421091
O O7 0.703761 0.110635 0.555037
O O8 0.718254 0.056017 0.719460
O O9 0.723007 0.765552 0.865688
O O10 0.000000 0.854732 0.750000
O O11 0.738252 0.017174 0.883471
O O12 0.500000 0.366683 0.250000
O O13 0.218829 0.341444 0.347559
#
# Coordination Sequence:
#
# PCOD9230024 Si02
#       6
#     4   4   4   4   4   4
#     4  10  22  39  60  84 115 160 192 237 293 351
#     4  10  20  35  58  86 119 149 194 242 281 345
#     4  10  20  36  57  84 117 150 183 238 289 333
#     4  10  20  36  59  83 116 152 193 235 290 338
#     4  10  20  36  59  84 112 150 191 238 292 340
#     4  10  22  40  58  84 122 149 195 244 288 348
#
# _framework density 22.511409
#
# number of rings (size 3 to 8) (size 9 to 14) (size 15 to 20)
#    0.000    2.000    3.333    0.000    0.000    3.333 
#    3.000    2.500    0.000    0.000    0.000    0.000 
#    0.000    0.000    0.000    0.000    0.000    0.000 
#
# Total GULP energy -133941.986751 kJ/mol
# GULP energy per Si atom -5580.916115 kJ/mol
# Density = 2.246017 g / cm^3
# Si number density = 22.511409 Si / 1000 Ang^3
#
#
#
# Elastic Constant Matrix: (Units=GPa)
#
#
# Indices 1 2 3 4 5 6 
#
# 1 120.2619 42.4449 43.8980 0.0000 42.1009 0.0000
# 2 42.4449 109.6909 8.7228 0.0000 26.6943 0.0000
# 3 43.8980 8.7228 65.7800 0.0000 31.0461 0.0000
# 4 0.0000 0.0000 0.0000 24.6089 0.0000 6.9216
# 5 42.1009 26.6943 31.0461 0.0000 37.9261 0.0000
# 6 0.0000 0.0000 0.0000 6.9216 0.0000 34.3861
#
#
#
# Elastic Compliance Matrix: (Units=1/GPa)
#
#
# Indices 1 2 3 4 5 6 
#
# 1 0.014618 -0.002680 -0.004288 0.000000 -0.010831 0.000000
# 2 -0.002680 0.012034 0.004540 0.000000 -0.009213 0.000000
# 3 -0.004288 0.004540 0.027252 0.000000 -0.020744 0.000000
# 4 0.000000 0.000000 0.000000 0.043074 0.000000 -0.008670
# 5 -0.010831 -0.009213 -0.020744 0.000000 0.061855 0.000000
# 6 0.000000 0.000000 0.000000 -0.008670 0.000000 0.030827
#
#
# Mechanical properties :
#
#
# Convention : Reuss Voigt Hill
#
# Bulk Modulus (GPa) = 20.38737 53.98491 37.18614
# Shear Modulus (GPa) = 23.71183 32.76203 28.23693
#
# Velocity S-wave (km/s) = 3.24902 3.81905 3.54551
# Velocity P-wave (km/s) = 4.81154 6.59394 5.77196
#
# Compressibility (1/GPa) = 0.04904997
#
# Stress axis : x y z
#
# Youngs Moduli (GPa) = 68.41037 83.09594 36.69401
#
# Poissons Ratio (x) = 0.22266 0.15735
# Poissons Ratio (y) = 0.18331 -0.16661
# Poissons Ratio (z) = 0.29335 -0.37729
#
# Static dielectric constant tensor:
#      x y z
#    x 1.906270 0.000000 -0.068820 
#    y 0.000000 1.768100 0.000000 
#    z -0.068820 0.000000 1.908430 
# 
# From -- ./inp_files/52852.got.cif
#   From: 2010.05.17/outbox.cif.g08.bks.cpg/sg13_27_cif.got.tgz:52852.got - 2010.06.03 16:44:36.
