data_PCOD9230181
_publ_section_title
;
Structure prediction by ZEFSAII (Michael W. Deem and Ramdas Pophale) SiO2 
 PCOD9230181
Probable space group: P 2/C
;
_chemical_formula_sum "Si O2"
_cell_formula_units_Z 24
_cell_length_a 10.534631
_cell_length_b 10.168574
_cell_length_c 9.937059
_cell_angle_alpha 90.000000
_cell_angle_beta 87.260889
_cell_angle_gamma 90.000000
_cell_volume 1063.263190
_symmetry_space_group_name_H-M "P 2/C"
_symmetry_group_IT_number 13
_symmetry_cell_setting 'monoclinic'
loop_
_space_group_symop_operation_xyz
x,y,z
-x,y,1/2-z
-x,-y,-z
x,-y,1/2+z
loop_
_atom_site_type_symbol
_atom_site_label
_atom_site_fract_x
_atom_site_fract_y
_atom_site_fract_z
Si Si1 0.004992 0.670768 0.104903
Si Si2 0.963301 0.118611 0.098521
Si Si3 0.303090 0.407071 0.570599
Si Si4 0.730367 0.617161 0.132207
Si Si5 0.317490 0.121884 0.492084
Si Si6 0.638986 0.106269 0.706143
O O1 0.881278 0.579615 0.127213
O O2 0.000000 0.747033 0.250000
O O3 0.148748 0.619739 0.083267
O O4 0.976659 0.753430 0.973281
O O5 0.000000 0.100855 0.250000
O O6 0.813940 0.132953 0.082187
O O7 0.000000 0.000000 0.000000
O O8 0.329354 0.536229 0.484966
O O9 0.333793 0.423218 0.724830
O O10 0.362731 0.272909 0.506888
O O11 0.716656 0.775617 0.132451
O O12 0.300374 0.075157 0.649381
O O13 0.385307 0.013438 0.396022
O O14 0.500000 0.158203 0.750000
#
# Coordination Sequence:
#
# PCOD9230181 Si02
#       6
#     4   4   4   4   4   4
#     4   9  18  33  52  79 116 151 183 226 280 346
#     4  11  20  31  52  84 116 151 186 226 287 353
#     4   9  20  35  56  85 117 149 185 228 286 350
#     4  10  20  36  56  83 117 150 187 233 282 341
#     4  10  22  40  58  84 116 146 191 242 285 344
#     4  11  23  41  62  83 109 151 200 247 291 330
#
# _framework density 22.572023000000002
#
# number of rings (size 3 to 8) (size 9 to 14) (size 15 to 20)
#    0.000    2.000    0.000    4.500    0.000    4.000 
#    0.000    5.000    0.000    0.000    0.000    0.000 
#    0.000    0.000    0.000    0.000    0.000    0.000 
#
# Total GULP energy -133757.618718 kJ/mol
# GULP energy per Si atom -5573.234113 kJ/mol
# Density = 2.252065 g / cm^3
# Si number density = 22.572023 Si / 1000 Ang^3
#
#
#
# Elastic Constant Matrix: (Units=GPa)
#
#
# Indices 1 2 3 4 5 6 
#
# 1 48.8636 7.4817 17.7584 0.0000 1.8870 0.0000
# 2 7.4817 47.4510 55.4828 0.0000 -4.0124 0.0000
# 3 17.7584 55.4828 166.5808 0.0000 19.3384 0.0000
# 4 0.0000 0.0000 0.0000 37.2461 0.0000 4.2525
# 5 1.8870 -4.0124 19.3384 0.0000 21.4879 0.0000
# 6 0.0000 0.0000 0.0000 4.2525 0.0000 7.2163
#
#
#
# Elastic Compliance Matrix: (Units=1/GPa)
#
#
# Indices 1 2 3 4 5 6 
#
# 1 0.021333 -0.001348 -0.001763 0.000000 -0.000539 0.000000
# 2 -0.001348 0.043017 -0.016895 0.000000 0.023356 0.000000
# 3 -0.001763 -0.016895 0.013586 0.000000 -0.015227 0.000000
# 4 0.000000 0.000000 0.000000 0.028785 0.000000 -0.016963
# 5 -0.000539 0.023356 -0.015227 0.000000 0.064650 0.000000
# 6 0.000000 0.000000 0.000000 -0.016963 0.000000 0.148571
#
#
# Mechanical properties :
#
#
# Convention : Reuss Voigt Hill
#
# Bulk Modulus (GPa) = 26.36872 47.14903 36.75888
# Shear Modulus (GPa) = 13.41934 25.33489 19.37712
#
# Velocity S-wave (km/s) = 2.44091 3.35386 2.93312
# Velocity P-wave (km/s) = 4.43299 5.99429 5.27176
#
# Compressibility (1/GPa) = 0.03792372
#
# Stress axis : x y z
#
# Youngs Moduli (GPa) = 46.87586 23.24657 73.60508
#
# Poissons Ratio (x) = 0.03134 0.12974
# Poissons Ratio (y) = 0.06320 1.24358
# Poissons Ratio (z) = 0.08262 0.39276
#
# Static dielectric constant tensor:
#      x y z
#    x 1.752450 0.000000 -0.097840 
#    y 0.000000 1.903910 0.000000 
#    z -0.097840 0.000000 1.850870 
# 
# From -- ./inp_files/15875.got.cif
#   From: 2010.05.17/outbox.cif.g08.bks.cpg/sg13_8_cif.got.tgz:15875.got - 2010.06.03 16:44:36.
