data_PCOD9230628
_publ_section_title
;
Structure prediction by ZEFSAII (Michael W. Deem and Ramdas Pophale) SiO2 
 PCOD9230628
Probable space group: P 2/C
;
_chemical_formula_sum "Si O2"
_cell_formula_units_Z 28
_cell_length_a 9.122054
_cell_length_b 20.136867
_cell_length_c 15.102497
_cell_angle_alpha 90.000000
_cell_angle_beta 152.518914
_cell_angle_gamma 90.000000
_cell_volume 1280.157440
_symmetry_space_group_name_H-M "P 2/C"
_symmetry_group_IT_number 13
_symmetry_cell_setting 'monoclinic'
loop_
_space_group_symop_operation_xyz
x,y,z
-x,y,1/2-z
-x,-y,-z
x,-y,1/2+z
loop_
_atom_site_type_symbol
_atom_site_label
_atom_site_fract_x
_atom_site_fract_y
_atom_site_fract_z
Si Si1 0.774051 0.894251 0.045530
Si Si2 0.915357 0.157345 0.298260
Si Si3 0.881324 0.784504 0.963758
Si Si4 0.777822 0.031166 0.956651
Si Si5 0.123784 0.408498 0.221638
Si Si6 0.725006 0.461008 0.457660
Si Si7 0.862112 0.351225 0.912081
O O1 0.000000 0.902315 0.250000
O O2 0.459115 0.855209 0.902560
O O3 0.925015 0.848967 0.048968
O O4 0.673933 0.966261 0.955541
O O5 0.004401 0.198941 0.431872
O O6 0.000000 0.187353 0.250000
O O7 0.073564 0.085289 0.399343
O O8 0.500000 0.773239 0.750000
O O9 0.059301 0.718916 0.090912
O O10 0.500000 0.062890 0.750000
O O11 0.000000 0.000000 0.000000
O O12 0.487973 0.433041 0.406182
O O13 0.000000 0.384246 0.250000
O O14 0.897347 0.471519 0.077510
O O15 0.069010 0.356582 0.113188
O O16 0.500000 0.470718 0.250000
O O17 0.999660 0.409508 0.575757
O O18 0.500000 0.358070 0.750000
#
# Coordination Sequence:
#
# PCOD9230628 Si02
#       7
#     4   4   4   4   4   4   4
#     4  11  24  42  63  89 123 160 201 250 311 371
#     4  11  25  40  63  93 121 158 202 254 307 369
#     4  10  22  45  63  82 120 162 204 251 306 362
#     4  12  22  40  65  92 123 162 200 250 310 367
#     4  11  21  36  61  93 124 156 197 250 302 352
#     4  10  20  37  60  88 122 162 198 241 299 358
#     4  11  23  40  62  86 117 162 207 244 299 367
#
# _framework density 21.872311
#
# number of rings (size 3 to 8) (size 9 to 14) (size 15 to 20)
#    0.000    1.143    2.857    5.571    2.000    3.429 
#    0.000    3.571    0.000    0.000    0.000    0.000 
#    0.000    0.000    0.000    0.000    0.000    0.000 
#
# Total GULP energy -156539.965018 kJ/mol
# GULP energy per Si atom -5590.713036 kJ/mol
# Density = 2.182253 g / cm^3
# Si number density = 21.872311 Si / 1000 Ang^3
#
#
#
# Elastic Constant Matrix: (Units=GPa)
#
#
# Indices 1 2 3 4 5 6 
#
# 1 96.4615 -1.9094 5.1001 0.0000 -2.1792 0.0000
# 2 -1.9094 69.5144 2.3694 0.0000 0.2530 0.0000
# 3 5.1001 2.3694 62.1993 0.0000 3.1407 0.0000
# 4 0.0000 0.0000 0.0000 20.4513 0.0000 1.8984
# 5 -2.1792 0.2530 3.1407 0.0000 34.7110 0.0000
# 6 0.0000 0.0000 0.0000 1.8984 0.0000 -3.6824
#
#
#
# Elastic Compliance Matrix: (Units=1/GPa)
#
#
# Indices 1 2 3 4 5 6 
#
# 1 0.010438 0.000315 -0.000905 0.000000 0.000735 0.000000
# 2 0.000315 0.014414 -0.000573 0.000000 -0.000033 0.000000
# 3 -0.000905 -0.000573 0.016250 0.000000 -0.001523 0.000000
# 4 0.000000 0.000000 0.000000 0.046663 0.000000 0.024057
# 5 0.000735 -0.000033 -0.001523 0.000000 0.028993 0.000000
# 6 0.000000 0.000000 0.000000 0.024057 0.000000 -0.259160
#
#
# Mechanical properties :
#
#
# Convention : Reuss Voigt Hill
#
# Bulk Modulus (GPa) = 25.78977 26.58838 26.18908
# Shear Modulus (GPa) = -39.32365 25.13698 -7.09333
#
# Velocity S-wave (km/s) = -4.24473 3.39375 -1.80280
# Velocity P-wave (km/s) = 3.49386 5.24779 2.76878
#
# Compressibility (1/GPa) = 0.03877506
#
# Stress axis : x y z
#
# Youngs Moduli (GPa) = 95.80828 69.37783 61.53731
#
# Poissons Ratio (x) = -0.02184 0.05569
# Poissons Ratio (y) = -0.03017 0.03527
# Poissons Ratio (z) = 0.08670 0.03977
#
# Static dielectric constant tensor:
#      x y z
#    x 1.840710 0.000000 0.027020 
#    y 0.000000 1.792300 0.000000 
#    z 0.027020 0.000000 1.801930 
# 
# From -- ./inp_files/48249.got.cif
#   From: 2010.05.17/outbox.cif.g08.bks.cpg/sg13_25_cif.got.tgz:48249.got - 2010.06.03 16:44:36.
