data_PCOD9230685
_publ_section_title
;
Structure prediction by ZEFSAII (Michael W. Deem and Ramdas Pophale) SiO2 
 PCOD9230685
Probable space group: P 2/C
;
_chemical_formula_sum "Si O2"
_cell_formula_units_Z 22
_cell_length_a 23.352095
_cell_length_b 9.611810
_cell_length_c 12.632591
_cell_angle_alpha 90.000000
_cell_angle_beta 162.648808
_cell_angle_gamma 90.000000
_cell_volume 845.612887
_symmetry_space_group_name_H-M "P 2/C"
_symmetry_group_IT_number 13
_symmetry_cell_setting 'monoclinic'
loop_
_space_group_symop_operation_xyz
x,y,z
-x,y,1/2-z
-x,-y,-z
x,-y,1/2+z
loop_
_atom_site_type_symbol
_atom_site_label
_atom_site_fract_x
_atom_site_fract_y
_atom_site_fract_z
Si Si1 0.250548 0.903412 0.561680
Si Si2 0.000000 0.891403 0.750000
Si Si3 0.615362 0.868330 0.343881
Si Si4 0.121560 0.314793 0.315487
Si Si5 0.801260 0.601235 0.018042
Si Si6 0.566201 0.421821 0.481998
O O1 0.163311 0.006874 0.494714
O O2 0.274665 0.988427 0.495144
O O3 0.232602 0.255040 0.410068
O O4 0.135837 0.758371 0.357125
O O5 0.031336 0.791615 0.906890
O O6 0.500000 0.868840 0.250000
O O7 0.309995 0.565246 0.788169
O O8 0.455888 0.859439 0.970080
O O9 0.053610 0.474430 0.203290
O O10 0.289125 0.319112 0.702079
O O11 0.630722 0.571117 0.800190
O O12 0.500000 0.383997 0.250000
#
# Coordination Sequence:
#
# PCOD9230685 Si02
#       6
#     4   2   4   4   4   4
#     4  10  20  38  55  89 115 153 201 231 297 354
#     4  10  22  38  58  74 130 166 184 242 290 358
#     4  10  20  37  62  84 119 153 193 251 292 344
#     4   9  19  38  58  90 115 155 197 237 300 347
#     4   9  18  33  56  92 111 141 202 243 291 341
#     4   9  17  33  62  92 115 139 189 260 297 335
#
# _framework density 26.016631
#
# number of rings (size 3 to 8) (size 9 to 14) (size 15 to 20)
#    1.091    1.455    1.818    0.000    0.000    4.364 
#    0.000    3.636    0.000    1.091    0.000    0.000 
#    0.000    0.000    0.000    0.000    0.000    0.000 
#
# Total GULP energy -122726.701570 kJ/mol
# GULP energy per Si atom -5578.486435 kJ/mol
# Density = 2.595742 g / cm^3
# Si number density = 26.016631 Si / 1000 Ang^3
#
#
#
# Elastic Constant Matrix: (Units=GPa)
#
#
# Indices 1 2 3 4 5 6 
#
# 1 147.5895 41.7133 25.5533 0.0000 20.3231 0.0000
# 2 41.7133 202.2612 15.2855 0.0000 16.0597 0.0000
# 3 25.5533 15.2855 65.3527 0.0000 -15.3574 0.0000
# 4 0.0000 0.0000 0.0000 16.2466 0.0000 11.2969
# 5 20.3231 16.0597 -15.3574 0.0000 43.5292 0.0000
# 6 0.0000 0.0000 0.0000 11.2969 0.0000 13.5534
#
#
#
# Elastic Compliance Matrix: (Units=1/GPa)
#
#
# Indices 1 2 3 4 5 6 
#
# 1 0.008511 -0.001026 -0.004289 0.000000 -0.005108 0.000000
# 2 -0.001026 0.005414 -0.001333 0.000000 -0.001989 0.000000
# 3 -0.004289 -0.001333 0.019492 0.000000 0.009371 0.000000
# 4 0.000000 0.000000 0.000000 0.146401 0.000000 -0.122027
# 5 -0.005108 -0.001989 0.009371 0.000000 0.029398 0.000000
# 6 0.000000 0.000000 0.000000 -0.122027 0.000000 0.175493
#
#
# Mechanical properties :
#
#
# Convention : Reuss Voigt Hill
#
# Bulk Modulus (GPa) = 49.69168 64.47865 57.08516
# Shear Modulus (GPa) = 12.35448 36.84259 24.59853
#
# Velocity S-wave (km/s) = 2.18151 3.76722 3.07822
# Velocity P-wave (km/s) = 5.04844 6.61513 5.88416
#
# Compressibility (1/GPa) = 0.02012409
#
# Stress axis : x y z
#
# Youngs Moduli (GPa) = 117.48989 184.69761 51.30244
#
# Poissons Ratio (x) = 0.18943 0.22001
# Poissons Ratio (y) = 0.12050 0.06837
# Poissons Ratio (z) = 0.50386 0.24615
#
# Static dielectric constant tensor:
#      x y z
#    x 2.046760 0.000000 -0.025930 
#    y 0.000000 2.183270 0.000000 
#    z -0.025930 0.000000 2.085160 
# 
# From -- ./inp_files/52638.got.cif
#   From: 2010.05.17/outbox.cif.g08.bks.cpg/sg13_27_cif.got.tgz:52638.got - 2010.06.03 16:44:36.
