data_PCOD9230977
_publ_section_title
;
Structure prediction by ZEFSAII (Michael W. Deem and Ramdas Pophale) SiO2 
 PCOD9230977
Probable space group: P 2/C
;
_chemical_formula_sum "Si O2"
_cell_formula_units_Z 20
_cell_length_a 9.355798
_cell_length_b 12.609421
_cell_length_c 10.810377
_cell_angle_alpha 90.000000
_cell_angle_beta 122.675390
_cell_angle_gamma 90.000000
_cell_volume 1073.485559
_symmetry_space_group_name_H-M "P 2/C"
_symmetry_group_IT_number 13
_symmetry_cell_setting 'monoclinic'
loop_
_space_group_symop_operation_xyz
x,y,z
-x,y,1/2-z
-x,-y,-z
x,-y,1/2+z
loop_
_atom_site_type_symbol
_atom_site_label
_atom_site_fract_x
_atom_site_fract_y
_atom_site_fract_z
Si Si1 0.315613 0.944259 0.400341
Si Si2 0.196450 0.714997 0.334843
Si Si3 0.291309 0.922416 0.661570
Si Si4 0.889748 0.493399 0.823284
Si Si5 0.701367 0.682271 0.842219
O O1 0.315147 0.817755 0.374164
O O2 0.231867 0.954463 0.496551
O O3 0.500000 0.000000 0.500000
O O4 0.234726 0.001924 0.245210
O O5 0.200838 0.621070 0.236253
O O6 0.237886 0.665473 0.488266
O O7 0.000000 0.752435 0.250000
O O8 0.500000 0.924203 0.750000
O O9 0.240863 0.801256 0.664341
O O10 0.000000 0.504673 0.750000
O O11 0.764801 0.592126 0.780354
O O12 0.000000 0.500000 0.000000
O O13 0.500000 0.682361 0.750000
#
# Coordination Sequence:
#
# PCOD9230977 Si02
#       5
#     4   4   4   4   4
#     4   9  17  34  56  80 111 150 192 242 298 357
#     4  10  20  38  62  83 122 162 200 245 322 361
#     4   8  16  32  54  77 110 146 189 243 299 345
#     4  11  21  41  63  87 124 166 205 251 310 371
#     4  10  20  38  62  89 120 164 207 253 308 363
#
# _framework density 18.630897999999998
#
# number of rings (size 3 to 8) (size 9 to 14) (size 15 to 20)
#    0.000    2.400    4.000    1.200    0.000    0.800 
#    3.600    8.000    0.000    0.000    0.000    0.000 
#    0.000    0.000    0.000    0.000    0.000    0.000 
#
# Total GULP energy -111343.268268 kJ/mol
# GULP energy per Si atom -5567.163413 kJ/mol
# Density = 1.858849 g / cm^3
# Si number density = 18.630898 Si / 1000 Ang^3
#
#
#
# Elastic Constant Matrix: (Units=GPa)
#
#
# Indices 1 2 3 4 5 6 
#
# 1 41.6441 53.3608 28.3090 0.0000 -9.5697 0.0000
# 2 53.3608 157.6954 50.9739 0.0000 -31.9314 0.0000
# 3 28.3090 50.9739 108.8884 0.0000 -26.8500 0.0000
# 4 0.0000 0.0000 0.0000 40.7559 0.0000 -6.5422
# 5 -9.5697 -31.9314 -26.8500 0.0000 28.7862 0.0000
# 6 0.0000 0.0000 0.0000 -6.5422 0.0000 18.6562
#
#
#
# Elastic Compliance Matrix: (Units=1/GPa)
#
#
# Indices 1 2 3 4 5 6 
#
# 1 0.046017 -0.014896 -0.006874 0.000000 -0.007636 0.000000
# 2 -0.014896 0.013375 0.000063 0.000000 0.009943 0.000000
# 3 -0.006874 0.000063 0.013500 0.000000 0.010377 0.000000
# 4 0.000000 0.000000 0.000000 0.026000 0.000000 0.009117
# 5 -0.007636 0.009943 0.010377 0.000000 0.052909 0.000000
# 6 0.000000 0.000000 0.000000 0.009117 0.000000 0.056799
#
#
# Mechanical properties :
#
#
# Convention : Reuss Voigt Hill
#
# Bulk Modulus (GPa) = 33.92134 63.72392 48.82263
# Shear Modulus (GPa) = 19.09581 29.34528 24.22055
#
# Velocity S-wave (km/s) = 3.20496 3.97304 3.60949
# Velocity P-wave (km/s) = 5.65175 7.43803 6.60555
#
# Compressibility (1/GPa) = 0.02947997
#
# Stress axis : x y z
#
# Youngs Moduli (GPa) = 21.73093 74.76853 74.07490
#
# Poissons Ratio (x) = 1.11373 0.50916
# Poissons Ratio (y) = 0.32370 -0.00469
# Poissons Ratio (z) = 0.14937 -0.00474
#
# Static dielectric constant tensor:
#      x y z
#    x 1.655840 0.000000 0.043960 
#    y 0.000000 1.677800 0.000000 
#    z 0.043960 0.000000 1.716510 
# 
# From -- ./inp_files/28618.got.cif
#   From: 2010.05.17/outbox.cif.g08.bks.cpg/sg13_15_cif.got.tgz:28618.got - 2010.06.03 16:44:36.
