data_PCOD9230703
_publ_section_title
;
Structure prediction by ZEFSAII (Michael W. Deem and Ramdas Pophale) SiO2 
 PCOD9230703
Probable space group: P 2/C
;
_chemical_formula_sum "Si O2"
_cell_formula_units_Z 24
_cell_length_a 24.070964
_cell_length_b 8.921583
_cell_length_c 18.573696
_cell_angle_alpha 90.000000
_cell_angle_beta 15.910524
_cell_angle_gamma 90.000000
_cell_volume 1093.451676
_symmetry_space_group_name_H-M "P 2/C"
_symmetry_group_IT_number 13
_symmetry_cell_setting 'monoclinic'
loop_
_space_group_symop_operation_xyz
x,y,z
-x,y,1/2-z
-x,-y,-z
x,-y,1/2+z
loop_
_atom_site_type_symbol
_atom_site_label
_atom_site_fract_x
_atom_site_fract_y
_atom_site_fract_z
Si Si1 0.665289 0.236571 0.320129
Si Si2 0.744498 0.705026 0.446935
Si Si3 0.804775 0.720651 0.106221
Si Si4 0.013184 0.023189 0.645249
Si Si5 0.741286 0.543485 0.592048
Si Si6 0.727055 0.500719 0.337592
O O1 0.422976 0.216182 0.626948
O O2 0.700660 0.351042 0.210504
O O3 0.760091 0.329600 0.269505
O O4 0.785597 0.093140 0.142753
O O5 0.823887 0.636260 0.422685
O O6 0.807662 0.581341 0.308777
O O7 0.840064 0.870872 0.326410
O O8 0.500000 0.719939 0.750000
O O9 0.844991 0.602466 0.993444
O O10 0.783815 0.621060 0.204597
O O11 0.971359 0.850147 0.897101
O O12 0.000000 0.031155 0.750000
O O13 0.514829 0.498014 0.850478
#
# Coordination Sequence:
#
# PCOD9230703 Si02
#       6
#     4   4   4   4   4   4
#     4   9  17  36  60  87 115 154 206 249 293 359
#     4  10  20  37  62  89 126 163 201 249 304 361
#     4   9  19  36  60  88 120 154 203 253 298 359
#     4  12  23  35  57  92 120 162 204 243 310 362
#     4   8  15  35  61  84 112 156 203 247 291 352
#     4   8  17  34  62  86 114 158 196 246 308 350
#
# _framework density 21.948844999999999
#
# number of rings (size 3 to 8) (size 9 to 14) (size 15 to 20)
#    0.000    2.667    1.667    2.500    0.000    1.333 
#    6.000    0.000    3.667    1.000    0.000    0.000 
#    0.000    0.000    0.000    0.000    0.000    0.000 
#
# Total GULP energy -133752.711232 kJ/mol
# GULP energy per Si atom -5573.029635 kJ/mol
# Density = 2.189889 g / cm^3
# Si number density = 21.948845 Si / 1000 Ang^3
#
#
#
# Elastic Constant Matrix: (Units=GPa)
#
#
# Indices 1 2 3 4 5 6 
#
# 1 76.2381 30.4052 15.1496 0.0000 11.7434 0.0000
# 2 30.4052 126.7960 17.8220 0.0000 6.6148 0.0000
# 3 15.1496 17.8220 70.9314 0.0000 2.1373 0.0000
# 4 0.0000 0.0000 0.0000 35.7839 0.0000 -6.9289
# 5 11.7434 6.6148 2.1373 0.0000 21.8359 0.0000
# 6 0.0000 0.0000 0.0000 -6.9289 0.0000 13.5404
#
#
#
# Elastic Compliance Matrix: (Units=1/GPa)
#
#
# Indices 1 2 3 4 5 6 
#
# 1 0.015976 -0.003106 -0.002408 0.000000 -0.007416 0.000000
# 2 -0.003106 0.008894 -0.001545 0.000000 -0.000873 0.000000
# 3 -0.002408 -0.001545 0.014992 0.000000 0.000296 0.000000
# 4 0.000000 0.000000 0.000000 0.031019 0.000000 0.015873
# 5 -0.007416 -0.000873 0.000296 0.000000 0.050020 0.000000
# 6 0.000000 0.000000 0.000000 0.015873 0.000000 0.081975
#
#
# Mechanical properties :
#
#
# Convention : Reuss Voigt Hill
#
# Bulk Modulus (GPa) = 38.84439 44.52435 41.68437
# Shear Modulus (GPa) = 22.16546 28.27130 25.21838
#
# Velocity S-wave (km/s) = 3.18129 3.59284 3.39331
# Velocity P-wave (km/s) = 5.58840 6.12706 5.86392
#
# Compressibility (1/GPa) = 0.02574374
#
# Stress axis : x y z
#
# Youngs Moduli (GPa) = 62.59289 112.43384 66.70303
#
# Poissons Ratio (x) = 0.34918 0.16065
# Poissons Ratio (y) = 0.19439 0.10306
# Poissons Ratio (z) = 0.15075 0.17372
#
# Static dielectric constant tensor:
#      x y z
#    x 1.832350 0.000000 -0.031710 
#    y 0.000000 1.793710 0.000000 
#    z -0.031710 0.000000 1.987750 
# 
# From -- ./inp_files/71097.got.cif
#   From: 2010.05.17/outbox.cif.g08.bks.cpg/sg13_36_cif.got.tgz:71097.got - 2010.06.03 16:44:36.
