data_PCOD9230435
_publ_section_title
;
Structure prediction by ZEFSAII (Michael W. Deem and Ramdas Pophale) SiO2 
 PCOD9230435
Probable space group: P 2/C
;
_chemical_formula_sum "Si O2"
_cell_formula_units_Z 26
_cell_length_a 5.153495
_cell_length_b 24.886562
_cell_length_c 10.312063
_cell_angle_alpha 90.000000
_cell_angle_beta 64.172596
_cell_angle_gamma 90.000000
_cell_volume 1190.441750
_symmetry_space_group_name_H-M "P 2/C"
_symmetry_group_IT_number 13
_symmetry_cell_setting 'monoclinic'
loop_
_space_group_symop_operation_xyz
x,y,z
-x,y,1/2-z
-x,-y,-z
x,-y,1/2+z
loop_
_atom_site_type_symbol
_atom_site_label
_atom_site_fract_x
_atom_site_fract_y
_atom_site_fract_z
Si Si1 0.774659 0.969066 0.387994
Si Si2 0.318353 0.473222 0.424142
Si Si3 0.379821 0.709989 0.418292
Si Si4 0.121111 0.637354 0.082070
Si Si5 0.743630 0.174767 0.467355
Si Si6 0.500000 0.885125 0.250000
Si Si7 0.723825 0.111451 0.102814
O O1 0.666720 0.923641 0.311889
O O2 0.884131 0.935717 0.488822
O O3 0.000000 0.001233 0.250000
O O4 0.500000 0.000000 0.500000
O O5 0.500000 0.479319 0.250000
O O6 0.500000 0.500000 0.500000
O O7 0.261104 0.411145 0.472582
O O8 0.000000 0.500000 0.500000
O O9 0.500000 0.727015 0.250000
O O10 0.640840 0.681853 0.436132
O O11 0.269385 0.761302 0.521790
O O12 0.135571 0.665958 0.440409
O O13 0.000000 0.618321 0.250000
O O14 0.701936 0.153364 0.623307
O O15 0.480185 0.148718 0.444024
O O16 0.054393 0.149538 0.371523
O O17 0.500000 0.084859 0.250000
#
# Coordination Sequence:
#
# PCOD9230435 Si02
#       7
#     4   4   4   4   4   2   4
#     4  11  25  43  67  94 128 170 211 274 330 402
#     4  12  25  44  70 100 138 192 238 289 346 409
#     4  10  20  36  63  96 128 174 217 283 332 395
#     4  10  21  38  61  99 136 171 229 282 338 392
#     4  11  21  41  69  93 131 163 226 263 330 389
#     4  10  22  40  64  98 120 168 218 268 314 408
#     4  11  25  43  64  93 127 168 213 267 325 401
#
# _framework density 21.840630000000001
#
# number of rings (size 3 to 8) (size 9 to 14) (size 15 to 20)
#    0.000    1.231    2.308    3.692    1.077    4.308 
#    0.000    4.615    0.000    0.000    0.000    0.000 
#    0.000    0.000    0.000    0.000    0.000    0.000 
#
# Total GULP energy -145300.557876 kJ/mol
# GULP energy per Si atom -5588.482995 kJ/mol
# Density = 2.179092 g / cm^3
# Si number density = 21.840630 Si / 1000 Ang^3
#
#
#
# Elastic Constant Matrix: (Units=GPa)
#
#
# Indices 1 2 3 4 5 6 
#
# 1 90.7977 6.7203 33.4386 0.0000 -11.8307 0.0000
# 2 6.7203 59.7616 42.9275 0.0000 -8.9908 0.0000
# 3 33.4386 42.9275 153.4237 0.0000 -17.7142 0.0000
# 4 0.0000 0.0000 0.0000 18.5009 0.0000 -8.2493
# 5 -11.8307 -8.9908 -17.7142 0.0000 34.0227 0.0000
# 6 0.0000 0.0000 0.0000 -8.2493 0.0000 23.5358
#
#
#
# Elastic Compliance Matrix: (Units=1/GPa)
#
#
# Indices 1 2 3 4 5 6 
#
# 1 0.012309 0.000949 -0.002580 0.000000 0.003187 0.000000
# 2 0.000949 0.021241 -0.005813 0.000000 0.002916 0.000000
# 3 -0.002580 -0.005813 0.008965 0.000000 0.002234 0.000000
# 4 0.000000 0.000000 0.000000 0.064064 0.000000 0.022454
# 5 0.003187 0.002916 0.002234 0.000000 0.032434 0.000000
# 6 0.000000 0.000000 0.000000 0.022454 0.000000 0.050359
#
#
# Mechanical properties :
#
#
# Convention : Reuss Voigt Hill
#
# Bulk Modulus (GPa) = 36.19882 52.23953 44.21917
# Shear Modulus (GPa) = 23.42264 29.93830 26.68047
#
# Velocity S-wave (km/s) = 3.27836 3.70640 3.49893
# Velocity P-wave (km/s) = 5.56239 6.50284 6.05092
#
# Compressibility (1/GPa) = 0.02762521
#
# Stress axis : x y z
#
# Youngs Moduli (GPa) = 81.24269 47.07901 111.54861
#
# Poissons Ratio (x) = -0.04466 0.28781
# Poissons Ratio (y) = -0.07708 0.64845
# Poissons Ratio (z) = 0.20962 0.27368
#
# Static dielectric constant tensor:
#      x y z
#    x 1.867770 0.000000 -0.032640 
#    y 0.000000 1.768610 0.000000 
#    z -0.032640 0.000000 1.893030 
# 
# From -- ./inp_files/26687.got.cif
#   From: 2010.05.17/outbox.cif.g08.bks.cpg/sg13_14_cif.got.tgz:26687.got - 2010.06.03 16:44:36.
