data_PCOD9230501
_publ_section_title
;
Structure prediction by ZEFSAII (Michael W. Deem and Ramdas Pophale) SiO2 
 PCOD9230501
Probable space group: P 2/C
;
_chemical_formula_sum "Si O2"
_cell_formula_units_Z 28
_cell_length_a 11.397232
_cell_length_b 5.453298
_cell_length_c 20.239228
_cell_angle_alpha 90.000000
_cell_angle_beta 99.924878
_cell_angle_gamma 90.000000
_cell_volume 1239.093389
_symmetry_space_group_name_H-M "P 2/C"
_symmetry_group_IT_number 13
_symmetry_cell_setting 'monoclinic'
loop_
_space_group_symop_operation_xyz
x,y,z
-x,y,1/2-z
-x,-y,-z
x,-y,1/2+z
loop_
_atom_site_type_symbol
_atom_site_label
_atom_site_fract_x
_atom_site_fract_y
_atom_site_fract_z
Si Si1 0.356740 0.155332 0.057201
Si Si2 0.748587 0.190260 0.043493
Si Si3 0.996968 0.892437 0.574113
Si Si4 0.604093 0.066317 0.706138
Si Si5 0.582518 0.564641 0.621374
Si Si6 0.158903 0.503734 0.066840
Si Si7 0.234731 0.881171 0.160797
O O1 0.456557 0.362006 0.075178
O O2 0.228396 0.280505 0.041520
O O3 0.337044 0.998296 0.122648
O O4 0.356932 0.987110 0.992281
O O5 0.687701 0.403193 0.078859
O O6 0.864082 0.073741 0.089869
O O7 0.809921 0.289293 0.982725
O O8 0.030254 0.601847 0.571445
O O9 0.104780 0.009122 0.627808
O O10 0.000000 0.000000 0.500000
O O11 0.500000 0.086631 0.750000
O O12 0.588385 0.299359 0.655752
O O13 0.724908 0.086260 0.760767
O O14 0.600149 0.799716 0.671620
O O15 0.222748 0.596107 0.139499
#
# Coordination Sequence:
#
# PCOD9230501 Si02
#       7
#     4   4   4   4   4   4   4
#     4  10  21  40  65  99 135 166 216 279 341 402
#     4  11  24  40  63 101 139 170 213 280 344 408
#     4  11  20  38  66  97 130 171 222 272 333 392
#     4  12  26  47  72  94 132 178 234 273 320 405
#     4  12  28  43  69 101 138 179 216 275 347 392
#     4  10  20  36  69  93 130 167 224 268 336 383
#     4  10  22  39  67  99 120 173 233 278 316 392
#
# _framework density 22.597163999999999
#
# number of rings (size 3 to 8) (size 9 to 14) (size 15 to 20)
#    0.000    1.143    5.714    2.143    8.000    0.571 
#    0.000    0.714    0.000    0.000    0.000    0.000 
#    0.000    0.000    0.000    0.000    0.000    0.000 
#
# Total GULP energy -156115.173218 kJ/mol
# GULP energy per Si atom -5575.541901 kJ/mol
# Density = 2.254573 g / cm^3
# Si number density = 22.597164 Si / 1000 Ang^3
#
#
#
# Elastic Constant Matrix: (Units=GPa)
#
#
# Indices 1 2 3 4 5 6 
#
# 1 91.9472 2.4033 29.7584 0.0000 21.1723 0.0000
# 2 2.4033 74.3931 17.3541 0.0000 1.0428 0.0000
# 3 29.7584 17.3541 64.7727 0.0000 18.6491 0.0000
# 4 0.0000 0.0000 0.0000 41.5279 0.0000 2.7849
# 5 21.1723 1.0428 18.6491 0.0000 33.1933 0.0000
# 6 0.0000 0.0000 0.0000 2.7849 0.0000 32.6361
#
#
#
# Elastic Compliance Matrix: (Units=1/GPa)
#
#
# Indices 1 2 3 4 5 6 
#
# 1 0.013820 0.000755 -0.004780 0.000000 -0.006153 0.000000
# 2 0.000755 0.014496 -0.004725 0.000000 0.001718 0.000000
# 3 -0.004780 -0.004725 0.021450 0.000000 -0.008854 0.000000
# 4 0.000000 0.000000 0.000000 0.024219 0.000000 -0.002067
# 5 -0.006153 0.001718 -0.008854 0.000000 0.038972 0.000000
# 6 0.000000 0.000000 0.000000 -0.002067 0.000000 0.030817
#
#
# Mechanical properties :
#
#
# Convention : Reuss Voigt Hill
#
# Bulk Modulus (GPa) = 30.99318 36.68272 33.83795
# Shear Modulus (GPa) = 29.06487 33.57796 31.32141
#
# Velocity S-wave (km/s) = 3.59028 3.85897 3.72704
# Velocity P-wave (km/s) = 5.56166 6.01033 5.79034
#
# Compressibility (1/GPa) = 0.03226516
#
# Stress axis : x y z
#
# Youngs Moduli (GPa) = 72.35920 68.98495 46.62053
#
# Poissons Ratio (x) = -0.05207 0.22284
# Poissons Ratio (y) = -0.05462 0.22029
# Poissons Ratio (z) = 0.34587 0.32597
#
# Static dielectric constant tensor:
#      x y z
#    x 1.868670 0.000000 0.082500 
#    y 0.000000 1.935120 0.000000 
#    z 0.082500 0.000000 1.897570 
# 
# From -- ./inp_files/77542.got.cif
#   From: 2010.05.17/outbox.cif.g08.bks.cpg/sg13_39_cif.got.tgz:77542.got - 2010.06.03 16:44:36.
