data_PCOD9230255
_publ_section_title
;
Structure prediction by ZEFSAII (Michael W. Deem and Ramdas Pophale) SiO2 
 PCOD9230255
Probable space group: P 2/C
;
_chemical_formula_sum "Si O2"
_cell_formula_units_Z 28
_cell_length_a 8.621850
_cell_length_b 20.763902
_cell_length_c 15.452447
_cell_angle_alpha 90.000000
_cell_angle_beta 30.300214
_cell_angle_gamma 90.000000
_cell_volume 1395.707530
_symmetry_space_group_name_H-M "P 2/C"
_symmetry_group_IT_number 13
_symmetry_cell_setting 'monoclinic'
loop_
_space_group_symop_operation_xyz
x,y,z
-x,y,1/2-z
-x,-y,-z
x,-y,1/2+z
loop_
_atom_site_type_symbol
_atom_site_label
_atom_site_fract_x
_atom_site_fract_y
_atom_site_fract_z
Si Si1 0.909833 0.648306 0.385969
Si Si2 0.228522 0.471621 0.818520
Si Si3 0.100050 0.915928 0.292135
Si Si4 0.863949 0.842945 0.054925
Si Si5 0.132123 0.292907 0.415136
Si Si6 0.783977 0.605011 0.769587
Si Si7 0.168839 0.942251 0.578305
O O1 0.989151 0.690644 0.430936
O O2 0.545770 0.636641 0.554525
O O3 0.000000 0.674952 0.250000
O O4 0.080963 0.581358 0.327194
O O5 0.500000 0.446541 0.750000
O O6 0.300274 0.534289 0.726177
O O7 0.000000 0.500000 0.000000
O O8 0.019627 0.868907 0.409137
O O9 0.000000 0.885939 0.250000
O O10 0.461309 0.933547 0.104729
O O11 0.922825 0.983415 0.391043
O O12 0.500000 0.836855 0.250000
O O13 0.938035 0.897196 0.948479
O O14 0.996482 0.775913 0.957208
O O15 0.500000 0.289640 0.250000
O O16 0.068800 0.350249 0.377170
O O17 0.000000 0.601631 0.750000
O O18 0.000000 0.923880 0.750000
#
# Coordination Sequence:
#
# PCOD9230255 Si02
#       7
#     4   4   4   4   4   4   4
#     4  11  25  41  62  91 118 153 200 241 297 354
#     4  12  22  40  66  90 124 155 191 245 298 352
#     4  10  20  36  58  87 120 151 190 239 288 343
#     4  10  23  39  59  85 116 154 198 239 288 346
#     4  10  23  44  60  81 118 157 196 246 289 345
#     4  11  24  42  62  88 120 155 196 243 295 355
#     4  10  20  36  58  87 120 151 191 238 289 345
#
# _framework density 20.061509999999998
#
# number of rings (size 3 to 8) (size 9 to 14) (size 15 to 20)
#    0.000    1.429    2.857    3.000    2.000    6.286 
#    0.000    5.714    0.000    0.000    0.000    0.000 
#    0.000    0.000    0.000    0.000    0.000    0.000 
#
# Total GULP energy -156233.450626 kJ/mol
# GULP energy per Si atom -5579.766094 kJ/mol
# Density = 2.001585 g / cm^3
# Si number density = 20.061510 Si / 1000 Ang^3
#
#
#
# Elastic Constant Matrix: (Units=GPa)
#
#
# Indices 1 2 3 4 5 6 
#
# 1 113.6090 18.6961 6.8256 0.0000 16.6444 0.0000
# 2 18.6961 40.9263 -10.6953 0.0000 15.4862 0.0000
# 3 6.8256 -10.6953 41.1614 0.0000 12.9601 0.0000
# 4 0.0000 0.0000 0.0000 9.9916 0.0000 28.1258
# 5 16.6444 15.4862 12.9601 0.0000 29.4562 0.0000
# 6 0.0000 0.0000 0.0000 28.1258 0.0000 -229.2877
#
#
#
# Elastic Compliance Matrix: (Units=1/GPa)
#
#
# Indices 1 2 3 4 5 6 
#
# 1 0.009970 -0.004006 -0.001838 0.000000 -0.002719 0.000000
# 2 -0.004006 0.043036 0.021194 0.000000 -0.029687 0.000000
# 3 -0.001838 0.021194 0.038641 0.000000 -0.027105 0.000000
# 4 0.000000 0.000000 0.000000 0.074396 0.000000 0.009126
# 5 -0.002719 -0.029687 -0.027105 0.000000 0.063018 0.000000
# 6 0.000000 0.000000 0.000000 0.009126 0.000000 -0.003242
#
#
# Mechanical properties :
#
#
# Convention : Reuss Voigt Hill
#
# Bulk Modulus (GPa) = 8.17352 25.03882 16.60617
# Shear Modulus (GPa) = 21.19525 -25.90996 -2.35736
#
# Velocity S-wave (km/s) = 3.25393 -3.59768 -1.08518
# Velocity P-wave (km/s) = 4.26620 2.17936 2.59335
#
# Compressibility (1/GPa) = 0.12234627
#
# Stress axis : x y z
#
# Youngs Moduli (GPa) = 100.29932 23.23621 25.87939
#
# Poissons Ratio (x) = 0.09309 0.04757
# Poissons Ratio (y) = 0.40183 -0.54849
# Poissons Ratio (z) = 0.18438 -0.49247
#
# Static dielectric constant tensor:
#      x y z
#    x 1.779960 0.000000 -0.045170 
#    y 0.000000 1.696930 0.000000 
#    z -0.045170 0.000000 1.760080 
# 
# From -- ./inp_files/48213.got.cif
#   From: 2010.05.17/outbox.cif.g08.bks.cpg/sg13_25_cif.got.tgz:48213.got - 2010.06.03 16:44:36.
