data_PCOD9230835
_publ_section_title
;
Structure prediction by ZEFSAII (Michael W. Deem and Ramdas Pophale) SiO2 
 PCOD9230835
Probable space group: P 2/C
;
_chemical_formula_sum "Si O2"
_cell_formula_units_Z 22
_cell_length_a 10.792628
_cell_length_b 12.725938
_cell_length_c 5.726997
_cell_angle_alpha 90.000000
_cell_angle_beta 89.302502
_cell_angle_gamma 90.000000
_cell_volume 786.523649
_symmetry_space_group_name_H-M "P 2/C"
_symmetry_group_IT_number 13
_symmetry_cell_setting 'monoclinic'
loop_
_space_group_symop_operation_xyz
x,y,z
-x,y,1/2-z
-x,-y,-z
x,-y,1/2+z
loop_
_atom_site_type_symbol
_atom_site_label
_atom_site_fract_x
_atom_site_fract_y
_atom_site_fract_z
Si Si1 0.860235 0.721737 0.752863
Si Si2 0.776753 0.958143 0.779551
Si Si3 0.398900 0.244686 0.578739
Si Si4 0.860319 0.287231 0.756074
Si Si5 0.500000 0.927248 0.750000
Si Si6 0.640607 0.463748 0.046968
O O1 0.784036 0.830973 0.760873
O O2 0.862328 0.656655 0.510157
O O3 0.000000 0.765560 0.750000
O O4 0.844333 0.664546 0.000090
O O5 0.629870 0.983994 0.787766
O O6 0.828120 0.003932 0.531189
O O7 0.500000 0.292339 0.750000
O O8 0.267187 0.220637 0.706870
O O9 0.471384 0.150379 0.463037
O O10 0.369636 0.338814 0.399247
O O11 0.000000 0.237731 0.750000
O O12 0.692964 0.517783 0.280968
O O13 0.500000 0.500000 0.000000
#
# Coordination Sequence:
#
# PCOD9230835 Si02
#       6
#     4   4   4   4   2   4
#     4  10  21  42  65  86 118 159 213 265 308 374
#     4  12  26  42  59  84 126 165 198 261 329 371
#     4  12  24  37  71  95 125 167 212 261 303 371
#     4  10  22  41  64  93 126 161 205 266 316 360
#     4  12  26  40  60  92 120 162 216 254 312 384
#     4  10  20  38  56  92 132 161 194 250 307 362
#
# _framework density 27.971184999999998
#
# number of rings (size 3 to 8) (size 9 to 14) (size 15 to 20)
#    0.000    1.091    3.636    3.818    2.545    0.727 
#    0.000    0.000    0.000    1.091    0.000    0.000 
#    0.000    0.000    0.000    0.000    0.000    0.000 
#
# Total GULP energy -122650.020693 kJ/mol
# GULP energy per Si atom -5575.000941 kJ/mol
# Density = 2.790752 g / cm^3
# Si number density = 27.971185 Si / 1000 Ang^3
#
#
#
# Elastic Constant Matrix: (Units=GPa)
#
#
# Indices 1 2 3 4 5 6 
#
# 1 130.5063 -15.2745 16.0884 0.0000 -15.8326 0.0000
# 2 -15.2745 88.9069 62.7677 0.0000 0.0711 0.0000
# 3 16.0884 62.7677 329.0874 0.0000 -5.6991 0.0000
# 4 0.0000 0.0000 0.0000 58.2728 0.0000 0.5144
# 5 -15.8326 0.0711 -5.6991 0.0000 40.1955 0.0000
# 6 0.0000 0.0000 0.0000 0.5144 0.0000 12.2003
#
#
#
# Elastic Compliance Matrix: (Units=1/GPa)
#
#
# Indices 1 2 3 4 5 6 
#
# 1 0.008367 0.001947 -0.000725 0.000000 0.003189 0.000000
# 2 0.001947 0.013457 -0.002655 0.000000 0.000367 0.000000
# 3 -0.000725 -0.002655 0.003585 0.000000 0.000227 0.000000
# 4 0.000000 0.000000 0.000000 0.017167 0.000000 -0.000724
# 5 0.003189 0.000367 0.000227 0.000000 0.026166 0.000000
# 6 0.000000 0.000000 0.000000 -0.000724 0.000000 0.081996
#
#
# Mechanical properties :
#
#
# Convention : Reuss Voigt Hill
#
# Bulk Modulus (GPa) = 44.36501 75.07374 59.71937
# Shear Modulus (GPa) = 31.03321 54.46166 42.74744
#
# Velocity S-wave (km/s) = 3.33449 4.41734 3.91355
# Velocity P-wave (km/s) = 5.54260 7.27428 6.46667
#
# Compressibility (1/GPa) = 0.02254029
#
# Stress axis : x y z
#
# Youngs Moduli (GPa) = 119.52252 74.31291 278.97348
#
# Poissons Ratio (x) = -0.14467 0.20229
# Poissons Ratio (y) = -0.23269 0.74080
# Poissons Ratio (z) = 0.08667 0.19733
#
# Static dielectric constant tensor:
#      x y z
#    x 2.823340 0.000000 0.530340 
#    y 0.000000 2.132000 0.000000 
#    z 0.530340 0.000000 2.707220 
# 
# From -- ./inp_files/3267.got.cif
#   From: 2010.05.17/outbox.cif.g08.bks.cpg/sg13_2_cif.got.tgz:3267.got - 2010.06.03 16:44:36.
