data_PCOD9230415
_publ_section_title
;
Structure prediction by ZEFSAII (Michael W. Deem and Ramdas Pophale) SiO2 
 PCOD9230415
Probable space group: P 2/C
;
_chemical_formula_sum "Si O2"
_cell_formula_units_Z 18
_cell_length_a 8.850168
_cell_length_b 20.184768
_cell_length_c 8.867745
_cell_angle_alpha 90.000000
_cell_angle_beta 32.450087
_cell_angle_gamma 90.000000
_cell_volume 849.983627
_symmetry_space_group_name_H-M "P 2/C"
_symmetry_group_IT_number 13
_symmetry_cell_setting 'monoclinic'
loop_
_space_group_symop_operation_xyz
x,y,z
-x,y,1/2-z
-x,-y,-z
x,-y,1/2+z
loop_
_atom_site_type_symbol
_atom_site_label
_atom_site_fract_x
_atom_site_fract_y
_atom_site_fract_z
Si Si1 0.210048 0.540151 0.218433
Si Si2 0.304638 0.314723 0.564945
Si Si3 0.758239 0.912985 0.747847
Si Si4 0.500000 0.982920 0.250000
Si Si5 0.210361 0.827792 0.215727
O O1 0.314319 0.616429 0.147481
O O2 0.000000 0.542647 0.250000
O O3 0.000000 0.500000 0.500000
O O4 0.500000 0.500000 0.000000
O O5 0.311045 0.247765 0.658479
O O6 0.000000 0.313368 0.750000
O O7 0.500000 0.313518 0.250000
O O8 0.037711 0.869338 0.486578
O O9 0.720603 0.972262 0.659005
O O10 0.680838 0.942265 0.976266
O O11 0.492699 0.865934 0.938142
O O12 0.000000 0.827895 0.250000
#
# Coordination Sequence:
#
# PCOD9230415 Si02
#       5
#     4   4   4   2   4
#     4  11  22  39  65  99 134 173 219 274 330 389
#     4  10  20  36  62  94 123 161 215 265 310 377
#     4  11  23  38  60  85 120 154 206 250 318 370
#     4  10  24  40  58  88 118 162 200 260 312 392
#     4  11  20  37  61  90 116 155 206 260 305 369
#
# _framework density 21.176880000000001
#
# number of rings (size 3 to 8) (size 9 to 14) (size 15 to 20)
#    0.000    1.333    2.222    6.000    0.000    6.222 
#    0.000    0.000    9.778    0.000    0.000    0.000 
#    0.000    0.000    0.000    0.000    0.000    0.000 
#
# Total GULP energy -100290.755298 kJ/mol
# GULP energy per Si atom -5571.708628 kJ/mol
# Density = 2.112868 g / cm^3
# Si number density = 21.176880 Si / 1000 Ang^3
#
#
#
# Elastic Constant Matrix: (Units=GPa)
#
#
# Indices 1 2 3 4 5 6 
#
# 1 61.3623 48.0517 20.5024 0.0000 4.2584 0.0000
# 2 48.0517 202.6741 76.0134 0.0000 25.0229 0.0000
# 3 20.5024 76.0134 172.1490 0.0000 -2.4776 0.0000
# 4 0.0000 0.0000 0.0000 31.4896 0.0000 -3.9991
# 5 4.2584 25.0229 -2.4776 0.0000 45.5185 0.0000
# 6 0.0000 0.0000 0.0000 -3.9991 0.0000 19.3481
#
#
#
# Elastic Compliance Matrix: (Units=1/GPa)
#
#
# Indices 1 2 3 4 5 6 
#
# 1 0.020050 -0.004734 -0.000288 0.000000 0.000711 0.000000
# 2 -0.004734 0.007606 -0.002851 0.000000 -0.003894 0.000000
# 3 -0.000288 -0.002851 0.007131 0.000000 0.001982 0.000000
# 4 0.000000 0.000000 0.000000 0.032613 0.000000 0.006741
# 5 0.000711 -0.003894 0.001982 0.000000 0.024151 0.000000
# 6 0.000000 0.000000 0.000000 0.006741 0.000000 0.053078
#
#
# Mechanical properties :
#
#
# Convention : Reuss Voigt Hill
#
# Bulk Modulus (GPa) = 52.51283 80.59114 66.55199
# Shear Modulus (GPa) = 29.99039 38.71243 34.35141
#
# Velocity S-wave (km/s) = 3.76731 4.28021 4.03192
# Velocity P-wave (km/s) = 6.61623 7.90985 7.29179
#
# Compressibility (1/GPa) = 0.01904296
#
# Stress axis : x y z
#
# Youngs Moduli (GPa) = 49.87487 131.47050 140.24229
#
# Poissons Ratio (x) = 0.62233 0.04033
# Poissons Ratio (y) = 0.23609 0.39981
# Poissons Ratio (z) = 0.01434 0.37481
#
# Static dielectric constant tensor:
#      x y z
#    x 1.745130 0.000000 0.010830 
#    y 0.000000 2.063740 0.000000 
#    z 0.010830 0.000000 1.743770 
# 
# From -- ./inp_files/13391.got.cif
#   From: 2010.05.17/outbox.cif.g08.bks.cpg/sg13_7_cif.got.tgz:13391.got - 2010.06.03 16:44:36.
