data_PCOD9230879
_publ_section_title
;
Structure prediction by ZEFSAII (Michael W. Deem and Ramdas Pophale) SiO2 
 PCOD9230879
Probable space group: P 2/C
;
_chemical_formula_sum "Si O2"
_cell_formula_units_Z 20
_cell_length_a 22.198064
_cell_length_b 7.475874
_cell_length_c 15.915978
_cell_angle_alpha 90.000000
_cell_angle_beta 19.837567
_cell_angle_gamma 90.000000
_cell_volume 896.322582
_symmetry_space_group_name_H-M "P 2/C"
_symmetry_group_IT_number 13
_symmetry_cell_setting 'monoclinic'
loop_
_space_group_symop_operation_xyz
x,y,z
-x,y,1/2-z
-x,-y,-z
x,-y,1/2+z
loop_
_atom_site_type_symbol
_atom_site_label
_atom_site_fract_x
_atom_site_fract_y
_atom_site_fract_z
Si Si1 0.628257 0.237351 0.822599
Si Si2 0.837156 0.133871 0.397343
Si Si3 0.928121 0.181227 0.552187
Si Si4 0.734582 0.636024 0.650708
Si Si5 0.125459 0.275030 0.700907
O O1 0.667623 0.185970 0.674707
O O2 0.760283 0.138908 0.713319
O O3 0.690075 0.444393 0.748054
O O4 0.425523 0.231637 0.116776
O O5 0.000000 0.145578 0.250000
O O6 0.819340 0.929637 0.391252
O O7 0.912257 0.243932 0.218887
O O8 0.867180 0.305043 0.709243
O O9 0.000000 0.000000 0.500000
O O10 0.761154 0.614355 0.515457
O O11 0.920480 0.703575 0.442928
#
# Coordination Sequence:
#
# PCOD9230879 Si02
#       5
#     4   4   4   4   4
#     4  10  22  39  61  84 122 160 203 244 307 367
#     4   9  17  36  59  82 111 157 195 240 294 364
#     4   9  20  37  61  88 114 153 202 246 300 358
#     4  10  22  38  58  90 119 159 198 247 308 367
#     4  10  20  38  59  86 118 150 206 247 306 361
#
# _framework density 22.313395
#
# number of rings (size 3 to 8) (size 9 to 14) (size 15 to 20)
#    0.000    2.400    2.000    0.000    8.400    2.400 
#    0.000    1.000    0.000    0.000    0.000    0.000 
#    0.000    0.000    0.000    0.000    0.000    0.000 
#
# Total GULP energy -111615.900339 kJ/mol
# GULP energy per Si atom -5580.795017 kJ/mol
# Density = 2.226261 g / cm^3
# Si number density = 22.313395 Si / 1000 Ang^3
#
#
#
# Elastic Constant Matrix: (Units=GPa)
#
#
# Indices 1 2 3 4 5 6 
#
# 1 98.1090 10.1952 45.6769 0.0000 42.6382 0.0000
# 2 10.1952 34.5852 13.9955 0.0000 -5.1062 0.0000
# 3 45.6769 13.9955 146.6205 0.0000 25.5158 0.0000
# 4 0.0000 0.0000 0.0000 27.5709 0.0000 16.1511
# 5 42.6382 -5.1062 25.5158 0.0000 32.7941 0.0000
# 6 0.0000 0.0000 0.0000 16.1511 0.0000 11.4421
#
#
#
# Elastic Compliance Matrix: (Units=1/GPa)
#
#
# Indices 1 2 3 4 5 6 
#
# 1 0.029259 -0.014106 -0.000886 0.000000 -0.039549 0.000000
# 2 -0.014106 0.038807 -0.004110 0.000000 0.027580 0.000000
# 3 -0.000886 -0.004110 0.008558 0.000000 -0.006147 0.000000
# 4 0.000000 0.000000 0.000000 0.209517 0.000000 -0.295744
# 5 -0.039549 0.027580 -0.006147 0.000000 0.090991 0.000000
# 6 0.000000 0.000000 0.000000 -0.295744 0.000000 0.504853
#
#
# Mechanical properties :
#
#
# Convention : Reuss Voigt Hill
#
# Bulk Modulus (GPa) = 26.02678 46.56109 36.29394
# Shear Modulus (GPa) = 5.35908 28.32458 16.84183
#
# Velocity S-wave (km/s) = 1.55143 3.56673 2.75032
# Velocity P-wave (km/s) = 3.85989 6.15420 5.13678
#
# Compressibility (1/GPa) = 0.03842196
#
# Stress axis : x y z
#
# Youngs Moduli (GPa) = 34.17740 25.76841 116.84509
#
# Poissons Ratio (x) = 0.36348 0.10354
# Poissons Ratio (y) = 0.48209 0.48018
# Poissons Ratio (z) = 0.03029 0.10590
#
# Static dielectric constant tensor:
#      x y z
#    x 1.847150 0.000000 0.067600 
#    y 0.000000 1.944470 0.000000 
#    z 0.067600 0.000000 1.853120 
# 
# From -- ./inp_files/49487.got.cif
#   From: 2010.05.17/outbox.cif.g08.bks.cpg/sg13_25_cif.got.tgz:49487.got - 2010.06.03 16:44:36.
