data_PCOD9230592
_publ_section_title
;
Structure prediction by ZEFSAII (Michael W. Deem and Ramdas Pophale) SiO2 
 PCOD9230592
Probable space group: P 2/C
;
_chemical_formula_sum "Si O2"
_cell_formula_units_Z 32
_cell_length_a 9.970772
_cell_length_b 9.199807
_cell_length_c 17.218103
_cell_angle_alpha 90.000000
_cell_angle_beta 112.463262
_cell_angle_gamma 90.000000
_cell_volume 1459.564832
_symmetry_space_group_name_H-M "P 2/C"
_symmetry_group_IT_number 13
_symmetry_cell_setting 'monoclinic'
loop_
_space_group_symop_operation_xyz
x,y,z
-x,y,1/2-z
-x,-y,-z
x,-y,1/2+z
loop_
_atom_site_type_symbol
_atom_site_label
_atom_site_fract_x
_atom_site_fract_y
_atom_site_fract_z
Si Si1 0.529911 0.406632 0.168600
Si Si2 0.343427 0.092876 0.549992
Si Si3 0.085493 0.605177 0.396783
Si Si4 0.571950 0.088690 0.178508
Si Si5 0.640847 0.568648 0.484382
Si Si6 0.206064 0.924063 0.192779
Si Si7 0.201204 0.384391 0.752180
Si Si8 0.918853 0.079933 0.553831
O O1 0.500000 0.372508 0.250000
O O2 0.552211 0.247839 0.137841
O O3 0.674583 0.501062 0.201439
O O4 0.395216 0.496173 0.106099
O O5 0.357085 0.258214 0.525073
O O6 0.267117 0.076481 0.618256
O O7 0.498032 0.021555 0.602376
O O8 0.236498 0.996510 0.472903
O O9 0.203258 0.487326 0.450973
O O10 0.136489 0.651405 0.322293
O O11 0.093139 0.744670 0.455599
O O12 0.918926 0.562837 0.338204
O O13 0.500000 0.074827 0.250000
O O14 0.733846 0.046854 0.237385
O O15 0.500000 0.500000 0.500000
O O16 0.259365 0.768220 0.234560
O O17 0.033043 0.934132 0.148967
O O18 0.000000 0.000000 0.500000
#
# Coordination Sequence:
#
# PCOD9230592 Si02
#       8
#     4   4   4   4   4   4   4   4
#     4  11  22  39  63  92 125 163 209 260 314 377
#     4  10  20  37  59  86 122 157 203 258 303 372
#     4  10  22  40  61  88 128 164 206 257 315 379
#     4   9  19  34  57  87 117 152 200 255 302 359
#     4  12  24  40  59  92 127 168 212 257 317 373
#     4   9  18  36  61  88 113 154 205 247 308 372
#     4  10  20  39  62  88 123 167 203 254 318 375
#     4   9  19  38  62  87 117 155 200 255 307 369
#
# _framework density 21.924341999999999
#
# number of rings (size 3 to 8) (size 9 to 14) (size 15 to 20)
#    0.000    2.000    1.250    2.250    0.000    3.000 
#    2.250   11.250    0.000    0.000    0.000    0.000 
#    0.000    0.000    0.000    0.000    0.000    0.000 
#
# Total GULP energy -178338.746685 kJ/mol
# GULP energy per Si atom -5573.085834 kJ/mol
# Density = 2.187444 g / cm^3
# Si number density = 21.924342 Si / 1000 Ang^3
#
#
#
# Elastic Constant Matrix: (Units=GPa)
#
#
# Indices 1 2 3 4 5 6 
#
# 1 29.9740 4.3417 19.1789 0.0000 7.9479 0.0000
# 2 4.3417 103.3522 62.5592 0.0000 14.8782 0.0000
# 3 19.1789 62.5592 89.3620 0.0000 22.2767 0.0000
# 4 0.0000 0.0000 0.0000-1968.6036 0.0000 2079.0110
# 5 7.9479 14.8782 22.2767 0.0000 25.4820 0.0000
# 6 0.0000 0.0000 0.0000 2079.0110 0.0000-2113.9792
#
#
#
# Elastic Compliance Matrix: (Units=1/GPa)
#
#
# Indices 1 2 3 4 5 6 
#
# 1 0.041662 0.006278 -0.011742 0.000000 -0.006395 0.000000
# 2 0.006278 0.017744 -0.013680 0.000000 -0.000359 0.000000
# 3 -0.011742 -0.013680 0.026063 0.000000 -0.011135 0.000000
# 4 0.000000 0.000000 0.000000 0.013155 0.000000 0.012937
# 5 -0.006395 -0.000359 -0.011135 0.000000 0.051182 0.000000
# 6 0.000000 0.000000 0.000000 0.012937 0.000000 0.012250
#
#
# Mechanical properties :
#
#
# Convention : Reuss Voigt Hill
#
# Bulk Modulus (GPa) = 21.19512 43.87198 32.53355
# Shear Modulus (GPa) = 23.14049 -802.31293 -389.58622
#
# Velocity S-wave (km/s) = 3.25232 -19.15047 -13.34472
# Velocity P-wave (km/s) = 4.87769 21.65487 14.91881
#
# Compressibility (1/GPa) = 0.04718068
#
# Stress axis : x y z
#
# Youngs Moduli (GPa) = 24.00277 56.35695 38.36832
#
# Poissons Ratio (x) = -0.35381 0.45054
# Poissons Ratio (y) = -0.15069 0.52487
# Poissons Ratio (z) = 0.28185 0.77095
#
# Static dielectric constant tensor:
#      x y z
#    x 1.846570 0.000000 -0.022440 
#    y 0.000000 1.799310 0.000000 
#    z -0.022440 0.000000 1.867040 
# 
# From -- ./inp_files/78291.got.cif
#   From: 2010.05.17/outbox.cif.g08.bks.cpg/sg13_40_cif.got.tgz:78291.got - 2010.06.03 16:44:36.
