data_PCOD9230623
_publ_section_title
;
Structure prediction by ZEFSAII (Michael W. Deem and Ramdas Pophale) SiO2 
 PCOD9230623
Probable space group: P 2/C
;
_chemical_formula_sum "Si O2"
_cell_formula_units_Z 28
_cell_length_a 14.983071
_cell_length_b 5.950189
_cell_length_c 18.224289
_cell_angle_alpha 90.000000
_cell_angle_beta 59.473333
_cell_angle_gamma 90.000000
_cell_volume 1399.533995
_symmetry_space_group_name_H-M "P 2/C"
_symmetry_group_IT_number 13
_symmetry_cell_setting 'monoclinic'
loop_
_space_group_symop_operation_xyz
x,y,z
-x,y,1/2-z
-x,-y,-z
x,-y,1/2+z
loop_
_atom_site_type_symbol
_atom_site_label
_atom_site_fract_x
_atom_site_fract_y
_atom_site_fract_z
Si Si1 0.921310 0.374820 0.477730
Si Si2 0.223087 0.925807 0.637352
Si Si3 0.887005 0.305669 0.192064
Si Si4 0.223497 0.978495 0.380527
Si Si5 0.759478 0.253709 0.991557
Si Si6 0.620944 0.530396 0.937143
Si Si7 0.727822 0.306109 0.764294
O O1 0.864460 0.170808 0.542628
O O2 0.836995 0.553284 0.485561
O O3 0.000000 0.500000 0.500000
O O4 0.994093 0.306041 0.379822
O O5 0.139472 0.776480 0.715114
O O6 0.321909 0.770349 0.575958
O O7 0.187197 0.065155 0.582072
O O8 0.254620 0.107376 0.685255
O O9 0.832460 0.549239 0.209264
O O10 0.830289 0.145950 0.155574
O O11 0.295090 0.808915 0.303881
O O12 0.278682 0.124902 0.419975
O O13 0.675604 0.367271 0.973634
O O14 0.648672 0.464447 0.841185
O O15 0.500000 0.500000 0.000000
#
# Coordination Sequence:
#
# PCOD9230623 Si02
#       7
#     4   4   4   4   4   4   4
#     4  12  22  36  61  92 128 172 216 250 310 380
#     4   9  21  40  61  85 122 162 205 265 321 374
#     4  10  20  37  60  87 125 173 211 251 314 379
#     4  11  20  36  61  87 126 167 212 260 312 369
#     4  11  23  37  59  93 125 160 217 263 310 380
#     4  10  22  44  68  88 118 163 211 266 328 390
#     4   9  19  37  62  90 117 161 206 258 319 386
#
# _framework density 20.006661000000001
#
# number of rings (size 3 to 8) (size 9 to 14) (size 15 to 20)
#    0.000    1.714    2.857    1.286    0.000    2.286 
#    0.000   17.143    0.000   35.143    0.000    0.000 
#    0.000    0.000    0.000    0.000    0.000    0.000 
#
# Total GULP energy -156203.450010 kJ/mol
# GULP energy per Si atom -5578.694643 kJ/mol
# Density = 1.996112 g / cm^3
# Si number density = 20.006661 Si / 1000 Ang^3
#
#
#
# Elastic Constant Matrix: (Units=GPa)
#
#
# Indices 1 2 3 4 5 6 
#
# 1 79.4805 31.9978 47.9867 0.0000 7.0357 0.0000
# 2 31.9978 93.9251 33.7381 0.0000 8.2798 0.0000
# 3 47.9867 33.7381 98.0174 0.0000 7.1797 0.0000
# 4 0.0000 0.0000 0.0000 49.0237 0.0000 17.8780
# 5 7.0357 8.2798 7.1797 0.0000 28.9867 0.0000
# 6 0.0000 0.0000 0.0000 17.8780 0.0000 15.8668
#
#
#
# Elastic Compliance Matrix: (Units=1/GPa)
#
#
# Indices 1 2 3 4 5 6 
#
# 1 0.018916 -0.003442 -0.007956 0.000000 -0.001637 0.000000
# 2 -0.003442 0.012953 -0.002611 0.000000 -0.002218 0.000000
# 3 -0.007956 -0.002611 0.015073 0.000000 -0.001057 0.000000
# 4 0.000000 0.000000 0.000000 0.034627 0.000000 -0.039015
# 5 -0.001637 -0.002218 -0.001057 0.000000 0.035791 0.000000
# 6 0.000000 0.000000 0.000000 -0.039015 0.000000 0.106985
#
#
# Mechanical properties :
#
#
# Convention : Reuss Voigt Hill
#
# Bulk Modulus (GPa) = 52.84215 55.42980 54.13597
# Shear Modulus (GPa) = 19.32960 29.28880 24.30920
#
# Velocity S-wave (km/s) = 3.11168 3.83031 3.48955
# Velocity P-wave (km/s) = 6.27532 6.87950 6.58435
#
# Compressibility (1/GPa) = 0.01892429
#
# Stress axis : x y z
#
# Youngs Moduli (GPa) = 52.86579 77.20402 66.34216
#
# Poissons Ratio (x) = 0.26573 0.52782
# Poissons Ratio (y) = 0.18196 0.17321
# Poissons Ratio (z) = 0.42060 0.20157
#
# Static dielectric constant tensor:
#      x y z
#    x 1.662630 0.000000 0.026220 
#    y 0.000000 1.776350 0.000000 
#    z 0.026220 0.000000 1.745460 
# 
# From -- ./inp_files/67462.got.cif
#   From: 2010.05.17/outbox.cif.g08.bks.cpg/sg13_34_cif.got.tgz:67462.got - 2010.06.03 16:44:36.
