data_PCOD9230485
_publ_section_title
;
Structure prediction by ZEFSAII (Michael W. Deem and Ramdas Pophale) SiO2 
 PCOD9230485
Probable space group: P 2/C
;
_chemical_formula_sum "Si O2"
_cell_formula_units_Z 16
_cell_length_a 10.510405
_cell_length_b 9.877811
_cell_length_c 8.039050
_cell_angle_alpha 90.000000
_cell_angle_beta 123.250991
_cell_angle_gamma 90.000000
_cell_volume 697.966978
_symmetry_space_group_name_H-M "P 2/C"
_symmetry_group_IT_number 13
_symmetry_cell_setting 'monoclinic'
loop_
_space_group_symop_operation_xyz
x,y,z
-x,y,1/2-z
-x,-y,-z
x,-y,1/2+z
loop_
_atom_site_type_symbol
_atom_site_label
_atom_site_fract_x
_atom_site_fract_y
_atom_site_fract_z
Si Si1 0.701289 0.129937 0.690893
Si Si2 0.799488 0.624721 0.484975
Si Si3 0.148069 0.654927 0.612533
Si Si4 0.000000 0.860390 0.250000
Si Si5 0.500000 0.922285 0.750000
O O1 0.725725 0.268074 0.808123
O O2 0.620131 0.019312 0.745639
O O3 0.867007 0.068977 0.758359
O O4 0.591531 0.156079 0.456126
O O5 0.767439 0.673342 0.650350
O O6 0.768549 0.467004 0.425459
O O7 0.978554 0.625050 0.563697
O O8 0.102767 0.769225 0.447736
#
# Coordination Sequence:
#
# PCOD9230485 Si02
#       5
#     4   4   4   2   2
#     4  10  22  40  63  85 115 158 201 248 295 340
#     4   9  16  30  55  87 121 153 182 231 298 353
#     4   9  16  28  54  94 124 140 180 240 297 353
#     4  10  20  36  66  96 116 148 196 246 294 350
#     4  10  24  44  58  78 120 164 202 242 294 346
#
# _framework density 22.923718000000001
#
# number of rings (size 3 to 8) (size 9 to 14) (size 15 to 20)
#    0.000    2.500    0.000    4.500    0.000    5.000 
#    0.000    2.500    0.000   18.000    0.000    0.000 
#    0.000    0.000    0.000    0.000    0.000    0.000 
#
# Total GULP energy -89224.136883 kJ/mol
# GULP energy per Si atom -5576.508555 kJ/mol
# Density = 2.287154 g / cm^3
# Si number density = 22.923718 Si / 1000 Ang^3
#
#
#
# Elastic Constant Matrix: (Units=GPa)
#
#
# Indices 1 2 3 4 5 6 
#
# 1 118.5552 35.3979 37.3545 0.0000 -0.6339 0.0000
# 2 35.3979 41.2657 65.3305 0.0000 8.0158 0.0000
# 3 37.3545 65.3305 185.5450 0.0000 -20.6874 0.0000
# 4 0.0000 0.0000 0.0000 -22.2803 0.0000 49.7424
# 5 -0.6339 8.0158 -20.6874 0.0000 24.6361 0.0000
# 6 0.0000 0.0000 0.0000 49.7424 0.0000 -8.9229
#
#
#
# Elastic Compliance Matrix: (Units=1/GPa)
#
#
# Indices 1 2 3 4 5 6 
#
# 1 0.016681 -0.042510 0.014563 0.000000 0.026490 0.000000
# 2 -0.042510 0.236881 -0.092195 0.000000 -0.155585 0.000000
# 3 0.014563 -0.092195 0.042263 0.000000 0.065861 0.000000
# 4 0.000000 0.000000 0.000000 0.003921 0.000000 0.021860
# 5 0.026490 -0.155585 0.065861 0.000000 0.147200 0.000000
# 6 0.000000 0.000000 0.000000 0.021860 0.000000 0.009791
#
#
# Mechanical properties :
#
#
# Convention : Reuss Voigt Hill
#
# Bulk Modulus (GPa) = 18.00488 69.05907 43.53198
# Shear Modulus (GPa) = 6.98780 12.50544 9.74662
#
# Velocity S-wave (km/s) = 1.74783 2.33818 2.06422
# Velocity P-wave (km/s) = 3.45608 6.12213 4.97116
#
# Compressibility (1/GPa) = 0.05554049
#
# Stress axis : x y z
#
# Youngs Moduli (GPa) = 59.95021 4.22154 23.66161
#
# Poissons Ratio (x) = 0.17946 -0.34459
# Poissons Ratio (y) = 2.54849 2.18147
# Poissons Ratio (z) = -0.87307 0.38920
#
# Static dielectric constant tensor:
#      x y z
#    x 1.910410 0.000000 -0.051930 
#    y 0.000000 1.869070 0.000000 
#    z -0.051930 0.000000 1.926290 
# 
# From -- ./inp_files/11119.got.cif
#   From: 2010.05.17/outbox.cif.g08.bks.cpg/sg13_6_cif.got.tgz:11119.got - 2010.06.03 16:44:36.
