data_PCOD9230904
_publ_section_title
;
Structure prediction by ZEFSAII (Michael W. Deem and Ramdas Pophale) SiO2 
 PCOD9230904
Probable space group: P 2/C
;
_chemical_formula_sum "Si O2"
_cell_formula_units_Z 30
_cell_length_a 11.571509
_cell_length_b 6.208175
_cell_length_c 19.080540
_cell_angle_alpha 90.000000
_cell_angle_beta 96.242201
_cell_angle_gamma 90.000000
_cell_volume 1362.580215
_symmetry_space_group_name_H-M "P 2/C"
_symmetry_group_IT_number 13
_symmetry_cell_setting 'monoclinic'
loop_
_space_group_symop_operation_xyz
x,y,z
-x,y,1/2-z
-x,-y,-z
x,-y,1/2+z
loop_
_atom_site_type_symbol
_atom_site_label
_atom_site_fract_x
_atom_site_fract_y
_atom_site_fract_z
Si Si1 0.361950 0.719354 0.443934
Si Si2 0.757477 0.310050 0.916077
Si Si3 0.000000 0.272482 0.750000
Si Si4 0.799154 0.649277 0.571221
Si Si5 0.361130 0.107486 0.334292
Si Si6 0.802019 0.023415 0.298982
Si Si7 0.954679 0.408645 0.370495
Si Si8 0.448122 0.626931 0.595366
O O1 0.236460 0.602493 0.436288
O O2 0.399343 0.765843 0.526467
O O3 0.452510 0.533997 0.426692
O O4 0.368171 0.904706 0.387239
O O5 0.874717 0.449996 0.915957
O O6 0.654608 0.471378 0.886458
O O7 0.768744 0.108591 0.866134
O O8 0.744016 0.252281 0.996718
O O9 0.990510 0.428900 0.682879
O O10 0.110951 0.123375 0.741933
O O11 0.736722 0.743283 0.635221
O O12 0.935284 0.695067 0.584223
O O13 0.311480 0.060395 0.254970
O O14 0.485065 0.224794 0.345545
O O15 0.872976 0.235583 0.326236
#
# Coordination Sequence:
#
# PCOD9230904 Si02
#       8
#     4   4   2   4   4   4   4   4
#     4   9  19  37  64  92 116 149 200 255 300 348
#     4  10  24  41  58  88 130 161 196 254 311 359
#     4  10  20  38  60  84 122 158 200 260 304 356
#     4  10  21  38  63  93 119 156 206 254 303 357
#     4  11  21  37  66  91 116 160 208 248 299 363
#     4  11  24  39  59  92 125 163 203 247 309 373
#     4  11  22  39  62  86 121 162 204 250 303 367
#     4   9  20  39  61  88 119 154 200 251 299 355
#
# _framework density 22.017050999999999
#
# number of rings (size 3 to 8) (size 9 to 14) (size 15 to 20)
#    0.000    1.867    0.000    4.400    0.000    8.000 
#    0.000    4.000    0.000    0.000    0.000    0.000 
#    0.000    0.000    0.000    0.000    0.000    0.000 
#
# Total GULP energy -167689.653849 kJ/mol
# GULP energy per Si atom -5589.655128 kJ/mol
# Density = 2.196694 g / cm^3
# Si number density = 22.017051 Si / 1000 Ang^3
#
#
#
# Elastic Constant Matrix: (Units=GPa)
#
#
# Indices 1 2 3 4 5 6 
#
# 1 57.3723 -2.7355 23.4778 0.0000 8.1990 0.0000
# 2 -2.7355 36.4646 25.2027 0.0000 13.5534 0.0000
# 3 23.4778 25.2027 48.0796 0.0000 15.6959 0.0000
# 4 0.0000 0.0000 0.0000 20.1055 0.0000 -2.4895
# 5 8.1990 13.5534 15.6959 0.0000 41.5583 0.0000
# 6 0.0000 0.0000 0.0000 -2.4895 0.0000 23.7813
#
#
#
# Elastic Compliance Matrix: (Units=1/GPa)
#
#
# Indices 1 2 3 4 5 6 
#
# 1 0.027990 0.018830 -0.022506 0.000000 -0.003163 0.000000
# 2 0.018830 0.057162 -0.036340 0.000000 -0.008632 0.000000
# 3 -0.022506 -0.036340 0.051921 0.000000 -0.003318 0.000000
# 4 0.000000 0.000000 0.000000 0.050391 0.000000 0.005275
# 5 -0.003163 -0.008632 -0.003318 0.000000 0.028755 0.000000
# 6 0.000000 0.000000 0.000000 0.005275 0.000000 0.042602
#
#
# Mechanical properties :
#
#
# Convention : Reuss Voigt Hill
#
# Bulk Modulus (GPa) = 17.53141 25.97851 21.75496
# Shear Modulus (GPa) = 13.97177 23.48714 18.72945
#
# Velocity S-wave (km/s) = 2.52184 3.26969 2.91981
# Velocity P-wave (km/s) = 4.05703 5.10680 4.61188
#
# Compressibility (1/GPa) = 0.05704047
#
# Stress axis : x y z
#
# Youngs Moduli (GPa) = 35.72761 17.49428 19.26007
#
# Poissons Ratio (x) = -0.32942 0.43346
# Poissons Ratio (y) = -0.67276 0.69992
# Poissons Ratio (z) = 0.80407 0.63575
#
# Static dielectric constant tensor:
#      x y z
#    x 1.818860 0.000000 0.016930 
#    y 0.000000 1.815030 0.000000 
#    z 0.016930 0.000000 1.788430 
# 
# From -- ./inp_files/77567.got.cif
#   From: 2010.05.17/outbox.cif.g08.bks.cpg/sg13_39_cif.got.tgz:77567.got - 2010.06.03 16:44:36.
