data_PCOD9230421
_publ_section_title
;
Structure prediction by ZEFSAII (Michael W. Deem and Ramdas Pophale) SiO2 
 PCOD9230421
Probable space group: P 2/C
;
_chemical_formula_sum "Si O2"
_cell_formula_units_Z 18
_cell_length_a 13.880545
_cell_length_b 6.631436
_cell_length_c 21.399772
_cell_angle_alpha 90.000000
_cell_angle_beta 158.914348
_cell_angle_gamma 90.000000
_cell_volume 708.663304
_symmetry_space_group_name_H-M "P 2/C"
_symmetry_group_IT_number 13
_symmetry_cell_setting 'monoclinic'
loop_
_space_group_symop_operation_xyz
x,y,z
-x,y,1/2-z
-x,-y,-z
x,-y,1/2+z
loop_
_atom_site_type_symbol
_atom_site_label
_atom_site_fract_x
_atom_site_fract_y
_atom_site_fract_z
Si Si1 0.773330 0.119771 0.162211
Si Si2 0.500000 0.848476 0.750000
Si Si3 0.257782 0.811715 0.725944
Si Si4 0.270309 0.524521 0.439758
Si Si5 0.774786 0.450428 0.946074
O O1 0.873003 0.081836 0.293706
O O2 0.687143 0.343267 0.083897
O O3 0.000000 0.061231 0.250000
O O4 0.500000 0.000000 0.000000
O O5 0.375480 0.935156 0.738665
O O6 0.732300 0.690833 0.912473
O O7 0.031462 0.650144 0.570478
O O8 0.495982 0.679066 0.901181
O O9 0.212010 0.419892 0.471490
O O10 0.000000 0.624614 0.250000
O O11 0.500000 0.366227 0.750000
#
# Coordination Sequence:
#
# PCOD9230421 Si02
#       5
#     4   2   4   4   4
#     4  11  24  43  61  88 125 170 214 264 312 371
#     4   8  20  30  58  98 120 156 192 254 318 372
#     4  11  19  39  64  92 130 155 209 260 317 382
#     4  10  20  36  62  96 121 160 209 259 322 369
#     4   9  18  33  58  92 127 154 195 252 316 368
#
# _framework density 25.399934999999999
#
# number of rings (size 3 to 8) (size 9 to 14) (size 15 to 20)
#    0.667    1.333    4.444    1.333    0.000    0.889 
#    4.000    0.000    2.444    2.667    0.000    0.000 
#    0.000    0.000    0.000    0.000    0.000    0.000 
#
# Total GULP energy -100306.057318 kJ/mol
# GULP energy per Si atom -5572.558740 kJ/mol
# Density = 2.534212 g / cm^3
# Si number density = 25.399935 Si / 1000 Ang^3
#
#
#
# Elastic Constant Matrix: (Units=GPa)
#
#
# Indices 1 2 3 4 5 6 
#
# 1 256.5146 12.9163 18.9607 0.0000 -0.8577 0.0000
# 2 12.9163 56.9071 16.0057 0.0000 5.1474 0.0000
# 3 18.9607 16.0057 157.5678 0.0000 1.0627 0.0000
# 4 0.0000 0.0000 0.0000 50.3324 0.0000 26.7072
# 5 -0.8577 5.1474 1.0627 0.0000 44.2819 0.0000
# 6 0.0000 0.0000 0.0000 26.7072 0.0000 29.0066
#
#
#
# Elastic Compliance Matrix: (Units=1/GPa)
#
#
# Indices 1 2 3 4 5 6 
#
# 1 0.003969 -0.000805 -0.000397 0.000000 0.000180 0.000000
# 2 -0.000805 0.018442 -0.001762 0.000000 -0.002117 0.000000
# 3 -0.000397 -0.001762 0.006573 0.000000 0.000039 0.000000
# 4 0.000000 0.000000 0.000000 0.038847 0.000000 -0.035767
# 5 0.000180 -0.002117 0.000039 0.000000 0.022831 0.000000
# 6 0.000000 0.000000 0.000000 -0.035767 0.000000 0.067407
#
#
# Mechanical properties :
#
#
# Convention : Reuss Voigt Hill
#
# Bulk Modulus (GPa) = 43.37434 62.97277 53.17355
# Shear Modulus (GPa) = 29.12340 52.93130 41.02735
#
# Velocity S-wave (km/s) = 3.38981 4.56994 4.02338
# Velocity P-wave (km/s) = 5.69515 7.25894 6.52407
#
# Compressibility (1/GPa) = 0.02305511
#
# Stress axis : x y z
#
# Youngs Moduli (GPa) = 251.95790 54.22270 152.13793
#
# Poissons Ratio (x) = 0.04367 0.06040
# Poissons Ratio (y) = 0.20294 0.26809
# Poissons Ratio (z) = 0.10003 0.09555
#
# Static dielectric constant tensor:
#      x y z
#    x 2.135770 0.000000 -0.010310 
#    y 0.000000 2.082570 0.000000 
#    z -0.010310 0.000000 1.992290 
# 
# From -- ./inp_files/87120.got.cif
#   From: 2010.05.17/outbox.cif.g08.bks.cpg/sg13_44_cif.got.tgz:87120.got - 2010.06.03 16:44:36.
