data_PCOD9230956
_publ_section_title
;
Structure prediction by ZEFSAII (Michael W. Deem and Ramdas Pophale) SiO2 
 PCOD9230956
Probable space group: P 2/C
;
_chemical_formula_sum "Si O2"
_cell_formula_units_Z 22
_cell_length_a 15.366014
_cell_length_b 15.624705
_cell_length_c 5.099118
_cell_angle_alpha 90.000000
_cell_angle_beta 63.034857
_cell_angle_gamma 90.000000
_cell_volume 1091.147642
_symmetry_space_group_name_H-M "P 2/C"
_symmetry_group_IT_number 13
_symmetry_cell_setting 'monoclinic'
loop_
_space_group_symop_operation_xyz
x,y,z
-x,y,1/2-z
-x,-y,-z
x,-y,1/2+z
loop_
_atom_site_type_symbol
_atom_site_label
_atom_site_fract_x
_atom_site_fract_y
_atom_site_fract_z
Si Si1 0.207111 0.740992 0.134572
Si Si2 0.500000 0.935742 0.250000
Si Si3 0.712122 0.438824 0.915139
Si Si4 0.704347 0.163001 0.479213
Si Si5 0.885812 0.946502 0.730637
Si Si6 0.500000 0.438652 0.250000
Si Si7 0.000000 0.809254 0.250000
O O1 0.215298 0.639488 0.159976
O O2 0.256652 0.790044 0.311769
O O3 0.092489 0.762033 0.252773
O O4 0.267333 0.774038 0.798578
O O5 0.405221 0.873267 0.370078
O O6 0.500000 0.000000 0.500000
O O7 0.720044 0.490982 0.634315
O O8 0.604479 0.394473 0.091324
O O9 0.773745 0.080501 0.353574
O O10 0.947003 0.866894 0.541810
O O11 0.903198 0.022676 0.500664
O O12 0.500000 0.500000 0.500000
#
# Coordination Sequence:
#
# PCOD9230956 Si02
#       7
#     4   2   4   4   4   2   2
#     4  11  24  42  61  88 125 160 202 259 309 368
#     4  12  24  42  64  92 130 174 210 246 292 368
#     4  10  20  38  61  88 117 153 197 247 303 366
#     4  11  24  40  60  90 124 163 203 249 309 361
#     4  11  21  37  59  85 112 150 200 251 293 346
#     4   8  16  30  54  82 108 136 178 230 282 334
#     4  10  24  40  60  88 122 160 202 256 318 356
#
# _framework density 20.162258000000001
#
# number of rings (size 3 to 8) (size 9 to 14) (size 15 to 20)
#    0.000    1.455    0.000    6.000    0.000    7.273 
#    0.000    2.727    0.000    0.000    0.000    0.000 
#    0.000    0.000    0.000    0.000    0.000    0.000 
#
# Total GULP energy -122860.981292 kJ/mol
# GULP energy per Si atom -5584.590059 kJ/mol
# Density = 2.011637 g / cm^3
# Si number density = 20.162258 Si / 1000 Ang^3
#
#
#
# Elastic Constant Matrix: (Units=GPa)
#
#
# Indices 1 2 3 4 5 6 
#
# 1 151.2504 49.7242 51.3899 0.0000 -23.4750 0.0000
# 2 49.7242 61.0056 2.1234 0.0000 -16.5323 0.0000
# 3 51.3899 2.1234 74.0997 0.0000 5.9609 0.0000
# 4 0.0000 0.0000 0.0000 11.8418 0.0000 -4.2681
# 5 -23.4750 -16.5323 5.9609 0.0000 55.4368 0.0000
# 6 0.0000 0.0000 0.0000 -4.2681 0.0000 32.3186
#
#
#
# Elastic Compliance Matrix: (Units=1/GPa)
#
#
# Indices 1 2 3 4 5 6 
#
# 1 0.013642 -0.009733 -0.009496 0.000000 0.003895 0.000000
# 2 -0.009733 0.024844 0.005824 0.000000 0.002661 0.000000
# 3 -0.009496 0.005824 0.020273 0.000000 -0.004464 0.000000
# 4 0.000000 0.000000 0.000000 0.088667 0.000000 0.011710
# 5 0.003895 0.002661 -0.004464 0.000000 0.020962 0.000000
# 6 0.000000 0.000000 0.000000 0.011710 0.000000 0.032488
#
#
# Mechanical properties :
#
#
# Convention : Reuss Voigt Hill
#
# Bulk Modulus (GPa) = 31.29926 54.75896 43.02911
# Shear Modulus (GPa) = 20.97879 32.12731 26.55305
#
# Velocity S-wave (km/s) = 3.22917 3.99612 3.63294
# Velocity P-wave (km/s) = 5.42778 6.96492 6.24383
#
# Compressibility (1/GPa) = 0.03194963
#
# Stress axis : x y z
#
# Youngs Moduli (GPa) = 73.30112 40.25150 49.32664
#
# Poissons Ratio (x) = 0.39179 0.46839
# Poissons Ratio (y) = 0.71347 -0.28730
# Poissons Ratio (z) = 0.69605 -0.23444
#
# Static dielectric constant tensor:
#      x y z
#    x 1.781730 0.000000 -0.015400 
#    y 0.000000 1.685990 0.000000 
#    z -0.015400 0.000000 1.730120 
# 
# From -- ./inp_files/4923.got.cif
#   From: 2010.05.17/outbox.cif.g08.bks.cpg/sg13_3_cif.got.tgz:4923.got - 2010.06.03 16:44:36.
