data_PCOD9230166
_publ_section_title
;
Structure prediction by ZEFSAII (Michael W. Deem and Ramdas Pophale) SiO2 
 PCOD9230166
Probable space group: P 2/C
;
_chemical_formula_sum "Si O2"
_cell_formula_units_Z 22
_cell_length_a 16.316269
_cell_length_b 16.111223
_cell_length_c 5.111276
_cell_angle_alpha 90.000000
_cell_angle_beta 70.088815
_cell_angle_gamma 90.000000
_cell_volume 1263.307141
_symmetry_space_group_name_H-M "P 2/C"
_symmetry_group_IT_number 13
_symmetry_cell_setting 'monoclinic'
loop_
_space_group_symop_operation_xyz
x,y,z
-x,y,1/2-z
-x,-y,-z
x,-y,1/2+z
loop_
_atom_site_type_symbol
_atom_site_label
_atom_site_fract_x
_atom_site_fract_y
_atom_site_fract_z
Si Si1 0.181187 0.273353 0.681301
Si Si2 0.395612 0.055164 0.854937
Si Si3 0.256335 0.813777 0.608408
Si Si4 0.102771 0.942341 0.805048
Si Si5 0.000000 0.816803 0.250000
Si Si6 0.896839 0.446336 0.874239
O O1 0.244434 0.235760 0.390614
O O2 0.163046 0.369956 0.647650
O O3 0.084675 0.233303 0.751108
O O4 0.219714 0.244658 0.916677
O O5 0.500000 0.066064 0.750000
O O6 0.371637 0.009883 0.610440
O O7 0.348127 0.143074 0.946477
O O8 0.193143 0.893354 0.703458
O O9 0.096830 0.988296 0.536365
O O10 0.034609 0.873426 0.976244
O O11 0.882578 0.520688 0.682738
O O12 0.000000 0.422960 0.750000
#
# Coordination Sequence:
#
# PCOD9230166 Si02
#       6
#     4   4   4   4   2   4
#     4  11  22  36  51  75 106 134 171 213 261 313
#     4  10  20  36  57  79 106 140 180 222 266 316
#     4  11  22  34  52  75 103 136 169 221 266 304
#     4  11  21  33  45  62  91 132 178 213 242 285
#     4  10  22  34  46  68  96 140 174 218 252 294
#     4  10  20  36  56  77 100 135 174 214 257 315
#
# _framework density 17.414608999999999
#
# number of rings (size 3 to 8) (size 9 to 14) (size 15 to 20)
#    0.000    1.455    0.909    6.000    0.000    5.818 
#    0.000    0.000    0.000    0.000    0.000    0.000 
#    0.000   14.545    0.000    0.000    0.000    0.000 
#
# Total GULP energy -122882.666082 kJ/mol
# GULP energy per Si atom -5585.575731 kJ/mol
# Density = 1.737497 g / cm^3
# Si number density = 17.414609 Si / 1000 Ang^3
#
#
#
# Elastic Constant Matrix: (Units=GPa)
#
#
# Indices 1 2 3 4 5 6 
#
# 1 28.6925 17.3562 18.7656 0.0000 -6.2268 0.0000
# 2 17.3562 50.4801 -8.1631 0.0000 -13.9480 0.0000
# 3 18.7656 -8.1631 65.8005 0.0000 1.4326 0.0000
# 4 0.0000 0.0000 0.0000 66.5405 0.0000 52.9726
# 5 -6.2268 -13.9480 1.4326 0.0000 18.4217 0.0000
# 6 0.0000 0.0000 0.0000 52.9726 0.0000 66.0500
#
#
#
# Elastic Compliance Matrix: (Units=1/GPa)
#
#
# Indices 1 2 3 4 5 6 
#
# 1 0.064867 -0.024378 -0.021636 0.000000 0.005151 0.000000
# 2 -0.024378 0.034700 0.010883 0.000000 0.017187 0.000000
# 3 -0.021636 0.010883 0.022736 0.000000 -0.000841 0.000000
# 4 0.000000 0.000000 0.000000 0.041569 0.000000 -0.033339
# 5 0.005151 0.017187 -0.000841 0.000000 0.069103 0.000000
# 6 0.000000 0.000000 0.000000 -0.033339 0.000000 0.041878
#
#
# Mechanical properties :
#
#
# Convention : Reuss Voigt Hill
#
# Bulk Modulus (GPa) = 19.21547 22.32117 20.76832
# Shear Modulus (GPa) = 13.79450 38.00340 25.89895
#
# Velocity S-wave (km/s) = 2.81752 4.67655 3.86060
# Velocity P-wave (km/s) = 4.65216 6.48116 5.64128
#
# Compressibility (1/GPa) = 0.05204141
#
# Stress axis : x y z
#
# Youngs Moduli (GPa) = 15.41617 28.81818 43.98278
#
# Poissons Ratio (x) = 0.70254 0.95160
# Poissons Ratio (y) = 0.37582 -0.47867
# Poissons Ratio (z) = 0.33354 -0.31363
#
# Static dielectric constant tensor:
#      x y z
#    x 1.629970 0.000000 0.005330 
#    y 0.000000 1.586240 0.000000 
#    z 0.005330 0.000000 1.607820 
# 
# From -- ./inp_files/6082.got.cif
#   From: 2010.05.17/outbox.cif.g08.bks.cpg/sg13_4_cif.got.tgz:6082.got - 2010.06.03 16:44:36.
