data_PCOD9230074
_publ_section_title
;
Structure prediction by ZEFSAII (Michael W. Deem and Ramdas Pophale) SiO2 
 PCOD9230074
Probable space group: P 2/C
;
_chemical_formula_sum "Si O2"
_cell_formula_units_Z 28
_cell_length_a 15.469560
_cell_length_b 9.428457
_cell_length_c 11.445493
_cell_angle_alpha 90.000000
_cell_angle_beta 56.006574
_cell_angle_gamma 90.000000
_cell_volume 1384.079098
_symmetry_space_group_name_H-M "P 2/C"
_symmetry_group_IT_number 13
_symmetry_cell_setting 'monoclinic'
loop_
_space_group_symop_operation_xyz
x,y,z
-x,y,1/2-z
-x,-y,-z
x,-y,1/2+z
loop_
_atom_site_type_symbol
_atom_site_label
_atom_site_fract_x
_atom_site_fract_y
_atom_site_fract_z
Si Si1 0.000000 0.409126 0.250000
Si Si2 0.804968 0.489602 0.026848
Si Si3 0.742199 0.954231 0.648176
Si Si4 0.278097 0.235470 0.983958
Si Si5 0.613810 0.289504 0.118855
Si Si6 0.500000 0.751831 0.250000
Si Si7 0.592887 0.108140 0.905469
Si Si8 0.141167 0.727991 0.817915
O O1 0.903027 0.504607 0.364828
O O2 0.964833 0.307599 0.169983
O O3 0.775274 0.653529 0.064239
O O4 0.703746 0.407301 0.054195
O O5 0.834510 0.408925 0.121982
O O6 0.744161 0.077109 0.548254
O O7 0.699369 0.025927 0.799030
O O8 0.656834 0.838601 0.668421
O O9 0.843537 0.862653 0.607536
O O10 0.397573 0.293062 0.901036
O O11 0.224957 0.254714 0.150134
O O12 0.500000 0.338288 0.250000
O O13 0.601297 0.222367 0.000408
O O14 0.436444 0.829431 0.197252
O O15 0.500000 0.000000 0.000000
#
# Coordination Sequence:
#
# PCOD9230074 Si02
#       8
#     2   4   4   4   4   2   4   4
#     4  10  22  44  70  90 120 166 222 274 332 384
#     4  10  24  42  64  92 125 170 217 268 323 376
#     4  10  20  35  60  90 128 168 206 257 324 385
#     4  10  22  38  58  92 133 168 215 255 317 388
#     4  11  22  35  59  95 128 167 217 254 312 390
#     4  10  22  30  50  84 122 176 200 240 304 368
#     4  11  18  33  54  84 129 174 208 249 305 385
#     4  10  21  42  67  91 120 165 215 275 321 382
#
# _framework density 20.230058
#
# number of rings (size 3 to 8) (size 9 to 14) (size 15 to 20)
#    0.000    1.714    1.429    3.857    4.000    4.571 
#    0.000    4.286    0.000   20.571    0.000    0.000 
#    0.000    0.000    0.000    0.000    0.000    0.000 
#
# Total GULP energy -155893.864286 kJ/mol
# GULP energy per Si atom -5567.638010 kJ/mol
# Density = 2.018401 g / cm^3
# Si number density = 20.230058 Si / 1000 Ang^3
#
#
#
# Elastic Constant Matrix: (Units=GPa)
#
#
# Indices 1 2 3 4 5 6 
#
# 1 112.2466 45.2615 23.0856 0.0000 3.8559 0.0000
# 2 45.2615 72.8023 27.5917 0.0000 -12.7827 0.0000
# 3 23.0856 27.5917 68.3359 0.0000 -10.2292 0.0000
# 4 0.0000 0.0000 0.0000 28.0176 0.0000 11.0434
# 5 3.8559 -12.7827 -10.2292 0.0000 36.6142 0.0000
# 6 0.0000 0.0000 0.0000 11.0434 0.0000 33.9894
#
#
#
# Elastic Compliance Matrix: (Units=1/GPa)
#
#
# Indices 1 2 3 4 5 6 
#
# 1 0.012659 -0.008027 -0.001727 0.000000 -0.004618 0.000000
# 2 -0.008027 0.021888 -0.005068 0.000000 0.007071 0.000000
# 3 -0.001727 -0.005068 0.017769 0.000000 0.003377 0.000000
# 4 0.000000 0.000000 0.000000 0.040934 0.000000 -0.013300
# 5 -0.004618 0.007071 0.003377 0.000000 0.031210 0.000000
# 6 0.000000 0.000000 0.000000 -0.013300 0.000000 0.033742
#
#
# Mechanical properties :
#
#
# Convention : Reuss Voigt Hill
#
# Bulk Modulus (GPa) = 44.10416 49.47357 46.78886
# Shear Modulus (GPa) = 25.58810 30.22062 27.90436
#
# Velocity S-wave (km/s) = 3.56034 3.86923 3.71799
# Velocity P-wave (km/s) = 6.22495 6.66857 6.45057
#
# Compressibility (1/GPa) = 0.02267360
#
# Stress axis : x y z
#
# Youngs Moduli (GPa) = 78.99267 45.68665 56.27892
#
# Poissons Ratio (x) = 0.36671 0.09719
# Poissons Ratio (y) = 0.63405 0.28520
# Poissons Ratio (z) = 0.13642 0.23152
#
# Static dielectric constant tensor:
#      x y z
#    x 1.781150 0.000000 -0.075740 
#    y 0.000000 1.745190 0.000000 
#    z -0.075740 0.000000 1.735840 
# 
# From -- ./inp_files/36380.got.cif
#   From: 2010.05.17/outbox.cif.g08.bks.cpg/sg13_19_cif.got.tgz:36380.got - 2010.06.03 16:44:36.
