data_PCOD9230827
_publ_section_title
;
Structure prediction by ZEFSAII (Michael W. Deem and Ramdas Pophale) SiO2 
 PCOD9230827
Probable space group: P 2/C
;
_chemical_formula_sum "Si O2"
_cell_formula_units_Z 30
_cell_length_a 19.188893
_cell_length_b 6.853795
_cell_length_c 25.471677
_cell_angle_alpha 90.000000
_cell_angle_beta 29.758901
_cell_angle_gamma 90.000000
_cell_volume 1662.753225
_symmetry_space_group_name_H-M "P 2/C"
_symmetry_group_IT_number 13
_symmetry_cell_setting 'monoclinic'
loop_
_space_group_symop_operation_xyz
x,y,z
-x,y,1/2-z
-x,-y,-z
x,-y,1/2+z
loop_
_atom_site_type_symbol
_atom_site_label
_atom_site_fract_x
_atom_site_fract_y
_atom_site_fract_z
Si Si1 0.137174 0.102628 0.831631
Si Si2 0.104199 0.466062 0.116461
Si Si3 0.000000 0.812291 0.250000
Si Si4 0.669833 0.425472 0.438824
Si Si5 0.865772 0.875861 0.774847
Si Si6 0.167747 0.700230 0.854456
Si Si7 0.340826 0.429166 0.665930
Si Si8 0.091870 0.555925 0.007523
O O1 0.272553 0.239255 0.736357
O O2 0.008223 0.252049 0.923261
O O3 0.116468 0.980977 0.791914
O O4 0.161145 0.933577 0.858619
O O5 0.033716 0.668759 0.180396
O O6 0.228988 0.442275 0.077011
O O7 0.148475 0.494641 0.027315
O O8 0.987221 0.293554 0.197853
O O9 0.118565 0.961947 0.190506
O O10 0.716181 0.223554 0.381391
O O11 0.508114 0.437184 0.559719
O O12 0.696450 0.570229 0.372043
O O13 0.269502 0.610279 0.743446
O O14 0.013028 0.617509 0.941304
O O15 0.198724 0.606002 0.890999
#
# Coordination Sequence:
#
# PCOD9230827 Si02
#       8
#     4   4   2   4   4   4   4   4
#     4  11  19  35  58  85 113 144 186 237 279 336
#     4  12  21  36  55  87 114 144 184 233 288 344
#     4  12  20  32  54  82 118 140 166 232 296 328
#     4  11  21  39  54  80 120 151 188 230 277 346
#     4  12  20  33  57  86 117 138 181 237 286 331
#     4  10  20  38  56  82 113 145 187 238 272 337
#     4  10  23  39  55  81 114 156 193 225 277 336
#     4  10  21  34  59  86 110 142 185 233 296 325
#
# _framework density 18.042366000000001
#
# number of rings (size 3 to 8) (size 9 to 14) (size 15 to 20)
#    0.000    1.067    6.667    2.000    0.000    0.533 
#    2.400    0.667    0.000    0.000    0.000    0.000 
#    0.000    0.000    0.000    0.000    0.000    0.000 
#
# Total GULP energy -167241.443828 kJ/mol
# GULP energy per Si atom -5574.714794 kJ/mol
# Density = 1.800130 g / cm^3
# Si number density = 18.042366 Si / 1000 Ang^3
#
#
#
# Elastic Constant Matrix: (Units=GPa)
#
#
# Indices 1 2 3 4 5 6 
#
# 1 71.5364 2.3122 27.3573 0.0000 17.9786 0.0000
# 2 2.3122 90.6349 17.5790 0.0000 1.1149 0.0000
# 3 27.3573 17.5790 73.6323 0.0000 5.8031 0.0000
# 4 0.0000 0.0000 0.0000 13.0627 0.0000 8.6092
# 5 17.9786 1.1149 5.8031 0.0000 27.7984 0.0000
# 6 0.0000 0.0000 0.0000 8.6092 0.0000 28.0409
#
#
#
# Elastic Compliance Matrix: (Units=1/GPa)
#
#
# Indices 1 2 3 4 5 6 
#
# 1 0.019222 0.000903 -0.006481 0.000000 -0.011115 0.000000
# 2 0.000903 0.011612 -0.003076 0.000000 -0.000408 0.000000
# 3 -0.006481 -0.003076 0.016657 0.000000 0.000838 0.000000
# 4 0.000000 0.000000 0.000000 0.095974 0.000000 -0.029466
# 5 -0.011115 -0.000408 0.000838 0.000000 0.043003 0.000000
# 6 0.000000 0.000000 0.000000 -0.029466 0.000000 0.044709
#
#
# Mechanical properties :
#
#
# Convention : Reuss Voigt Hill
#
# Bulk Modulus (GPa) = 33.13054 36.70005 34.91529
# Shear Modulus (GPa) = 19.33898 26.35075 22.84486
#
# Velocity S-wave (km/s) = 3.27749 3.82579 3.56220
# Velocity P-wave (km/s) = 5.72058 6.31670 6.02602
#
# Compressibility (1/GPa) = 0.03018363
#
# Stress axis : x y z
#
# Youngs Moduli (GPa) = 52.02449 86.11930 60.03360
#
# Poissons Ratio (x) = -0.07780 0.38910
# Poissons Ratio (y) = -0.04700 0.18465
# Poissons Ratio (z) = 0.33719 0.26488
#
# Static dielectric constant tensor:
#      x y z
#    x 1.670850 0.000000 0.040640 
#    y 0.000000 1.647220 0.000000 
#    z 0.040640 0.000000 1.617480 
# 
# From -- ./inp_files/93421.got.cif
#   From: 2010.05.17/outbox.cif.g08.bks.cpg/sg13_47_cif.got.tgz:93421.got - 2010.06.03 16:44:36.
