data_PCOD9230136
_publ_section_title
;
Structure prediction by ZEFSAII (Michael W. Deem and Ramdas Pophale) SiO2 
 PCOD9230136
Probable space group: P 2/C
;
_chemical_formula_sum "Si O2"
_cell_formula_units_Z 28
_cell_length_a 14.334863
_cell_length_b 7.145961
_cell_length_c 13.227446
_cell_angle_alpha 90.000000
_cell_angle_beta 126.948814
_cell_angle_gamma 90.000000
_cell_volume 1082.856473
_symmetry_space_group_name_H-M "P 2/C"
_symmetry_group_IT_number 13
_symmetry_cell_setting 'monoclinic'
loop_
_space_group_symop_operation_xyz
x,y,z
-x,y,1/2-z
-x,-y,-z
x,-y,1/2+z
loop_
_atom_site_type_symbol
_atom_site_label
_atom_site_fract_x
_atom_site_fract_y
_atom_site_fract_z
Si Si1 0.587685 0.292292 0.908131
Si Si2 0.356758 0.159846 0.334012
Si Si3 0.500000 0.935616 0.750000
Si Si4 0.337418 0.265205 0.806100
Si Si5 0.000000 0.229245 0.750000
Si Si6 0.786621 0.512029 0.092626
Si Si7 0.910228 0.247718 0.899389
Si Si8 0.107398 0.312056 0.172281
O O1 0.449528 0.346686 0.819998
O O2 0.589994 0.085670 0.858989
O O3 0.611105 0.263189 0.043011
O O4 0.691167 0.438277 0.951953
O O5 0.444287 0.188575 0.299508
O O6 0.228100 0.220648 0.214346
O O7 0.370207 0.939961 0.366562
O O8 0.288683 0.386142 0.867503
O O9 0.224377 0.216902 0.665161
O O10 0.889969 0.345760 0.631144
O O11 0.943979 0.144629 0.815365
O O12 0.862593 0.338691 0.189147
O O13 0.909410 0.470220 0.870854
O O14 0.998219 0.215648 0.047876
#
# Coordination Sequence:
#
# PCOD9230136 Si02
#       8
#     4   4   2   4   2   4   4   4
#     4  10  20  38  57  79 112 148 185 229 280 336
#     4  10  20  37  57  78 113 150 184 230 284 328
#     4  10  20  36  52  88 110 148 184 232 290 338
#     4   9  17  31  57  76 103 144 176 227 277 325
#     4   8  16  32  50  80 104 140 170 230 280 312
#     4   9  18  35  57  76 107 143 184 223 287 329
#     4   9  17  34  54  78 110 140 187 227 273 328
#     4   8  17  34  55  76 102 148 181 217 278 332
#
# _framework density 25.857538000000002
#
# number of rings (size 3 to 8) (size 9 to 14) (size 15 to 20)
#    0.000    3.143    0.000    2.143    0.000    0.571 
#   30.857    0.000    0.000    9.429    0.000    0.000 
#    0.000    0.000    0.000    0.000    0.000    0.000 
#
# Total GULP energy -156133.118627 kJ/mol
# GULP energy per Si atom -5576.182808 kJ/mol
# Density = 2.579868 g / cm^3
# Si number density = 25.857538 Si / 1000 Ang^3
#
#
#
# Elastic Constant Matrix: (Units=GPa)
#
#
# Indices 1 2 3 4 5 6 
#
# 1 83.2724 3.1577 10.2360 0.0000 7.6087 0.0000
# 2 3.1577 57.7736 9.4740 0.0000 -6.8460 0.0000
# 3 10.2360 9.4740 138.4202 0.0000 36.4134 0.0000
# 4 0.0000 0.0000 0.0000 35.9178 0.0000 4.6424
# 5 7.6087 -6.8460 36.4134 0.0000 43.3372 0.0000
# 6 0.0000 0.0000 0.0000 4.6424 0.0000 20.0987
#
#
#
# Elastic Compliance Matrix: (Units=1/GPa)
#
#
# Indices 1 2 3 4 5 6 
#
# 1 0.012265 -0.000858 -0.000316 0.000000 -0.002024 0.000000
# 2 -0.000858 0.018395 -0.002567 0.000000 0.005213 0.000000
# 3 -0.000316 -0.002567 0.009648 0.000000 -0.008457 0.000000
# 4 0.000000 0.000000 0.000000 0.028698 0.000000 -0.006629
# 5 -0.002024 0.005213 -0.008457 0.000000 0.031359 0.000000
# 6 0.000000 0.000000 0.000000 -0.006629 0.000000 0.051285
#
#
# Mechanical properties :
#
#
# Convention : Reuss Voigt Hill
#
# Bulk Modulus (GPa) = 30.46435 36.13351 33.29893
# Shear Modulus (GPa) = 29.39881 36.97730 33.18806
#
# Velocity S-wave (km/s) = 3.37553 3.78569 3.58648
# Velocity P-wave (km/s) = 5.19610 5.75439 5.48236
#
# Compressibility (1/GPa) = 0.03282526
#
# Stress axis : x y z
#
# Youngs Moduli (GPa) = 81.53241 54.36384 103.64748
#
# Poissons Ratio (x) = 0.04666 0.03274
# Poissons Ratio (y) = 0.06998 0.26606
# Poissons Ratio (z) = 0.02576 0.13955
#
# Static dielectric constant tensor:
#      x y z
#    x 2.103800 0.000000 -0.040680 
#    y 0.000000 2.113220 0.000000 
#    z -0.040680 0.000000 2.180060 
# 
# From -- ./inp_files/53145.got.cif
#   From: 2010.05.17/outbox.cif.g08.bks.cpg/sg13_27_cif.got.tgz:53145.got - 2010.06.03 16:44:36.
