data_PCOD9230728
_publ_section_title
;
Structure prediction by ZEFSAII (Michael W. Deem and Ramdas Pophale) SiO2 
 PCOD9230728
Probable space group: P 2/C
;
_chemical_formula_sum "Si O2"
_cell_formula_units_Z 26
_cell_length_a 4.948271
_cell_length_b 9.302835
_cell_length_c 24.343452
_cell_angle_alpha 90.000000
_cell_angle_beta 101.648566
_cell_angle_gamma 90.000000
_cell_volume 1097.521492
_symmetry_space_group_name_H-M "P 2/C"
_symmetry_group_IT_number 13
_symmetry_cell_setting 'monoclinic'
loop_
_space_group_symop_operation_xyz
x,y,z
-x,y,1/2-z
-x,-y,-z
x,-y,1/2+z
loop_
_atom_site_type_symbol
_atom_site_label
_atom_site_fract_x
_atom_site_fract_y
_atom_site_fract_z
Si Si1 0.620083 0.854089 0.979912
Si Si2 0.233895 0.350337 0.406842
Si Si3 0.500000 0.423492 0.250000
Si Si4 0.630574 0.024744 0.871666
Si Si5 0.721269 0.524272 0.373331
Si Si6 0.874120 0.202749 0.601452
Si Si7 0.777167 0.166296 0.201868
O O1 0.394292 0.729913 0.961946
O O2 0.696515 0.910504 0.922855
O O3 0.840118 0.806858 0.034051
O O4 0.500000 0.000000 0.000000
O O5 0.434485 0.481276 0.393025
O O6 0.177443 0.231804 0.356983
O O7 0.931587 0.407145 0.407046
O O8 0.640363 0.506659 0.305850
O O9 0.708751 0.312399 0.231312
O O10 0.426321 0.155638 0.885386
O O11 0.926789 0.080476 0.866886
O O12 0.476291 0.940096 0.817837
O O13 0.926996 0.660389 0.382267
O O14 0.000000 0.093773 0.250000
#
# Coordination Sequence:
#
# PCOD9230728 Si02
#       7
#     4   4   2   4   4   4   4
#     4   9  21  39  65  88 124 157 195 248 307 346
#     4  10  22  38  62  93 113 157 204 241 288 361
#     4  10  22  38  62  82 118 160 194 248 306 340
#     4  10  23  39  61  89 117 153 203 242 301 355
#     4  11  23  40  60  85 124 156 205 240 293 362
#     4  11  23  41  59  88 126 161 188 245 299 359
#     4  10  20  37  63  85 114 148 201 255 294 339
#
# _framework density 23.689738999999999
#
# number of rings (size 3 to 8) (size 9 to 14) (size 15 to 20)
#    0.000    1.846    1.538    1.385    2.154   11.077 
#    2.769    0.000    0.000    0.000    0.000    0.000 
#    0.000    0.000    0.000    0.000    0.000    0.000 
#
# Total GULP energy -144924.645588 kJ/mol
# GULP energy per Si atom -5574.024830 kJ/mol
# Density = 2.363582 g / cm^3
# Si number density = 23.689739 Si / 1000 Ang^3
#
#
#
# Elastic Constant Matrix: (Units=GPa)
#
#
# Indices 1 2 3 4 5 6 
#
# 1 104.3228 17.4326 22.5942 0.0000 19.5739 0.0000
# 2 17.4326 54.4313 43.2672 0.0000 12.6355 0.0000
# 3 22.5942 43.2672 143.4129 0.0000 38.4350 0.0000
# 4 0.0000 0.0000 0.0000 44.6747 0.0000 29.4234
# 5 19.5739 12.6355 38.4350 0.0000 29.2173 0.0000
# 6 0.0000 0.0000 0.0000 29.4234 0.0000 34.0144
#
#
#
# Elastic Compliance Matrix: (Units=1/GPa)
#
#
# Indices 1 2 3 4 5 6 
#
# 1 0.011268 -0.002692 0.001156 0.000000 -0.007905 0.000000
# 2 -0.002692 0.024844 -0.007221 0.000000 0.000559 0.000000
# 3 0.001156 -0.007221 0.012881 0.000000 -0.014596 0.000000
# 4 0.000000 0.000000 0.000000 0.052022 0.000000 -0.045000
# 5 -0.007905 0.000559 -0.014596 0.000000 0.058482 0.000000
# 6 0.000000 0.000000 0.000000 -0.045000 0.000000 0.068326
#
#
# Mechanical properties :
#
#
# Convention : Reuss Voigt Hill
#
# Bulk Modulus (GPa) = 31.76786 52.08389 41.92588
# Shear Modulus (GPa) = 19.54404 36.17279 27.85842
#
# Velocity S-wave (km/s) = 2.87540 3.91185 3.43296
# Velocity P-wave (km/s) = 4.94600 6.51437 5.78359
#
# Compressibility (1/GPa) = 0.03147835
#
# Stress axis : x y z
#
# Youngs Moduli (GPa) = 88.74322 40.25058 77.63212
#
# Poissons Ratio (x) = 0.10837 -0.08971
# Poissons Ratio (y) = 0.23893 0.56058
# Poissons Ratio (z) = -0.10255 0.29065
#
# Static dielectric constant tensor:
#      x y z
#    x 1.881210 0.000000 0.016830 
#    y 0.000000 1.991970 0.000000 
#    z 0.016830 0.000000 1.805170 
# 
# From -- ./inp_files/94933.got.cif
#   From: 2010.05.17/outbox.cif.g08.bks.cpg/sg13_48_cif.got.tgz:94933.got - 2010.06.03 16:44:36.
