data_PCOD9230161
_publ_section_title
;
Structure prediction by ZEFSAII (Michael W. Deem and Ramdas Pophale) SiO2 
 PCOD9230161
Probable space group: P 2/C
;
_chemical_formula_sum "Si O2"
_cell_formula_units_Z 30
_cell_length_a 10.460992
_cell_length_b 14.132306
_cell_length_c 16.172646
_cell_angle_alpha 90.000000
_cell_angle_beta 30.117857
_cell_angle_gamma 90.000000
_cell_volume 1199.722025
_symmetry_space_group_name_H-M "P 2/C"
_symmetry_group_IT_number 13
_symmetry_cell_setting 'monoclinic'
loop_
_space_group_symop_operation_xyz
x,y,z
-x,y,1/2-z
-x,-y,-z
x,-y,1/2+z
loop_
_atom_site_type_symbol
_atom_site_label
_atom_site_fract_x
_atom_site_fract_y
_atom_site_fract_z
Si Si1 0.024599 0.620051 0.869810
Si Si2 0.804010 0.691602 0.557148
Si Si3 0.710070 0.873194 0.410365
Si Si4 0.913501 0.172894 0.391101
Si Si5 0.595860 0.665477 0.497260
Si Si6 0.785451 0.112748 0.121961
Si Si7 0.000000 0.530367 0.250000
Si Si8 0.466769 0.967927 0.152822
O O1 0.047734 0.628288 0.957315
O O2 0.883967 0.715382 0.918413
O O3 0.317345 0.630045 0.675980
O O4 0.917901 0.534497 0.874770
O O5 0.500000 0.684550 0.750000
O O6 0.780795 0.669940 0.474219
O O7 0.918890 0.799408 0.499925
O O8 0.564478 0.773730 0.485376
O O9 0.679429 0.937165 0.347126
O O10 0.000000 0.844925 0.250000
O O11 0.634940 0.940986 0.529169
O O12 0.135808 0.141319 0.329306
O O13 0.000000 0.147612 0.250000
O O14 0.662372 0.116442 0.558073
O O15 0.756863 0.591366 0.354808
O O16 0.500000 0.133362 0.250000
O O17 0.740238 0.998969 0.162076
#
# Coordination Sequence:
#
# PCOD9230161 Si02
#       8
#     4   4   4   4   4   4   2   4
#     4  10  21  39  62  90 122 160 209 260 323 384
#     4   8  17  36  63  84 118 166 200 250 310 381
#     4  11  21  35  55  89 125 162 203 258 309 370
#     4  11  20  36  60  90 122 165 209 260 320 375
#     4  11  22  41  62  90 127 160 211 264 319 377
#     4  10  20  36  55  88 123 168 210 249 307 379
#     4  12  24  38  64  96 116 162 212 272 320 376
#     4  11  21  33  58  87 124 161 211 256 301 375
#
# _framework density 25.005790999999999
#
# number of rings (size 3 to 8) (size 9 to 14) (size 15 to 20)
#    0.000    1.600    1.333    8.000    0.000    1.067 
#    0.000    2.667    0.000    0.000    0.000    0.000 
#    0.000    0.000    0.000    0.000    0.000    0.000 
#
# Total GULP energy -167270.929943 kJ/mol
# GULP energy per Si atom -5575.697665 kJ/mol
# Density = 2.494888 g / cm^3
# Si number density = 25.005791 Si / 1000 Ang^3
#
#
#
# Elastic Constant Matrix: (Units=GPa)
#
#
# Indices 1 2 3 4 5 6 
#
# 1 70.7749 -4.2501 -7.1886 0.0000 1.3319 0.0000
# 2 -4.2501 119.3385 14.9240 0.0000 5.4843 0.0000
# 3 -7.1886 14.9240 65.8018 0.0000 -7.8091 0.0000
# 4 0.0000 0.0000 0.0000 27.7530 0.0000 9.2113
# 5 1.3319 5.4843 -7.8091 0.0000 15.4864 0.0000
# 6 0.0000 0.0000 0.0000 9.2113 0.0000 0.6119
#
#
#
# Elastic Compliance Matrix: (Units=1/GPa)
#
#
# Indices 1 2 3 4 5 6 
#
# 1 0.014306 0.000364 0.001403 0.000000 -0.000652 0.000000
# 2 0.000364 0.008911 -0.002510 0.000000 -0.004453 0.000000
# 3 0.001403 -0.002510 0.017030 0.000000 0.009356 0.000000
# 4 0.000000 0.000000 0.000000 -0.009017 0.000000 0.135730
# 5 -0.000652 -0.004453 0.009356 0.000000 0.070923 0.000000
# 6 0.000000 0.000000 0.000000 0.135730 0.000000 -0.408945
#
#
# Mechanical properties :
#
#
# Convention : Reuss Voigt Hill
#
# Bulk Modulus (GPa) = 25.79890 29.20955 27.50423
# Shear Modulus (GPa) = -17.10068 25.59892 4.24912
#
# Velocity S-wave (km/s) = -2.61793 3.20303 1.30497
# Velocity P-wave (km/s) = 1.09614 5.03842 3.64604
#
# Compressibility (1/GPa) = 0.03876134
#
# Stress axis : x y z
#
# Youngs Moduli (GPa) = 69.90108 112.22143 58.72030
#
# Poissons Ratio (x) = -0.04085 -0.08238
# Poissons Ratio (y) = -0.02544 0.14737
# Poissons Ratio (z) = -0.09807 0.28164
#
# Static dielectric constant tensor:
#      x y z
#    x 2.022760 0.000000 0.047450 
#    y 0.000000 2.154630 0.000000 
#    z 0.047450 0.000000 2.062390 
# 
# From -- ./inp_files/78630.got.cif
#   From: 2010.05.17/outbox.cif.g08.bks.cpg/sg13_40_cif.got.tgz:78630.got - 2010.06.03 16:44:36.
