data_PCOD9230496
_publ_section_title
;
Structure prediction by ZEFSAII (Michael W. Deem and Ramdas Pophale) SiO2 
 PCOD9230496
Probable space group: P 2/C
;
_chemical_formula_sum "Si O2"
_cell_formula_units_Z 30
_cell_length_a 9.059279
_cell_length_b 15.557078
_cell_length_c 10.731222
_cell_angle_alpha 90.000000
_cell_angle_beta 96.092291
_cell_angle_gamma 90.000000
_cell_volume 1503.872773
_symmetry_space_group_name_H-M "P 2/C"
_symmetry_group_IT_number 13
_symmetry_cell_setting 'monoclinic'
loop_
_space_group_symop_operation_xyz
x,y,z
-x,y,1/2-z
-x,-y,-z
x,-y,1/2+z
loop_
_atom_site_type_symbol
_atom_site_label
_atom_site_fract_x
_atom_site_fract_y
_atom_site_fract_z
Si Si1 0.102867 0.414909 0.383425
Si Si2 0.287652 0.125884 0.688900
Si Si3 0.904773 0.601873 0.113986
Si Si4 0.004613 0.899201 0.462331
Si Si5 0.500000 0.979495 0.750000
Si Si6 0.441508 0.841339 0.934971
Si Si7 0.723646 0.223991 0.574280
Si Si8 0.855161 0.773662 0.650927
O O1 0.010321 0.407428 0.503070
O O2 0.000000 0.416974 0.250000
O O3 0.177716 0.509129 0.386773
O O4 0.186751 0.324124 0.389348
O O5 0.112805 0.112489 0.659323
O O6 0.366629 0.139491 0.562433
O O7 0.318508 0.202397 0.786951
O O8 0.358876 0.040475 0.751306
O O9 0.806444 0.685402 0.080535
O O10 0.000000 0.613853 0.250000
O O11 0.925061 0.838755 0.557274
O O12 0.163007 0.853647 0.453770
O O13 0.000000 0.000000 0.500000
O O14 0.511575 0.923295 0.874605
O O15 0.305703 0.813264 0.832210
O O16 0.577578 0.778127 0.976066
O O17 0.000000 0.764685 0.750000
#
# Coordination Sequence:
#
# PCOD9230496 Si02
#       8
#     4   4   4   4   2   4   4   4
#     4   9  19  39  64  94 131 161 213 262 326 383
#     4  11  24  42  59  84 128 165 211 264 311 371
#     4  10  20  36  67  99 123 167 211 265 320 389
#     4  11  24  36  60  91 124 160 218 261 307 368
#     4  12  24  42  64  82 126 176 216 252 322 386
#     4  11  26  40  62  90 125 170 209 261 322 379
#     4  12  23  41  61  94 127 160 214 264 315 380
#     4  10  23  41  61  89 127 166 210 264 318 378
#
# _framework density 19.948497
#
# number of rings (size 3 to 8) (size 9 to 14) (size 15 to 20)
#    0.000    1.333    2.667    2.400    9.333    0.000 
#    0.000    0.667    0.000    0.000    3.467    0.000 
#    0.000    0.000    0.000    0.000    0.000    0.000 
#
# Total GULP energy -167096.045948 kJ/mol
# GULP energy per Si atom -5569.868198 kJ/mol
# Density = 1.990309 g / cm^3
# Si number density = 19.948497 Si / 1000 Ang^3
#
#
#
# Elastic Constant Matrix: (Units=GPa)
#
#
# Indices 1 2 3 4 5 6 
#
# 1 95.4602 32.2432 32.7047 0.0000 17.6697 0.0000
# 2 32.2432 139.4412 28.4099 0.0000 1.1523 0.0000
# 3 32.7047 28.4099 63.3301 0.0000 -0.0265 0.0000
# 4 0.0000 0.0000 0.0000 -11.3241 0.0000 5.0163
# 5 17.6697 1.1523 -0.0265 0.0000 29.2920 0.0000
# 6 0.0000 0.0000 0.0000 5.0163 0.0000 51.8284
#
#
#
# Elastic Compliance Matrix: (Units=1/GPa)
#
#
# Indices 1 2 3 4 5 6 
#
# 1 0.015233 -0.002029 -0.006960 0.000000 -0.009115 0.000000
# 2 -0.002029 0.008166 -0.002615 0.000000 0.000900 0.000000
# 3 -0.006960 -0.002615 0.020559 0.000000 0.004320 0.000000
# 4 0.000000 0.000000 0.000000 -0.084676 0.000000 0.008196
# 5 -0.009115 0.000900 0.004320 0.000000 0.039606 0.000000
# 6 0.000000 0.000000 0.000000 0.008196 0.000000 0.018501
#
#
# Mechanical properties :
#
#
# Convention : Reuss Voigt Hill
#
# Bulk Modulus (GPa) = 48.19276 53.88299 51.03788
# Shear Modulus (GPa) = 105.23316 27.61750 66.42533
#
# Velocity S-wave (km/s) = 7.27097 3.72484 5.77674
# Velocity P-wave (km/s) = 9.73141 6.75048 8.37464
#
# Compressibility (1/GPa) = 0.02075001
#
# Stress axis : x y z
#
# Youngs Moduli (GPa) = 65.64881 122.45906 48.63935
#
# Poissons Ratio (x) = 0.24845 0.33853
# Poissons Ratio (y) = 0.13319 0.12720
# Poissons Ratio (z) = 0.45692 0.32025
#
# Static dielectric constant tensor:
#      x y z
#    x 1.946490 0.000000 0.294360 
#    y 0.000000 1.797510 0.000000 
#    z 0.294360 0.000000 2.055430 
# 
# From -- ./inp_files/30127.got.cif
#   From: 2010.05.17/outbox.cif.g08.bks.cpg/sg13_16_cif.got.tgz:30127.got - 2010.06.03 16:44:36.
