data_PCOD9230288
_publ_section_title
;
Structure prediction by ZEFSAII (Michael W. Deem and Ramdas Pophale) SiO2 
 PCOD9230288
Probable space group: P 2/C
;
_chemical_formula_sum "Si O2"
_cell_formula_units_Z 28
_cell_length_a 13.248006
_cell_length_b 9.363006
_cell_length_c 11.351299
_cell_angle_alpha 90.000000
_cell_angle_beta 119.176451
_cell_angle_gamma 90.000000
_cell_volume 1229.381207
_symmetry_space_group_name_H-M "P 2/C"
_symmetry_group_IT_number 13
_symmetry_cell_setting 'monoclinic'
loop_
_space_group_symop_operation_xyz
x,y,z
-x,y,1/2-z
-x,-y,-z
x,-y,1/2+z
loop_
_atom_site_type_symbol
_atom_site_label
_atom_site_fract_x
_atom_site_fract_y
_atom_site_fract_z
Si Si1 0.256866 0.031550 0.129168
Si Si2 0.500000 0.608165 0.750000
Si Si3 0.600024 0.634550 0.169242
Si Si4 0.908914 0.784155 0.523797
Si Si5 0.723341 0.708444 0.998577
Si Si6 0.180888 0.488331 0.604554
Si Si7 0.836390 0.761209 0.746483
Si Si8 0.500000 0.877214 0.250000
O O1 0.226896 0.136224 0.002124
O O2 0.252362 0.129106 0.243986
O O3 0.383060 0.966732 0.178481
O O4 0.161997 0.906509 0.082335
O O5 0.474290 0.508173 0.849528
O O6 0.612734 0.695806 0.847648
O O7 0.700500 0.603946 0.322699
O O8 0.519248 0.768067 0.152706
O O9 0.672473 0.672065 0.095549
O O10 0.913189 0.634816 0.455526
O O11 0.841889 0.759455 0.609514
O O12 0.039810 0.816265 0.634248
O O13 0.812397 0.588367 0.006114
O O14 0.180121 0.601373 0.710975
#
# Coordination Sequence:
#
# PCOD9230288 Si02
#       8
#     4   2   4   4   4   4   4   2
#     4  11  24  41  59  90 131 164 206 254 306 375
#     4   9  19  36  54  84 122 162 208 262 296 352
#     4  10  20  36  59  87 121 162 208 251 304 367
#     4  11  22  42  68  92 124 166 205 261 321 364
#     4  10  21  36  57  87 119 165 208 248 306 368
#     4  10  20  40  63  91 124 152 204 267 308 367
#     4  10  24  42  66  95 123 162 212 258 314 374
#     4  11  23  40  56  88 126 164 206 248 304 372
#
# _framework density 22.775687000000001
#
# number of rings (size 3 to 8) (size 9 to 14) (size 15 to 20)
#    0.000    1.714    1.429    2.571    2.000    0.571 
#    7.714    0.000    0.000    6.857    0.000    0.000 
#    0.000    0.000    0.000    0.000    0.000    0.000 
#
# Total GULP energy -156334.277161 kJ/mol
# GULP energy per Si atom -5583.367041 kJ/mol
# Density = 2.272385 g / cm^3
# Si number density = 22.775687 Si / 1000 Ang^3
#
#
#
# Elastic Constant Matrix: (Units=GPa)
#
#
# Indices 1 2 3 4 5 6 
#
# 1 66.4700 23.7203 4.5619 0.0000 -12.2842 0.0000
# 2 23.7203 125.7154 16.2562 0.0000 -4.2518 0.0000
# 3 4.5619 16.2562 22.0382 0.0000 -10.5581 0.0000
# 4 0.0000 0.0000 0.0000 10.9373 0.0000 2.5749
# 5 -12.2842 -4.2518 -10.5581 0.0000 45.2378 0.0000
# 6 0.0000 0.0000 0.0000 2.5749 0.0000 35.8938
#
#
#
# Elastic Compliance Matrix: (Units=1/GPa)
#
#
# Indices 1 2 3 4 5 6 
#
# 1 0.016947 -0.003174 0.001008 0.000000 0.004539 0.000000
# 2 -0.003174 0.009412 -0.007065 0.000000 -0.001626 0.000000
# 3 0.001008 -0.007065 0.056510 0.000000 0.012799 0.000000
# 4 0.000000 0.000000 0.000000 0.093001 0.000000 -0.006672
# 5 0.004539 -0.001626 0.012799 0.000000 0.026172 0.000000
# 6 0.000000 0.000000 0.000000 -0.006672 0.000000 0.028339
#
#
# Mechanical properties :
#
#
# Convention : Reuss Voigt Hill
#
# Bulk Modulus (GPa) = 15.52632 33.70004 24.61318
# Shear Modulus (GPa) = 18.49718 29.72613 24.11166
#
# Velocity S-wave (km/s) = 2.85291 3.61663 3.25723
# Velocity P-wave (km/s) = 4.20523 5.68055 4.99763
#
# Compressibility (1/GPa) = 0.06440678
#
# Stress axis : x y z
#
# Youngs Moduli (GPa) = 59.00816 106.24789 17.69599
#
# Poissons Ratio (x) = 0.33727 -0.01784
# Poissons Ratio (y) = 0.18732 0.12502
# Poissons Ratio (z) = -0.05948 0.75060
#
# Static dielectric constant tensor:
#      x y z
#    x 1.892280 0.000000 0.020370 
#    y 0.000000 1.889460 0.000000 
#    z 0.020370 0.000000 1.855330 
# 
# From -- ./inp_files/36264.got.cif
#   From: 2010.05.17/outbox.cif.g08.bks.cpg/sg13_19_cif.got.tgz:36264.got - 2010.06.03 16:44:36.
