data_PCOD9230876
_publ_section_title
;
Structure prediction by ZEFSAII (Michael W. Deem and Ramdas Pophale) SiO2 
 PCOD9230876
Probable space group: P 2/C
;
_chemical_formula_sum "Si O2"
_cell_formula_units_Z 24
_cell_length_a 7.467464
_cell_length_b 7.289561
_cell_length_c 25.444636
_cell_angle_alpha 90.000000
_cell_angle_beta 132.015527
_cell_angle_gamma 90.000000
_cell_volume 1029.054113
_symmetry_space_group_name_H-M "P 2/C"
_symmetry_group_IT_number 13
_symmetry_cell_setting 'monoclinic'
loop_
_space_group_symop_operation_xyz
x,y,z
-x,y,1/2-z
-x,-y,-z
x,-y,1/2+z
loop_
_atom_site_type_symbol
_atom_site_label
_atom_site_fract_x
_atom_site_fract_y
_atom_site_fract_z
Si Si1 0.882759 0.462501 0.033105
Si Si2 0.388853 0.493836 0.670699
Si Si3 0.272689 0.890559 0.171687
Si Si4 0.771177 0.412206 0.167257
Si Si5 0.222410 0.743046 0.406459
Si Si6 0.165091 0.137364 0.416447
O O1 0.116330 0.440910 0.116217
O O2 0.755815 0.640445 0.032634
O O3 0.748347 0.273385 0.019883
O O4 0.000000 0.500000 0.000000
O O5 0.500000 0.506683 0.750000
O O6 0.373708 0.273497 0.654583
O O7 0.543408 0.611546 0.660533
O O8 0.500000 0.956904 0.250000
O O9 0.066280 0.778458 0.163488
O O10 0.097915 0.052113 0.117828
O O11 0.825344 0.254667 0.135525
O O12 0.000000 0.437527 0.250000
O O13 0.704576 0.595172 0.121802
O O14 0.304750 0.950691 0.428990
#
# Coordination Sequence:
#
# PCOD9230876 Si02
#       6
#     4   4   4   4   4   4
#     4  10  20  38  63  86 111 155 201 248 290 348
#     4  10  20  38  59  85 118 154 192 244 296 351
#     4   8  15  33  55  79 111 150 190 237 280 342
#     4  11  20  34  57  84 121 159 190 236 302 354
#     4   8  19  37  53  78 119 152 191 237 299 343
#     4   9  20  36  53  83 113 152 193 238 292 349
#
# _framework density 23.322389999999999
#
# number of rings (size 3 to 8) (size 9 to 14) (size 15 to 20)
#    1.000    1.667    0.000    4.000    0.000    3.333 
#    3.000    4.167    0.000    2.000    0.000    0.000 
#    0.000    0.000    0.000    0.000    0.000    0.000 
#
# Total GULP energy -133607.261881 kJ/mol
# GULP energy per Si atom -5566.969245 kJ/mol
# Density = 2.326931 g / cm^3
# Si number density = 23.322390 Si / 1000 Ang^3
#
#
#
# Elastic Constant Matrix: (Units=GPa)
#
#
# Indices 1 2 3 4 5 6 
#
# 1 71.9134 25.7773 24.9772 0.0000 -15.7415 0.0000
# 2 25.7773 162.6826 51.4625 0.0000 -30.5298 0.0000
# 3 24.9772 51.4625 67.6646 0.0000 -7.8166 0.0000
# 4 0.0000 0.0000 0.0000 14.5607 0.0000 2.0523
# 5 -15.7415 -30.5298 -7.8166 0.0000 47.1492 0.0000
# 6 0.0000 0.0000 0.0000 2.0523 0.0000 33.0612
#
#
#
# Elastic Compliance Matrix: (Units=1/GPa)
#
#
# Indices 1 2 3 4 5 6 
#
# 1 0.016915 0.000008 -0.005706 0.000000 0.004707 0.000000
# 2 0.000008 0.009052 -0.006331 0.000000 0.004814 0.000000
# 3 -0.005706 -0.006331 0.021417 0.000000 -0.002454 0.000000
# 4 0.000000 0.000000 0.000000 0.069284 0.000000 -0.004301
# 5 0.004707 0.004814 -0.002454 0.000000 0.025491 0.000000
# 6 0.000000 0.000000 0.000000 -0.004301 0.000000 0.030514
#
#
# Mechanical properties :
#
#
# Convention : Reuss Voigt Hill
#
# Bulk Modulus (GPa) = 42.87282 56.29938 49.58610
# Shear Modulus (GPa) = 24.44902 32.29047 28.36974
#
# Velocity S-wave (km/s) = 3.24127 3.72496 3.49150
# Velocity P-wave (km/s) = 5.69477 6.53395 6.12874
#
# Compressibility (1/GPa) = 0.02332480
#
# Stress axis : x y z
#
# Youngs Moduli (GPa) = 59.11954 110.47314 46.69184
#
# Poissons Ratio (x) = -0.00091 0.26644
# Poissons Ratio (y) = -0.00049 0.29562
# Poissons Ratio (z) = 0.33736 0.69945
#
# Static dielectric constant tensor:
#      x y z
#    x 1.928540 0.000000 0.076160 
#    y 0.000000 1.968840 0.000000 
#    z 0.076160 0.000000 1.907480 
# 
# From -- ./inp_files/84620.got.cif
#   From: 2010.05.17/outbox.cif.g08.bks.cpg/sg13_43_cif.got.tgz:84620.got - 2010.06.03 16:44:36.
