data_PCOD9230027
_publ_section_title
;
Structure prediction by ZEFSAII (Michael W. Deem and Ramdas Pophale) SiO2 
 PCOD9230027
Probable space group: P 2/C
;
_chemical_formula_sum "Si O2"
_cell_formula_units_Z 20
_cell_length_a 12.068198
_cell_length_b 15.315708
_cell_length_c 5.270192
_cell_angle_alpha 90.000000
_cell_angle_beta 94.283811
_cell_angle_gamma 90.000000
_cell_volume 971.384002
_symmetry_space_group_name_H-M "P 2/C"
_symmetry_group_IT_number 13
_symmetry_cell_setting 'monoclinic'
loop_
_space_group_symop_operation_xyz
x,y,z
-x,y,1/2-z
-x,-y,-z
x,-y,1/2+z
loop_
_atom_site_type_symbol
_atom_site_label
_atom_site_fract_x
_atom_site_fract_y
_atom_site_fract_z
Si Si1 0.297904 0.701191 0.236334
Si Si2 0.000000 0.650560 0.750000
Si Si3 0.500000 0.437035 0.750000
Si Si4 0.127919 0.965455 0.559453
Si Si5 0.789409 0.223341 0.274104
Si Si6 0.868268 0.449114 0.888397
O O1 0.396820 0.630788 0.234011
O O2 0.287231 0.751458 0.499680
O O3 0.283299 0.765613 0.993441
O O4 0.191171 0.639199 0.200596
O O5 0.107292 0.709694 0.730788
O O6 0.010510 0.586521 0.995256
O O7 0.500000 0.500000 0.500000
O O8 0.150034 0.869092 0.667891
O O9 0.177052 0.973164 0.286936
O O10 0.000000 0.000000 0.500000
O O11 0.832141 0.484643 0.161034
#
# Coordination Sequence:
#
# PCOD9230027 Si02
#       6
#     4   2   2   4   4   4
#     4  11  24  40  60  86 117 156 201 260 321 360
#     4  10  22  34  52  76 116 164 194 230 294 362
#     4  12  24  44  70  94 118 160 218 278 324 364
#     4  10  20  35  58  87 120 159 198 239 288 353
#     4  11  23  39  57  89 126 157 197 249 305 373
#     4  11  21  34  48  72 106 148 194 235 277 346
#
# _framework density 20.589179999999999
#
# number of rings (size 3 to 8) (size 9 to 14) (size 15 to 20)
#    0.000    1.200    0.000    7.800    0.000   11.200 
#    0.000    0.000    0.000    0.000    0.000   14.000 
#    0.000    0.000    0.000    0.000    0.000    0.000 
#
# Total GULP energy -111395.270738 kJ/mol
# GULP energy per Si atom -5569.763537 kJ/mol
# Density = 2.054232 g / cm^3
# Si number density = 20.589180 Si / 1000 Ang^3
#
#
#
# Elastic Constant Matrix: (Units=GPa)
#
#
# Indices 1 2 3 4 5 6 
#
# 1 59.3463 20.8451 18.5334 0.0000 -2.1251 0.0000
# 2 20.8451 117.5038 39.7334 0.0000 3.6107 0.0000
# 3 18.5334 39.7334 184.1400 0.0000 -1.4939 0.0000
# 4 0.0000 0.0000 0.0000 35.9414 0.0000 5.1583
# 5 -2.1251 3.6107 -1.4939 0.0000 14.7156 0.0000
# 6 0.0000 0.0000 0.0000 5.1583 0.0000 32.8912
#
#
#
# Elastic Compliance Matrix: (Units=1/GPa)
#
#
# Indices 1 2 3 4 5 6 
#
# 1 0.018376 -0.002960 -0.001184 0.000000 0.003260 0.000000
# 2 -0.002960 0.009746 -0.001830 0.000000 -0.003005 0.000000
# 3 -0.001184 -0.001830 0.005952 0.000000 0.000882 0.000000
# 4 0.000000 0.000000 0.000000 0.028464 0.000000 -0.004464
# 5 0.003260 -0.003005 0.000882 0.000000 0.069252 0.000000
# 6 0.000000 0.000000 0.000000 -0.004464 0.000000 0.031103
#
#
# Mechanical properties :
#
#
# Convention : Reuss Voigt Hill
#
# Bulk Modulus (GPa) = 45.19300 57.69042 51.44171
# Shear Modulus (GPa) = 27.43978 35.50153 31.47066
#
# Velocity S-wave (km/s) = 3.65462 4.15695 3.91385
# Velocity P-wave (km/s) = 6.30918 7.14989 6.74265
#
# Compressibility (1/GPa) = 0.02212732
#
# Stress axis : x y z
#
# Youngs Moduli (GPa) = 54.41751 102.60230 168.01639
#
# Poissons Ratio (x) = 0.30366 0.19901
# Poissons Ratio (y) = 0.16105 0.30739
# Poissons Ratio (z) = 0.06446 0.18772
#
# Static dielectric constant tensor:
#      x y z
#    x 2.078510 0.000000 -0.258280 
#    y 0.000000 1.777210 0.000000 
#    z -0.258280 0.000000 2.029690 
# 
# From -- ./inp_files/3309.got.cif
#   From: 2010.05.17/outbox.cif.g08.bks.cpg/sg13_2_cif.got.tgz:3309.got - 2010.06.03 16:44:36.
