data_PCOD9230503
_publ_section_title
;
Structure prediction by ZEFSAII (Michael W. Deem and Ramdas Pophale) SiO2 
 PCOD9230503
Probable space group: P 2/C
;
_chemical_formula_sum "Si O2"
_cell_formula_units_Z 22
_cell_length_a 8.716512
_cell_length_b 7.684755
_cell_length_c 16.022723
_cell_angle_alpha 90.000000
_cell_angle_beta 74.149288
_cell_angle_gamma 90.000000
_cell_volume 1032.460872
_symmetry_space_group_name_H-M "P 2/C"
_symmetry_group_IT_number 13
_symmetry_cell_setting 'monoclinic'
loop_
_space_group_symop_operation_xyz
x,y,z
-x,y,1/2-z
-x,-y,-z
x,-y,1/2+z
loop_
_atom_site_type_symbol
_atom_site_label
_atom_site_fract_x
_atom_site_fract_y
_atom_site_fract_z
Si Si1 0.474620 0.300514 0.352782
Si Si2 0.115066 0.223466 0.405065
Si Si3 0.000000 0.169369 0.250000
Si Si4 0.297693 0.006638 0.115673
Si Si5 0.505110 0.690540 0.349303
Si Si6 0.816669 0.859237 0.043701
O O1 0.500000 0.267779 0.250000
O O2 0.286423 0.301916 0.398462
O O3 0.563829 0.148001 0.387675
O O4 0.542757 0.490230 0.362716
O O5 0.055259 0.278212 0.322472
O O6 0.974615 0.245192 0.493117
O O7 0.141872 0.012669 0.397806
O O8 0.850058 0.056999 0.303350
O O9 0.370339 0.820859 0.126936
O O10 0.238765 0.035301 0.030621
O O11 0.500000 0.713457 0.250000
O O12 0.328979 0.741973 0.406454
#
# Coordination Sequence:
#
# PCOD9230503 Si02
#       6
#     4   4   2   4   4   4
#     4  11  22  38  65  90 121 163 209 245 305 368
#     4  10  20  38  62  91 121 161 206 248 302 370
#     4  10  20  36  70  84 118 174 198 248 318 346
#     4  11  21  40  63  90 123 162 201 257 305 368
#     4  11  23  38  62  90 122 158 207 252 302 363
#     4  10  22  38  62  92 123 159 205 250 312 364
#
# _framework density 21.308313999999999
#
# number of rings (size 3 to 8) (size 9 to 14) (size 15 to 20)
#    0.000    1.455    3.636    2.182    0.000    1.455 
#    0.000    0.909   12.000    0.000    0.000    0.000 
#    0.000    0.000    0.000    0.000    0.000    0.000 
#
# Total GULP energy -123031.388959 kJ/mol
# GULP energy per Si atom -5592.335862 kJ/mol
# Density = 2.125981 g / cm^3
# Si number density = 21.308314 Si / 1000 Ang^3
#
#
#
# Elastic Constant Matrix: (Units=GPa)
#
#
# Indices 1 2 3 4 5 6 
#
# 1 106.1427 22.4989 16.4788 0.0000 -14.4382 0.0000
# 2 22.4989 63.6110 6.4276 0.0000 10.5655 0.0000
# 3 16.4788 6.4276 69.4276 0.0000 -9.5086 0.0000
# 4 0.0000 0.0000 0.0000 5.1825 0.0000 -8.1653
# 5 -14.4382 10.5655 -9.5086 0.0000 39.3312 0.0000
# 6 0.0000 0.0000 0.0000 -8.1653 0.0000 7.8075
#
#
#
# Elastic Compliance Matrix: (Units=1/GPa)
#
#
# Indices 1 2 3 4 5 6 
#
# 1 0.011346 -0.004693 -0.001567 0.000000 0.005047 0.000000
# 2 -0.004693 0.018728 -0.001598 0.000000 -0.007140 0.000000
# 3 -0.001567 -0.001598 0.015414 0.000000 0.003580 0.000000
# 4 0.000000 0.000000 0.000000 -0.297886 0.000000 -0.311538
# 5 0.005047 -0.007140 0.003580 0.000000 0.030061 0.000000
# 6 0.000000 0.000000 0.000000 -0.311538 0.000000 -0.197733
#
#
# Mechanical properties :
#
#
# Convention : Reuss Voigt Hill
#
# Bulk Modulus (GPa) = 33.58925 36.66577 35.12751
# Shear Modulus (GPa) = -12.67650 23.38264 5.35307
#
# Velocity S-wave (km/s) = -2.44172 3.31622 1.58671
# Velocity P-wave (km/s) = 2.80149 5.64869 4.45848
#
# Compressibility (1/GPa) = 0.02977143
#
# Stress axis : x y z
#
# Youngs Moduli (GPa) = 88.13818 53.39681 64.87706
#
# Poissons Ratio (x) = 0.25058 0.10168
# Poissons Ratio (y) = 0.41362 0.10366
# Poissons Ratio (z) = 0.13814 0.08532
#
# Static dielectric constant tensor:
#      x y z
#    x 1.774920 0.000000 -0.001120 
#    y 0.000000 1.733770 0.000000 
#    z -0.001120 0.000000 1.789710 
# 
# From -- ./inp_files/63013.got.cif
#   From: 2010.05.17/outbox.cif.g08.bks.cpg/sg13_32_cif.got.tgz:63013.got - 2010.06.03 16:44:36.
