data_PCOD9230897
_publ_section_title
;
Structure prediction by ZEFSAII (Michael W. Deem and Ramdas Pophale) SiO2 
 PCOD9230897
Probable space group: P 2/C
;
_chemical_formula_sum "Si O2"
_cell_formula_units_Z 24
_cell_length_a 10.262246
_cell_length_b 8.117499
_cell_length_c 15.610788
_cell_angle_alpha 90.000000
_cell_angle_beta 102.598913
_cell_angle_gamma 90.000000
_cell_volume 1269.124154
_symmetry_space_group_name_H-M "P 2/C"
_symmetry_group_IT_number 13
_symmetry_cell_setting 'monoclinic'
loop_
_space_group_symop_operation_xyz
x,y,z
-x,y,1/2-z
-x,-y,-z
x,-y,1/2+z
loop_
_atom_site_type_symbol
_atom_site_label
_atom_site_fract_x
_atom_site_fract_y
_atom_site_fract_z
Si Si1 0.042757 0.062928 0.911380
Si Si2 0.875075 0.378336 0.487262
Si Si3 0.790642 0.887789 0.836814
Si Si4 0.456111 0.899306 0.145279
Si Si5 0.296177 0.116450 0.366500
Si Si6 0.624405 0.608243 0.489796
O O1 0.166034 0.962474 0.891319
O O2 0.090155 0.249127 0.932140
O O3 0.908816 0.021725 0.839954
O O4 0.000000 0.000000 0.000000
O O5 0.848080 0.265264 0.399273
O O6 0.745207 0.487767 0.484000
O O7 0.000000 0.500000 0.500000
O O8 0.735368 0.839554 0.736316
O O9 0.670512 0.976581 0.870840
O O10 0.500000 0.870733 0.250000
O O11 0.413887 0.732319 0.092488
O O12 0.580744 0.987800 0.116961
O O13 0.334795 0.274894 0.426046
O O14 0.500000 0.500000 0.500000
#
# Coordination Sequence:
#
# PCOD9230897 Si02
#       6
#     4   4   4   4   4   4
#     4  10  20  38  60  82 111 150 194 232 276 340
#     4  11  22  37  58  85 118 151 184 236 296 341
#     4  10  21  40  62  82 112 156 199 237 278 339
#     4  10  22  40  62  84 113 155 199 235 276 340
#     4  11  22  39  61  85 113 154 200 237 278 340
#     4  12  23  36  58  88 121 150 184 239 296 342
#
# _framework density 18.910679999999999
#
# number of rings (size 3 to 8) (size 9 to 14) (size 15 to 20)
#    0.000    1.333    0.000    8.000    0.000    1.333 
#    0.000    3.333    0.000    0.000    0.000    0.000 
#    0.000    0.000    0.000    0.000    0.000    0.000 
#
# Total GULP energy -134090.140110 kJ/mol
# GULP energy per Si atom -5587.089171 kJ/mol
# Density = 1.886764 g / cm^3
# Si number density = 18.910680 Si / 1000 Ang^3
#
#
#
# Elastic Constant Matrix: (Units=GPa)
#
#
# Indices 1 2 3 4 5 6 
#
# 1 171.0793 63.5591 31.9412 0.0000 -0.2424 0.0000
# 2 63.5591 121.9896 53.7438 0.0000 10.1422 0.0000
# 3 31.9412 53.7438 72.1719 0.0000 11.0049 0.0000
# 4 0.0000 0.0000 0.0000 9.5029 0.0000 4.5654
# 5 -0.2424 10.1422 11.0049 0.0000 31.4200 0.0000
# 6 0.0000 0.0000 0.0000 4.5654 0.0000 49.4879
#
#
#
# Elastic Compliance Matrix: (Units=1/GPa)
#
#
# Indices 1 2 3 4 5 6 
#
# 1 0.007331 -0.003593 -0.000797 0.000000 0.001495 0.000000
# 2 -0.003593 0.013980 -0.008586 0.000000 -0.001533 0.000000
# 3 -0.000797 -0.008586 0.021319 0.000000 -0.004702 0.000000
# 4 0.000000 0.000000 0.000000 0.110111 0.000000 -0.010158
# 5 0.001495 -0.001533 -0.004702 0.000000 0.033980 0.000000
# 6 0.000000 0.000000 0.000000 -0.010158 0.000000 0.021144
#
#
# Mechanical properties :
#
#
# Convention : Reuss Voigt Hill
#
# Bulk Modulus (GPa) = 59.96056 73.74768 66.85412
# Shear Modulus (GPa) = 20.88763 32.48194 26.68479
#
# Velocity S-wave (km/s) = 3.32707 4.14895 3.76053
# Velocity P-wave (km/s) = 6.82168 7.87618 7.36782
#
# Compressibility (1/GPa) = 0.01667763
#
# Stress axis : x y z
#
# Youngs Moduli (GPa) = 136.40792 71.53324 46.90565
#
# Poissons Ratio (x) = 0.25700 0.03739
# Poissons Ratio (y) = 0.49008 0.40274
# Poissons Ratio (z) = 0.10873 0.61420
#
# Static dielectric constant tensor:
#      x y z
#    x 1.080090 0.000000 0.289240 
#    y 0.000000 1.627460 0.000000 
#    z 0.289240 0.000000 1.549460 
# 
# From -- ./inp_files/46207.got.cif
#   From: 2010.05.17/outbox.cif.g08.bks.cpg/sg13_24_cif.got.tgz:46207.got - 2010.06.03 16:44:36.
