data_PCOD9230378
_publ_section_title
;
Structure prediction by ZEFSAII (Michael W. Deem and Ramdas Pophale) SiO2 
 PCOD9230378
Probable space group: P 2/C
;
_chemical_formula_sum "Si O2"
_cell_formula_units_Z 28
_cell_length_a 8.898416
_cell_length_b 9.091304
_cell_length_c 27.745178
_cell_angle_alpha 90.000000
_cell_angle_beta 38.925567
_cell_angle_gamma 90.000000
_cell_volume 1410.264451
_symmetry_space_group_name_H-M "P 2/C"
_symmetry_group_IT_number 13
_symmetry_cell_setting 'monoclinic'
loop_
_space_group_symop_operation_xyz
x,y,z
-x,y,1/2-z
-x,-y,-z
x,-y,1/2+z
loop_
_atom_site_type_symbol
_atom_site_label
_atom_site_fract_x
_atom_site_fract_y
_atom_site_fract_z
Si Si1 0.872417 0.081930 0.576809
Si Si2 0.931698 0.303025 0.212470
Si Si3 0.045721 0.660283 0.509041
Si Si4 0.251630 0.178826 0.557259
Si Si5 0.552151 0.166520 0.151289
Si Si6 0.688235 0.934190 0.888405
Si Si7 0.217636 0.517587 0.562258
O O1 0.819663 0.238327 0.564187
O O2 0.067304 0.088893 0.570139
O O3 0.655262 0.981494 0.649570
O O4 0.000000 0.000000 0.500000
O O5 0.651584 0.270230 0.275505
O O6 0.000000 0.349945 0.250000
O O7 0.058934 0.145751 0.173969
O O8 0.059136 0.413030 0.144103
O O9 0.786712 0.734976 0.582608
O O10 0.000000 0.500000 0.500000
O O11 0.177004 0.624252 0.526505
O O12 0.512836 0.151842 0.469000
O O13 0.156618 0.344077 0.574560
O O14 0.276990 0.101484 0.602946
O O15 0.433630 0.100569 0.132140
O O16 0.500000 0.500000 0.500000
#
# Coordination Sequence:
#
# PCOD9230378 Si02
#       7
#     4   4   4   4   4   4   4
#     4  10  20  36  61  95 127 167 216 272 327 389
#     4  10  24  44  65  93 131 175 218 275 341 402
#     4  11  22  39  64  98 135 168 220 279 332 398
#     4  11  21  37  63  99 128 160 226 279 316 390
#     4  10  22  41  64  91 127 178 218 267 340 393
#     4  10  20  38  65  92 126 165 217 274 317 391
#     4  12  25  40  68 102 129 178 225 273 342 413
#
# _framework density 19.854431999999999
#
# number of rings (size 3 to 8) (size 9 to 14) (size 15 to 20)
#    0.000    1.429    5.714    0.000    8.000    0.571 
#    0.000    3.571    3.143    0.000    0.000    0.000 
#    0.000    0.000    0.000    0.000    0.000    0.000 
#
# Total GULP energy -155981.108680 kJ/mol
# GULP energy per Si atom -5570.753881 kJ/mol
# Density = 1.980924 g / cm^3
# Si number density = 19.854432 Si / 1000 Ang^3
#
#
#
# Elastic Constant Matrix: (Units=GPa)
#
#
# Indices 1 2 3 4 5 6 
#
# 1 90.6391 28.4733 35.5882 0.0000 -11.9476 0.0000
# 2 28.4733 89.9803 24.4765 0.0000 -8.8526 0.0000
# 3 35.5882 24.4765 81.3376 0.0000 -20.0895 0.0000
# 4 0.0000 0.0000 0.0000 32.2012 0.0000 1.4701
# 5 -11.9476 -8.8526 -20.0895 0.0000 31.2015 0.0000
# 6 0.0000 0.0000 0.0000 1.4701 0.0000 33.3741
#
#
#
# Elastic Compliance Matrix: (Units=1/GPa)
#
#
# Indices 1 2 3 4 5 6 
#
# 1 0.014085 -0.002982 -0.004925 0.000000 0.001376 0.000000
# 2 -0.002982 0.012780 -0.002292 0.000000 0.001008 0.000000
# 3 -0.004925 -0.002292 0.017257 0.000000 0.008575 0.000000
# 4 0.000000 0.000000 0.000000 0.031117 0.000000 -0.001371
# 5 0.001376 0.001008 0.008575 0.000000 0.038384 0.000000
# 6 0.000000 0.000000 0.000000 -0.001371 0.000000 0.030024
#
#
# Mechanical properties :
#
#
# Convention : Reuss Voigt Hill
#
# Bulk Modulus (GPa) = 42.15299 48.78145 45.46722
# Shear Modulus (GPa) = 29.07775 30.91663 29.99719
#
# Velocity S-wave (km/s) = 3.83109 3.95037 3.89119
# Velocity P-wave (km/s) = 6.39115 6.74019 6.56799
#
# Compressibility (1/GPa) = 0.02372311
#
# Stress axis : x y z
#
# Youngs Moduli (GPa) = 70.99881 78.24858 57.94699
#
# Poissons Ratio (x) = 0.23332 0.28541
# Poissons Ratio (y) = 0.21170 0.13282
# Poissons Ratio (z) = 0.34970 0.17935
#
# Static dielectric constant tensor:
#      x y z
#    x 1.715410 0.000000 0.026530 
#    y 0.000000 1.755590 0.000000 
#    z 0.026530 0.000000 1.723560 
# 
# From -- ./inp_files/95904.got.cif
#   From: 2010.05.17/outbox.cif.g08.bks.cpg/sg13_48_cif.got.tgz:95904.got - 2010.06.03 16:44:36.
