data_PCOD9230704
_publ_section_title
;
Structure prediction by ZEFSAII (Michael W. Deem and Ramdas Pophale) SiO2 
 PCOD9230704
Probable space group: P 2/C
;
_chemical_formula_sum "Si O2"
_cell_formula_units_Z 30
_cell_length_a 15.116386
_cell_length_b 7.929632
_cell_length_c 23.519140
_cell_angle_alpha 90.000000
_cell_angle_beta 32.046307
_cell_angle_gamma 90.000000
_cell_volume 1495.868323
_symmetry_space_group_name_H-M "P 2/C"
_symmetry_group_IT_number 13
_symmetry_cell_setting 'monoclinic'
loop_
_space_group_symop_operation_xyz
x,y,z
-x,y,1/2-z
-x,-y,-z
x,-y,1/2+z
loop_
_atom_site_type_symbol
_atom_site_label
_atom_site_fract_x
_atom_site_fract_y
_atom_site_fract_z
Si Si1 0.971847 0.174465 0.046956
Si Si2 0.335573 0.693202 0.370685
Si Si3 0.000000 0.092793 0.750000
Si Si4 0.674276 0.289960 0.129869
Si Si5 0.572703 0.683188 0.942770
Si Si6 0.272032 0.686338 0.530076
Si Si7 0.722963 0.722402 0.473941
Si Si8 0.096374 0.813474 0.782237
O O1 0.824766 0.262855 0.091751
O O2 0.919069 0.154334 0.141808
O O3 0.152697 0.264081 0.946460
O O4 0.000000 0.000000 0.000000
O O5 0.500000 0.759906 0.250000
O O6 0.347464 0.490787 0.365042
O O7 0.335968 0.752833 0.435341
O O8 0.879357 0.203050 0.855278
O O9 0.894122 0.978004 0.763216
O O10 0.500000 0.221669 0.250000
O O11 0.713954 0.222534 0.044814
O O12 0.617224 0.759721 0.979672
O O13 0.750369 0.688181 0.813936
O O14 0.500000 0.500000 0.000000
O O15 0.440510 0.769178 0.973436
O O16 0.274258 0.482344 0.528359
O O17 0.079837 0.735002 0.640401
#
# Coordination Sequence:
#
# PCOD9230704 Si02
#       8
#     4   4   2   4   4   4   4   4
#     4  11  23  39  62  91 125 164 207 245 314 377
#     4   9  20  39  63  92 121 155 207 261 305 354
#     4  12  24  38  58  84 136 162 190 246 312 382
#     4  10  20  41  64  88 120 157 209 264 301 354
#     4  10  20  37  62  90 114 154 209 254 299 360
#     4   9  19  39  63  87 121 158 205 252 298 364
#     4  10  23  37  59  93 120 158 202 248 305 362
#     4  11  22  41  62  86 122 168 199 251 312 365
#
# _framework density 20.055242
#
# number of rings (size 3 to 8) (size 9 to 14) (size 15 to 20)
#    0.000    1.867    1.333    2.000    3.733    2.133 
#    4.800    1.333    0.000    0.000    0.000    0.000 
#    0.000    0.000    0.000    0.000    0.000    0.000 
#
# Total GULP energy -167311.798647 kJ/mol
# GULP energy per Si atom -5577.059955 kJ/mol
# Density = 2.000960 g / cm^3
# Si number density = 20.055242 Si / 1000 Ang^3
#
#
#
# Elastic Constant Matrix: (Units=GPa)
#
#
# Indices 1 2 3 4 5 6 
#
# 1 175.1066 12.1360 78.9972 0.0000 6.9610 0.0000
# 2 12.1360 26.4048 24.9288 0.0000 10.7692 0.0000
# 3 78.9972 24.9288 172.8381 0.0000 15.4144 0.0000
# 4 0.0000 0.0000 0.0000 -27.1306 0.0000 29.0970
# 5 6.9610 10.7692 15.4144 0.0000 26.3078 0.0000
# 6 0.0000 0.0000 0.0000 29.0970 0.0000 -4.7828
#
#
#
# Elastic Compliance Matrix: (Units=1/GPa)
#
#
# Indices 1 2 3 4 5 6 
#
# 1 0.007196 -0.000279 -0.003259 0.000000 0.000120 0.000000
# 2 -0.000279 0.050312 -0.005591 0.000000 -0.017246 0.000000
# 3 -0.003259 -0.005591 0.008231 0.000000 -0.001672 0.000000
# 4 0.000000 0.000000 0.000000 0.006672 0.000000 0.040589
# 5 0.000120 -0.017246 -0.001672 0.000000 0.046019 0.000000
# 6 0.000000 0.000000 0.000000 0.040589 0.000000 0.037846
#
#
# Mechanical properties :
#
#
# Convention : Reuss Voigt Hill
#
# Bulk Modulus (GPa) = 21.06145 67.38597 44.22371
# Shear Modulus (GPa) = 26.26591 16.09805 21.18198
#
# Velocity S-wave (km/s) = 3.62287 2.83624 3.25342
# Velocity P-wave (km/s) = 5.29385 6.66324 6.01763
#
# Compressibility (1/GPa) = 0.04748011
#
# Stress axis : x y z
#
# Youngs Moduli (GPa) = 138.97001 19.87586 121.49235
#
# Poissons Ratio (x) = 0.00555 0.39599
# Poissons Ratio (y) = 0.03878 0.67927
# Poissons Ratio (z) = 0.45295 0.11113
#
# Static dielectric constant tensor:
#      x y z
#    x 1.745060 0.000000 -0.003170 
#    y 0.000000 1.739850 0.000000 
#    z -0.003170 0.000000 1.720600 
# 
# From -- ./inp_files/87304.got.cif
#   From: 2010.05.17/outbox.cif.g08.bks.cpg/sg13_44_cif.got.tgz:87304.got - 2010.06.03 16:44:36.
