data_PCOD9230076
_publ_section_title
;
Structure prediction by ZEFSAII (Michael W. Deem and Ramdas Pophale) SiO2 
 PCOD9230076
Probable space group: P 2/C
;
_chemical_formula_sum "Si O2"
_cell_formula_units_Z 30
_cell_length_a 8.194470
_cell_length_b 10.854018
_cell_length_c 18.994461
_cell_angle_alpha 90.000000
_cell_angle_beta 56.965287
_cell_angle_gamma 90.000000
_cell_volume 1416.311554
_symmetry_space_group_name_H-M "P 2/C"
_symmetry_group_IT_number 13
_symmetry_cell_setting 'monoclinic'
loop_
_space_group_symop_operation_xyz
x,y,z
-x,y,1/2-z
-x,-y,-z
x,-y,1/2+z
loop_
_atom_site_type_symbol
_atom_site_label
_atom_site_fract_x
_atom_site_fract_y
_atom_site_fract_z
Si Si1 0.884113 0.614477 0.399081
Si Si2 0.682582 0.615573 0.237156
Si Si3 0.965961 0.270042 0.024601
Si Si4 0.000000 0.781115 0.750000
Si Si5 0.699870 0.858012 0.131980
Si Si6 0.747965 0.641380 0.925015
Si Si7 0.587423 0.746204 0.400982
Si Si8 0.722552 0.875438 0.691687
O O1 0.896066 0.643076 0.478570
O O2 0.734642 0.504547 0.418656
O O3 0.803347 0.741539 0.383292
O O4 0.095190 0.572538 0.320347
O O5 0.500000 0.538158 0.250000
O O6 0.690297 0.739788 0.186530
O O7 0.618579 0.649318 0.330282
O O8 0.805806 0.202291 0.107295
O O9 0.098132 0.345170 0.047581
O O10 0.106864 0.167076 0.957996
O O11 0.847531 0.703012 0.833541
O O12 0.863837 0.853755 0.725689
O O13 0.519935 0.854201 0.118242
O O14 0.715101 0.981267 0.172272
O O15 0.557525 0.707880 0.001558
O O16 0.500000 0.834834 0.750000
#
# Coordination Sequence:
#
# PCOD9230076 Si02
#       8
#     4   4   4   2   4   4   4   4
#     4  11  21  36  61  94 125 161 210 256 320 372
#     4   9  19  36  57  87 124 155 204 258 307 378
#     4   9  21  39  60  89 121 162 212 253 310 380
#     4  10  26  44  62  92 126 170 216 258 312 384
#     4   9  19  41  63  83 126 161 196 260 323 359
#     4  10  22  41  61  81 131 169 204 265 310 373
#     4  10  20  35  60  91 118 159 207 260 305 371
#     4  11  22  42  66  88 127 167 208 262 316 378
#
# _framework density 21.18178
#
# number of rings (size 3 to 8) (size 9 to 14) (size 15 to 20)
#    0.000    2.133    0.000    3.600    3.733    0.000 
#    9.600    3.333    0.000    0.000    0.000    0.000 
#    0.000    0.000    0.000    0.000    0.000    0.000 
#
# Total GULP energy -167139.522023 kJ/mol
# GULP energy per Si atom -5571.317401 kJ/mol
# Density = 2.113357 g / cm^3
# Si number density = 21.181780 Si / 1000 Ang^3
#
#
#
# Elastic Constant Matrix: (Units=GPa)
#
#
# Indices 1 2 3 4 5 6 
#
# 1 88.1929 27.6768 50.5285 0.0000 -6.0001 0.0000
# 2 27.6768 49.7217 21.4754 0.0000 5.2041 0.0000
# 3 50.5285 21.4754 139.9441 0.0000 -4.3513 0.0000
# 4 0.0000 0.0000 0.0000 15.6871 0.0000 2.1151
# 5 -6.0001 5.2041 -4.3513 0.0000 36.0768 0.0000
# 6 0.0000 0.0000 0.0000 2.1151 0.0000 10.2788
#
#
#
# Elastic Compliance Matrix: (Units=1/GPa)
#
#
# Indices 1 2 3 4 5 6 
#
# 1 0.016659 -0.007565 -0.004752 0.000000 0.003289 0.000000
# 2 -0.007565 0.025429 -0.001329 0.000000 -0.005087 0.000000
# 3 -0.004752 -0.001329 0.009081 0.000000 0.000497 0.000000
# 4 0.000000 0.000000 0.000000 0.065566 0.000000 -0.013491
# 5 0.003289 -0.005087 0.000497 0.000000 0.029059 0.000000
# 6 0.000000 0.000000 0.000000 -0.013491 0.000000 0.100064
#
#
# Mechanical properties :
#
#
# Convention : Reuss Voigt Hill
#
# Bulk Modulus (GPa) = 41.88024 53.02446 47.45235
# Shear Modulus (GPa) = 17.78673 24.28707 21.03690
#
# Velocity S-wave (km/s) = 2.90093 3.38982 3.15486
# Velocity P-wave (km/s) = 5.57093 6.35678 5.97678
#
# Compressibility (1/GPa) = 0.02387761
#
# Stress axis : x y z
#
# Youngs Moduli (GPa) = 60.02767 39.32485 110.12248
#
# Poissons Ratio (x) = 0.29749 0.52328
# Poissons Ratio (y) = 0.45410 0.14636
# Poissons Ratio (z) = 0.28524 0.05227
#
# Static dielectric constant tensor:
#      x y z
#    x 1.871410 0.000000 -0.021850 
#    y 0.000000 1.776880 0.000000 
#    z -0.021850 0.000000 1.780550 
# 
# From -- ./inp_files/64442.got.cif
#   From: 2010.05.17/outbox.cif.g08.bks.cpg/sg13_33_cif.got.tgz:64442.got - 2010.06.03 16:44:36.
