data_PCOD9230653
_publ_section_title
;
Structure prediction by ZEFSAII (Michael W. Deem and Ramdas Pophale) SiO2 
 PCOD9230653
Probable space group: P 2/C
;
_chemical_formula_sum "Si O2"
_cell_formula_units_Z 30
_cell_length_a 6.217415
_cell_length_b 8.542649
_cell_length_c 28.576662
_cell_angle_alpha 90.000000
_cell_angle_beta 109.025533
_cell_angle_gamma 90.000000
_cell_volume 1434.885656
_symmetry_space_group_name_H-M "P 2/C"
_symmetry_group_IT_number 13
_symmetry_cell_setting 'monoclinic'
loop_
_space_group_symop_operation_xyz
x,y,z
-x,y,1/2-z
-x,-y,-z
x,-y,1/2+z
loop_
_atom_site_type_symbol
_atom_site_label
_atom_site_fract_x
_atom_site_fract_y
_atom_site_fract_z
Si Si1 0.369865 0.937171 0.841456
Si Si2 0.678295 0.902596 0.435382
Si Si3 0.062042 0.125138 0.454661
Si Si4 0.000000 0.025048 0.250000
Si Si5 0.690469 0.765993 0.795436
Si Si6 0.117917 0.656524 0.868884
Si Si7 0.795770 0.625238 0.992440
Si Si8 0.421583 0.592560 0.424284
O O1 0.183337 0.043902 0.800660
O O2 0.577415 0.890219 0.822706
O O3 0.249610 0.772351 0.843636
O O4 0.472756 0.001901 0.897075
O O5 0.730650 0.906803 0.494942
O O6 0.595691 0.725366 0.419746
O O7 0.914838 0.971711 0.430326
O O8 0.122821 0.246388 0.418165
O O9 0.879965 0.219468 0.473532
O O10 0.837455 0.131361 0.270162
O O11 0.500000 0.686045 0.750000
O O12 0.855997 0.652030 0.835031
O O13 0.237393 0.489310 0.878351
O O14 0.578389 0.551562 0.951907
O O15 0.719871 0.649916 0.040400
O O16 0.000000 0.500000 0.000000
#
# Coordination Sequence:
#
# PCOD9230653 Si02
#       8
#     4   4   4   2   4   4   4   4
#     4  10  20  37  61  87 119 149 198 246 307 351
#     4  11  23  36  53  90 121 160 194 248 292 355
#     4  11  22  37  57  81 124 161 208 238 291 353
#     4   8  18  36  64  88 110 146 198 248 292 366
#     4   9  18  37  62  90 112 145 194 256 300 358
#     4  11  21  36  59  88 115 161 203 248 297 365
#     4  11  20  40  55  74 113 168 207 241 281 350
#     4  11  23  35  57  83 114 158 207 238 299 349
#
# _framework density 20.907589000000002
#
# number of rings (size 3 to 8) (size 9 to 14) (size 15 to 20)
#    0.000    1.600    4.000    1.600    0.000    3.200 
#    0.000    0.000    0.000    4.800    0.000    8.400 
#    0.000    0.000    0.000    0.000    0.000    0.000 
#
# Total GULP energy -167168.699719 kJ/mol
# GULP energy per Si atom -5572.289991 kJ/mol
# Density = 2.086000 g / cm^3
# Si number density = 20.907589 Si / 1000 Ang^3
#
#
#
# Elastic Constant Matrix: (Units=GPa)
#
#
# Indices 1 2 3 4 5 6 
#
# 1 78.0362 21.8559 35.7361 0.0000 12.1194 0.0000
# 2 21.8559 70.9682 22.9651 0.0000 12.6354 0.0000
# 3 35.7361 22.9651 109.8740 0.0000 41.2769 0.0000
# 4 0.0000 0.0000 0.0000 9.7684 0.0000 9.1552
# 5 12.1194 12.6354 41.2769 0.0000 50.6380 0.0000
# 6 0.0000 0.0000 0.0000 9.1552 0.0000 32.5893
#
#
#
# Elastic Compliance Matrix: (Units=1/GPa)
#
#
# Indices 1 2 3 4 5 6 
#
# 1 0.015835 -0.003503 -0.004790 0.000000 0.000988 0.000000
# 2 -0.003503 0.015993 -0.001469 0.000000 -0.001955 0.000000
# 3 -0.004790 -0.001469 0.014987 0.000000 -0.010704 0.000000
# 4 0.000000 0.000000 0.000000 0.138956 0.000000 -0.039037
# 5 0.000988 -0.001955 -0.010704 0.000000 0.028724 0.000000
# 6 0.000000 0.000000 0.000000 -0.039037 0.000000 0.041651
#
#
# Mechanical properties :
#
#
# Convention : Reuss Voigt Hill
#
# Bulk Modulus (GPa) = 36.63968 46.66587 41.65277
# Shear Modulus (GPa) = 17.55811 30.48725 24.02268
#
# Velocity S-wave (km/s) = 2.90107 3.82277 3.39336
# Velocity P-wave (km/s) = 5.36509 6.46941 5.94296
#
# Compressibility (1/GPa) = 0.02729281
#
# Stress axis : x y z
#
# Youngs Moduli (GPa) = 63.14929 62.52729 66.72301
#
# Poissons Ratio (x) = 0.21903 0.31957
# Poissons Ratio (y) = 0.22120 0.09802
# Poissons Ratio (z) = 0.30246 0.09186
#
# Static dielectric constant tensor:
#      x y z
#    x 1.798620 0.000000 0.038010 
#    y 0.000000 1.764830 0.000000 
#    z 0.038010 0.000000 1.843280 
# 
# From -- ./inp_files/95078.got.cif
#   From: 2010.05.17/outbox.cif.g08.bks.cpg/sg13_48_cif.got.tgz:95078.got - 2010.06.03 16:44:36.
