data_PCOD9230982
_publ_section_title
;
Structure prediction by ZEFSAII (Michael W. Deem and Ramdas Pophale) SiO2 
 PCOD9230982
Probable space group: P 2/C
;
_chemical_formula_sum "Si O2"
_cell_formula_units_Z 18
_cell_length_a 6.082962
_cell_length_b 4.030343
_cell_length_c 23.269198
_cell_angle_alpha 90.000000
_cell_angle_beta 72.513626
_cell_angle_gamma 90.000000
_cell_volume 544.114851
_symmetry_space_group_name_H-M "P 2/C"
_symmetry_group_IT_number 13
_symmetry_cell_setting 'monoclinic'
loop_
_space_group_symop_operation_xyz
x,y,z
-x,y,1/2-z
-x,-y,-z
x,-y,1/2+z
loop_
_atom_site_type_symbol
_atom_site_label
_atom_site_fract_x
_atom_site_fract_y
_atom_site_fract_z
Si Si1 0.155113 0.730301 0.024768
Si Si2 0.853287 0.752514 0.632473
Si Si3 0.824987 0.819086 0.307622
Si Si4 0.466901 0.240900 0.920736
Si Si5 0.500000 0.249308 0.250000
O O1 0.004622 0.496218 0.080227
O O2 0.343840 0.908114 0.049938
O O3 0.313171 0.493835 0.971105
O O4 0.000000 0.000000 0.000000
O O5 0.689664 0.990882 0.605340
O O6 0.678285 0.580935 0.691462
O O7 0.020908 0.964027 0.660529
O O8 0.648540 0.610335 0.360564
O O9 0.663549 0.031078 0.278089
O O10 0.000000 0.642992 0.250000
#
# Coordination Sequence:
#
# PCOD9230982 Si02
#       5
#     4   4   4   4   2
#     4  11  24  38  54  85 122 158 206 259 318 383
#     4  10  20  38  62  85 118 160 203 259 316 383
#     4   9  18  37  61  86 113 151 199 247 309 381
#     4  10  22  37  58  85 115 156 202 252 311 378
#     4   8  18  34  62  88 108 148 202 246 306 386
#
# _framework density 33.081249999999997
#
# number of rings (size 3 to 8) (size 9 to 14) (size 15 to 20)
#    0.000    2.222    0.000    2.000    0.000    8.889 
#    0.000    5.556    0.000    5.333    0.000    0.000 
#    0.000    0.000    0.000    0.000    0.000    0.000 
#
# Total GULP energy -100633.849659 kJ/mol
# GULP energy per Si atom -5590.769425 kJ/mol
# Density = 3.300596 g / cm^3
# Si number density = 33.081250 Si / 1000 Ang^3
#
#
#
# Elastic Constant Matrix: (Units=GPa)
#
#
# Indices 1 2 3 4 5 6 
#
# 1 306.1720 139.1440 172.6751 0.0000 74.3628 0.0000
# 2 139.1440 147.7916 141.5641 0.0000 5.1337 0.0000
# 3 172.6751 141.5641 345.6378 0.0000 -95.5697 0.0000
# 4 0.0000 0.0000 0.0000 79.2144 0.0000 40.1836
# 5 74.3628 5.1337 -95.5697 0.0000 183.0101 0.0000
# 6 0.0000 0.0000 0.0000 40.1836 0.0000 101.8112
#
#
#
# Elastic Compliance Matrix: (Units=1/GPa)
#
#
# Indices 1 2 3 4 5 6 
#
# 1 0.009106 -0.003993 -0.004565 0.000000 -0.005972 0.000000
# 2 -0.003993 0.014689 -0.004309 0.000000 -0.001040 0.000000
# 3 -0.004565 -0.004309 0.008748 0.000000 0.006544 0.000000
# 4 0.000000 0.000000 0.000000 0.015784 0.000000 -0.006230
# 5 -0.005972 -0.001040 0.006544 0.000000 0.011337 0.000000
# 6 0.000000 0.000000 0.000000 -0.006230 0.000000 0.012281
#
#
# Mechanical properties :
#
#
# Convention : Reuss Voigt Hill
#
# Bulk Modulus (GPa) = 146.85842 189.59643 168.22743
# Shear Modulus (GPa) = 50.02582 95.88835 72.95708
#
# Velocity S-wave (km/s) = 3.89293 5.38968 4.70125
# Velocity P-wave (km/s) = 8.04340 9.80654 8.96840
#
# Compressibility (1/GPa) = 0.00680928
#
# Stress axis : x y z
#
# Youngs Moduli (GPa) = 109.82153 68.07767 114.31197
#
# Poissons Ratio (x) = 0.27183 0.52182
# Poissons Ratio (y) = 0.43851 0.49256
# Poissons Ratio (z) = 0.50132 0.29334
#
# Static dielectric constant tensor:
#      x y z
#    x 2.641210 0.000000 -0.011300 
#    y 0.000000 2.678670 0.000000 
#    z -0.011300 0.000000 2.668120 
# 
# From -- ./inp_files/82944.got.cif
#   From: 2010.05.17/outbox.cif.g08.bks.cpg/sg13_42_cif.got.tgz:82944.got - 2010.06.03 16:44:36.
