data_PCOD9230489
_publ_section_title
;
Structure prediction by ZEFSAII (Michael W. Deem and Ramdas Pophale) SiO2 
 PCOD9230489
Probable space group: P 2/C
;
_chemical_formula_sum "Si O2"
_cell_formula_units_Z 20
_cell_length_a 14.092807
_cell_length_b 11.253803
_cell_length_c 11.152634
_cell_angle_alpha 90.000000
_cell_angle_beta 30.760214
_cell_angle_gamma 90.000000
_cell_volume 904.636880
_symmetry_space_group_name_H-M "P 2/C"
_symmetry_group_IT_number 13
_symmetry_cell_setting 'monoclinic'
loop_
_space_group_symop_operation_xyz
x,y,z
-x,y,1/2-z
-x,-y,-z
x,-y,1/2+z
loop_
_atom_site_type_symbol
_atom_site_label
_atom_site_fract_x
_atom_site_fract_y
_atom_site_fract_z
Si Si1 0.000000 0.910872 0.750000
Si Si2 0.738108 0.960706 0.682355
Si Si3 0.138435 0.755415 0.781935
Si Si4 0.301384 0.224079 0.697615
Si Si5 0.539863 0.585590 0.069703
Si Si6 0.500000 0.169004 0.250000
O O1 0.150613 0.821188 0.639960
O O2 0.059283 0.994622 0.578532
O O3 0.760591 0.847000 0.739730
O O4 0.639918 0.916561 0.668830
O O5 0.661286 0.083024 0.820744
O O6 0.248353 0.632907 0.664063
O O7 0.919408 0.749867 0.053116
O O8 0.409432 0.302305 0.677381
O O9 0.387356 0.244236 0.471723
O O10 0.500000 0.544890 0.250000
O O11 0.500000 0.500000 0.000000
#
# Coordination Sequence:
#
# PCOD9230489 Si02
#       6
#     2   4   4   4   4   2
#     4  10  20  36  66  98 148 180 226 274 352 426
#     4  11  21  36  64 106 145 185 224 277 345 424
#     4  11  23  45  67 103 140 184 226 284 349 422
#     4  11  25  42  71 102 143 188 230 284 355 413
#     4  12  29  50  74 100 135 180 241 297 349 415
#     4  12  22  36  66 108 152 186 232 278 342 424
#
# _framework density 22.108318000000001
#
# number of rings (size 3 to 8) (size 9 to 14) (size 15 to 20)
#    0.000    0.800    2.000    7.800    5.600    0.800 
#    0.000    0.000    0.000    0.000    0.000    0.000 
#    0.000    0.000    0.000    0.000    0.000    0.000 
#
# Total GULP energy -111672.987485 kJ/mol
# GULP energy per Si atom -5583.649374 kJ/mol
# Density = 2.205800 g / cm^3
# Si number density = 22.108318 Si / 1000 Ang^3
#
#
#
# Elastic Constant Matrix: (Units=GPa)
#
#
# Indices 1 2 3 4 5 6 
#
# 1 129.7409 31.9370 28.1437 0.0000 11.2451 0.0000
# 2 31.9370 57.3801 33.9757 0.0000 7.8887 0.0000
# 3 28.1437 33.9757 116.1111 0.0000 9.1939 0.0000
# 4 0.0000 0.0000 0.0000 21.0671 0.0000 2.3744
# 5 11.2451 7.8887 9.1939 0.0000 47.4702 0.0000
# 6 0.0000 0.0000 0.0000 2.3744 0.0000 52.8327
#
#
#
# Elastic Compliance Matrix: (Units=1/GPa)
#
#
# Indices 1 2 3 4 5 6 
#
# 1 0.009076 -0.004396 -0.000813 0.000000 -0.001262 0.000000
# 2 -0.004396 0.023470 -0.005662 0.000000 -0.001762 0.000000
# 3 -0.000813 -0.005662 0.010538 0.000000 -0.000907 0.000000
# 4 0.000000 0.000000 0.000000 0.047709 0.000000 -0.002144
# 5 -0.001262 -0.001762 -0.000907 0.000000 0.021833 0.000000
# 6 0.000000 0.000000 0.000000 -0.002144 0.000000 0.019024
#
#
# Mechanical properties :
#
#
# Convention : Reuss Voigt Hill
#
# Bulk Modulus (GPa) = 46.86182 54.59388 50.72785
# Shear Modulus (GPa) = 31.15119 38.21903 34.68511
#
# Velocity S-wave (km/s) = 3.75777 4.16230 3.96520
# Velocity P-wave (km/s) = 6.33011 6.91715 6.63013
#
# Compressibility (1/GPa) = 0.02133933
#
# Stress axis : x y z
#
# Youngs Moduli (GPa) = 110.18456 42.60824 94.89135
#
# Poissons Ratio (x) = 0.18732 0.07719
# Poissons Ratio (y) = 0.48440 0.53732
# Poissons Ratio (z) = 0.08963 0.24127
#
# Static dielectric constant tensor:
#      x y z
#    x 2.071330 0.000000 0.113670 
#    y 0.000000 1.817500 0.000000 
#    z 0.113670 0.000000 1.983700 
# 
# From -- ./inp_files/36820.got.cif
#   From: 2010.05.17/outbox.cif.g08.bks.cpg/sg13_19_cif.got.tgz:36820.got - 2010.06.03 16:44:36.
