data_PCOD9230055
_publ_section_title
;
Structure prediction by ZEFSAII (Michael W. Deem and Ramdas Pophale) SiO2 
 PCOD9230055
Probable space group: P 2/C
;
_chemical_formula_sum "Si O2"
_cell_formula_units_Z 26
_cell_length_a 18.514719
_cell_length_b 16.270956
_cell_length_c 4.981542
_cell_angle_alpha 90.000000
_cell_angle_beta 67.390894
_cell_angle_gamma 90.000000
_cell_volume 1385.370248
_symmetry_space_group_name_H-M "P 2/C"
_symmetry_group_IT_number 13
_symmetry_cell_setting 'monoclinic'
loop_
_space_group_symop_operation_xyz
x,y,z
-x,y,1/2-z
-x,-y,-z
x,-y,1/2+z
loop_
_atom_site_type_symbol
_atom_site_label
_atom_site_fract_x
_atom_site_fract_y
_atom_site_fract_z
Si Si1 0.000000 0.440344 0.750000
Si Si2 0.724218 0.172943 0.588730
Si Si3 0.051687 0.214128 0.944149
Si Si4 0.827946 0.440675 0.045064
Si Si5 0.776924 0.730993 0.487676
Si Si6 0.858445 0.055178 0.601703
Si Si7 0.408011 0.054767 0.910233
O O1 0.084804 0.400479 0.609798
O O2 0.000000 0.500000 0.500000
O O3 0.718279 0.238379 0.838924
O O4 0.778398 0.100977 0.636163
O O5 0.645614 0.130473 0.597573
O O6 0.765717 0.215378 0.273038
O O7 0.136948 0.251429 0.759964
O O8 0.075234 0.123954 0.019827
O O9 0.000000 0.210138 0.750000
O O10 0.000000 0.257276 0.250000
O O11 0.820862 0.485788 0.339705
O O12 0.771171 0.364773 0.070570
O O13 0.863579 0.978439 0.395155
O O14 0.500000 0.073954 0.750000
O O15 0.391774 0.978858 0.730604
#
# Coordination Sequence:
#
# PCOD9230055 Si02
#       7
#     2   4   4   4   4   4   4
#     4   8  16  30  46  70  94 120 158 210 274 320
#     4  11  21  37  54  79 111 140 178 211 265 327
#     4  11  23  37  49  69  97 133 181 231 277 312
#     4  10  20  36  54  77 102 130 176 225 274 333
#     4  11  23  37  55  76 105 144 174 221 275 328
#     4  11  21  34  51  68  92 132 177 218 260 299
#     4  10  20  35  59  89 118 149 180 217 261 310
#
# _framework density 18.767545999999999
#
# number of rings (size 3 to 8) (size 9 to 14) (size 15 to 20)
#    0.000    1.538    0.000    7.385    1.077    1.846 
#    5.538    0.000    0.000    0.000    0.000    0.000 
#    0.000   12.308    0.000    0.000    0.000    0.000 
#
# Total GULP energy -145176.130491 kJ/mol
# GULP energy per Si atom -5583.697327 kJ/mol
# Density = 1.872483 g / cm^3
# Si number density = 18.767546 Si / 1000 Ang^3
#
#
#
# Elastic Constant Matrix: (Units=GPa)
#
#
# Indices 1 2 3 4 5 6 
#
# 1 85.4737 23.5228 10.6432 0.0000 9.3211 0.0000
# 2 23.5228 61.0491 -4.1619 0.0000 -7.7611 0.0000
# 3 10.6432 -4.1619 52.4781 0.0000 17.7110 0.0000
# 4 0.0000 0.0000 0.0000 6.0498 0.0000 3.0826
# 5 9.3211 -7.7611 17.7110 0.0000 23.3606 0.0000
# 6 0.0000 0.0000 0.0000 3.0826 0.0000 26.8305
#
#
#
# Elastic Compliance Matrix: (Units=1/GPa)
#
#
# Indices 1 2 3 4 5 6 
#
# 1 0.014402 -0.006526 -0.001031 0.000000 -0.007133 0.000000
# 2 -0.006526 0.020082 -0.000288 0.000000 0.009494 0.000000
# 3 -0.001031 -0.000288 0.025715 0.000000 -0.019180 0.000000
# 4 0.000000 0.000000 0.000000 0.175574 0.000000 -0.020172
# 5 -0.007133 0.009494 -0.019180 0.000000 0.063349 0.000000
# 6 0.000000 0.000000 0.000000 -0.020172 0.000000 0.039589
#
#
# Mechanical properties :
#
#
# Convention : Reuss Voigt Hill
#
# Bulk Modulus (GPa) = 22.46764 28.77878 25.62321
# Shear Modulus (GPa) = 13.54142 22.51463 18.02802
#
# Velocity S-wave (km/s) = 2.68905 3.46737 3.10271
# Velocity P-wave (km/s) = 4.65176 5.60337 5.14959
#
# Compressibility (1/GPa) = 0.04450846
#
# Stress axis : x y z
#
# Youngs Moduli (GPa) = 69.43565 49.79520 38.88763
#
# Poissons Ratio (x) = 0.32498 0.04010
# Poissons Ratio (y) = 0.45315 0.01120
# Poissons Ratio (z) = 0.07160 0.01434
#
# Static dielectric constant tensor:
#      x y z
#    x 1.659760 0.000000 0.004630 
#    y 0.000000 1.668920 0.000000 
#    z 0.004630 0.000000 1.667760 
# 
# From -- ./inp_files/6172.got.cif
#   From: 2010.05.17/outbox.cif.g08.bks.cpg/sg13_4_cif.got.tgz:6172.got - 2010.06.03 16:44:36.
