data_PCOD9230828
_publ_section_title
;
Structure prediction by ZEFSAII (Michael W. Deem and Ramdas Pophale) SiO2 
 PCOD9230828
Probable space group: P 2/C
;
_chemical_formula_sum "Si O2"
_cell_formula_units_Z 28
_cell_length_a 7.214533
_cell_length_b 6.594355
_cell_length_c 29.593266
_cell_angle_alpha 90.000000
_cell_angle_beta 111.943497
_cell_angle_gamma 90.000000
_cell_volume 1305.906546
_symmetry_space_group_name_H-M "P 2/C"
_symmetry_group_IT_number 13
_symmetry_cell_setting 'monoclinic'
loop_
_space_group_symop_operation_xyz
x,y,z
-x,y,1/2-z
-x,-y,-z
x,-y,1/2+z
loop_
_atom_site_type_symbol
_atom_site_label
_atom_site_fract_x
_atom_site_fract_y
_atom_site_fract_z
Si Si1 0.221630 0.156049 0.645204
Si Si2 0.341559 0.459078 0.414592
Si Si3 0.729975 0.460586 0.999224
Si Si4 0.856911 0.781841 0.171445
Si Si5 0.988576 0.187636 0.532264
Si Si6 0.429827 0.439245 0.794668
Si Si7 0.562115 0.157855 0.153936
O O1 0.065192 0.150907 0.589658
O O2 0.383893 0.340691 0.659922
O O3 0.084526 0.172263 0.677648
O O4 0.363323 0.961171 0.650765
O O5 0.222099 0.368692 0.446663
O O6 0.513159 0.571075 0.458412
O O7 0.221245 0.616539 0.372799
O O8 0.441610 0.290921 0.392070
O O9 0.864031 0.355701 0.974204
O O10 0.778420 0.698937 0.008832
O O11 0.773363 0.676999 0.209695
O O12 0.734485 0.992307 0.160896
O O13 0.000000 0.000000 0.500000
O O14 0.500000 0.412441 0.750000
O O15 0.397430 0.673367 0.804263
#
# Coordination Sequence:
#
# PCOD9230828 Si02
#       7
#     4   4   4   4   4   4   4
#     4  11  23  42  64  93 130 164 209 262 314 373
#     4  10  20  38  56  83 125 169 209 254 304 356
#     4  10  21  34  55  81 120 168 215 254 295 355
#     4  10  22  41  65  94 126 163 204 257 317 373
#     4  11  22  35  55  92 124 167 215 257 302 361
#     4  10  24  46  68  91 122 159 202 259 325 389
#     4  10  22  38  64  91 122 160 202 252 314 374
#
# _framework density 21.441044000000002
#
# number of rings (size 3 to 8) (size 9 to 14) (size 15 to 20)
#    0.000    1.714    1.429    3.429    2.000    6.286 
#    0.000    3.571    0.000    0.000    0.000    0.000 
#    0.000    0.000    0.000    0.000    0.000    0.000 
#
# Total GULP energy -156001.343644 kJ/mol
# GULP energy per Si atom -5571.476559 kJ/mol
# Density = 2.139224 g / cm^3
# Si number density = 21.441044 Si / 1000 Ang^3
#
#
#
# Elastic Constant Matrix: (Units=GPa)
#
#
# Indices 1 2 3 4 5 6 
#
# 1 131.7044 41.2267 2.2772 0.0000 -25.3713 0.0000
# 2 41.2267 89.8974 7.2314 0.0000 -6.0546 0.0000
# 3 2.2772 7.2314 58.8530 0.0000 -23.2742 0.0000
# 4 0.0000 0.0000 0.0000 9.2553 0.0000 -8.5860
# 5 -25.3713 -6.0546 -23.2742 0.0000 35.3964 0.0000
# 6 0.0000 0.0000 0.0000 -8.5860 0.0000 28.3759
#
#
#
# Elastic Compliance Matrix: (Units=1/GPa)
#
#
# Indices 1 2 3 4 5 6 
#
# 1 0.010812 -0.004631 0.003922 0.000000 0.009536 0.000000
# 2 -0.004631 0.013268 -0.002522 0.000000 -0.002709 0.000000
# 3 0.003922 -0.002522 0.024448 0.000000 0.018455 0.000000
# 4 0.000000 0.000000 0.000000 0.150211 0.000000 0.045451
# 5 0.009536 -0.002709 0.018455 0.000000 0.046758 0.000000
# 6 0.000000 0.000000 0.000000 0.045451 0.000000 0.048994
#
#
# Mechanical properties :
#
#
# Convention : Reuss Voigt Hill
#
# Bulk Modulus (GPa) = 23.77307 42.43616 33.10461
# Shear Modulus (GPa) = 15.87425 29.92015 22.89720
#
# Velocity S-wave (km/s) = 2.72392 3.73964 3.27144
# Velocity P-wave (km/s) = 4.58309 6.20335 5.45373
#
# Compressibility (1/GPa) = 0.04206440
#
# Stress axis : x y z
#
# Youngs Moduli (GPa) = 92.49196 75.36805 40.90325
#
# Poissons Ratio (x) = 0.34906 -0.16042
# Poissons Ratio (y) = 0.42837 0.10317
# Poissons Ratio (z) = -0.36275 0.19010
#
# Static dielectric constant tensor:
#      x y z
#    x 2.024380 0.000000 -0.067690 
#    y 0.000000 1.778530 0.000000 
#    z -0.067690 0.000000 1.832640 
# 
# From -- ./inp_files/95519.got.cif
#   From: 2010.05.17/outbox.cif.g08.bks.cpg/sg13_48_cif.got.tgz:95519.got - 2010.06.03 16:44:36.
