data_PCOD9230410
_publ_section_title
;
Structure prediction by ZEFSAII (Michael W. Deem and Ramdas Pophale) SiO2 
 PCOD9230410
Probable space group: P 2/C
;
_chemical_formula_sum "Si O2"
_cell_formula_units_Z 20
_cell_length_a 12.291353
_cell_length_b 7.571073
_cell_length_c 9.207723
_cell_angle_alpha 90.000000
_cell_angle_beta 98.600794
_cell_angle_gamma 90.000000
_cell_volume 847.223044
_symmetry_space_group_name_H-M "P 2/C"
_symmetry_group_IT_number 13
_symmetry_cell_setting 'monoclinic'
loop_
_space_group_symop_operation_xyz
x,y,z
-x,y,1/2-z
-x,-y,-z
x,-y,1/2+z
loop_
_atom_site_type_symbol
_atom_site_label
_atom_site_fract_x
_atom_site_fract_y
_atom_site_fract_z
Si Si1 0.000000 0.522034 0.250000
Si Si2 0.849189 0.459685 0.962922
Si Si3 0.547380 0.262519 0.499180
Si Si4 0.500000 0.448690 0.750000
Si Si5 0.708270 0.167444 0.043944
Si Si6 0.761898 0.852940 0.893816
O O1 0.064112 0.422786 0.390741
O O2 0.098007 0.609674 0.176792
O O3 0.825677 0.671178 0.943553
O O4 0.740485 0.361194 0.990982
O O5 0.577165 0.324231 0.668168
O O6 0.544089 0.421568 0.382061
O O7 0.426054 0.177985 0.482560
O O8 0.644650 0.149703 0.453880
O O9 0.741783 0.143704 0.218544
O O10 0.791751 0.042550 0.966367
#
# Coordination Sequence:
#
# PCOD9230410 Si02
#       6
#     2   4   4   2   4   4
#     4  10  24  48  78 100 130 182 224 308 362 406
#     4  11  24  49  76 100 140 175 236 289 360 414
#     4  11  23  40  65 101 150 187 231 273 336 402
#     4  10  20  36  62  92 124 194 242 272 316 390
#     4  12  27  44  70 107 144 188 232 278 338 417
#     4  12  27  44  70 107 144 188 232 278 338 417
#
# _framework density 23.606534
#
# number of rings (size 3 to 8) (size 9 to 14) (size 15 to 20)
#    0.000    0.800    4.000    3.000    5.600    0.000 
#    0.000    6.000    0.000    0.000    0.000    0.000 
#    0.000    0.000    0.000    0.000    0.000    0.000 
#
# Total GULP energy -111430.520264 kJ/mol
# GULP energy per Si atom -5571.526013 kJ/mol
# Density = 2.355280 g / cm^3
# Si number density = 23.606534 Si / 1000 Ang^3
#
#
#
# Elastic Constant Matrix: (Units=GPa)
#
#
# Indices 1 2 3 4 5 6 
#
# 1 80.9297 6.6161 4.6340 0.0000 -16.5659 0.0000
# 2 6.6161 70.5695 11.8961 0.0000 -4.4961 0.0000
# 3 4.6340 11.8961 118.0804 0.0000 -25.2750 0.0000
# 4 0.0000 0.0000 0.0000 -23.7108 0.0000 -19.8883
# 5 -16.5659 -4.4961 -25.2750 0.0000 38.6417 0.0000
# 6 0.0000 0.0000 0.0000 -19.8883 0.0000 11.2782
#
#
#
# Elastic Compliance Matrix: (Units=1/GPa)
#
#
# Indices 1 2 3 4 5 6 
#
# 1 0.013689 -0.001035 0.000927 0.000000 0.006354 0.000000
# 2 -0.001035 0.014517 -0.001343 0.000000 0.000367 0.000000
# 3 0.000927 -0.001343 0.010023 0.000000 0.006797 0.000000
# 4 0.000000 0.000000 0.000000 -0.017012 0.000000 -0.029999
# 5 0.006354 0.000367 0.006797 0.000000 0.033091 0.000000
# 6 0.000000 0.000000 0.000000 -0.029999 0.000000 0.035765
#
#
# Mechanical properties :
#
#
# Convention : Reuss Voigt Hill
#
# Bulk Modulus (GPa) = 28.30737 35.09688 31.70213
# Shear Modulus (GPa) = 47.73242 21.67072 34.70157
#
# Velocity S-wave (km/s) = 4.50154 3.03313 3.83822
# Velocity P-wave (km/s) = 6.24787 5.21213 5.75335
#
# Compressibility (1/GPa) = 0.03532648
#
# Stress axis : x y z
#
# Youngs Moduli (GPa) = 73.05338 68.88346 99.77429
#
# Poissons Ratio (x) = 0.07128 -0.09251
# Poissons Ratio (y) = 0.07560 0.13404
# Poissons Ratio (z) = -0.06774 0.09254
#
# Static dielectric constant tensor:
#      x y z
#    x 2.004010 0.000000 0.048030 
#    y 0.000000 5.194930 0.000000 
#    z 0.048030 0.000000 1.896310 
# 
# From -- ./inp_files/15024.got.cif
#   From: 2010.05.17/outbox.cif.g08.bks.cpg/sg13_8_cif.got.tgz:15024.got - 2010.06.03 16:44:36.
