data_PCOD9230311
_publ_section_title
;
Structure prediction by ZEFSAII (Michael W. Deem and Ramdas Pophale) SiO2 
 PCOD9230311
Probable space group: P 2/C
;
_chemical_formula_sum "Si O2"
_cell_formula_units_Z 14
_cell_length_a 11.467509
_cell_length_b 8.337302
_cell_length_c 12.202938
_cell_angle_alpha 90.000000
_cell_angle_beta 38.762960
_cell_angle_gamma 90.000000
_cell_volume 730.470422
_symmetry_space_group_name_H-M "P 2/C"
_symmetry_group_IT_number 13
_symmetry_cell_setting 'monoclinic'
loop_
_space_group_symop_operation_xyz
x,y,z
-x,y,1/2-z
-x,-y,-z
x,-y,1/2+z
loop_
_atom_site_type_symbol
_atom_site_label
_atom_site_fract_x
_atom_site_fract_y
_atom_site_fract_z
Si Si1 0.253580 0.107890 0.299644
Si Si2 0.928419 0.819964 0.180518
Si Si3 0.475065 0.315080 0.545998
Si Si4 0.500000 0.860352 0.250000
O O1 0.099812 0.213398 0.473636
O O2 0.143393 0.000649 0.291783
O O3 0.339574 0.980456 0.323422
O O4 0.418221 0.206067 0.121977
O O5 0.745296 0.716636 0.294823
O O6 0.000000 0.803095 0.250000
O O7 0.500000 0.500000 0.500000
O O8 0.546928 0.251705 0.611574
#
# Coordination Sequence:
#
# PCOD9230311 Si02
#       4
#     4   4   4   2
#     4  10  20  37  62  85 114 156 205 242 280 345
#     4  10  20  36  60  86 113 155 203 241 283 345
#     4  11  24  39  59  91 125 153 188 244 305 349
#     4  10  20  40  64  84 116 162 202 238 284 346
#
# _framework density 19.165731000000001
#
# number of rings (size 3 to 8) (size 9 to 14) (size 15 to 20)
#    0.000    1.714    0.000    6.857    0.000    4.571 
#    0.000    7.143    0.000    0.000    0.000    0.000 
#    0.000    0.000    0.000    0.000    0.000    0.000 
#
# Total GULP energy -78131.435147 kJ/mol
# GULP energy per Si atom -5580.816796 kJ/mol
# Density = 1.912211 g / cm^3
# Si number density = 19.165731 Si / 1000 Ang^3
#
#
#
# Elastic Constant Matrix: (Units=GPa)
#
#
# Indices 1 2 3 4 5 6 
#
# 1 96.3475 37.9714 41.4548 0.0000 15.1612 0.0000
# 2 37.9714 86.0073 63.8159 0.0000 13.5474 0.0000
# 3 41.4548 63.8159 127.8127 0.0000 1.4085 0.0000
# 4 0.0000 0.0000 0.0000 26.7085 0.0000 2.7084
# 5 15.1612 13.5474 1.4085 0.0000 24.6375 0.0000
# 6 0.0000 0.0000 0.0000 2.7084 0.0000 11.9111
#
#
#
# Elastic Compliance Matrix: (Units=1/GPa)
#
#
# Indices 1 2 3 4 5 6 
#
# 1 0.013855 -0.002804 -0.003019 0.000000 -0.006811 0.000000
# 2 -0.002804 0.021645 -0.009792 0.000000 -0.009616 0.000000
# 3 -0.003019 -0.009792 0.013621 0.000000 0.006463 0.000000
# 4 0.000000 0.000000 0.000000 0.038325 0.000000 -0.008714
# 5 -0.006811 -0.009616 0.006463 0.000000 0.049698 0.000000
# 6 0.000000 0.000000 0.000000 -0.008714 0.000000 0.085937
#
#
# Mechanical properties :
#
#
# Convention : Reuss Voigt Hill
#
# Bulk Modulus (GPa) = 55.89190 66.29464 61.09327
# Shear Modulus (GPa) = 19.21061 23.77978 21.49519
#
# Velocity S-wave (km/s) = 3.16941 3.52624 3.35258
# Velocity P-wave (km/s) = 6.52835 7.15852 6.85068
#
# Compressibility (1/GPa) = 0.01789168
#
# Stress axis : x y z
#
# Youngs Moduli (GPa) = 72.17690 46.20021 73.41796
#
# Poissons Ratio (x) = 0.12956 0.22161
# Poissons Ratio (y) = 0.20240 0.71888
# Poissons Ratio (z) = 0.21787 0.45238
#
# Static dielectric constant tensor:
#      x y z
#    x 1.673230 0.000000 0.001680 
#    y 0.000000 1.641200 0.000000 
#    z 0.001680 0.000000 1.698970 
# 
# From -- ./inp_files/27327.got.cif
#   From: 2010.05.17/outbox.cif.g08.bks.cpg/sg13_14_cif.got.tgz:27327.got - 2010.06.03 16:44:36.
