data_PCOD9230581
_publ_section_title
;
Structure prediction by ZEFSAII (Michael W. Deem and Ramdas Pophale) SiO2 
 PCOD9230581
Probable space group: P 2/C
;
_chemical_formula_sum "Si O2"
_cell_formula_units_Z 24
_cell_length_a 8.800090
_cell_length_b 17.875104
_cell_length_c 8.212519
_cell_angle_alpha 90.000000
_cell_angle_beta 121.845892
_cell_angle_gamma 90.000000
_cell_volume 1097.388239
_symmetry_space_group_name_H-M "P 2/C"
_symmetry_group_IT_number 13
_symmetry_cell_setting 'monoclinic'
loop_
_space_group_symop_operation_xyz
x,y,z
-x,y,1/2-z
-x,-y,-z
x,-y,1/2+z
loop_
_atom_site_type_symbol
_atom_site_label
_atom_site_fract_x
_atom_site_fract_y
_atom_site_fract_z
Si Si1 0.684014 0.392175 0.784783
Si Si2 0.810517 0.461134 0.545893
Si Si3 0.039412 0.178406 0.961251
Si Si4 0.957449 0.668204 0.915561
Si Si5 0.691688 0.944273 0.774963
Si Si6 0.303808 0.892528 0.096043
O O1 0.500000 0.361188 0.750000
O O2 0.674498 0.425554 0.598313
O O3 0.741881 0.461910 0.932486
O O4 0.850653 0.336134 0.884416
O O5 0.000000 0.470957 0.750000
O O6 0.847806 0.401812 0.423532
O O7 0.000000 0.190255 0.750000
O O8 0.857400 0.162631 0.957408
O O9 0.162679 0.106077 0.052985
O O10 0.128061 0.252679 0.086762
O O11 0.000000 0.662484 0.750000
O O12 0.500000 0.931174 0.750000
O O13 0.693602 0.919939 0.588531
O O14 0.726749 0.032565 0.813516
O O15 0.500000 0.862093 0.250000
#
# Coordination Sequence:
#
# PCOD9230581 Si02
#       6
#     4   4   4   4   4   4
#     4  11  21  36  60  89 115 146 190 242 287 339
#     4  10  20  37  59  83 114 152 190 231 285 346
#     4  12  24  41  62  87 119 159 200 245 299 358
#     4  11  23  41  59  81 115 156 193 234 290 355
#     4  11  22  40  62  91 121 156 200 247 296 349
#     4  11  22  39  63  91 122 157 198 247 295 349
#
# _framework density 21.870107000000001
#
# number of rings (size 3 to 8) (size 9 to 14) (size 15 to 20)
#    0.000    1.000    0.000   11.500    0.000    0.667 
#    0.000    5.833    0.000    0.000    0.000    0.000 
#    0.000    0.000    0.000    0.000    0.000    0.000 
#
# Total GULP energy -134372.885538 kJ/mol
# GULP energy per Si atom -5598.870231 kJ/mol
# Density = 2.182033 g / cm^3
# Si number density = 21.870107 Si / 1000 Ang^3
#
#
#
# Elastic Constant Matrix: (Units=GPa)
#
#
# Indices 1 2 3 4 5 6 
#
# 1 51.7056 7.1018 -1.8618 0.0000 -8.8190 0.0000
# 2 7.1018 43.7497 -4.0543 0.0000 9.5490 0.0000
# 3 -1.8618 -4.0543 74.3032 0.0000 -33.9087 0.0000
# 4 0.0000 0.0000 0.0000 25.5480 0.0000 -11.7153
# 5 -8.8190 9.5490 -33.9087 0.0000 40.4599 0.0000
# 6 0.0000 0.0000 0.0000 -11.7153 0.0000 13.3422
#
#
#
# Elastic Compliance Matrix: (Units=1/GPa)
#
#
# Indices 1 2 3 4 5 6 
#
# 1 0.021979 -0.005329 0.004891 0.000000 0.010147 0.000000
# 2 -0.005329 0.025590 -0.003277 0.000000 -0.009947 0.000000
# 3 0.004891 -0.003277 0.023062 0.000000 0.021167 0.000000
# 4 0.000000 0.000000 0.000000 0.065525 0.000000 0.057535
# 5 0.010147 -0.009947 0.021167 0.000000 0.047015 0.000000
# 6 0.000000 0.000000 0.000000 0.057535 0.000000 0.125469
#
#
# Mechanical properties :
#
#
# Convention : Reuss Voigt Hill
#
# Bulk Modulus (GPa) = 15.82275 19.12553 17.47414
# Shear Modulus (GPa) = 14.83074 27.10821 20.96948
#
# Velocity S-wave (km/s) = 2.60692 3.52449 3.09984
# Velocity P-wave (km/s) = 4.03880 5.03257 4.56282
#
# Compressibility (1/GPa) = 0.06320012
#
# Stress axis : x y z
#
# Youngs Moduli (GPa) = 45.49766 39.07791 43.36161
#
# Poissons Ratio (x) = 0.20826 -0.21207
# Poissons Ratio (y) = 0.24248 0.14209
# Poissons Ratio (z) = -0.22252 0.12805
#
# Static dielectric constant tensor:
#      x y z
#    x 1.796110 0.000000 0.010320 
#    y 0.000000 1.780690 0.000000 
#    z 0.010320 0.000000 1.809370 
# 
# From -- ./inp_files/12858.got.cif
#   From: 2010.05.17/outbox.cif.g08.bks.cpg/sg13_7_cif.got.tgz:12858.got - 2010.06.03 16:44:36.
