data_PCOD9230110
_publ_section_title
;
Structure prediction by ZEFSAII (Michael W. Deem and Ramdas Pophale) SiO2 
 PCOD9230110
Probable space group: P 2/C
;
_chemical_formula_sum "Si O2"
_cell_formula_units_Z 32
_cell_length_a 18.772064
_cell_length_b 13.383974
_cell_length_c 22.133911
_cell_angle_alpha 90.000000
_cell_angle_beta 162.154273
_cell_angle_gamma 90.000000
_cell_volume 1704.206070
_symmetry_space_group_name_H-M "P 2/C"
_symmetry_group_IT_number 13
_symmetry_cell_setting 'monoclinic'
loop_
_space_group_symop_operation_xyz
x,y,z
-x,y,1/2-z
-x,-y,-z
x,-y,1/2+z
loop_
_atom_site_type_symbol
_atom_site_label
_atom_site_fract_x
_atom_site_fract_y
_atom_site_fract_z
Si Si1 0.186610 0.052775 0.851900
Si Si2 0.587759 0.327644 0.910013
Si Si3 0.831187 0.136051 0.239107
Si Si4 0.600386 0.396527 0.057833
Si Si5 0.518512 0.895703 0.336952
Si Si6 0.050462 0.115929 0.531936
Si Si7 0.342825 0.193771 0.872419
Si Si8 0.101421 0.663801 0.945853
O O1 0.286690 0.138615 0.889648
O O2 0.000000 0.089826 0.750000
O O3 0.088349 0.967376 0.726146
O O4 0.366951 0.990732 0.038719
O O5 0.643422 0.208856 0.954491
O O6 0.327288 0.332790 0.671471
O O7 0.585395 0.376318 0.973615
O O8 0.781253 0.373808 0.021589
O O9 0.844905 0.151795 0.322880
O O10 0.982113 0.228131 0.337036
O O11 0.552949 0.137639 0.006655
O O12 0.879107 0.392390 0.294311
O O13 0.500000 0.500000 0.000000
O O14 0.445649 0.305374 0.960123
O O15 0.500000 0.904705 0.250000
O O16 0.264311 0.881722 0.158580
O O17 0.122891 0.176908 0.649765
O O18 0.000000 0.000000 0.500000
#
# Coordination Sequence:
#
# PCOD9230110 Si02
#       8
#     4   4   4   4   4   4   4   4
#     4  12  23  34  51  80 123 166 197 232 281 357
#     4  11  19  38  60  95 124 143 193 253 312 359
#     4  11  19  35  57  87 119 155 188 236 301 356
#     4  11  24  41  63  88 115 156 205 258 316 369
#     4  12  21  35  55  92 124 153 196 241 286 364
#     4  12  20  33  57  82 121 160 194 229 285 357
#     4  11  23  40  55  84 119 156 205 250 292 358
#     4  10  20  35  63  91 121 149 185 255 316 357
#
# _framework density 18.777073000000001
#
# number of rings (size 3 to 8) (size 9 to 14) (size 15 to 20)
#    0.000    0.750    6.250    3.750    0.000    0.500 
#    0.000    1.250    0.000    0.000    3.250    0.000 
#    0.000    0.000    0.000    0.000    0.000    0.000 
#
# Total GULP energy -178363.446217 kJ/mol
# GULP energy per Si atom -5573.857694 kJ/mol
# Density = 1.873434 g / cm^3
# Si number density = 18.777073 Si / 1000 Ang^3
#
#
#
# Elastic Constant Matrix: (Units=GPa)
#
#
# Indices 1 2 3 4 5 6 
#
# 1 123.5718 65.2005 29.9669 0.0000 -0.7597 0.0000
# 2 65.2005 100.2088 26.9751 0.0000 11.2383 0.0000
# 3 29.9669 26.9751 76.8171 0.0000 -7.5288 0.0000
# 4 0.0000 0.0000 0.0000 17.3642 0.0000 2.8313
# 5 -0.7597 11.2383 -7.5288 0.0000 38.8461 0.0000
# 6 0.0000 0.0000 0.0000 2.8313 0.0000 22.8412
#
#
#
# Elastic Compliance Matrix: (Units=1/GPa)
#
#
# Indices 1 2 3 4 5 6 
#
# 1 0.012842 -0.008076 -0.001957 0.000000 0.002208 0.000000
# 2 -0.008076 0.016751 -0.003284 0.000000 -0.005641 0.000000
# 3 -0.001957 -0.003284 0.015315 0.000000 0.003880 0.000000
# 4 0.000000 0.000000 0.000000 0.058778 0.000000 -0.007286
# 5 0.002208 -0.005641 0.003880 0.000000 0.028170 0.000000
# 6 0.000000 0.000000 0.000000 -0.007286 0.000000 0.044684
#
#
# Mechanical properties :
#
#
# Convention : Reuss Voigt Hill
#
# Bulk Modulus (GPa) = 54.72887 60.54252 57.63569
# Shear Modulus (GPa) = 23.89309 27.70731 25.80020
#
# Velocity S-wave (km/s) = 3.57103 3.84551 3.71081
# Velocity P-wave (km/s) = 6.79801 7.21319 7.00867
#
# Compressibility (1/GPa) = 0.01827189
#
# Stress axis : x y z
#
# Youngs Moduli (GPa) = 77.86898 59.69874 65.29510
#
# Poissons Ratio (x) = 0.48215 0.12780
# Poissons Ratio (y) = 0.62891 0.21445
# Poissons Ratio (z) = 0.15241 0.19607
#
# Static dielectric constant tensor:
#      x y z
#    x 1.695620 0.000000 -0.036840 
#    y 0.000000 1.657240 0.000000 
#    z -0.036840 0.000000 1.775930 
# 
# From -- ./inp_files/81148.got.cif
#   From: 2010.05.17/outbox.cif.g08.bks.cpg/sg13_41_cif.got.tgz:81148.got - 2010.06.03 16:44:36.
