data_PCOD9230702
_publ_section_title
;
Structure prediction by ZEFSAII (Michael W. Deem and Ramdas Pophale) SiO2 
 PCOD9230702
Probable space group: P 2/C
;
_chemical_formula_sum "Si O2"
_cell_formula_units_Z 26
_cell_length_a 12.603591
_cell_length_b 15.795325
_cell_length_c 12.533002
_cell_angle_alpha 90.000000
_cell_angle_beta 151.046774
_cell_angle_gamma 90.000000
_cell_volume 1207.838812
_symmetry_space_group_name_H-M "P 2/C"
_symmetry_group_IT_number 13
_symmetry_cell_setting 'monoclinic'
loop_
_space_group_symop_operation_xyz
x,y,z
-x,y,1/2-z
-x,-y,-z
x,-y,1/2+z
loop_
_atom_site_type_symbol
_atom_site_label
_atom_site_fract_x
_atom_site_fract_y
_atom_site_fract_z
Si Si1 0.372772 0.372814 0.428125
Si Si2 0.796857 0.777336 0.856951
Si Si3 0.000000 0.226897 0.750000
Si Si4 0.608833 0.108997 0.486184
Si Si5 0.137404 0.914195 0.084253
Si Si6 0.330801 0.505633 0.198048
Si Si7 0.000000 0.567366 0.750000
Si Si8 0.500000 0.044891 0.750000
O O1 0.337215 0.284177 0.338979
O O2 0.336632 0.439106 0.298969
O O3 0.593730 0.405133 0.681260
O O4 0.191473 0.380896 0.361348
O O5 0.617700 0.844864 0.737428
O O6 0.905932 0.731657 0.057493
O O7 0.978366 0.833649 0.956941
O O8 0.194713 0.166615 0.883130
O O9 0.666604 0.097466 0.659249
O O10 0.593867 0.017769 0.422129
O O11 0.276855 0.913495 0.098103
O O12 0.000000 0.000000 0.000000
O O13 0.500000 0.484771 0.250000
O O14 0.102896 0.513249 0.936493
#
# Coordination Sequence:
#
# PCOD9230702 Si02
#       8
#     4   4   2   4   4   4   2   2
#     4  10  22  40  63  94 132 167 209 264 319 388
#     4  11  23  40  61  93 131 166 213 268 330 387
#     4  10  20  37  62  89 124 162 212 266 328 387
#     4  11  21  41  61  87 121 165 210 272 328 376
#     4  11  24  41  61  92 122 163 224 268 324 395
#     4   9  20  39  66  96 126 167 212 257 316 393
#     4  10  20  41  66  93 128 170 210 252 318 387
#     4  12  20  40  66  84 120 172 212 276 322 384
#
# _framework density 21.526050000000001
#
# number of rings (size 3 to 8) (size 9 to 14) (size 15 to 20)
#    0.000    1.538    3.077    1.846    0.000    4.308 
#    2.769    0.000    0.000    0.000    0.000    0.000 
#    0.000    0.000    0.000    0.000    0.000    0.000 
#
# Total GULP energy -144902.514655 kJ/mol
# GULP energy per Si atom -5573.173641 kJ/mol
# Density = 2.147706 g / cm^3
# Si number density = 21.526050 Si / 1000 Ang^3
#
#
#
# Elastic Constant Matrix: (Units=GPa)
#
#
# Indices 1 2 3 4 5 6 
#
# 1 102.2385 25.2576 17.9181 0.0000 3.3528 0.0000
# 2 25.2576 43.3502 9.8904 0.0000 -14.3953 0.0000
# 3 17.9181 9.8904 99.2471 0.0000 -16.8109 0.0000
# 4 0.0000 0.0000 0.0000 14.8720 0.0000 -1.2609
# 5 3.3528 -14.3953 -16.8109 0.0000 32.7318 0.0000
# 6 0.0000 0.0000 0.0000 -1.2609 0.0000 6.7770
#
#
#
# Elastic Compliance Matrix: (Units=1/GPa)
#
#
# Indices 1 2 3 4 5 6 
#
# 1 0.012646 -0.008964 -0.002494 0.000000 -0.006519 0.000000
# 2 -0.008964 0.033417 0.001022 0.000000 0.016140 0.000000
# 3 -0.002494 0.001022 0.011548 0.000000 0.006636 0.000000
# 4 0.000000 0.000000 0.000000 0.068318 0.000000 0.012711
# 5 -0.006519 0.016140 0.006636 0.000000 0.041726 0.000000
# 6 0.000000 0.000000 0.000000 0.012711 0.000000 0.149923
#
#
# Mechanical properties :
#
#
# Convention : Reuss Voigt Hill
#
# Bulk Modulus (GPa) = 27.21834 38.99646 33.10740
# Shear Modulus (GPa) = 14.25732 23.66079 18.95905
#
# Velocity S-wave (km/s) = 2.57637 3.31897 2.97096
# Velocity P-wave (km/s) = 4.63919 5.73085 5.21367
#
# Compressibility (1/GPa) = 0.03673993
#
# Stress axis : x y z
#
# Youngs Moduli (GPa) = 79.07356 29.92475 86.59244
#
# Poissons Ratio (x) = 0.26825 0.21597
# Poissons Ratio (y) = 0.70881 -0.08850
# Poissons Ratio (z) = 0.19721 -0.03058
#
# Static dielectric constant tensor:
#      x y z
#    x 1.849500 0.000000 -0.021050 
#    y 0.000000 1.792110 0.000000 
#    z -0.021050 0.000000 1.822860 
# 
# From -- ./inp_files/34812.got.cif
#   From: 2010.05.17/outbox.cif.g08.bks.cpg/sg13_18_cif.got.tgz:34812.got - 2010.06.03 16:44:36.
