data_PCOD9230463
_publ_section_title
;
Structure prediction by ZEFSAII (Michael W. Deem and Ramdas Pophale) SiO2 
 PCOD9230463
Probable space group: P 2/C
;
_chemical_formula_sum "Si O2"
_cell_formula_units_Z 32
_cell_length_a 20.719309
_cell_length_b 6.843179
_cell_length_c 16.973597
_cell_angle_alpha 90.000000
_cell_angle_beta 47.911088
_cell_angle_gamma 90.000000
_cell_volume 1785.964183
_symmetry_space_group_name_H-M "P 2/C"
_symmetry_group_IT_number 13
_symmetry_cell_setting 'monoclinic'
loop_
_space_group_symop_operation_xyz
x,y,z
-x,y,1/2-z
-x,-y,-z
x,-y,1/2+z
loop_
_atom_site_type_symbol
_atom_site_label
_atom_site_fract_x
_atom_site_fract_y
_atom_site_fract_z
Si Si1 0.237235 0.466641 0.040390
Si Si2 0.742541 0.414017 0.658568
Si Si3 0.398695 0.597435 0.005509
Si Si4 0.912399 0.516460 0.621311
Si Si5 0.679963 0.070958 0.818250
Si Si6 0.593435 0.321681 0.349741
Si Si7 0.909727 0.746448 0.278943
Si Si8 0.836913 0.142424 0.280065
O O1 0.330696 0.540086 0.994218
O O2 0.167809 0.640206 0.110495
O O3 0.206654 0.291584 0.122556
O O4 0.239971 0.402987 0.948028
O O5 0.828849 0.476815 0.635112
O O6 0.710935 0.210876 0.722461
O O7 0.667488 0.572834 0.738008
O O8 0.362784 0.786095 0.082015
O O9 0.401084 0.423903 0.068496
O O10 0.496665 0.637395 0.898149
O O11 0.913049 0.359153 0.691332
O O12 0.898007 0.726492 0.674157
O O13 0.000000 0.500000 0.500000
O O14 0.614118 0.905692 0.842617
O O15 0.761789 0.960510 0.790140
O O16 0.000000 0.718692 0.250000
O O17 0.888385 0.972538 0.282432
#
# Coordination Sequence:
#
# PCOD9230463 Si02
#       8
#     4   4   4   4   4   4   4   4
#     4  11  23  40  61  87 126 164 199 253 308 367
#     4  11  23  38  60  89 125 164 200 251 313 361
#     4  10  20  36  65  90 116 161 203 245 307 362
#     4  11  23  41  62  88 121 161 202 254 308 371
#     4  11  18  40  63  91 117 158 209 251 301 365
#     4  10  20  37  63  90 119 157 204 251 297 370
#     4  11  23  41  63  89 119 158 208 254 304 364
#     4  11  21  41  65  86 121 159 208 256 298 370
#
# _framework density 17.917493
#
# number of rings (size 3 to 8) (size 9 to 14) (size 15 to 20)
#    0.000    1.250    5.000    2.625    0.000    5.000 
#    2.250    0.000    0.000    0.000    0.000    0.000 
#    0.000    0.000    0.000    0.000    0.000    0.000 
#
# Total GULP energy -178795.721142 kJ/mol
# GULP energy per Si atom -5587.366286 kJ/mol
# Density = 1.787671 g / cm^3
# Si number density = 17.917493 Si / 1000 Ang^3
#
#
#
# Elastic Constant Matrix: (Units=GPa)
#
#
# Indices 1 2 3 4 5 6 
#
# 1 132.5705 44.2577 60.2071 0.0000 -12.4496 0.0000
# 2 44.2577 123.4197 47.8184 0.0000 -2.0515 0.0000
# 3 60.2071 47.8184 118.5871 0.0000 -4.7323 0.0000
# 4 0.0000 0.0000 0.0000 9.0562 0.0000 -6.9322
# 5 -12.4496 -2.0515 -4.7323 0.0000 31.1357 0.0000
# 6 0.0000 0.0000 0.0000 -6.9322 0.0000 25.7918
#
#
#
# Elastic Compliance Matrix: (Units=1/GPa)
#
#
# Indices 1 2 3 4 5 6 
#
# 1 0.010535 -0.002016 -0.004399 0.000000 0.003411 0.000000
# 2 -0.002016 0.009989 -0.003028 0.000000 -0.000608 0.000000
# 3 -0.004399 -0.003028 0.011881 0.000000 -0.000153 0.000000
# 4 0.000000 0.000000 0.000000 0.139023 0.000000 0.037366
# 5 0.003411 -0.000608 -0.000153 0.000000 0.033418 0.000000
# 6 0.000000 0.000000 0.000000 0.037366 0.000000 0.048815
#
#
# Mechanical properties :
#
#
# Convention : Reuss Voigt Hill
#
# Bulk Modulus (GPa) = 73.98406 75.46041 74.72223
# Shear Modulus (GPa) = 18.04701 28.01635 23.03168
#
# Velocity S-wave (km/s) = 3.17713 3.95857 3.58918
# Velocity P-wave (km/s) = 7.40541 7.94359 7.67921
#
# Compressibility (1/GPa) = 0.01351643
#
# Stress axis : x y z
#
# Youngs Moduli (GPa) = 94.92565 100.11286 84.16702
#
# Poissons Ratio (x) = 0.20188 0.37027
# Poissons Ratio (y) = 0.19142 0.25488
# Poissons Ratio (z) = 0.41760 0.30317
#
# Static dielectric constant tensor:
#      x y z
#    x 1.597940 0.000000 -0.012530 
#    y 0.000000 1.602810 0.000000 
#    z -0.012530 0.000000 1.592820 
# 
# From -- ./inp_files/70289.got.cif
#   From: 2010.05.17/outbox.cif.g08.bks.cpg/sg13_36_cif.got.tgz:70289.got - 2010.06.03 16:44:36.
