data_PCOD9230947
_publ_section_title
;
Structure prediction by ZEFSAII (Michael W. Deem and Ramdas Pophale) SiO2 
 PCOD9230947
Probable space group: P 2/C
;
_chemical_formula_sum "Si O2"
_cell_formula_units_Z 12
_cell_length_a 17.012069
_cell_length_b 8.043211
_cell_length_c 19.617990
_cell_angle_alpha 90.000000
_cell_angle_beta 166.339971
_cell_angle_gamma 90.000000
_cell_volume 633.939800
_symmetry_space_group_name_H-M "P 2/C"
_symmetry_group_IT_number 13
_symmetry_cell_setting 'monoclinic'
loop_
_space_group_symop_operation_xyz
x,y,z
-x,y,1/2-z
-x,-y,-z
x,-y,1/2+z
loop_
_atom_site_type_symbol
_atom_site_label
_atom_site_fract_x
_atom_site_fract_y
_atom_site_fract_z
Si Si1 0.081029 0.941843 0.490994
Si Si2 0.706150 0.123569 0.052413
Si Si3 0.741286 0.618489 0.245577
O O1 0.951523 0.753206 0.378975
O O2 0.000000 0.000000 0.500000
O O3 0.870699 0.044212 0.258616
O O4 0.470476 0.988528 0.815490
O O5 0.000000 0.176679 0.250000
O O6 0.476577 0.274809 0.884329
O O7 0.000000 0.500000 0.500000
O O8 0.500000 0.500000 0.000000
#
# Coordination Sequence:
#
# PCOD9230947 Si02
#       3
#     4   4   4
#     4  10  20  38  61  82 109 153 198 227 275 354
#     4  11  22  39  60  85 116 153 197 245 284 330
#     4  11  21  37  60  85 116 152 189 234 291 352
#
# _framework density 18.92924
#
# number of rings (size 3 to 8) (size 9 to 14) (size 15 to 20)
#    0.000    1.333    0.000   11.000    0.000    0.000 
#    0.000   10.000    0.000    0.000    0.000    0.000 
#    0.000    0.000    0.000    0.000    0.000    0.000 
#
# Total GULP energy -66975.628022 kJ/mol
# GULP energy per Si atom -5581.302335 kJ/mol
# Density = 1.888616 g / cm^3
# Si number density = 18.929240 Si / 1000 Ang^3
#
#
#
# Elastic Constant Matrix: (Units=GPa)
#
#
# Indices 1 2 3 4 5 6 
#
# 1 75.0284 54.8454 58.6211 0.0000 -5.6011 0.0000
# 2 54.8454 133.1631 79.7487 0.0000 -8.2094 0.0000
# 3 58.6211 79.7487 170.9463 0.0000 -16.8319 0.0000
# 4 0.0000 0.0000 0.0000 48.4364 0.0000 -10.5051
# 5 -5.6011 -8.2094 -16.8319 0.0000 49.9503 0.0000
# 6 0.0000 0.0000 0.0000 -10.5051 0.0000 22.4463
#
#
#
# Elastic Compliance Matrix: (Units=1/GPa)
#
#
# Indices 1 2 3 4 5 6 
#
# 1 0.021256 -0.006092 -0.004459 0.000000 -0.000120 0.000000
# 2 -0.006092 0.012167 -0.003576 0.000000 0.000112 0.000000
# 3 -0.004459 -0.003576 0.009247 0.000000 0.002028 0.000000
# 4 0.000000 0.000000 0.000000 0.022978 0.000000 0.010754
# 5 -0.000120 0.000112 0.002028 0.000000 0.020708 0.000000
# 6 0.000000 0.000000 0.000000 0.010754 0.000000 0.049584
#
#
# Mechanical properties :
#
#
# Convention : Reuss Voigt Hill
#
# Bulk Modulus (GPa) = 69.36591 85.06314 77.21452
# Shear Modulus (GPa) = 29.58583 36.56145 33.07364
#
# Velocity S-wave (km/s) = 3.95773 4.39963 4.18452
# Velocity P-wave (km/s) = 7.59007 8.41689 8.01415
#
# Compressibility (1/GPa) = 0.01441630
#
# Stress axis : x y z
#
# Youngs Moduli (GPa) = 47.04476 82.18881 108.14299
#
# Poissons Ratio (x) = 0.50066 0.48224
# Poissons Ratio (y) = 0.28658 0.38674
# Poissons Ratio (z) = 0.20979 0.29392
#
# Static dielectric constant tensor:
#      x y z
#    x 1.657100 0.000000 0.030810 
#    y 0.000000 1.659270 0.000000 
#    z 0.030810 0.000000 1.689290 
# 
# From -- ./inp_files/42937.got.cif
#   From: 2010.05.17/outbox.cif.g08.bks.cpg/sg13_22_cif.got.tgz:42937.got - 2010.06.03 16:44:36.
