data_PCOD9230997
_publ_section_title
;
Structure prediction by ZEFSAII (Michael W. Deem and Ramdas Pophale) SiO2 
 PCOD9230997
Probable space group: P 2/C
;
_chemical_formula_sum "Si O2"
_cell_formula_units_Z 22
_cell_length_a 10.919118
_cell_length_b 7.003183
_cell_length_c 14.670417
_cell_angle_alpha 90.000000
_cell_angle_beta 76.224885
_cell_angle_gamma 90.000000
_cell_volume 1089.559784
_symmetry_space_group_name_H-M "P 2/C"
_symmetry_group_IT_number 13
_symmetry_cell_setting 'monoclinic'
loop_
_space_group_symop_operation_xyz
x,y,z
-x,y,1/2-z
-x,-y,-z
x,-y,1/2+z
loop_
_atom_site_type_symbol
_atom_site_label
_atom_site_fract_x
_atom_site_fract_y
_atom_site_fract_z
Si Si1 0.679670 0.766578 0.148924
Si Si2 0.483409 0.534163 0.610303
Si Si3 0.000000 0.458661 0.750000
Si Si4 0.679605 0.160997 0.049646
Si Si5 0.888028 0.553817 0.587276
Si Si6 0.264245 0.715423 0.163725
O O1 0.562550 0.628894 0.147831
O O2 0.799308 0.631930 0.109106
O O3 0.692819 0.824530 0.252549
O O4 0.678176 0.945554 0.082817
O O5 0.500000 0.500000 0.500000
O O6 0.554209 0.733876 0.611271
O O7 0.338267 0.489508 0.657286
O O8 0.946299 0.582585 0.676671
O O9 0.884125 0.329066 0.807002
O O10 0.799816 0.275189 0.068586
O O11 0.691671 0.187253 0.938038
O O12 0.000000 0.500000 0.500000
#
# Coordination Sequence:
#
# PCOD9230997 Si02
#       6
#     4   4   2   4   4   4
#     4  10  22  39  60  93 123 155 206 255 301 356
#     4   9  20  39  64  86 117 159 203 246 310 354
#     4  10  20  38  62  88 122 158 204 248 298 354
#     4  10  21  41  64  91 117 161 207 248 308 362
#     4  10  20  40  62  86 123 164 200 249 302 362
#     4  10  20  39  61  86 126 161 195 255 302 353
#
# _framework density 20.191641000000001
#
# number of rings (size 3 to 8) (size 9 to 14) (size 15 to 20)
#    0.000    2.182    1.818    0.545    0.000    3.636 
#    3.273   17.273    0.000    0.000    0.000    0.000 
#    0.000    0.000    0.000    0.000    0.000    0.000 
#
# Total GULP energy -122764.818942 kJ/mol
# GULP energy per Si atom -5580.219043 kJ/mol
# Density = 2.014568 g / cm^3
# Si number density = 20.191641 Si / 1000 Ang^3
#
#
#
# Elastic Constant Matrix: (Units=GPa)
#
#
# Indices 1 2 3 4 5 6 
#
# 1 105.3729 27.0495 39.3879 0.0000 -9.6415 0.0000
# 2 27.0495 60.9963 38.1333 0.0000 4.0469 0.0000
# 3 39.3879 38.1333 125.8973 0.0000 14.7464 0.0000
# 4 0.0000 0.0000 0.0000 25.8427 0.0000 8.5514
# 5 -9.6415 4.0469 14.7464 0.0000 43.4962 0.0000
# 6 0.0000 0.0000 0.0000 8.5514 0.0000 -0.1056
#
#
#
# Elastic Compliance Matrix: (Units=1/GPa)
#
#
# Indices 1 2 3 4 5 6 
#
# 1 0.011955 -0.003621 -0.003117 0.000000 0.004044 0.000000
# 2 -0.003621 0.021323 -0.005206 0.000000 -0.001022 0.000000
# 3 -0.003117 -0.005206 0.010954 0.000000 -0.003920 0.000000
# 4 0.000000 0.000000 0.000000 0.001392 0.000000 0.112735
# 5 0.004044 -0.001022 -0.003920 0.000000 0.025311 0.000000
# 6 0.000000 0.000000 0.000000 0.112735 0.000000 -0.340690
#
#
# Mechanical properties :
#
#
# Convention : Reuss Voigt Hill
#
# Bulk Modulus (GPa) = 49.15548 55.71199 52.43374
# Shear Modulus (GPa) = -20.91291 26.35972 2.72340
#
# Velocity S-wave (km/s) = -3.22175 3.61706 1.16263
# Velocity P-wave (km/s) = 3.24927 6.71533 5.27510
#
# Compressibility (1/GPa) = 0.02034361
#
# Stress axis : x y z
#
# Youngs Moduli (GPa) = 83.64884 46.89850 91.28949
#
# Poissons Ratio (x) = 0.16982 0.28455
# Poissons Ratio (y) = 0.30290 0.47525
# Poissons Ratio (z) = 0.26073 0.24415
#
# Static dielectric constant tensor:
#      x y z
#    x 1.762710 0.000000 0.008600 
#    y 0.000000 1.677080 0.000000 
#    z 0.008600 0.000000 1.755140 
# 
# From -- ./inp_files/48882.got.cif
#   From: 2010.05.17/outbox.cif.g08.bks.cpg/sg13_25_cif.got.tgz:48882.got - 2010.06.03 16:44:36.
