data_PCOD9230775
_publ_section_title
;
Structure prediction by ZEFSAII (Michael W. Deem and Ramdas Pophale) SiO2 
 PCOD9230775
Probable space group: P 2/C
;
_chemical_formula_sum "Si O2"
_cell_formula_units_Z 28
_cell_length_a 8.875882
_cell_length_b 15.355808
_cell_length_c 20.797645
_cell_angle_alpha 90.000000
_cell_angle_beta 149.289483
_cell_angle_gamma 90.000000
_cell_volume 1447.654223
_symmetry_space_group_name_H-M "P 2/C"
_symmetry_group_IT_number 13
_symmetry_cell_setting 'monoclinic'
loop_
_space_group_symop_operation_xyz
x,y,z
-x,y,1/2-z
-x,-y,-z
x,-y,1/2+z
loop_
_atom_site_type_symbol
_atom_site_label
_atom_site_fract_x
_atom_site_fract_y
_atom_site_fract_z
Si Si1 0.320904 0.201264 0.751400
Si Si2 0.000000 0.497734 0.250000
Si Si3 0.806284 0.099237 0.495223
Si Si4 0.500000 0.498679 0.250000
Si Si5 0.525640 0.624241 0.641335
Si Si6 0.811398 0.195552 0.245817
Si Si7 0.029851 0.621276 0.143847
Si Si8 0.153800 0.106246 0.488349
O O1 0.500000 0.212771 0.750000
O O2 0.216884 0.296105 0.735949
O O3 0.035771 0.143573 0.628715
O O4 0.541770 0.153827 0.881122
O O5 0.268294 0.436599 0.327056
O O6 0.923966 0.560357 0.162797
O O7 0.484082 0.141121 0.377632
O O8 0.942872 0.112900 0.473816
O O9 0.793291 0.996147 0.502936
O O10 0.575301 0.435790 0.336829
O O11 0.233863 0.560394 0.174204
O O12 0.709945 0.708153 0.730395
O O13 0.244357 0.654857 0.497936
O O14 0.000000 0.203717 0.250000
O O15 0.996876 0.149595 0.369947
#
# Coordination Sequence:
#
# PCOD9230775 Si02
#       8
#     4   2   4   2   4   4   4   4
#     4  10  20  37  64  94 124 154 206 267 307 366
#     4  10  24  42  60  86 120 168 210 250 300 376
#     4  10  21  44  68  91 124 164 211 259 310 365
#     4  10  24  38  62  92 116 158 206 264 316 360
#     4  11  23  42  61  90 125 163 206 254 310 369
#     4  12  25  40  63  94 134 167 203 254 307 376
#     4  11  21  41  62  89 121 161 206 258 311 362
#     4  10  23  41  68  96 121 164 210 256 315 372
#
# _framework density 19.341636999999999
#
# number of rings (size 3 to 8) (size 9 to 14) (size 15 to 20)
#    0.000    1.429    2.857    2.143    2.000    4.000 
#   10.286    0.000    0.000    0.000    0.000    0.000 
#    0.000    0.000    0.000    0.000    0.000    0.000 
#
# Total GULP energy -156493.081145 kJ/mol
# GULP energy per Si atom -5589.038612 kJ/mol
# Density = 1.929761 g / cm^3
# Si number density = 19.341637 Si / 1000 Ang^3
#
#
#
# Elastic Constant Matrix: (Units=GPa)
#
#
# Indices 1 2 3 4 5 6 
#
# 1 39.9890 30.8819 15.1246 0.0000 -8.7746 0.0000
# 2 30.8819 139.1334 49.8739 0.0000 -3.9036 0.0000
# 3 15.1246 49.8739 112.2605 0.0000 -7.5205 0.0000
# 4 0.0000 0.0000 0.0000 37.3573 0.0000 1.2939
# 5 -8.7746 -3.9036 -7.5205 0.0000 13.0489 0.0000
# 6 0.0000 0.0000 0.0000 1.2939 0.0000 -30.5732
#
#
#
# Elastic Compliance Matrix: (Units=1/GPa)
#
#
# Indices 1 2 3 4 5 6 
#
# 1 0.035335 -0.007195 -0.000121 0.000000 0.021539 0.000000
# 2 -0.007195 0.010016 -0.003748 0.000000 -0.004002 0.000000
# 3 -0.000121 -0.003748 0.010931 0.000000 0.005097 0.000000
# 4 0.000000 0.000000 0.000000 0.026729 0.000000 0.001131
# 5 0.021539 -0.004002 0.005097 0.000000 0.092858 0.000000
# 6 0.000000 0.000000 0.000000 0.001131 0.000000 -0.032660
#
#
# Mechanical properties :
#
#
# Convention : Reuss Voigt Hill
#
# Bulk Modulus (GPa) = 29.28049 53.68263 41.48156
# Shear Modulus (GPa) = 28.29287 17.00010 22.64648
#
# Velocity S-wave (km/s) = 3.82880 2.96791 3.42551
# Velocity P-wave (km/s) = 5.89218 6.28966 6.09416
#
# Compressibility (1/GPa) = 0.03415243
#
# Stress axis : x y z
#
# Youngs Moduli (GPa) = 28.30026 99.84256 91.48340
#
# Poissons Ratio (x) = 0.71840 0.01108
# Poissons Ratio (y) = 0.20363 0.34292
# Poissons Ratio (z) = 0.00343 0.37425
#
# Static dielectric constant tensor:
#      x y z
#    x 1.657590 0.000000 0.004210 
#    y 0.000000 1.646790 0.000000 
#    z 0.004210 0.000000 1.648530 
# 
# From -- ./inp_files/76727.got.cif
#   From: 2010.05.17/outbox.cif.g08.bks.cpg/sg13_39_cif.got.tgz:76727.got - 2010.06.03 16:44:36.
