data_PCOD9230114
_publ_section_title
;
Structure prediction by ZEFSAII (Michael W. Deem and Ramdas Pophale) SiO2 
 PCOD9230114
Probable space group: P 2/C
;
_chemical_formula_sum "Si O2"
_cell_formula_units_Z 30
_cell_length_a 20.166528
_cell_length_b 5.581811
_cell_length_c 13.739868
_cell_angle_alpha 90.000000
_cell_angle_beta 46.451275
_cell_angle_gamma 90.000000
_cell_volume 1120.986157
_symmetry_space_group_name_H-M "P 2/C"
_symmetry_group_IT_number 13
_symmetry_cell_setting 'monoclinic'
loop_
_space_group_symop_operation_xyz
x,y,z
-x,y,1/2-z
-x,-y,-z
x,-y,1/2+z
loop_
_atom_site_type_symbol
_atom_site_label
_atom_site_fract_x
_atom_site_fract_y
_atom_site_fract_z
Si Si1 0.370326 0.687577 0.755050
Si Si2 0.219898 0.699371 0.181752
Si Si3 0.791382 0.809662 0.698069
Si Si4 0.212189 0.399016 0.008494
Si Si5 0.976296 0.642413 0.888026
Si Si6 0.343970 0.028882 0.956434
Si Si7 0.029288 0.857984 0.105231
Si Si8 0.500000 0.388900 0.750000
O O1 0.319096 0.799084 0.712805
O O2 0.461526 0.553926 0.699936
O O3 0.364833 0.907891 0.833142
O O4 0.296442 0.486999 0.859913
O O5 0.200942 0.452662 0.259077
O O6 0.186637 0.614491 0.108081
O O7 0.187507 0.940083 0.268037
O O8 0.322631 0.803059 0.049149
O O9 0.863284 0.826212 0.534290
O O10 0.132030 0.332355 0.017230
O O11 0.250291 0.181130 0.035256
O O12 0.009412 0.391797 0.896107
O O13 0.000000 0.634463 0.750000
O O14 0.009056 0.892095 0.895771
O O15 0.424993 0.221650 0.880700
O O16 0.000000 0.865427 0.250000
#
# Coordination Sequence:
#
# PCOD9230114 Si02
#       8
#     4   4   4   4   4   4   4   2
#     4  10  22  37  69  98 123 171 231 266 316 381
#     4  11  25  40  63  98 142 170 216 260 344 388
#     4  12  23  41  66 102 129 174 217 276 318 397
#     4  10  20  40  65  94 125 181 216 268 321 397
#     4  10  20  35  63  98 122 159 222 279 316 366
#     4  10  21  43  66  95 133 177 214 269 324 399
#     4  10  21  37  62  97 127 165 218 281 318 366
#     4  10  22  40  68  98 134 162 228 272 318 384
#
# _framework density 26.762148
#
# number of rings (size 3 to 8) (size 9 to 14) (size 15 to 20)
#    0.000    1.600    2.667    2.000    5.600    0.000 
#    0.000    1.333    0.000   19.200    0.000    0.000 
#    0.000    0.000    0.000    0.000    0.000    0.000 
#
# Total GULP energy -167053.200999 kJ/mol
# GULP energy per Si atom -5568.440033 kJ/mol
# Density = 2.670124 g / cm^3
# Si number density = 26.762148 Si / 1000 Ang^3
#
#
#
# Elastic Constant Matrix: (Units=GPa)
#
#
# Indices 1 2 3 4 5 6 
#
# 1 75.1671 60.5089 27.4314 0.0000 -15.7962 0.0000
# 2 60.5089 283.2787 45.3000 0.0000 7.2366 0.0000
# 3 27.4314 45.3000 75.7401 0.0000 5.3294 0.0000
# 4 0.0000 0.0000 0.0000 36.5503 0.0000 19.2404
# 5 -15.7962 7.2366 5.3294 0.0000 44.3679 0.0000
# 6 0.0000 0.0000 0.0000 19.2404 0.0000 28.4977
#
#
#
# Elastic Compliance Matrix: (Units=1/GPa)
#
#
# Indices 1 2 3 4 5 6 
#
# 1 0.020035 -0.003582 -0.005705 0.000000 0.008402 0.000000
# 2 -0.003582 0.004549 -0.001293 0.000000 -0.001862 0.000000
# 3 -0.005705 -0.001293 0.016308 0.000000 -0.003779 0.000000
# 4 0.000000 0.000000 0.000000 0.042445 0.000000 -0.028657
# 5 0.008402 -0.001862 -0.003779 0.000000 0.026288 0.000000
# 6 0.000000 0.000000 0.000000 -0.028657 0.000000 0.054438
#
#
# Mechanical properties :
#
#
# Convention : Reuss Voigt Hill
#
# Bulk Modulus (GPa) = 50.67566 77.85183 64.26374
# Shear Modulus (GPa) = 26.06869 41.94621 34.00745
#
# Velocity S-wave (km/s) = 3.12442 3.96330 3.56860
# Velocity P-wave (km/s) = 5.65621 7.07793 6.40663
#
# Compressibility (1/GPa) = 0.01973334
#
# Stress axis : x y z
#
# Youngs Moduli (GPa) = 49.91315 219.80591 61.31797
#
# Poissons Ratio (x) = 0.78730 0.34983
# Poissons Ratio (y) = 0.17878 0.07927
# Poissons Ratio (z) = 0.28476 0.28416
#
# Static dielectric constant tensor:
#      x y z
#    x 2.332600 0.000000 -0.277550 
#    y 0.000000 2.140340 0.000000 
#    z -0.277550 0.000000 2.654720 
# 
# From -- ./inp_files/70927.got.cif
#   From: 2010.05.17/outbox.cif.g08.bks.cpg/sg13_36_cif.got.tgz:70927.got - 2010.06.03 16:44:36.
