data_PCOD9230492
_publ_section_title
;
Structure prediction by ZEFSAII (Michael W. Deem and Ramdas Pophale) SiO2 
 PCOD9230492
Probable space group: P 2/C
;
_chemical_formula_sum "Si O2"
_cell_formula_units_Z 24
_cell_length_a 9.839545
_cell_length_b 8.227911
_cell_length_c 18.962043
_cell_angle_alpha 90.000000
_cell_angle_beta 37.077986
_cell_angle_gamma 90.000000
_cell_volume 925.541916
_symmetry_space_group_name_H-M "P 2/C"
_symmetry_group_IT_number 13
_symmetry_cell_setting 'monoclinic'
loop_
_space_group_symop_operation_xyz
x,y,z
-x,y,1/2-z
-x,-y,-z
x,-y,1/2+z
loop_
_atom_site_type_symbol
_atom_site_label
_atom_site_fract_x
_atom_site_fract_y
_atom_site_fract_z
Si Si1 0.218739 0.129756 0.207377
Si Si2 0.250754 0.390222 0.318126
Si Si3 0.873854 0.843419 0.518566
Si Si4 0.422807 0.607336 0.136325
Si Si5 0.333655 0.292190 0.523557
Si Si6 0.504753 0.907726 0.326567
O O1 0.197768 0.266598 0.276126
O O2 0.442441 0.176738 0.069593
O O3 0.000000 0.121715 0.250000
O O4 0.268018 0.965091 0.229815
O O5 0.500000 0.381757 0.250000
O O6 0.098933 0.316262 0.444306
O O7 0.267451 0.558661 0.267489
O O8 0.860240 0.789807 0.442786
O O9 0.625315 0.923131 0.626100
O O10 0.000000 0.000000 0.500000
O O11 0.579924 0.454097 0.052689
O O12 0.578818 0.760417 0.091542
O O13 0.286960 0.652959 0.122219
O O14 0.500000 0.842562 0.250000
#
# Coordination Sequence:
#
# PCOD9230492 Si02
#       6
#     4   4   4   4   4   4
#     4  10  20  36  67  92 132 173 224 276 338 402
#     4  11  18  42  66  91 129 187 217 268 345 410
#     4  11  22  39  70  99 135 172 232 291 335 401
#     4  10  21  37  71  88 134 176 220 275 344 415
#     4   9  21  42  62 100 131 177 221 282 348 401
#     4  11  21  40  63 100 123 177 229 270 335 405
#
# _framework density 25.930755000000001
#
# number of rings (size 3 to 8) (size 9 to 14) (size 15 to 20)
#    0.000    1.667    6.667    0.500    0.000    5.333 
#    0.000    4.167   18.333    0.000    0.000    0.000 
#    0.000    0.000    0.000    0.000    0.000    0.000 
#
# Total GULP energy -133858.025537 kJ/mol
# GULP energy per Si atom -5577.417731 kJ/mol
# Density = 2.587174 g / cm^3
# Si number density = 25.930755 Si / 1000 Ang^3
#
#
#
# Elastic Constant Matrix: (Units=GPa)
#
#
# Indices 1 2 3 4 5 6 
#
# 1 227.6005 75.9049 53.8283 0.0000 12.3341 0.0000
# 2 75.9049 111.6402 34.5767 0.0000 12.0474 0.0000
# 3 53.8283 34.5767 47.5655 0.0000 1.8149 0.0000
# 4 0.0000 0.0000 0.0000 33.2357 0.0000 10.1679
# 5 12.3341 12.0474 1.8149 0.0000 34.2558 0.0000
# 6 0.0000 0.0000 0.0000 10.1679 0.0000 43.8088
#
#
#
# Elastic Compliance Matrix: (Units=1/GPa)
#
#
# Indices 1 2 3 4 5 6 
#
# 1 0.006664 -0.002689 -0.005543 0.000000 -0.001160 0.000000
# 2 -0.002689 0.013113 -0.006363 0.000000 -0.003306 0.000000
# 3 -0.005543 -0.006363 0.031824 0.000000 0.002547 0.000000
# 4 0.000000 0.000000 0.000000 0.032388 0.000000 -0.007517
# 5 -0.001160 -0.003306 0.002547 0.000000 0.030638 0.000000
# 6 0.000000 0.000000 0.000000 -0.007517 0.000000 0.024571
#
#
# Mechanical properties :
#
#
# Convention : Reuss Voigt Hill
#
# Bulk Modulus (GPa) = 44.61848 79.49175 62.05512
# Shear Modulus (GPa) = 28.43197 37.09314 32.76255
#
# Velocity S-wave (km/s) = 3.31487 3.78626 3.55838
# Velocity P-wave (km/s) = 5.64759 7.05948 6.39264
#
# Compressibility (1/GPa) = 0.02241224
#
# Stress axis : x y z
#
# Youngs Moduli (GPa) = 150.05498 76.25856 31.42275
#
# Poissons Ratio (x) = 0.20508 0.17416
# Poissons Ratio (y) = 0.40354 0.19994
# Poissons Ratio (z) = 0.83168 0.48523
#
# Static dielectric constant tensor:
#      x y z
#    x 2.067820 0.000000 -0.020140 
#    y 0.000000 2.048520 0.000000 
#    z -0.020140 0.000000 2.193440 
# 
# From -- ./inp_files/75615.got.cif
#   From: 2010.05.17/outbox.cif.g08.bks.cpg/sg13_38_cif.got.tgz:75615.got - 2010.06.03 16:44:36.
