data_PCOD9230413
_publ_section_title
;
Structure prediction by ZEFSAII (Michael W. Deem and Ramdas Pophale) SiO2 
 PCOD9230413
Probable space group: P 2/C
;
_chemical_formula_sum "Si O2"
_cell_formula_units_Z 26
_cell_length_a 9.138254
_cell_length_b 7.210909
_cell_length_c 25.395094
_cell_angle_alpha 90.000000
_cell_angle_beta 44.267789
_cell_angle_gamma 90.000000
_cell_volume 1168.063531
_symmetry_space_group_name_H-M "P 2/C"
_symmetry_group_IT_number 13
_symmetry_cell_setting 'monoclinic'
loop_
_space_group_symop_operation_xyz
x,y,z
-x,y,1/2-z
-x,-y,-z
x,-y,1/2+z
loop_
_atom_site_type_symbol
_atom_site_label
_atom_site_fract_x
_atom_site_fract_y
_atom_site_fract_z
Si Si1 0.753232 0.819405 0.620901
Si Si2 0.444550 0.117685 0.103150
Si Si3 0.350135 0.187199 0.018334
Si Si4 0.851594 0.663990 0.018928
Si Si5 0.000000 0.989127 0.750000
Si Si6 0.954623 0.914173 0.145340
Si Si7 0.705025 0.607153 0.163260
O O1 0.588927 0.843415 0.616056
O O2 0.727352 0.615088 0.652937
O O3 0.979896 0.824901 0.533650
O O4 0.771672 0.964947 0.663732
O O5 0.455607 0.237935 0.046440
O O6 0.206599 0.127350 0.183769
O O7 0.504265 0.918464 0.061723
O O8 0.253641 0.355393 0.010507
O O9 0.165719 0.033749 0.078513
O O10 0.688709 0.685346 0.107964
O O11 0.000000 0.500000 0.000000
O O12 0.054795 0.097623 0.789287
O O13 0.910148 0.711107 0.133380
O O14 0.500000 0.649241 0.250000
#
# Coordination Sequence:
#
# PCOD9230413 Si02
#       7
#     4   4   4   4   2   4   4
#     4  10  22  40  68  89 121 165 213 254 305 376
#     4  10  20  36  62  94 120 160 208 257 306 375
#     4   9  19  38  65  92 120 162 212 252 312 376
#     4   9  19  39  60  89 120 159 206 254 301 366
#     4  10  24  36  60  90 126 166 200 250 326 360
#     4  10  22  41  62  90 124 162 203 260 308 372
#     4  11  24  35  59  96 124 155 206 253 308 369
#
# _framework density 22.259062
#
# number of rings (size 3 to 8) (size 9 to 14) (size 15 to 20)
#    0.000    2.154    0.000    1.846    6.462    2.462 
#    0.000    3.846    6.769    0.000    0.000    0.000 
#    0.000    0.000    0.000    0.000    0.000    0.000 
#
# Total GULP energy -144806.250162 kJ/mol
# GULP energy per Si atom -5569.471160 kJ/mol
# Density = 2.220840 g / cm^3
# Si number density = 22.259062 Si / 1000 Ang^3
#
#
#
# Elastic Constant Matrix: (Units=GPa)
#
#
# Indices 1 2 3 4 5 6 
#
# 1 162.8201 51.7396 39.0831 0.0000 48.9263 0.0000
# 2 51.7396 71.9168 23.6521 0.0000 23.7035 0.0000
# 3 39.0831 23.6521 116.5342 0.0000 11.0672 0.0000
# 4 0.0000 0.0000 0.0000 16.4244 0.0000 2.5919
# 5 48.9263 23.7035 11.0672 0.0000 46.1451 0.0000
# 6 0.0000 0.0000 0.0000 2.5919 0.0000 30.2768
#
#
#
# Elastic Compliance Matrix: (Units=1/GPa)
#
#
# Indices 1 2 3 4 5 6 
#
# 1 0.010455 -0.004096 -0.001865 0.000000 -0.008534 0.000000
# 2 -0.004096 0.019177 -0.002042 0.000000 -0.005018 0.000000
# 3 -0.001865 -0.002042 0.009551 0.000000 0.000735 0.000000
# 4 0.000000 0.000000 0.000000 0.061719 0.000000 -0.005284
# 5 -0.008534 -0.005018 0.000735 0.000000 0.033121 0.000000
# 6 0.000000 0.000000 0.000000 -0.005284 0.000000 0.033481
#
#
# Mechanical properties :
#
#
# Convention : Reuss Voigt Hill
#
# Bulk Modulus (GPa) = 43.14300 64.46897 53.80598
# Shear Modulus (GPa) = 26.14572 34.35570 30.25071
#
# Velocity S-wave (km/s) = 3.43098 3.93294 3.69050
# Velocity P-wave (km/s) = 5.92619 7.04627 6.51036
#
# Compressibility (1/GPa) = 0.02317873
#
# Stress axis : x y z
#
# Youngs Moduli (GPa) = 95.64416 52.14508 104.69916
#
# Poissons Ratio (x) = 0.21358 0.19523
# Poissons Ratio (y) = 0.39174 0.21380
# Poissons Ratio (z) = 0.17835 0.10648
#
# Static dielectric constant tensor:
#      x y z
#    x 1.897340 0.000000 -0.009280 
#    y 0.000000 1.900160 0.000000 
#    z -0.009280 0.000000 1.911820 
# 
# From -- ./inp_files/75908.got.cif
#   From: 2010.05.17/outbox.cif.g08.bks.cpg/sg13_38_cif.got.tgz:75908.got - 2010.06.03 16:44:36.
