data_PCOD9230229
_publ_section_title
;
Structure prediction by ZEFSAII (Michael W. Deem and Ramdas Pophale) SiO2 
 PCOD9230229
Probable space group: P 2/C
;
_chemical_formula_sum "Si O2"
_cell_formula_units_Z 28
_cell_length_a 8.472549
_cell_length_b 13.868232
_cell_length_c 14.462304
_cell_angle_alpha 90.000000
_cell_angle_beta 61.300544
_cell_angle_gamma 90.000000
_cell_volume 1490.551203
_symmetry_space_group_name_H-M "P 2/C"
_symmetry_group_IT_number 13
_symmetry_cell_setting 'monoclinic'
loop_
_space_group_symop_operation_xyz
x,y,z
-x,y,1/2-z
-x,-y,-z
x,-y,1/2+z
loop_
_atom_site_type_symbol
_atom_site_label
_atom_site_fract_x
_atom_site_fract_y
_atom_site_fract_z
Si Si1 0.947532 0.608862 0.992804
Si Si2 0.326205 0.094804 0.734026
Si Si3 0.633978 0.120906 0.298828
Si Si4 0.613096 0.799395 0.473455
Si Si5 0.598888 0.601423 0.957211
Si Si6 0.173869 0.678395 0.764794
Si Si7 0.017575 0.243294 0.855164
O O1 0.766419 0.611026 0.981425
O O2 0.111747 0.649624 0.884226
O O3 0.926465 0.670202 0.092680
O O4 0.000000 0.500000 0.000000
O O5 0.500000 0.093431 0.750000
O O6 0.385805 0.148579 0.624719
O O7 0.161566 0.156979 0.820181
O O8 0.276427 0.984089 0.726574
O O9 0.500000 0.126360 0.250000
O O10 0.510670 0.140082 0.422687
O O11 0.767686 0.210599 0.254287
O O12 0.533531 0.691594 0.489301
O O13 0.821460 0.791719 0.442996
O O14 0.674214 0.615974 0.831109
O O15 0.500000 0.500000 0.000000
O O16 0.000000 0.665671 0.750000
O O17 0.000000 0.269813 0.750000
#
# Coordination Sequence:
#
# PCOD9230229 Si02
#       7
#     4   4   4   4   4   4   4
#     4  11  22  38  59  84 113 150 188 234 287 336
#     4  10  21  37  56  83 114 148 187 231 279 332
#     4  10  20  36  58  83 111 144 185 231 281 336
#     4  10  20  37  58  81 113 148 186 232 280 335
#     4  10  21  38  60  86 114 148 188 233 285 339
#     4   9  21  38  57  82 113 144 185 233 279 336
#     4  10  22  38  57  83 115 150 191 234 277 336
#
# _framework density 18.784997000000001
#
# number of rings (size 3 to 8) (size 9 to 14) (size 15 to 20)
#    0.000    2.000    0.000    3.000    0.000    6.857 
#    0.000   10.714    0.000    0.000    0.000    0.000 
#    0.000    0.000    0.000    0.000    0.000    0.000 
#
# Total GULP energy -156267.623061 kJ/mol
# GULP energy per Si atom -5580.986538 kJ/mol
# Density = 1.874224 g / cm^3
# Si number density = 18.784997 Si / 1000 Ang^3
#
#
#
# Elastic Constant Matrix: (Units=GPa)
#
#
# Indices 1 2 3 4 5 6 
#
# 1 57.4132 41.1157 33.1751 0.0000 -10.8082 0.0000
# 2 41.1157 158.4180 81.2448 0.0000 -16.9740 0.0000
# 3 33.1751 81.2448 92.2429 0.0000 -15.1616 0.0000
# 4 0.0000 0.0000 0.0000 15.6224 0.0000 -3.6048
# 5 -10.8082 -16.9740 -15.1616 0.0000 26.0196 0.0000
# 6 0.0000 0.0000 0.0000 -3.6048 0.0000 31.3831
#
#
#
# Elastic Compliance Matrix: (Units=1/GPa)
#
#
# Indices 1 2 3 4 5 6 
#
# 1 0.023341 -0.002995 -0.004960 0.000000 0.004852 0.000000
# 2 -0.002995 0.011971 -0.009276 0.000000 0.001160 0.000000
# 3 -0.004960 -0.009276 0.021523 0.000000 0.004430 0.000000
# 4 0.000000 0.000000 0.000000 0.065753 0.000000 0.007553
# 5 0.004852 0.001160 0.004430 0.000000 0.043786 0.000000
# 6 0.000000 0.000000 0.000000 0.007553 0.000000 0.032732
#
#
# Mechanical properties :
#
#
# Convention : Reuss Voigt Hill
#
# Bulk Modulus (GPa) = 44.69312 68.79394 56.74353
# Shear Modulus (GPa) = 20.74460 24.77424 22.75942
#
# Velocity S-wave (km/s) = 3.32673 3.63551 3.48454
# Velocity P-wave (km/s) = 6.21287 7.37047 6.81629
#
# Compressibility (1/GPa) = 0.02237481
#
# Stress axis : x y z
#
# Youngs Moduli (GPa) = 42.84234 83.53332 46.46175
#
# Poissons Ratio (x) = 0.25014 0.23044
# Poissons Ratio (y) = 0.12829 0.43099
# Poissons Ratio (z) = 0.21248 0.77488
#
# Static dielectric constant tensor:
#      x y z
#    x 1.657470 0.000000 0.000700 
#    y 0.000000 1.623650 0.000000 
#    z 0.000700 0.000000 1.660070 
# 
# From -- ./inp_files/47125.got.cif
#   From: 2010.05.17/outbox.cif.g08.bks.cpg/sg13_24_cif.got.tgz:47125.got - 2010.06.03 16:44:36.
