data_PCOD9230099
_publ_section_title
;
Structure prediction by ZEFSAII (Michael W. Deem and Ramdas Pophale) SiO2 
 PCOD9230099
Probable space group: P 2/C
;
_chemical_formula_sum "Si O2"
_cell_formula_units_Z 30
_cell_length_a 8.069982
_cell_length_b 9.294941
_cell_length_c 21.287457
_cell_angle_alpha 90.000000
_cell_angle_beta 93.565974
_cell_angle_gamma 90.000000
_cell_volume 1593.680685
_symmetry_space_group_name_H-M "P 2/C"
_symmetry_group_IT_number 13
_symmetry_cell_setting 'monoclinic'
loop_
_space_group_symop_operation_xyz
x,y,z
-x,y,1/2-z
-x,-y,-z
x,-y,1/2+z
loop_
_atom_site_type_symbol
_atom_site_label
_atom_site_fract_x
_atom_site_fract_y
_atom_site_fract_z
Si Si1 0.559135 0.235626 0.522987
Si Si2 0.105225 0.098977 0.663258
Si Si3 0.157850 0.409678 0.027965
Si Si4 0.357818 0.927802 0.914593
Si Si5 0.735914 0.085357 0.702712
Si Si6 0.317220 0.631672 0.123524
Si Si7 0.987698 0.105358 0.440882
Si Si8 0.500000 0.330183 0.750000
O O1 0.693058 0.362550 0.515500
O O2 0.476319 0.183095 0.454808
O O3 0.430048 0.292704 0.572258
O O4 0.630471 0.084921 0.551601
O O5 0.195788 0.041406 0.727582
O O6 0.186394 0.246944 0.642545
O O7 0.907980 0.120426 0.670317
O O8 0.123185 0.979560 0.611107
O O9 0.233370 0.498133 0.087392
O O10 0.089437 0.255567 0.044989
O O11 0.000000 0.500000 0.000000
O O12 0.172197 0.870606 0.919594
O O13 0.368509 0.971650 0.841185
O O14 0.626499 0.224769 0.715674
O O15 0.411048 0.589510 0.190369
O O16 0.000000 0.000000 0.500000
#
# Coordination Sequence:
#
# PCOD9230099 Si02
#       8
#     4   4   4   4   4   4   4   2
#     4  11  22  37  60  89 122 153 197 254 308 353
#     4   9  20  36  62  88 121 157 207 249 297 357
#     4  12  26  39  59  87 124 161 200 248 309 365
#     4  10  20  35  62  90 116 149 198 254 304 340
#     4   9  18  35  59  93 118 155 203 258 293 356
#     4  11  23  39  60  90 125 160 204 245 306 368
#     4  11  20  37  59  86 115 155 198 246 297 356
#     4  10  20  36  60  86 122 162 204 242 296 364
#
# _framework density 18.824348000000001
#
# number of rings (size 3 to 8) (size 9 to 14) (size 15 to 20)
#    0.000    1.600    2.667    2.800    3.733    0.000 
#    0.000    1.333    0.000   14.400    0.000    0.000 
#    0.000    0.000    0.000    0.000    0.000    0.000 
#
# Total GULP energy -167257.913416 kJ/mol
# GULP energy per Si atom -5575.263781 kJ/mol
# Density = 1.878150 g / cm^3
# Si number density = 18.824348 Si / 1000 Ang^3
#
#
#
# Elastic Constant Matrix: (Units=GPa)
#
#
# Indices 1 2 3 4 5 6 
#
# 1 59.9369 31.3103 47.3593 0.0000 10.8920 0.0000
# 2 31.3103 80.9903 56.3595 0.0000 4.6243 0.0000
# 3 47.3593 56.3595 120.7982 0.0000 14.7655 0.0000
# 4 0.0000 0.0000 0.0000 29.9502 0.0000 6.9178
# 5 10.8920 4.6243 14.7655 0.0000 29.8467 0.0000
# 6 0.0000 0.0000 0.0000 6.9178 0.0000 33.9333
#
#
#
# Elastic Compliance Matrix: (Units=1/GPa)
#
#
# Indices 1 2 3 4 5 6 
#
# 1 0.025813 -0.004558 -0.007374 0.000000 -0.005066 0.000000
# 2 -0.004558 0.019149 -0.007438 0.000000 0.002376 0.000000
# 3 -0.007374 -0.007438 0.015082 0.000000 -0.003618 0.000000
# 4 0.000000 0.000000 0.000000 0.035039 0.000000 -0.007143
# 5 -0.005066 0.002376 -0.003618 0.000000 0.036775 0.000000
# 6 0.000000 0.000000 0.000000 -0.007143 0.000000 0.030926
#
#
# Mechanical properties :
#
#
# Convention : Reuss Voigt Hill
#
# Bulk Modulus (GPa) = 46.94044 59.08707 53.01375
# Shear Modulus (GPa) = 23.96659 27.19246 25.57952
#
# Velocity S-wave (km/s) = 3.57202 3.80483 3.69026
# Velocity P-wave (km/s) = 6.48094 7.12454 6.81035
#
# Compressibility (1/GPa) = 0.02130359
#
# Stress axis : x y z
#
# Youngs Moduli (GPa) = 38.74092 52.22083 66.30616
#
# Poissons Ratio (x) = 0.23804 0.48894
# Poissons Ratio (y) = 0.17659 0.49316
# Poissons Ratio (z) = 0.28567 0.38840
#
# Static dielectric constant tensor:
#      x y z
#    x 1.767690 0.000000 -0.007920 
#    y 0.000000 1.630910 0.000000 
#    z -0.007920 0.000000 1.706500 
# 
# From -- ./inp_files/75698.got.cif
#   From: 2010.05.17/outbox.cif.g08.bks.cpg/sg13_38_cif.got.tgz:75698.got - 2010.06.03 16:44:36.
