data_PCOD9230600
_publ_section_title
;
Structure prediction by ZEFSAII (Michael W. Deem and Ramdas Pophale) SiO2 
 PCOD9230600
Probable space group: P 2/C
;
_chemical_formula_sum "Si O2"
_cell_formula_units_Z 28
_cell_length_a 10.864322
_cell_length_b 11.497788
_cell_length_c 20.417176
_cell_angle_alpha 90.000000
_cell_angle_beta 152.697692
_cell_angle_gamma 90.000000
_cell_volume 1169.842694
_symmetry_space_group_name_H-M "P 2/C"
_symmetry_group_IT_number 13
_symmetry_cell_setting 'monoclinic'
loop_
_space_group_symop_operation_xyz
x,y,z
-x,y,1/2-z
-x,-y,-z
x,-y,1/2+z
loop_
_atom_site_type_symbol
_atom_site_label
_atom_site_fract_x
_atom_site_fract_y
_atom_site_fract_z
Si Si1 0.720196 0.862897 0.595676
Si Si2 0.250817 0.609020 0.912447
Si Si3 0.552659 0.046541 0.418131
Si Si4 0.607410 0.386981 0.460640
Si Si5 0.076610 0.320551 0.588042
Si Si6 0.878129 0.941668 0.377489
Si Si7 0.249875 0.581300 0.679652
O O1 0.802744 0.743785 0.599770
O O2 0.556822 0.851944 0.586461
O O3 0.000000 0.921981 0.750000
O O4 0.544795 0.934842 0.462086
O O5 0.522900 0.619839 0.996748
O O6 0.000000 0.564991 0.750000
O O7 0.294514 0.522976 0.993232
O O8 0.861199 0.060327 0.545819
O O9 0.359421 0.018557 0.266013
O O10 0.836720 0.320070 0.529184
O O11 0.336501 0.373639 0.290923
O O12 0.206150 0.193113 0.651857
O O13 0.976160 0.348618 0.466479
O O14 0.221178 0.442140 0.671821
O O15 0.000000 0.000000 0.500000
O O16 0.500000 0.600712 0.750000
#
# Coordination Sequence:
#
# PCOD9230600 Si02
#       7
#     4   4   4   4   4   4   4
#     4  10  21  42  68  94 128 173 223 269 336 392
#     4  10  21  35  58  93 125 164 204 263 320 384
#     4  11  24  45  66  98 129 178 224 282 328 402
#     4  10  20  37  59  91 127 162 208 259 322 394
#     4  10  22  41  62  91 123 171 210 269 324 394
#     4  12  27  44  67  98 136 176 232 279 340 399
#     4   9  20  38  62  90 123 163 209 257 327 392
#
# _framework density 23.934842
#
# number of rings (size 3 to 8) (size 9 to 14) (size 15 to 20)
#    0.000    1.714    1.429    2.143    2.000    5.714 
#    5.143    0.000    0.000    0.000    0.000    0.000 
#    0.000    0.000    0.000    0.000    0.000    0.000 
#
# Total GULP energy -156236.058015 kJ/mol
# GULP energy per Si atom -5579.859215 kJ/mol
# Density = 2.388037 g / cm^3
# Si number density = 23.934842 Si / 1000 Ang^3
#
#
#
# Elastic Constant Matrix: (Units=GPa)
#
#
# Indices 1 2 3 4 5 6 
#
# 1 71.7504 -3.0339 -6.6307 0.0000 0.2415 0.0000
# 2 -3.0339 83.3433 1.5296 0.0000 -16.2380 0.0000
# 3 -6.6307 1.5296 64.8144 0.0000 -9.9410 0.0000
# 4 0.0000 0.0000 0.0000 19.4804 0.0000 1.5315
# 5 0.2415 -16.2380 -9.9410 0.0000 32.6604 0.0000
# 6 0.0000 0.0000 0.0000 1.5315 0.0000 28.8995
#
#
#
# Elastic Compliance Matrix: (Units=1/GPa)
#
#
# Indices 1 2 3 4 5 6 
#
# 1 0.014102 0.000615 0.001531 0.000000 0.000668 0.000000
# 2 0.000615 0.013346 0.000802 0.000000 0.006875 0.000000
# 3 0.001531 0.000802 0.016391 0.000000 0.005377 0.000000
# 4 0.000000 0.000000 0.000000 0.051548 0.000000 -0.002732
# 5 0.000668 0.006875 0.005377 0.000000 0.035668 0.000000
# 6 0.000000 0.000000 0.000000 -0.002732 0.000000 0.034747
#
#
# Mechanical properties :
#
#
# Convention : Reuss Voigt Hill
#
# Bulk Modulus (GPa) = 20.10625 22.62646 21.36636
# Shear Modulus (GPa) = 28.33112 31.41095 29.87104
#
# Velocity S-wave (km/s) = 3.44419 3.62657 3.53656
# Velocity P-wave (km/s) = 4.92293 5.19711 5.06188
#
# Compressibility (1/GPa) = 0.04973577
#
# Stress axis : x y z
#
# Youngs Moduli (GPa) = 70.90982 74.93054 61.00918
#
# Poissons Ratio (x) = -0.04611 -0.09338
# Poissons Ratio (y) = -0.04363 -0.04896
# Poissons Ratio (z) = -0.10853 -0.06013
#
# Static dielectric constant tensor:
#      x y z
#    x 2.013840 0.000000 0.031820 
#    y 0.000000 1.987100 0.000000 
#    z 0.031820 0.000000 1.931520 
# 
# From -- ./inp_files/78598.got.cif
#   From: 2010.05.17/outbox.cif.g08.bks.cpg/sg13_40_cif.got.tgz:78598.got - 2010.06.03 16:44:36.
