data_PCOD9230184
_publ_section_title
;
Structure prediction by ZEFSAII (Michael W. Deem and Ramdas Pophale) SiO2 
 PCOD9230184
Probable space group: P 2/C
;
_chemical_formula_sum "Si O2"
_cell_formula_units_Z 14
_cell_length_a 10.215622
_cell_length_b 3.972490
_cell_length_c 17.824082
_cell_angle_alpha 90.000000
_cell_angle_beta 37.826520
_cell_angle_gamma 90.000000
_cell_volume 443.596842
_symmetry_space_group_name_H-M "P 2/C"
_symmetry_group_IT_number 13
_symmetry_cell_setting 'monoclinic'
loop_
_space_group_symop_operation_xyz
x,y,z
-x,y,1/2-z
-x,-y,-z
x,-y,1/2+z
loop_
_atom_site_type_symbol
_atom_site_label
_atom_site_fract_x
_atom_site_fract_y
_atom_site_fract_z
Si Si1 0.937200 0.225494 0.099970
Si Si2 0.221382 0.280751 0.175989
Si Si3 0.379237 0.269864 0.949766
Si Si4 0.500000 0.176518 0.250000
O O1 0.859798 0.071260 0.214717
O O2 0.712075 0.383661 0.175580
O O3 0.150673 0.425676 0.026402
O O4 0.000000 0.000000 0.000000
O O5 0.421372 0.502115 0.114764
O O6 0.000000 0.457046 0.250000
O O7 0.303484 0.102813 0.062807
O O8 0.442246 0.037999 0.850587
#
# Coordination Sequence:
#
# PCOD9230184 Si02
#       4
#     4   4   4   2
#     4   9  19  37  58  84 117 149 190 240 292 346
#     4   9  18  37  61  85 114 150 196 243 290 345
#     4   9  19  37  58  84 115 152 197 240 288 347
#     4  10  20  36  56  84 120 154 190 238 296 348
#
# _framework density 31.560189000000001
#
# number of rings (size 3 to 8) (size 9 to 14) (size 15 to 20)
#    0.000    2.857    0.000    0.000    0.000    2.286 
#    0.000   44.286    0.000    0.000    0.000    0.000 
#    0.000    0.000    0.000    0.000    0.000    0.000 
#
# Total GULP energy -78086.913308 kJ/mol
# GULP energy per Si atom -5577.636665 kJ/mol
# Density = 3.148836 g / cm^3
# Si number density = 31.560189 Si / 1000 Ang^3
#
#
#
# Elastic Constant Matrix: (Units=GPa)
#
#
# Indices 1 2 3 4 5 6 
#
# 1 299.3048 84.0184 168.8446 0.0000 -49.9409 0.0000
# 2 84.0184 63.6638 81.1503 0.0000 4.2692 0.0000
# 3 168.8446 81.1503 274.1135 0.0000 45.8973 0.0000
# 4 0.0000 0.0000 0.0000 50.8601 0.0000 7.5162
# 5 -49.9409 4.2692 45.8973 0.0000 211.9697 0.0000
# 6 0.0000 0.0000 0.0000 7.5162 0.0000 77.7040
#
#
#
# Elastic Compliance Matrix: (Units=1/GPa)
#
#
# Indices 1 2 3 4 5 6 
#
# 1 0.007058 -0.005483 -0.003135 0.000000 0.002452 0.000000
# 2 -0.005483 0.029760 -0.005309 0.000000 -0.000742 0.000000
# 3 -0.003135 -0.005309 0.007529 0.000000 -0.002262 0.000000
# 4 0.000000 0.000000 0.000000 0.019947 0.000000 -0.001929
# 5 0.002452 -0.000742 -0.002262 0.000000 0.005800 0.000000
# 6 0.000000 0.000000 0.000000 -0.001929 0.000000 0.013056
#
#
# Mechanical properties :
#
#
# Convention : Reuss Voigt Hill
#
# Bulk Modulus (GPa) = 60.62680 145.01209 102.81944
# Shear Modulus (GPa) = 42.91789 88.31135 65.61462
#
# Velocity S-wave (km/s) = 3.69165 5.29553 4.56459
# Velocity P-wave (km/s) = 6.11740 9.13442 7.77368
#
# Compressibility (1/GPa) = 0.01649436
#
# Stress axis : x y z
#
# Youngs Moduli (GPa) = 141.69041 33.60171 132.81309
#
# Poissons Ratio (x) = 0.18424 0.41632
# Poissons Ratio (y) = 0.77688 0.70510
# Poissons Ratio (z) = 0.44415 0.17839
#
# Static dielectric constant tensor:
#      x y z
#    x 2.399720 0.000000 -0.002230 
#    y 0.000000 2.575380 0.000000 
#    z -0.002230 0.000000 2.366000 
# 
# From -- ./inp_files/27492.got.cif
#   From: 2010.05.17/outbox.cif.g08.bks.cpg/sg13_14_cif.got.tgz:27492.got - 2010.06.03 16:44:36.
