data_PCOD9230098
_publ_section_title
;
Structure prediction by ZEFSAII (Michael W. Deem and Ramdas Pophale) SiO2 
 PCOD9230098
Probable space group: P 2/C
;
_chemical_formula_sum "Si O2"
_cell_formula_units_Z 28
_cell_length_a 5.543716
_cell_length_b 8.026412
_cell_length_c 24.612001
_cell_angle_alpha 90.000000
_cell_angle_beta 95.798979
_cell_angle_gamma 90.000000
_cell_volume 1089.534890
_symmetry_space_group_name_H-M "P 2/C"
_symmetry_group_IT_number 13
_symmetry_cell_setting 'monoclinic'
loop_
_space_group_symop_operation_xyz
x,y,z
-x,y,1/2-z
-x,-y,-z
x,-y,1/2+z
loop_
_atom_site_type_symbol
_atom_site_label
_atom_site_fract_x
_atom_site_fract_y
_atom_site_fract_z
Si Si1 0.921624 0.035438 0.894494
Si Si2 0.188919 0.673713 0.444460
Si Si3 0.735408 0.458803 0.715303
Si Si4 0.380386 0.172861 0.513038
Si Si5 0.522530 0.136347 0.684726
Si Si6 0.994311 0.680183 0.565207
Si Si7 0.737997 0.180551 0.215637
O O1 0.801750 0.099352 0.947573
O O2 0.743693 0.105747 0.844292
O O3 0.151521 0.154393 0.910125
O O4 0.912232 0.833077 0.895220
O O5 0.478667 0.675781 0.454824
O O6 0.042194 0.513114 0.419320
O O7 0.123812 0.683359 0.508319
O O8 0.500000 0.473934 0.750000
O O9 0.654791 0.308948 0.675561
O O10 0.753961 0.639485 0.688633
O O11 0.000000 0.428137 0.750000
O O12 0.269819 0.251463 0.456738
O O13 0.500000 0.000000 0.500000
O O14 0.500000 0.140708 0.750000
O O15 0.686681 0.975173 0.676363
O O16 0.500000 0.186443 0.250000
O O17 0.000000 0.155520 0.250000
#
# Coordination Sequence:
#
# PCOD9230098 Si02
#       7
#     4   4   4   4   4   4   4
#     4  11  22  38  58  88 122 158 204 255 298 367
#     4  10  20  37  60  88 121 156 197 246 308 377
#     4   9  18  36  61  85 111 151 204 260 312 363
#     4  11  18  37  61  88 125 154 190 249 313 371
#     4  10  22  40  60  82 116 162 209 253 308 363
#     4  10  20  35  62  88 119 160 195 243 310 377
#     4   9  18  36  61  85 112 152 206 262 313 363
#
# _framework density 25.699041000000001
#
# number of rings (size 3 to 8) (size 9 to 14) (size 15 to 20)
#    0.000    2.000    2.857    1.714    0.000    1.143 
#   10.286    0.000    6.286    0.000    0.000    0.000 
#    0.000    0.000    0.000    0.000    0.000    0.000 
#
# Total GULP energy -156018.307173 kJ/mol
# GULP energy per Si atom -5572.082399 kJ/mol
# Density = 2.564055 g / cm^3
# Si number density = 25.699041 Si / 1000 Ang^3
#
#
#
# Elastic Constant Matrix: (Units=GPa)
#
#
# Indices 1 2 3 4 5 6 
#
# 1 70.6041 19.2109 14.6365 0.0000 7.4370 0.0000
# 2 19.2109 193.1974 31.3191 0.0000 5.4954 0.0000
# 3 14.6365 31.3191 73.5741 0.0000 13.0921 0.0000
# 4 0.0000 0.0000 0.0000 50.2245 0.0000 11.5514
# 5 7.4370 5.4954 13.0921 0.0000 45.0658 0.0000
# 6 0.0000 0.0000 0.0000 11.5514 0.0000 42.4591
#
#
#
# Elastic Compliance Matrix: (Units=1/GPa)
#
#
# Indices 1 2 3 4 5 6 
#
# 1 0.015104 -0.001091 -0.002236 0.000000 -0.001710 0.000000
# 2 -0.001091 0.005638 -0.002207 0.000000 0.000134 0.000000
# 3 -0.002236 -0.002207 0.015673 0.000000 -0.003915 0.000000
# 4 0.000000 0.000000 0.000000 0.021240 0.000000 -0.005778
# 5 -0.001710 0.000134 -0.003915 0.000000 0.023593 0.000000
# 6 0.000000 0.000000 0.000000 -0.005778 0.000000 0.025124
#
#
# Mechanical properties :
#
#
# Convention : Reuss Voigt Hill
#
# Bulk Modulus (GPa) = 39.45180 51.96764 45.70972
# Shear Modulus (GPa) = 39.71760 45.69716 42.70738
#
# Velocity S-wave (km/s) = 3.93554 4.22141 4.08097
# Velocity P-wave (km/s) = 6.00300 6.63520 6.32700
#
# Compressibility (1/GPa) = 0.02534739
#
# Stress axis : x y z
#
# Youngs Moduli (GPa) = 66.20795 177.35263 63.80520
#
# Poissons Ratio (x) = 0.19345 0.14268
# Poissons Ratio (y) = 0.07222 0.14082
# Poissons Ratio (z) = 0.14805 0.39141
#
# Static dielectric constant tensor:
#      x y z
#    x 3.551910 0.000000 -0.066760 
#    y 0.000000 1.921420 0.000000 
#    z -0.066760 0.000000 2.013680 
# 
# From -- ./inp_files/95113.got.cif
#   From: 2010.05.17/outbox.cif.g08.bks.cpg/sg13_48_cif.got.tgz:95113.got - 2010.06.03 16:44:36.
