data_PCOD9230725
_publ_section_title
;
Structure prediction by ZEFSAII (Michael W. Deem and Ramdas Pophale) SiO2 
 PCOD9230725
Probable space group: P 2/C
;
_chemical_formula_sum "Si O2"
_cell_formula_units_Z 20
_cell_length_a 19.090651
_cell_length_b 7.637835
_cell_length_c 19.055529
_cell_angle_alpha 90.000000
_cell_angle_beta 18.395665
_cell_angle_gamma 90.000000
_cell_volume 876.834641
_symmetry_space_group_name_H-M "P 2/C"
_symmetry_group_IT_number 13
_symmetry_cell_setting 'monoclinic'
loop_
_space_group_symop_operation_xyz
x,y,z
-x,y,1/2-z
-x,-y,-z
x,-y,1/2+z
loop_
_atom_site_type_symbol
_atom_site_label
_atom_site_fract_x
_atom_site_fract_y
_atom_site_fract_z
Si Si1 0.724683 0.615246 0.221285
Si Si2 0.622587 0.916793 0.700521
Si Si3 0.843568 0.761265 0.614291
Si Si4 0.087907 0.254821 0.093471
Si Si5 0.664275 0.897101 0.917825
O O1 0.694449 0.412793 0.268451
O O2 0.519019 0.744407 0.411129
O O3 0.822901 0.611541 0.048748
O O4 0.912485 0.698960 0.093485
O O5 0.500000 0.834051 0.750000
O O6 0.815234 0.819732 0.561114
O O7 0.729705 0.100119 0.571701
O O8 0.443938 0.951398 0.932483
O O9 0.755617 0.911908 0.751367
O O10 0.000000 0.328675 0.250000
O O11 0.875982 0.167206 0.258996
#
# Coordination Sequence:
#
# PCOD9230725 Si02
#       5
#     4   4   4   4   4
#     4   9  21  38  61  85 114 150 194 238 282 342
#     4  11  22  37  56  85 118 151 190 238 289 342
#     4  10  21  39  58  88 117 146 195 242 283 336
#     4  10  20  38  58  81 116 153 190 231 287 346
#     4  10  20  37  63  82 109 155 192 232 284 342
#
# _framework density 22.809318999999999
#
# number of rings (size 3 to 8) (size 9 to 14) (size 15 to 20)
#    0.000    2.000    2.000    1.200    0.000    8.800 
#    3.600    1.000    0.000    0.000    0.000    0.000 
#    0.000    0.000    0.000    0.000    0.000    0.000 
#
# Total GULP energy -111642.119412 kJ/mol
# GULP energy per Si atom -5582.105971 kJ/mol
# Density = 2.275740 g / cm^3
# Si number density = 22.809319 Si / 1000 Ang^3
#
#
#
# Elastic Constant Matrix: (Units=GPa)
#
#
# Indices 1 2 3 4 5 6 
#
# 1 176.6776 14.2244 28.4470 0.0000 9.5158 0.0000
# 2 14.2244 61.8361 4.9676 0.0000 9.1443 0.0000
# 3 28.4470 4.9676 55.5248 0.0000 -1.0309 0.0000
# 4 0.0000 0.0000 0.0000 12.7090 0.0000 9.3731
# 5 9.5158 9.1443 -1.0309 0.0000 32.8544 0.0000
# 6 0.0000 0.0000 0.0000 9.3731 0.0000 18.1880
#
#
#
# Elastic Compliance Matrix: (Units=1/GPa)
#
#
# Indices 1 2 3 4 5 6 
#
# 1 0.006341 -0.000955 -0.003194 0.000000 -0.001671 0.000000
# 2 -0.000955 0.017153 -0.001129 0.000000 -0.004533 0.000000
# 3 -0.003194 -0.001129 0.019782 0.000000 0.001860 0.000000
# 4 0.000000 0.000000 0.000000 0.126926 0.000000 -0.065411
# 5 -0.001671 -0.004533 0.001860 0.000000 0.032241 0.000000
# 6 0.000000 0.000000 0.000000 -0.065411 0.000000 0.088691
#
#
# Mechanical properties :
#
#
# Convention : Reuss Voigt Hill
#
# Bulk Modulus (GPa) = 30.56399 43.25738 36.91068
# Shear Modulus (GPa) = 15.99502 29.17691 22.58597
#
# Velocity S-wave (km/s) = 2.65098 3.58042 3.15017
# Velocity P-wave (km/s) = 4.77485 6.00821 5.42668
#
# Compressibility (1/GPa) = 0.03271824
#
# Stress axis : x y z
#
# Youngs Moduli (GPa) = 157.69766 58.30048 50.55070
#
# Poissons Ratio (x) = 0.05567 0.16148
# Poissons Ratio (y) = 0.15060 0.05710
# Poissons Ratio (z) = 0.50375 0.06585
#
# Static dielectric constant tensor:
#      x y z
#    x 1.875880 0.000000 0.026770 
#    y 0.000000 1.827720 0.000000 
#    z 0.026770 0.000000 1.902140 
# 
# From -- ./inp_files/60580.got.cif
#   From: 2010.05.17/outbox.cif.g08.bks.cpg/sg13_31_cif.got.tgz:60580.got - 2010.06.03 16:44:36.
