data_PCOD9230974
_publ_section_title
;
Structure prediction by ZEFSAII (Michael W. Deem and Ramdas Pophale) SiO2 
 PCOD9230974
Probable space group: P 2/C
;
_chemical_formula_sum "Si O2"
_cell_formula_units_Z 22
_cell_length_a 13.705897
_cell_length_b 5.252765
_cell_length_c 13.149055
_cell_angle_alpha 90.000000
_cell_angle_beta 113.164153
_cell_angle_gamma 90.000000
_cell_volume 870.333697
_symmetry_space_group_name_H-M "P 2/C"
_symmetry_group_IT_number 13
_symmetry_cell_setting 'monoclinic'
loop_
_space_group_symop_operation_xyz
x,y,z
-x,y,1/2-z
-x,-y,-z
x,-y,1/2+z
loop_
_atom_site_type_symbol
_atom_site_label
_atom_site_fract_x
_atom_site_fract_y
_atom_site_fract_z
Si Si1 0.634474 0.826843 0.637455
Si Si2 0.805779 0.215898 0.647520
Si Si3 0.500000 0.815567 0.750000
Si Si4 0.237064 0.528527 0.175768
Si Si5 0.063893 0.753404 0.494248
Si Si6 0.363416 0.551126 0.048294
O O1 0.570615 0.977726 0.698883
O O2 0.667689 0.584647 0.718669
O O3 0.581354 0.737850 0.510192
O O4 0.743059 0.957027 0.645092
O O5 0.832091 0.324634 0.769704
O O6 0.902522 0.215249 0.609389
O O7 0.717138 0.385679 0.553243
O O8 0.562971 0.638921 0.857430
O O9 0.172747 0.293292 0.101528
O O10 0.286522 0.680924 0.101111
O O11 0.000000 0.500000 0.500000
O O12 0.000000 0.000000 0.500000
#
# Coordination Sequence:
#
# PCOD9230974 Si02
#       6
#     4   4   2   4   4   4
#     4  10  21  39  66  91 136 184 231 288 352 427
#     4  10  23  42  66  94 134 188 224 287 361 422
#     4  10  20  38  62 104 132 180 244 298 348 418
#     4   9  22  42  65  93 132 181 226 281 361 415
#     4  11  27  46  71 106 141 177 236 298 350 428
#     4   9  20  39  63  92 134 179 231 288 353 413
#
# _framework density 25.277660000000001
#
# number of rings (size 3 to 8) (size 9 to 14) (size 15 to 20)
#    0.000    2.182    0.000    0.545   10.182    4.364 
#    0.000    9.091    0.000    0.000    0.000    0.000 
#    0.000    0.000    0.000    0.000    0.000    0.000 
#
# Total GULP energy -122819.680563 kJ/mol
# GULP energy per Si atom -5582.712753 kJ/mol
# Density = 2.522013 g / cm^3
# Si number density = 25.277660 Si / 1000 Ang^3
#
#
#
# Elastic Constant Matrix: (Units=GPa)
#
#
# Indices 1 2 3 4 5 6 
#
# 1 105.9349 29.3347 64.3856 0.0000 -47.5647 0.0000
# 2 29.3347 80.2148 44.8609 0.0000 -24.0694 0.0000
# 3 64.3856 44.8609 180.6778 0.0000 -47.0867 0.0000
# 4 0.0000 0.0000 0.0000 27.6914 0.0000 15.9088
# 5 -47.5647 -24.0694 -47.0867 0.0000 63.6864 0.0000
# 6 0.0000 0.0000 0.0000 15.9088 0.0000 28.9533
#
#
#
# Elastic Compliance Matrix: (Units=1/GPa)
#
#
# Indices 1 2 3 4 5 6 
#
# 1 0.015619 -0.001403 -0.002868 0.000000 0.009014 0.000000
# 2 -0.001403 0.015255 -0.002550 0.000000 0.002833 0.000000
# 3 -0.002868 -0.002550 0.007903 0.000000 0.002737 0.000000
# 4 0.000000 0.000000 0.000000 0.052770 0.000000 -0.028995
# 5 0.009014 0.002833 0.002737 0.000000 0.025529 0.000000
# 6 0.000000 0.000000 0.000000 -0.028995 0.000000 0.050470
#
#
# Mechanical properties :
#
#
# Convention : Reuss Voigt Hill
#
# Bulk Modulus (GPa) = 39.78358 71.55442 55.66900
# Shear Modulus (GPa) = 26.37583 39.28264 32.82923
#
# Velocity S-wave (km/s) = 3.23374 3.94642 3.60772
# Velocity P-wave (km/s) = 5.45120 7.00959 6.27893
#
# Compressibility (1/GPa) = 0.02513600
#
# Stress axis : x y z
#
# Youngs Moduli (GPa) = 64.02467 65.55015 126.52853
#
# Poissons Ratio (x) = 0.09196 0.36293
# Poissons Ratio (y) = 0.08982 0.32260
# Poissons Ratio (z) = 0.18365 0.16713
#
# Static dielectric constant tensor:
#      x y z
#    x 2.254440 0.000000 -0.053890 
#    y 0.000000 2.029740 0.000000 
#    z -0.053890 0.000000 1.920380 
# 
# From -- ./inp_files/35506.got.cif
#   From: 2010.05.17/outbox.cif.g08.bks.cpg/sg13_18_cif.got.tgz:35506.got - 2010.06.03 16:44:36.
