data_PCOD9230737
_publ_section_title
;
Structure prediction by ZEFSAII (Michael W. Deem and Ramdas Pophale) SiO2 
 PCOD9230737
Probable space group: P 2/C
;
_chemical_formula_sum "Si O2"
_cell_formula_units_Z 26
_cell_length_a 23.029753
_cell_length_b 8.381729
_cell_length_c 8.513217
_cell_angle_alpha 90.000000
_cell_angle_beta 41.363319
_cell_angle_gamma 90.000000
_cell_volume 1085.943772
_symmetry_space_group_name_H-M "P 2/C"
_symmetry_group_IT_number 13
_symmetry_cell_setting 'monoclinic'
loop_
_space_group_symop_operation_xyz
x,y,z
-x,y,1/2-z
-x,-y,-z
x,-y,1/2+z
loop_
_atom_site_type_symbol
_atom_site_label
_atom_site_fract_x
_atom_site_fract_y
_atom_site_fract_z
Si Si1 0.898204 0.670678 0.252681
Si Si2 0.816467 0.845146 0.662779
Si Si3 0.656398 0.239770 0.913982
Si Si4 0.294550 0.041746 0.388432
Si Si5 0.436008 0.536892 0.270674
Si Si6 0.756244 0.571963 0.988221
Si Si7 0.000000 0.406635 0.250000
O O1 0.894071 0.821319 0.378972
O O2 0.800303 0.599092 0.419426
O O3 0.942386 0.524884 0.258565
O O4 0.945126 0.692834 0.990229
O O5 0.733845 0.871333 0.713486
O O6 0.816820 0.679227 0.755108
O O7 0.793504 0.973626 0.844014
O O8 0.743389 0.336178 0.679574
O O9 0.648136 0.107349 0.793031
O O10 0.661849 0.150059 0.068706
O O11 0.588365 0.380365 0.078541
O O12 0.500000 0.645562 0.250000
O O13 0.340142 0.579313 0.396444
O O14 0.500000 0.500000 0.000000
#
# Coordination Sequence:
#
# PCOD9230737 Si02
#       7
#     4   4   4   4   4   4   2
#     4  11  21  40  61  99 127 162 200 257 327 371
#     4  10  20  37  63  88 123 161 216 247 297 378
#     4  10  21  40  61  91 121 160 218 252 304 367
#     4   9  21  38  63  90 117 171 222 248 286 370
#     4  12  25  40  61  95 131 158 203 267 319 360
#     4  11  22  38  66  94 122 167 203 256 322 370
#     4  10  24  36  60 102 132 154 194 262 334 366
#
# _framework density 23.942305999999999
#
# number of rings (size 3 to 8) (size 9 to 14) (size 15 to 20)
#    0.000    1.538    3.077    1.846    4.308    0.000 
#    0.000    0.769    0.000    2.769    0.000    0.000 
#    0.000    0.000    0.000    0.000    0.000    0.000 
#
# Total GULP energy -144807.581659 kJ/mol
# GULP energy per Si atom -5569.522372 kJ/mol
# Density = 2.388781 g / cm^3
# Si number density = 23.942306 Si / 1000 Ang^3
#
#
#
# Elastic Constant Matrix: (Units=GPa)
#
#
# Indices 1 2 3 4 5 6 
#
# 1 86.1408 9.0570 8.7389 0.0000 15.5535 0.0000
# 2 9.0570 45.3322 8.4359 0.0000 11.6441 0.0000
# 3 8.7389 8.4359 124.2135 0.0000 35.8036 0.0000
# 4 0.0000 0.0000 0.0000 29.3558 0.0000 15.0638
# 5 15.5535 11.6441 35.8036 0.0000 37.3811 0.0000
# 6 0.0000 0.0000 0.0000 15.0638 0.0000 21.2880
#
#
#
# Elastic Compliance Matrix: (Units=1/GPa)
#
#
# Indices 1 2 3 4 5 6 
#
# 1 0.012681 -0.001227 0.000831 0.000000 -0.005691 0.000000
# 2 -0.001227 0.024144 0.000645 0.000000 -0.007629 0.000000
# 3 0.000831 0.000645 0.011197 0.000000 -0.011272 0.000000
# 4 0.000000 0.000000 0.000000 0.053486 0.000000 -0.037848
# 5 -0.005691 -0.007629 -0.011272 0.000000 0.042292 0.000000
# 6 0.000000 0.000000 0.000000 -0.037848 0.000000 0.073757
#
#
# Mechanical properties :
#
#
# Convention : Reuss Voigt Hill
#
# Bulk Modulus (GPa) = 20.60889 34.23889 27.42389
# Shear Modulus (GPa) = 21.43801 32.90195 27.16998
#
# Velocity S-wave (km/s) = 2.99557 3.71107 3.37235
# Velocity P-wave (km/s) = 4.53773 5.71789 5.16165
#
# Compressibility (1/GPa) = 0.04852275
#
# Stress axis : x y z
#
# Youngs Moduli (GPa) = 78.85814 41.41846 89.30693
#
# Poissons Ratio (x) = 0.05080 -0.07425
# Poissons Ratio (y) = 0.09673 -0.05765
# Poissons Ratio (z) = -0.06556 -0.02673
#
# Static dielectric constant tensor:
#      x y z
#    x 2.005400 0.000000 0.006010 
#    y 0.000000 1.936330 0.000000 
#    z 0.006010 0.000000 1.958370 
# 
# From -- ./inp_files/22996.got.cif
#   From: 2010.05.17/outbox.cif.g08.bks.cpg/sg13_12_cif.got.tgz:22996.got - 2010.06.03 16:44:36.
