data_PCOD9230545
_publ_section_title
;
Structure prediction by ZEFSAII (Michael W. Deem and Ramdas Pophale) SiO2 
 PCOD9230545
Probable space group: P 2/C
;
_chemical_formula_sum "Si O2"
_cell_formula_units_Z 26
_cell_length_a 5.143056
_cell_length_b 16.143726
_cell_length_c 16.469021
_cell_angle_alpha 90.000000
_cell_angle_beta 120.047492
_cell_angle_gamma 90.000000
_cell_volume 1183.628492
_symmetry_space_group_name_H-M "P 2/C"
_symmetry_group_IT_number 13
_symmetry_cell_setting 'monoclinic'
loop_
_space_group_symop_operation_xyz
x,y,z
-x,y,1/2-z
-x,-y,-z
x,-y,1/2+z
loop_
_atom_site_type_symbol
_atom_site_label
_atom_site_fract_x
_atom_site_fract_y
_atom_site_fract_z
Si Si1 0.000000 0.892164 0.750000
Si Si2 0.237243 0.311742 0.521635
Si Si3 0.891080 0.007842 0.090437
Si Si4 0.500000 0.785867 0.750000
Si Si5 0.354964 0.514251 0.065458
Si Si6 0.464299 0.874853 0.073632
Si Si7 0.545585 0.339520 0.403275
Si Si8 0.500000 0.939645 0.250000
O O1 0.218760 0.944076 0.844277
O O2 0.202303 0.839167 0.719928
O O3 0.398092 0.389098 0.593162
O O4 0.367329 0.219908 0.551570
O O5 0.301198 0.330158 0.436275
O O6 0.885106 0.320296 0.488201
O O7 0.727146 0.918597 0.061833
O O8 0.809946 0.066312 0.002029
O O9 0.227527 0.992177 0.171847
O O10 0.492524 0.727779 0.671078
O O11 0.466808 0.433977 0.131888
O O12 0.500000 0.500000 0.000000
O O13 0.000000 0.500000 0.000000
O O14 0.576920 0.885682 0.183420
#
# Coordination Sequence:
#
# PCOD9230545 Si02
#       8
#     2   4   4   2   4   4   4   2
#     4  12  24  42  60  90 128 164 208 262 324 368
#     4  10  21  38  61  89 118 159 209 253 299 379
#     4  11  24  42  61  87 123 170 210 268 322 380
#     4  12  23  34  59  90 124 158 198 261 312 375
#     4   8  16  33  58  81 116 152 192 246 309 367
#     4  11  24  40  63  89 121 166 217 262 319 377
#     4  10  20  37  57  92 123 157 199 253 315 376
#     4  12  23  44  61  88 122 170 212 267 320 379
#
# _framework density 21.966352000000001
#
# number of rings (size 3 to 8) (size 9 to 14) (size 15 to 20)
#    0.000    1.538    1.538    3.692    2.154    0.000 
#    0.000    0.769    0.000    0.000    8.000    0.000 
#    0.000    0.000    0.000    0.000    0.000    0.000 
#
# Total GULP energy -144869.260892 kJ/mol
# GULP energy per Si atom -5571.894650 kJ/mol
# Density = 2.191636 g / cm^3
# Si number density = 21.966352 Si / 1000 Ang^3
#
#
#
# Elastic Constant Matrix: (Units=GPa)
#
#
# Indices 1 2 3 4 5 6 
#
# 1 85.7349 1.3874 -1.2455 0.0000 7.5318 0.0000
# 2 1.3874 175.8314 18.0452 0.0000 16.6384 0.0000
# 3 -1.2455 18.0452 72.5177 0.0000 4.6741 0.0000
# 4 0.0000 0.0000 0.0000 66.4375 0.0000 5.7007
# 5 7.5318 16.6384 4.6741 0.0000 28.2902 0.0000
# 6 0.0000 0.0000 0.0000 5.7007 0.0000 22.6667
#
#
#
# Elastic Compliance Matrix: (Units=1/GPa)
#
#
# Indices 1 2 3 4 5 6 
#
# 1 0.011961 0.000185 0.000376 0.000000 -0.003355 0.000000
# 2 0.000185 0.006146 -0.001304 0.000000 -0.003448 0.000000
# 3 0.000376 -0.001304 0.014229 0.000000 -0.001684 0.000000
# 4 0.000000 0.000000 0.000000 0.015384 0.000000 -0.003869
# 5 -0.003355 -0.003448 -0.001684 0.000000 0.038548 0.000000
# 6 0.000000 0.000000 0.000000 -0.003869 0.000000 0.045091
#
#
# Mechanical properties :
#
#
# Convention : Reuss Voigt Hill
#
# Bulk Modulus (GPa) = 32.41598 41.16201 36.78900
# Shear Modulus (GPa) = 34.93368 44.53866 39.73617
#
# Velocity S-wave (km/s) = 3.99222 4.50776 4.25780
# Velocity P-wave (km/s) = 6.00329 6.77292 6.39969
#
# Compressibility (1/GPa) = 0.03084898
#
# Stress axis : x y z
#
# Youngs Moduli (GPa) = 83.60449 162.70925 70.27801
#
# Poissons Ratio (x) = -0.03003 -0.02641
# Poissons Ratio (y) = -0.01543 0.09164
# Poissons Ratio (z) = -0.03142 0.21216
#
# Static dielectric constant tensor:
#      x y z
#    x 1.940520 0.000000 -0.015000 
#    y 0.000000 1.918100 0.000000 
#    z -0.015000 0.000000 1.816250 
# 
# From -- ./inp_files/61495.got.cif
#   From: 2010.05.17/outbox.cif.g08.bks.cpg/sg13_31_cif.got.tgz:61495.got - 2010.06.03 16:44:36.
