data_PCOD9230880
_publ_section_title
;
Structure prediction by ZEFSAII (Michael W. Deem and Ramdas Pophale) SiO2 
 PCOD9230880
Probable space group: P 2/C
;
_chemical_formula_sum "Si O2"
_cell_formula_units_Z 24
_cell_length_a 25.898157
_cell_length_b 8.520171
_cell_length_c 13.030401
_cell_angle_alpha 90.000000
_cell_angle_beta 20.004633
_cell_angle_gamma 90.000000
_cell_volume 983.610392
_symmetry_space_group_name_H-M "P 2/C"
_symmetry_group_IT_number 13
_symmetry_cell_setting 'monoclinic'
loop_
_space_group_symop_operation_xyz
x,y,z
-x,y,1/2-z
-x,-y,-z
x,-y,1/2+z
loop_
_atom_site_type_symbol
_atom_site_label
_atom_site_fract_x
_atom_site_fract_y
_atom_site_fract_z
Si Si1 0.102885 0.658994 0.707649
Si Si2 0.818569 0.851346 0.263165
Si Si3 0.326423 0.879375 0.374867
Si Si4 0.000000 0.098524 0.250000
Si Si5 0.530153 0.717444 0.846579
Si Si6 0.681538 0.425914 0.268270
Si Si7 0.500000 0.792521 0.250000
O O1 0.224022 0.720931 0.563474
O O2 0.115567 0.784096 0.590997
O O3 0.151936 0.493678 0.568299
O O4 0.935880 0.706939 0.057984
O O5 0.658673 0.777566 0.530673
O O6 0.778587 0.966693 0.431534
O O7 0.900459 0.966943 0.027762
O O8 0.420662 0.879827 0.303795
O O9 0.433051 0.856617 0.078026
O O10 0.621803 0.648531 0.773753
O O11 0.420411 0.579276 0.019031
O O12 0.634932 0.308761 0.445312
#
# Coordination Sequence:
#
# PCOD9230880 Si02
#       7
#     4   4   4   2   4   4   2
#     4   9  20  39  58  84 116 157 192 242 300 352
#     4  10  20  38  59  86 119 152 202 247 294 360
#     4  10  20  41  58  88 119 157 199 244 301 355
#     4   8  22  36  54  92 110 154 202 232 300 348
#     4   9  19  36  60  85 111 161 195 249 300 347
#     4   9  19  36  57  84 118 148 206 240 298 359
#     4  10  22  36  62  90 122 156 198 258 296 342
#
# _framework density 24.399903999999999
#
# number of rings (size 3 to 8) (size 9 to 14) (size 15 to 20)
#    1.000    1.667    0.000    2.000    2.333    0.667 
#   12.000    0.000    0.000    0.000    0.000    0.000 
#    0.000    0.000    0.000    0.000    0.000    0.000 
#
# Total GULP energy -133648.082781 kJ/mol
# GULP energy per Si atom -5568.670116 kJ/mol
# Density = 2.434437 g / cm^3
# Si number density = 24.399904 Si / 1000 Ang^3
#
#
#
# Elastic Constant Matrix: (Units=GPa)
#
#
# Indices 1 2 3 4 5 6 
#
# 1 65.8980 5.9555 16.6146 0.0000 -2.1498 0.0000
# 2 5.9555 70.0260 46.5048 0.0000 10.2256 0.0000
# 3 16.6146 46.5048 177.1519 0.0000 15.6135 0.0000
# 4 0.0000 0.0000 0.0000 50.1757 0.0000 14.5028
# 5 -2.1498 10.2256 15.6135 0.0000 25.0701 0.0000
# 6 0.0000 0.0000 0.0000 14.5028 0.0000 14.5648
#
#
#
# Elastic Compliance Matrix: (Units=1/GPa)
#
#
# Indices 1 2 3 4 5 6 
#
# 1 0.015705 -0.000706 -0.001515 0.000000 0.002578 0.000000
# 2 -0.000706 0.017815 -0.004195 0.000000 -0.004714 0.000000
# 3 -0.001515 -0.004195 0.007141 0.000000 -0.002866 0.000000
# 4 0.000000 0.000000 0.000000 0.027984 0.000000 -0.027865
# 5 0.002578 -0.004714 -0.002866 0.000000 0.043817 0.000000
# 6 0.000000 0.000000 0.000000 -0.027865 0.000000 0.096405
#
#
# Mechanical properties :
#
#
# Convention : Reuss Voigt Hill
#
# Bulk Modulus (GPa) = 35.93410 50.13617 43.03514
# Shear Modulus (GPa) = 21.64740 34.22884 27.93812
#
# Velocity S-wave (km/s) = 2.98181 3.74950 3.38747
# Velocity P-wave (km/s) = 5.15888 6.27194 5.74244
#
# Compressibility (1/GPa) = 0.02782872
#
# Stress axis : x y z
#
# Youngs Moduli (GPa) = 63.67484 56.13330 140.04113
#
# Poissons Ratio (x) = 0.03964 0.21213
# Poissons Ratio (y) = 0.04496 0.58746
# Poissons Ratio (z) = 0.09645 0.23547
#
# Static dielectric constant tensor:
#      x y z
#    x 2.017390 0.000000 -0.035470 
#    y 0.000000 1.970190 0.000000 
#    z -0.035470 0.000000 2.022700 
# 
# From -- ./inp_files/59890.got.cif
#   From: 2010.05.17/outbox.cif.g08.bks.cpg/sg13_30_cif.got.tgz:59890.got - 2010.06.03 16:44:36.
