data_PCOD9230644
_publ_section_title
;
Structure prediction by ZEFSAII (Michael W. Deem and Ramdas Pophale) SiO2 
 PCOD9230644
Probable space group: P 2/C
;
_chemical_formula_sum "Si O2"
_cell_formula_units_Z 20
_cell_length_a 8.318127
_cell_length_b 5.375984
_cell_length_c 23.039634
_cell_angle_alpha 90.000000
_cell_angle_beta 128.989617
_cell_angle_gamma 90.000000
_cell_volume 800.802470
_symmetry_space_group_name_H-M "P 2/C"
_symmetry_group_IT_number 13
_symmetry_cell_setting 'monoclinic'
loop_
_space_group_symop_operation_xyz
x,y,z
-x,y,1/2-z
-x,-y,-z
x,-y,1/2+z
loop_
_atom_site_type_symbol
_atom_site_label
_atom_site_fract_x
_atom_site_fract_y
_atom_site_fract_z
Si Si1 0.770892 0.027928 0.420195
Si Si2 0.204912 0.173164 0.208252
Si Si3 0.165352 0.672695 0.235936
Si Si4 0.822271 0.457144 0.104895
Si Si5 0.604930 0.463467 0.933921
O O1 0.667426 0.757211 0.405048
O O2 0.765609 0.119467 0.352406
O O3 0.663672 0.256544 0.429930
O O4 0.000000 0.000000 0.500000
O O5 0.271955 0.935344 0.259330
O O6 0.957767 0.227589 0.160268
O O7 0.299629 0.428015 0.254831
O O8 0.005818 0.661251 0.144243
O O9 0.000000 0.648342 0.250000
O O10 0.635416 0.540987 0.102987
O O11 0.730067 0.403316 0.021571
#
# Coordination Sequence:
#
# PCOD9230644 Si02
#       5
#     4   4   4   4   4
#     4  12  21  36  54  85 118 154 180 224 288 343
#     4  10  21  35  58  83 112 141 197 228 277 340
#     4  10  20  37  61  82 107 146 197 242 272 319
#     4   9  23  36  57  87 114 149 190 228 283 334
#     4  11  23  34  59  83 124 147 178 230 287 347
#
# _framework density 24.974945000000002
#
# number of rings (size 3 to 8) (size 9 to 14) (size 15 to 20)
#    1.200    0.400    2.000    3.600    2.800    1.600 
#    0.000    0.000    0.000    7.200    0.000    0.000 
#    0.000    0.000    0.000    0.000    0.000    0.000 
#
# Total GULP energy -111776.685581 kJ/mol
# GULP energy per Si atom -5588.834279 kJ/mol
# Density = 2.491810 g / cm^3
# Si number density = 24.974945 Si / 1000 Ang^3
#
#
#
# Elastic Constant Matrix: (Units=GPa)
#
#
# Indices 1 2 3 4 5 6 
#
# 1 71.6009 33.0615 10.7113 0.0000 3.6919 0.0000
# 2 33.0615 180.4023 0.0996 0.0000 -8.0968 0.0000
# 3 10.7113 0.0996 67.4405 0.0000 1.2559 0.0000
# 4 0.0000 0.0000 0.0000 25.4451 0.0000 -9.7939
# 5 3.6919 -8.0968 1.2559 0.0000 49.1095 0.0000
# 6 0.0000 0.0000 0.0000 -9.7939 0.0000 38.7129
#
#
#
# Elastic Compliance Matrix: (Units=1/GPa)
#
#
# Indices 1 2 3 4 5 6 
#
# 1 0.015788 -0.002964 -0.002473 0.000000 -0.001612 0.000000
# 2 -0.002964 0.006141 0.000439 0.000000 0.001224 0.000000
# 3 -0.002473 0.000439 0.015222 0.000000 -0.000131 0.000000
# 4 0.000000 0.000000 0.000000 0.043540 0.000000 0.011015
# 5 -0.001612 0.001224 -0.000131 0.000000 0.020689 0.000000
# 6 0.000000 0.000000 0.000000 0.011015 0.000000 0.028618
#
#
# Mechanical properties :
#
#
# Convention : Reuss Voigt Hill
#
# Bulk Modulus (GPa) = 36.82623 45.24318 41.03470
# Shear Modulus (GPa) = 33.54627 41.02491 37.28559
#
# Velocity S-wave (km/s) = 3.66894 4.05735 3.86802
# Velocity P-wave (km/s) = 5.72062 6.33279 6.03447
#
# Compressibility (1/GPa) = 0.02715456
#
# Stress axis : x y z
#
# Youngs Moduli (GPa) = 63.33821 162.83608 65.69225
#
# Poissons Ratio (x) = 0.48272 0.16247
# Poissons Ratio (y) = 0.18776 -0.02884
# Poissons Ratio (z) = 0.15665 -0.07148
#
# Static dielectric constant tensor:
#      x y z
#    x 1.921650 0.000000 0.003560 
#    y 0.000000 2.005380 0.000000 
#    z 0.003560 0.000000 1.994410 
# 
# From -- ./inp_files/84149.got.cif
#   From: 2010.05.17/outbox.cif.g08.bks.cpg/sg13_43_cif.got.tgz:84149.got - 2010.06.03 16:44:36.
