data_PCOD9230565
_publ_section_title
;
Structure prediction by ZEFSAII (Michael W. Deem and Ramdas Pophale) SiO2 
 PCOD9230565
Probable space group: P 2/C
;
_chemical_formula_sum "Si O2"
_cell_formula_units_Z 30
_cell_length_a 12.375503
_cell_length_b 8.178916
_cell_length_c 13.874381
_cell_angle_alpha 90.000000
_cell_angle_beta 88.135672
_cell_angle_gamma 90.000000
_cell_volume 1403.596497
_symmetry_space_group_name_H-M "P 2/C"
_symmetry_group_IT_number 13
_symmetry_cell_setting 'monoclinic'
loop_
_space_group_symop_operation_xyz
x,y,z
-x,y,1/2-z
-x,-y,-z
x,-y,1/2+z
loop_
_atom_site_type_symbol
_atom_site_label
_atom_site_fract_x
_atom_site_fract_y
_atom_site_fract_z
Si Si1 0.153033 0.610670 0.417647
Si Si2 0.062756 0.287096 0.511562
Si Si3 0.670901 0.187492 0.507012
Si Si4 0.881326 0.224955 0.780291
Si Si5 0.273579 0.916470 0.706771
Si Si6 0.752505 0.144350 0.084192
Si Si7 0.500000 0.809927 0.750000
Si Si8 0.456783 0.671297 0.957485
O O1 0.105117 0.434322 0.443636
O O2 0.271632 0.652057 0.451742
O O3 0.148402 0.655526 0.305898
O O4 0.065506 0.724827 0.476523
O O5 0.102806 0.316845 0.619414
O O6 0.131085 0.137972 0.469213
O O7 0.722234 0.162149 0.399108
O O8 0.542204 0.203299 0.502849
O O9 0.701720 0.034486 0.572338
O O10 0.000000 0.153313 0.750000
O O11 0.793826 0.082717 0.793764
O O12 0.232879 0.817914 0.802733
O O13 0.399846 0.925999 0.729220
O O14 0.667901 0.267331 0.033016
O O15 0.478557 0.694227 0.842505
O O16 0.500000 0.500000 0.000000
#
# Coordination Sequence:
#
# PCOD9230565 Si02
#       8
#     4   4   4   4   4   4   2   4
#     4  10  22  39  59  85 120 158 197 244 296 354
#     4  10  22  39  59  85 120 158 197 244 296 354
#     4  11  21  37  61  86 118 153 198 244 294 349
#     4  10  20  37  60  85 117 153 198 246 296 352
#     4  10  20  37  58  89 115 154 191 247 297 343
#     4  11  21  37  61  86 118 153 198 244 294 349
#     4   8  20  38  62  86 122 152 196 246 284 354
#     4  10  21  39  59  86 119 155 195 240 294 346
#
# _framework density 21.373663000000001
#
# number of rings (size 3 to 8) (size 9 to 14) (size 15 to 20)
#    0.000    1.867    2.667    1.200    0.000    2.667 
#    0.000    6.667    0.000    0.000    0.000    0.000 
#    0.000    0.000    0.000    0.000    0.000    0.000 
#
# Total GULP energy -167209.572857 kJ/mol
# GULP energy per Si atom -5573.652429 kJ/mol
# Density = 2.132502 g / cm^3
# Si number density = 21.373663 Si / 1000 Ang^3
#
#
#
# Elastic Constant Matrix: (Units=GPa)
#
#
# Indices 1 2 3 4 5 6 
#
# 1 53.1784 0.4724 18.9081 0.0000 6.6471 0.0000
# 2 0.4724 57.4491 -6.2876 0.0000 8.2299 0.0000
# 3 18.9081 -6.2876 62.7619 0.0000 8.9716 0.0000
# 4 0.0000 0.0000 0.0000 23.1722 0.0000 -0.6708
# 5 6.6471 8.2299 8.9716 0.0000 26.7578 0.0000
# 6 0.0000 0.0000 0.0000 -0.6708 0.0000 31.6664
#
#
#
# Elastic Compliance Matrix: (Units=1/GPa)
#
#
# Indices 1 2 3 4 5 6 
#
# 1 0.021343 -0.000380 -0.006015 0.000000 -0.003168 0.000000
# 2 -0.000380 0.018682 0.002935 0.000000 -0.006635 0.000000
# 3 -0.006015 0.002935 0.018859 0.000000 -0.005731 0.000000
# 4 0.000000 0.000000 0.000000 0.043182 0.000000 0.000915
# 5 -0.003168 -0.006635 -0.005731 0.000000 0.042122 0.000000
# 6 0.000000 0.000000 0.000000 0.000915 0.000000 0.031599
#
#
# Mechanical properties :
#
#
# Convention : Reuss Voigt Hill
#
# Bulk Modulus (GPa) = 19.24483 22.17503 20.70993
# Shear Modulus (GPa) = 24.99666 27.00570 26.00118
#
# Velocity S-wave (km/s) = 3.42352 3.55844 3.49163
# Velocity P-wave (km/s) = 4.96496 5.22310 5.09566
#
# Compressibility (1/GPa) = 0.05196200
#
# Stress axis : x y z
#
# Youngs Moduli (GPa) = 46.85437 53.52870 53.02607
#
# Poissons Ratio (x) = 0.02034 0.31895
# Poissons Ratio (y) = 0.01780 -0.15561
# Poissons Ratio (z) = 0.28183 -0.15708
#
# Static dielectric constant tensor:
#      x y z
#    x 1.796300 0.000000 -0.022380 
#    y 0.000000 1.821490 0.000000 
#    z -0.022380 0.000000 1.790180 
# 
# From -- ./inp_files/50057.got.cif
#   From: 2010.05.17/outbox.cif.g08.bks.cpg/sg13_26_cif.got.tgz:50057.got - 2010.06.03 16:44:36.
