data_PCOD9230105
_publ_section_title
;
Structure prediction by ZEFSAII (Michael W. Deem and Ramdas Pophale) SiO2 
 PCOD9230105
Probable space group: P 2/C
;
_chemical_formula_sum "Si O2"
_cell_formula_units_Z 24
_cell_length_a 26.072285
_cell_length_b 5.363332
_cell_length_c 17.357145
_cell_angle_alpha 90.000000
_cell_angle_beta 154.613558
_cell_angle_gamma 90.000000
_cell_volume 1040.560158
_symmetry_space_group_name_H-M "P 2/C"
_symmetry_group_IT_number 13
_symmetry_cell_setting 'monoclinic'
loop_
_space_group_symop_operation_xyz
x,y,z
-x,y,1/2-z
-x,-y,-z
x,-y,1/2+z
loop_
_atom_site_type_symbol
_atom_site_label
_atom_site_fract_x
_atom_site_fract_y
_atom_site_fract_z
Si Si1 0.324917 0.439714 0.699301
Si Si2 0.239895 0.345176 0.929137
Si Si3 0.022752 0.624904 0.375158
Si Si4 0.110358 0.873717 0.961270
Si Si5 0.434867 0.196390 0.468371
Si Si6 0.637298 0.850170 0.466196
O O1 0.269752 0.609869 0.559268
O O2 0.234582 0.210924 0.591653
O O3 0.452606 0.345615 0.844155
O O4 0.355466 0.605898 0.814507
O O5 0.297673 0.584974 0.963782
O O6 0.294242 0.081529 0.979123
O O7 0.096474 0.339511 0.737423
O O8 0.000000 0.606554 0.250000
O O9 0.079217 0.360460 0.472475
O O10 0.107670 0.862311 0.498620
O O11 0.000000 0.890919 0.750000
O O12 0.366572 0.088268 0.448105
O O13 0.500000 0.000000 0.500000
O O14 0.500000 0.844994 0.250000
#
# Coordination Sequence:
#
# PCOD9230105 Si02
#       6
#     4   4   4   4   4   4
#     4  11  24  42  70 103 136 179 234 287 344 412
#     4  12  24  42  69 104 136 175 227 296 341 402
#     4  10  20  35  63 100 129 166 222 284 333 390
#     4  10  20  35  64 101 126 167 231 286 327 388
#     4  11  27  45  68  99 142 189 229 279 349 429
#     4  12  26  42  67  98 142 181 232 283 350 403
#
# _framework density 23.064502999999998
#
# number of rings (size 3 to 8) (size 9 to 14) (size 15 to 20)
#    0.000    1.000    5.000    2.500    9.333    0.000 
#    0.000    0.000    0.000    6.000    0.000    0.000 
#    0.000    0.000    0.000    0.000    0.000    0.000 
#
# Total GULP energy -134165.937162 kJ/mol
# GULP energy per Si atom -5590.247382 kJ/mol
# Density = 2.301201 g / cm^3
# Si number density = 23.064503 Si / 1000 Ang^3
#
#
#
# Elastic Constant Matrix: (Units=GPa)
#
#
# Indices 1 2 3 4 5 6 
#
# 1 85.9947 14.9006 22.4325 0.0000 21.6044 0.0000
# 2 14.9006 121.0151 21.8367 0.0000 21.3992 0.0000
# 3 22.4325 21.8367 63.8834 0.0000 25.5801 0.0000
# 4 0.0000 0.0000 0.0000 48.5353 0.0000 23.8901
# 5 21.6044 21.3992 25.5801 0.0000 28.5936 0.0000
# 6 0.0000 0.0000 0.0000 23.8901 0.0000 43.1350
#
#
#
# Elastic Compliance Matrix: (Units=1/GPa)
#
#
# Indices 1 2 3 4 5 6 
#
# 1 0.014406 0.000202 -0.001104 0.000000 -0.010048 0.000000
# 2 0.000202 0.009543 -0.000642 0.000000 -0.006720 0.000000
# 3 -0.001104 -0.000642 0.024516 0.000000 -0.020618 0.000000
# 4 0.000000 0.000000 0.000000 0.028325 0.000000 -0.015688
# 5 -0.010048 -0.006720 -0.020618 0.000000 0.066039 0.000000
# 6 0.000000 0.000000 0.000000 -0.015688 0.000000 0.031872
#
#
# Mechanical properties :
#
#
# Convention : Reuss Voigt Hill
#
# Bulk Modulus (GPa) = 22.03762 43.24808 32.64285
# Shear Modulus (GPa) = 25.91814 38.16769 32.04291
#
# Velocity S-wave (km/s) = 3.35584 4.07237 3.73134
# Velocity P-wave (km/s) = 4.95893 6.39561 5.72254
#
# Compressibility (1/GPa) = 0.04537695
#
# Stress axis : x y z
#
# Youngs Moduli (GPa) = 69.41535 104.79215 40.78893
#
# Poissons Ratio (x) = -0.02120 0.04504
# Poissons Ratio (y) = -0.01404 0.02619
# Poissons Ratio (z) = 0.07666 0.06729
#
# Static dielectric constant tensor:
#      x y z
#    x 1.851880 0.000000 0.018620 
#    y 0.000000 1.900020 0.000000 
#    z 0.018620 0.000000 1.851640 
# 
# From -- ./inp_files/70954.got.cif
#   From: 2010.05.17/outbox.cif.g08.bks.cpg/sg13_36_cif.got.tgz:70954.got - 2010.06.03 16:44:36.
