data_PCOD9230169
_publ_section_title
;
Structure prediction by ZEFSAII (Michael W. Deem and Ramdas Pophale) SiO2 
 PCOD9230169
Probable space group: P 2/C
;
_chemical_formula_sum "Si O2"
_cell_formula_units_Z 22
_cell_length_a 23.631761
_cell_length_b 7.879490
_cell_length_c 9.556432
_cell_angle_alpha 90.000000
_cell_angle_beta 28.875249
_cell_angle_gamma 90.000000
_cell_volume 859.312057
_symmetry_space_group_name_H-M "P 2/C"
_symmetry_group_IT_number 13
_symmetry_cell_setting 'monoclinic'
loop_
_space_group_symop_operation_xyz
x,y,z
-x,y,1/2-z
-x,-y,-z
x,-y,1/2+z
loop_
_atom_site_type_symbol
_atom_site_label
_atom_site_fract_x
_atom_site_fract_y
_atom_site_fract_z
Si Si1 0.251898 0.130511 0.642866
Si Si2 0.000000 0.882034 0.750000
Si Si3 0.809829 0.521578 0.668534
Si Si4 0.554086 0.345461 0.788075
Si Si5 0.112959 0.669740 0.741251
Si Si6 0.656533 0.906847 0.272306
O O1 0.217496 0.326644 0.728087
O O2 0.350238 0.084010 0.546110
O O3 0.303720 0.081681 0.382284
O O4 0.127519 0.033911 0.946822
O O5 0.979246 0.770138 0.654186
O O6 0.902845 0.610780 0.567530
O O7 0.850674 0.499514 0.422134
O O8 0.687043 0.611100 0.957478
O O9 0.500000 0.320536 0.750000
O O10 0.562541 0.188323 0.878725
O O11 0.500000 0.500000 0.000000
O O12 0.227384 0.788579 0.491502
#
# Coordination Sequence:
#
# PCOD9230169 Si02
#       6
#     4   2   4   4   4   4
#     4  10  20  36  56  78 115 144 179 223 274 324
#     4   8  18  34  56  82 108 148 186 224 262 328
#     4   9  19  35  54  80 110 142 174 233 280 309
#     4  11  21  38  61  81 105 142 188 225 272 336
#     4   9  18  33  54  79 112 143 186 222 269 323
#     4   9  21  37  54  81 111 146 178 226 278 318
#
# _framework density 25.601876000000001
#
# number of rings (size 3 to 8) (size 9 to 14) (size 15 to 20)
#    0.000    2.909    0.000    3.273    0.000   10.182 
#    0.000    4.545    0.000   30.545    0.000    0.000 
#    0.000    0.000    0.000    0.000    0.000    0.000 
#
# Total GULP energy -122797.357295 kJ/mol
# GULP energy per Si atom -5581.698059 kJ/mol
# Density = 2.554361 g / cm^3
# Si number density = 25.601876 Si / 1000 Ang^3
#
#
#
# Elastic Constant Matrix: (Units=GPa)
#
#
# Indices 1 2 3 4 5 6 
#
# 1 186.8687 28.9293 42.6565 0.0000 3.6417 0.0000
# 2 28.9293 34.9877 2.5868 0.0000 0.1254 0.0000
# 3 42.6565 2.5868 76.9659 0.0000 -9.1843 0.0000
# 4 0.0000 0.0000 0.0000 32.8446 0.0000 16.3234
# 5 3.6417 0.1254 -9.1843 0.0000 38.6580 0.0000
# 6 0.0000 0.0000 0.0000 16.3234 0.0000 7.6355
#
#
#
# Elastic Compliance Matrix: (Units=1/GPa)
#
#
# Indices 1 2 3 4 5 6 
#
# 1 0.007159 -0.005620 -0.003969 0.000000 -0.001599 0.000000
# 2 -0.005620 0.033069 0.002114 0.000000 0.000924 0.000000
# 3 -0.003969 0.002114 0.015608 0.000000 0.004075 0.000000
# 4 0.000000 0.000000 0.000000 -0.487351 0.000000 1.041873
# 5 -0.001599 0.000924 0.004075 0.000000 0.026984 0.000000
# 6 0.000000 0.000000 0.000000 1.041873 0.000000 -2.096377
#
#
# Mechanical properties :
#
#
# Convention : Reuss Voigt Hill
#
# Bulk Modulus (GPa) = 24.45963 49.68528 37.07246
# Shear Modulus (GPa) = -2.02238 30.80427 14.39094
#
# Velocity S-wave (km/s) = -0.88975 3.47249 2.37345
# Velocity P-wave (km/s) = 2.91874 5.96042 4.69285
#
# Compressibility (1/GPa) = 0.04088370
#
# Stress axis : x y z
#
# Youngs Moduli (GPa) = 139.69150 30.24013 64.06972
#
# Poissons Ratio (x) = 0.16994 0.25432
# Poissons Ratio (y) = 0.78504 -0.13541
# Poissons Ratio (z) = 0.55450 -0.06391
#
# Static dielectric constant tensor:
#      x y z
#    x 2.070960 0.000000 -0.029300 
#    y 0.000000 2.050350 0.000000 
#    z -0.029300 0.000000 2.043250 
# 
# From -- ./inp_files/22672.got.cif
#   From: 2010.05.17/outbox.cif.g08.bks.cpg/sg13_12_cif.got.tgz:22672.got - 2010.06.03 16:44:36.
