data_PCOD9230729
_publ_section_title
;
Structure prediction by ZEFSAII (Michael W. Deem and Ramdas Pophale) SiO2 
 PCOD9230729
Probable space group: P 2/C
;
_chemical_formula_sum "Si O2"
_cell_formula_units_Z 32
_cell_length_a 20.485843
_cell_length_b 4.979345
_cell_length_c 35.569946
_cell_angle_alpha 90.000000
_cell_angle_beta 25.137031
_cell_angle_gamma 90.000000
_cell_volume 1541.267578
_symmetry_space_group_name_H-M "P 2/C"
_symmetry_group_IT_number 13
_symmetry_cell_setting 'monoclinic'
loop_
_space_group_symop_operation_xyz
x,y,z
-x,y,1/2-z
-x,-y,-z
x,-y,1/2+z
loop_
_atom_site_type_symbol
_atom_site_label
_atom_site_fract_x
_atom_site_fract_y
_atom_site_fract_z
Si Si1 0.393474 0.654205 0.838813
Si Si2 0.109556 0.752064 0.936755
Si Si3 0.042613 0.007682 0.185078
Si Si4 0.649097 0.761131 0.307578
Si Si5 0.665831 0.015085 0.011559
Si Si6 0.665544 0.745965 0.747320
Si Si7 0.062269 0.510129 0.305198
Si Si8 0.767200 0.474749 0.503818
O O1 0.500000 0.521598 0.750000
O O2 0.255369 0.790810 0.888329
O O3 0.517853 0.822433 0.798384
O O4 0.298851 0.495589 0.920036
O O5 0.188471 0.715178 0.855278
O O6 0.000000 0.500000 0.000000
O O7 0.000000 0.000000 0.000000
O O8 0.000000 0.061651 0.250000
O O9 0.954958 0.214153 0.203013
O O10 0.224404 0.024055 0.081391
O O11 0.998134 0.709585 0.195516
O O12 0.501145 0.884245 0.405770
O O13 0.619720 0.532898 0.291278
O O14 0.771708 0.615712 0.269933
O O15 0.705801 0.023933 0.255894
O O16 0.741386 0.827573 0.003961
O O17 0.677518 0.315617 0.022454
O O18 0.945853 0.536927 0.401527
#
# Coordination Sequence:
#
# PCOD9230729 Si02
#       8
#     4   4   4   4   4   4   4   4
#     4  10  22  41  60  84 118 159 204 249 304 359
#     4  11  26  43  58  86 118 154 209 256 313 355
#     4  10  21  42  63  91 123 159 196 233 291 361
#     4  12  21  40  59  92 122 148 206 245 298 349
#     4  10  20  37  63  85 117 154 194 233 287 357
#     4  11  24  39  61  83 118 166 193 256 301 357
#     4  10  23  36  63  91 121 155 194 250 293 342
#     4  10  20  38  56  86 111 156 200 237 290 354
#
# _framework density 20.762129000000002
#
# number of rings (size 3 to 8) (size 9 to 14) (size 15 to 20)
#    0.000    1.500    2.500    1.875    3.500    2.000 
#    0.000    6.875    0.000    0.000    0.000    0.000 
#    0.000    0.000    0.000    0.000    0.000    0.000 
#
# Total GULP energy -178486.279410 kJ/mol
# GULP energy per Si atom -5577.696232 kJ/mol
# Density = 2.071487 g / cm^3
# Si number density = 20.762129 Si / 1000 Ang^3
#
#
#
# Elastic Constant Matrix: (Units=GPa)
#
#
# Indices 1 2 3 4 5 6 
#
# 1 45.4302 -9.9821 40.8988 0.0000 7.9107 0.0000
# 2 -9.9821 76.9545 4.2853 0.0000 7.1910 0.0000
# 3 40.8988 4.2853 145.0707 0.0000 21.5291 0.0000
# 4 0.0000 0.0000 0.0000 22.8267 0.0000 -1.4631
# 5 7.9107 7.1910 21.5291 0.0000 40.5511 0.0000
# 6 0.0000 0.0000 0.0000 -1.4631 0.0000 12.0643
#
#
#
# Elastic Compliance Matrix: (Units=1/GPa)
#
#
# Indices 1 2 3 4 5 6 
#
# 1 0.031194 0.004746 -0.008583 0.000000 -0.002370 0.000000
# 2 0.004746 0.013936 -0.001352 0.000000 -0.002679 0.000000
# 3 -0.008583 -0.001352 0.009844 0.000000 -0.003312 0.000000
# 4 0.000000 0.000000 0.000000 0.044152 0.000000 0.005354
# 5 -0.002370 -0.002679 -0.003312 0.000000 0.027356 0.000000
# 6 0.000000 0.000000 0.000000 0.005354 0.000000 0.083538
#
#
# Mechanical properties :
#
#
# Convention : Reuss Voigt Hill
#
# Bulk Modulus (GPa) = 22.42339 37.53993 29.98166
# Shear Modulus (GPa) = 21.25273 30.57198 25.91236
#
# Velocity S-wave (km/s) = 3.20289 3.84146 3.53662
# Velocity P-wave (km/s) = 4.94991 6.14785 5.58111
#
# Compressibility (1/GPa) = 0.04459630
#
# Stress axis : x y z
#
# Youngs Moduli (GPa) = 32.05749 71.75696 101.58067
#
# Poissons Ratio (x) = -0.34054 0.87184
# Poissons Ratio (y) = -0.15214 0.13733
# Poissons Ratio (z) = 0.27514 0.09701
#
# Static dielectric constant tensor:
#      x y z
#    x 1.754050 0.000000 -0.017010 
#    y 0.000000 1.717470 0.000000 
#    z -0.017010 0.000000 1.780530 
# 
# From -- ./inp_files/97234.got.cif
#   From: 2010.05.17/outbox.cif.g08.bks.cpg/sg13_49_cif.got.tgz:97234.got - 2010.06.03 16:44:36.
