data_PCOD9230215
_publ_section_title
;
Structure prediction by ZEFSAII (Michael W. Deem and Ramdas Pophale) SiO2 
 PCOD9230215
Probable space group: P 2/C
;
_chemical_formula_sum "Si O2"
_cell_formula_units_Z 28
_cell_length_a 7.760742
_cell_length_b 9.599528
_cell_length_c 16.289145
_cell_angle_alpha 90.000000
_cell_angle_beta 110.349714
_cell_angle_gamma 90.000000
_cell_volume 1137.792977
_symmetry_space_group_name_H-M "P 2/C"
_symmetry_group_IT_number 13
_symmetry_cell_setting 'monoclinic'
loop_
_space_group_symop_operation_xyz
x,y,z
-x,y,1/2-z
-x,-y,-z
x,-y,1/2+z
loop_
_atom_site_type_symbol
_atom_site_label
_atom_site_fract_x
_atom_site_fract_y
_atom_site_fract_z
Si Si1 0.714426 0.771975 0.088145
Si Si2 0.000000 0.081843 0.750000
Si Si3 0.242226 0.924715 0.579864
Si Si4 0.815054 0.507048 0.554737
Si Si5 0.846779 0.635097 0.889007
Si Si6 0.658695 0.887729 0.677089
Si Si7 0.500000 0.646360 0.750000
Si Si8 0.307358 0.185105 0.509579
O O1 0.698879 0.604077 0.085537
O O2 0.896186 0.820936 0.166515
O O3 0.725592 0.846716 0.001539
O O4 0.512521 0.822446 0.081473
O O5 0.823723 0.981770 0.740845
O O6 0.135132 0.802823 0.610290
O O7 0.445469 0.933002 0.653367
O O8 0.185071 0.081533 0.546177
O O9 0.870575 0.409320 0.487366
O O10 0.738591 0.652615 0.508229
O O11 0.995034 0.556768 0.633034
O O12 0.646391 0.578461 0.833192
O O13 0.638275 0.735613 0.714656
O O14 0.693342 0.872648 0.584633
#
# Coordination Sequence:
#
# PCOD9230215 Si02
#       8
#     4   2   4   4   4   4   2   4
#     4  10  20  36  57  85 123 156 191 257 313 354
#     4  12  20  36  60  92 126 152 198 268 312 360
#     4   9  17  38  62  83 114 157 201 248 305 361
#     4  10  22  39  59  87 119 166 215 245 298 384
#     4   9  21  41  59  82 126 165 198 251 315 372
#     4  10  21  36  61  90 120 153 199 255 315 362
#     4  10  22  40  60  88 130 164 190 262 324 360
#     4  11  19  38  65  92 111 158 222 256 298 368
#
# _framework density 24.609047
#
# number of rings (size 3 to 8) (size 9 to 14) (size 15 to 20)
#    0.000    2.000    2.857    2.143    2.000    0.571 
#    5.143    7.143    0.000    3.429    0.000    0.000 
#    0.000    0.000    0.000    0.000    0.000    0.000 
#
# Total GULP energy -155883.596523 kJ/mol
# GULP energy per Si atom -5567.271304 kJ/mol
# Density = 2.455304 g / cm^3
# Si number density = 24.609047 Si / 1000 Ang^3
#
#
#
# Elastic Constant Matrix: (Units=GPa)
#
#
# Indices 1 2 3 4 5 6 
#
# 1 44.8614 27.4388 20.0539 0.0000 23.1280 0.0000
# 2 27.4388 153.4228 30.1041 0.0000 13.7811 0.0000
# 3 20.0539 30.1041 116.9574 0.0000 34.6845 0.0000
# 4 0.0000 0.0000 0.0000 18.8555 0.0000 23.5596
# 5 23.1280 13.7811 34.6845 0.0000 39.2392 0.0000
# 6 0.0000 0.0000 0.0000 23.5596 0.0000 22.1423
#
#
#
# Elastic Compliance Matrix: (Units=1/GPa)
#
#
# Indices 1 2 3 4 5 6 
#
# 1 0.034928 -0.004677 0.001129 0.000000 -0.019942 0.000000
# 2 -0.004677 0.007529 -0.001585 0.000000 0.001513 0.000000
# 3 0.001129 -0.001585 0.011922 0.000000 -0.010647 0.000000
# 4 0.000000 0.000000 0.000000 -0.160977 0.000000 0.171281
# 5 -0.019942 0.001513 -0.010647 0.000000 0.046118 0.000000
# 6 0.000000 0.000000 0.000000 0.171281 0.000000 -0.137082
#
#
# Mechanical properties :
#
#
# Convention : Reuss Voigt Hill
#
# Bulk Modulus (GPa) = 22.66881 52.27060 37.46970
# Shear Modulus (GPa) = -28.97015 31.89040 1.46013
#
# Velocity S-wave (km/s) = -3.43478 3.60374 0.77111
# Velocity P-wave (km/s) = 2.54926 6.21309 4.00648
#
# Compressibility (1/GPa) = 0.04411348
#
# Stress axis : x y z
#
# Youngs Moduli (GPa) = 28.63056 132.81232 83.87955
#
# Poissons Ratio (x) = 0.62114 -0.09469
# Poissons Ratio (y) = 0.13390 0.13293
# Poissons Ratio (z) = -0.03232 0.21048
#
# Static dielectric constant tensor:
#      x y z
#    x 2.031010 0.000000 0.017860 
#    y 0.000000 2.042970 0.000000 
#    z 0.017860 0.000000 2.087050 
# 
# From -- ./inp_files/76011.got.cif
#   From: 2010.05.17/outbox.cif.g08.bks.cpg/sg13_39_cif.got.tgz:76011.got - 2010.06.03 16:44:36.
