data_PCOD9230193
_publ_section_title
;
Structure prediction by ZEFSAII (Michael W. Deem and Ramdas Pophale) SiO2 
 PCOD9230193
Probable space group: P 2/C
;
_chemical_formula_sum "Si O2"
_cell_formula_units_Z 26
_cell_length_a 11.358392
_cell_length_b 7.651340
_cell_length_c 14.531212
_cell_angle_alpha 90.000000
_cell_angle_beta 124.270899
_cell_angle_gamma 90.000000
_cell_volume 1043.610180
_symmetry_space_group_name_H-M "P 2/C"
_symmetry_group_IT_number 13
_symmetry_cell_setting 'monoclinic'
loop_
_space_group_symop_operation_xyz
x,y,z
-x,y,1/2-z
-x,-y,-z
x,-y,1/2+z
loop_
_atom_site_type_symbol
_atom_site_label
_atom_site_fract_x
_atom_site_fract_y
_atom_site_fract_z
Si Si1 0.358751 0.674155 0.531213
Si Si2 0.000000 0.971843 0.250000
Si Si3 0.344076 0.245165 0.383099
Si Si4 0.838452 0.560032 0.210486
Si Si5 0.849467 0.422011 0.406801
Si Si6 0.194538 0.021698 0.175050
Si Si7 0.737804 0.942060 0.492613
O O1 0.524381 0.637846 0.592661
O O2 0.272679 0.664348 0.398684
O O3 0.267585 0.567487 0.565002
O O4 0.340888 0.873567 0.552747
O O5 0.127766 0.041992 0.376672
O O6 0.099333 0.916083 0.207168
O O7 0.200365 0.358479 0.331186
O O8 0.321351 0.095718 0.296082
O O9 0.370138 0.177178 0.497209
O O10 0.807617 0.543309 0.303472
O O11 0.000000 0.600429 0.250000
O O12 0.865853 0.214499 0.386028
O O13 0.000000 0.500000 0.500000
O O14 0.217412 0.909891 0.092904
#
# Coordination Sequence:
#
# PCOD9230193 Si02
#       7
#     4   2   4   4   4   4   4
#     4  11  23  42  63  94 130 170 221 278 328 391
#     4  10  20  36  56  90 126 164 210 270 324 394
#     4  10  23  42  66  93 132 174 220 266 338 399
#     4  11  23  40  66  93 129 175 219 267 330 391
#     4  10  21  35  61  91 123 170 218 267 324 388
#     4   9  21  36  60  91 126 171 217 266 329 395
#     4  10  22  37  64  93 127 169 220 274 334 392
#
# _framework density 24.913518
#
# number of rings (size 3 to 8) (size 9 to 14) (size 15 to 20)
#    0.000    1.846    1.538    1.385   10.769    5.538 
#    0.000    3.077    0.000    3.692    0.000    0.000 
#    0.000    0.000    0.000    0.000    0.000    0.000 
#
# Total GULP energy -144827.395078 kJ/mol
# GULP energy per Si atom -5570.284426 kJ/mol
# Density = 2.485681 g / cm^3
# Si number density = 24.913518 Si / 1000 Ang^3
#
#
#
# Elastic Constant Matrix: (Units=GPa)
#
#
# Indices 1 2 3 4 5 6 
#
# 1 152.9674 31.1191 83.7087 0.0000 -26.1169 0.0000
# 2 31.1191 38.0141 19.7002 0.0000 -16.2614 0.0000
# 3 83.7087 19.7002 110.9180 0.0000 -38.5317 0.0000
# 4 0.0000 0.0000 0.0000 29.3968 0.0000 -12.9484
# 5 -26.1169 -16.2614 -38.5317 0.0000 57.2994 0.0000
# 6 0.0000 0.0000 0.0000 -12.9484 0.0000 35.0061
#
#
#
# Elastic Compliance Matrix: (Units=1/GPa)
#
#
# Indices 1 2 3 4 5 6 
#
# 1 0.012374 -0.006430 -0.008965 0.000000 -0.002214 0.000000
# 2 -0.006430 0.034115 0.001486 0.000000 0.007750 0.000000
# 3 -0.008965 0.001486 0.018587 0.000000 0.008834 0.000000
# 4 0.000000 0.000000 0.000000 0.040638 0.000000 0.015032
# 5 -0.002214 0.007750 0.008834 0.000000 0.024583 0.000000
# 6 0.000000 0.000000 0.000000 0.015032 0.000000 0.034126
#
#
# Mechanical properties :
#
#
# Convention : Reuss Voigt Hill
#
# Bulk Modulus (GPa) = 26.84103 63.43950 45.14026
# Shear Modulus (GPa) = 24.43067 35.49857 29.96462
#
# Velocity S-wave (km/s) = 3.13488 3.77884 3.47182
# Velocity P-wave (km/s) = 4.88880 6.67523 5.85060
#
# Compressibility (1/GPa) = 0.03725639
#
# Stress axis : x y z
#
# Youngs Moduli (GPa) = 80.81783 29.31248 53.80231
#
# Poissons Ratio (x) = 0.18848 0.48235
# Poissons Ratio (y) = 0.51967 -0.07994
# Poissons Ratio (z) = 0.72454 -0.04355
#
# Static dielectric constant tensor:
#      x y z
#    x 2.035260 0.000000 -0.043610 
#    y 0.000000 2.343110 0.000000 
#    z -0.043610 0.000000 2.079440 
# 
# From -- ./inp_files/50153.got.cif
#   From: 2010.05.17/outbox.cif.g08.bks.cpg/sg13_26_cif.got.tgz:50153.got - 2010.06.03 16:44:36.
