data_PCOD9230966
_publ_section_title
;
Structure prediction by ZEFSAII (Michael W. Deem and Ramdas Pophale) SiO2 
 PCOD9230966
Probable space group: P 2/C
;
_chemical_formula_sum "Si O2"
_cell_formula_units_Z 24
_cell_length_a 21.493496
_cell_length_b 10.184006
_cell_length_c 9.472329
_cell_angle_alpha 90.000000
_cell_angle_beta 140.610345
_cell_angle_gamma 90.000000
_cell_volume 1315.759086
_symmetry_space_group_name_H-M "P 2/C"
_symmetry_group_IT_number 13
_symmetry_cell_setting 'monoclinic'
loop_
_space_group_symop_operation_xyz
x,y,z
-x,y,1/2-z
-x,-y,-z
x,-y,1/2+z
loop_
_atom_site_type_symbol
_atom_site_label
_atom_site_fract_x
_atom_site_fract_y
_atom_site_fract_z
Si Si1 0.198858 0.772073 0.309712
Si Si2 0.187802 0.736654 0.621307
Si Si3 0.401869 0.373882 0.497887
Si Si4 0.076462 0.016039 0.010483
Si Si5 0.595566 0.348153 0.337765
Si Si6 0.928385 0.527977 0.504052
O O1 0.178666 0.780751 0.442033
O O2 0.314258 0.751230 0.491727
O O3 0.150301 0.893157 0.143732
O O4 0.149330 0.637326 0.172999
O O5 0.140159 0.851732 0.629091
O O6 0.126552 0.603441 0.540368
O O7 0.302464 0.707743 0.849263
O O8 0.500000 0.323792 0.750000
O O9 0.416935 0.379084 0.352933
O O10 0.384508 0.516741 0.540024
O O11 0.000000 0.022477 0.750000
O O12 0.000000 0.000000 0.000000
O O13 0.500000 0.294198 0.250000
O O14 0.000000 0.579981 0.750000
O O15 0.000000 0.500000 0.500000
#
# Coordination Sequence:
#
# PCOD9230966 Si02
#       6
#     4   4   4   4   4   4
#     4  11  23  41  62  91 121 163 206 249 308 363
#     4  11  23  42  61  89 127 158 204 257 303 363
#     4  10  20  38  62  90 124 158 195 254 312 362
#     4  12  24  45  64  86 126 171 207 251 304 365
#     4  10  20  38  61  91 126 153 199 254 308 366
#     4  12  22  37  60  88 122 155 201 259 299 357
#
# _framework density 18.240421999999999
#
# number of rings (size 3 to 8) (size 9 to 14) (size 15 to 20)
#    0.000    1.000    5.000    4.000    0.000    0.000 
#    9.000    0.833    0.000    4.000    0.000    0.000 
#    0.000    0.000    0.000    0.000    0.000    0.000 
#
# Total GULP energy -133903.867738 kJ/mol
# GULP energy per Si atom -5579.327822 kJ/mol
# Density = 1.819891 g / cm^3
# Si number density = 18.240422 Si / 1000 Ang^3
#
#
#
# Elastic Constant Matrix: (Units=GPa)
#
#
# Indices 1 2 3 4 5 6 
#
# 1 116.1680 12.7558 35.5291 0.0000 19.7084 0.0000
# 2 12.7558 61.5497 4.4187 0.0000 29.4437 0.0000
# 3 35.5291 4.4187 78.7121 0.0000 26.9082 0.0000
# 4 0.0000 0.0000 0.0000 27.6175 0.0000 9.2262
# 5 19.7084 29.4437 26.9082 0.0000 31.2157 0.0000
# 6 0.0000 0.0000 0.0000 9.2262 0.0000 27.8312
#
#
#
# Elastic Compliance Matrix: (Units=1/GPa)
#
#
# Indices 1 2 3 4 5 6 
#
# 1 0.010258 -0.000463 -0.003601 0.000000 -0.002937 0.000000
# 2 -0.000463 0.038687 0.014762 0.000000 -0.048924 0.000000
# 3 -0.003601 0.014762 0.024789 0.000000 -0.033019 0.000000
# 4 0.000000 0.000000 0.000000 0.040718 0.000000 -0.013498
# 5 -0.002937 -0.048924 -0.033019 0.000000 0.108498 0.000000
# 6 0.000000 0.000000 0.000000 -0.013498 0.000000 0.040406
#
#
# Mechanical properties :
#
#
# Convention : Reuss Voigt Hill
#
# Bulk Modulus (GPa) = 10.51179 40.20411 25.35795
# Shear Modulus (GPa) = 18.27019 30.91461 24.59240
#
# Velocity S-wave (km/s) = 3.16829 4.12131 3.67582
# Velocity P-wave (km/s) = 4.37716 6.68850 5.65223
#
# Compressibility (1/GPa) = 0.09513128
#
# Stress axis : x y z
#
# Youngs Moduli (GPa) = 97.48066 25.84857 40.34079
#
# Poissons Ratio (x) = 0.01196 0.14525
# Poissons Ratio (y) = 0.04511 -0.59551
# Poissons Ratio (z) = 0.35099 -0.38158
#
# Static dielectric constant tensor:
#      x y z
#    x 1.626320 0.000000 0.023640 
#    y 0.000000 1.604550 0.000000 
#    z 0.023640 0.000000 1.585330 
# 
# From -- ./inp_files/23282.got.cif
#   From: 2010.05.17/outbox.cif.g08.bks.cpg/sg13_12_cif.got.tgz:23282.got - 2010.06.03 16:44:36.
