data_PCOD9230585
_publ_section_title
;
Structure prediction by ZEFSAII (Michael W. Deem and Ramdas Pophale) SiO2 
 PCOD9230585
Probable space group: P 2/C
;
_chemical_formula_sum "Si O2"
_cell_formula_units_Z 28
_cell_length_a 5.642610
_cell_length_b 30.539492
_cell_length_c 7.890207
_cell_angle_alpha 90.000000
_cell_angle_beta 119.726079
_cell_angle_gamma 90.000000
_cell_volume 1180.736558
_symmetry_space_group_name_H-M "P 2/C"
_symmetry_group_IT_number 13
_symmetry_cell_setting 'monoclinic'
loop_
_space_group_symop_operation_xyz
x,y,z
-x,y,1/2-z
-x,-y,-z
x,-y,1/2+z
loop_
_atom_site_type_symbol
_atom_site_label
_atom_site_fract_x
_atom_site_fract_y
_atom_site_fract_z
Si Si1 0.329885 0.959659 0.364031
Si Si2 0.231554 0.268895 0.546295
Si Si3 0.658553 0.135711 0.481642
Si Si4 0.000000 0.671153 0.250000
Si Si5 0.849727 0.829778 0.529870
Si Si6 0.249131 0.444141 0.529370
Si Si7 0.000000 0.483588 0.750000
Si Si8 0.559332 0.646666 0.473683
O O1 0.500000 0.950277 0.250000
O O2 0.349056 0.915604 0.481114
O O3 0.000000 0.969927 0.250000
O O4 0.500000 0.000000 0.500000
O O5 0.500000 0.257367 0.750000
O O6 0.113103 0.222549 0.455851
O O7 0.317083 0.305870 0.437063
O O8 0.051079 0.295953 0.613265
O O9 0.500000 0.145538 0.250000
O O10 0.468952 0.159404 0.554695
O O11 0.970524 0.150717 0.559146
O O12 0.245499 0.642290 0.414314
O O13 0.000000 0.848693 0.750000
O O14 0.500000 0.446667 0.750000
O O15 0.233432 0.480850 0.379698
O O16 0.265641 0.396657 0.448871
O O17 0.016438 0.454798 0.585812
O O18 0.500000 0.650759 0.250000
#
# Coordination Sequence:
#
# PCOD9230585 Si02
#       8
#     4   4   4   2   4   4   2   4
#     4  12  26  45  70 104 137 178 229 284 341 400
#     4   9  19  33  55  86 113 153 200 252 307 373
#     4  10  23  43  64  91 131 180 219 268 332 395
#     4   8  16  33  54  84 108 152 196 244 299 362
#     4  10  22  39  61  88 127 170 214 263 328 389
#     4  10  20  37  59  85 113 154 190 247 301 377
#     4  10  22  37  58  86 118 146 198 242 309 370
#     4   8  17  32  54  81 109 149 197 236 306 365
#
# _framework density 23.714012
#
# number of rings (size 3 to 8) (size 9 to 14) (size 15 to 20)
#    0.000    2.571    0.000    2.143    4.000    8.571 
#    1.286    0.000    0.000    0.000    0.000    0.000 
#    0.000    0.000    0.000    0.000    0.000    0.000 
#
# Total GULP energy -155889.218011 kJ/mol
# GULP energy per Si atom -5567.472072 kJ/mol
# Density = 2.366004 g / cm^3
# Si number density = 23.714012 Si / 1000 Ang^3
#
#
#
# Elastic Constant Matrix: (Units=GPa)
#
#
# Indices 1 2 3 4 5 6 
#
# 1 146.9926 70.4393 31.0814 0.0000 -0.4515 0.0000
# 2 70.4393 170.3475 5.8048 0.0000 0.9185 0.0000
# 3 31.0814 5.8048 58.0994 0.0000 -3.8721 0.0000
# 4 0.0000 0.0000 0.0000 -2.1271 0.0000 17.8245
# 5 -0.4515 0.9185 -3.8721 0.0000 25.6098 0.0000
# 6 0.0000 0.0000 0.0000 17.8245 0.0000 18.4929
#
#
#
# Elastic Compliance Matrix: (Units=1/GPa)
#
#
# Indices 1 2 3 4 5 6 
#
# 1 0.009652 -0.003825 -0.004809 0.000000 -0.000420 0.000000
# 2 -0.003825 0.007408 0.001297 0.000000 -0.000137 0.000000
# 3 -0.004809 0.001297 0.019846 0.000000 0.002869 0.000000
# 4 0.000000 0.000000 0.000000 -0.051794 0.000000 0.049922
# 5 -0.000420 -0.000137 0.002869 0.000000 0.039479 0.000000
# 6 0.000000 0.000000 0.000000 0.049922 0.000000 0.005957
#
#
# Mechanical properties :
#
#
# Convention : Reuss Voigt Hill
#
# Bulk Modulus (GPa) = 44.97997 65.56560 55.27279
# Shear Modulus (GPa) = 94.99649 26.26939 60.63294
#
# Velocity S-wave (km/s) = 6.33610 3.33191 5.06201
# Velocity P-wave (km/s) = 8.51687 6.52002 7.58445
#
# Compressibility (1/GPa) = 0.02223212
#
# Stress axis : x y z
#
# Youngs Moduli (GPa) = 103.61081 134.98071 50.38727
#
# Poissons Ratio (x) = 0.51627 0.24232
# Poissons Ratio (y) = 0.39629 -0.06534
# Poissons Ratio (z) = 0.49827 -0.17505
#
# Static dielectric constant tensor:
#      x y z
#    x 2.501970 0.000000 0.144920 
#    y 0.000000 1.878380 0.000000 
#    z 0.144920 0.000000 1.962940 
# 
# From -- ./inp_files/10376.got.cif
#   From: 2010.05.17/outbox.cif.g08.bks.cpg/sg13_6_cif.got.tgz:10376.got - 2010.06.03 16:44:36.
