data_PCOD9230588
_publ_section_title
;
Structure prediction by ZEFSAII (Michael W. Deem and Ramdas Pophale) SiO2 
 PCOD9230588
Probable space group: P 2/C
;
_chemical_formula_sum "Si O2"
_cell_formula_units_Z 20
_cell_length_a 8.656468
_cell_length_b 12.156792
_cell_length_c 9.740058
_cell_angle_alpha 90.000000
_cell_angle_beta 46.191833
_cell_angle_gamma 90.000000
_cell_volume 739.698658
_symmetry_space_group_name_H-M "P 2/C"
_symmetry_group_IT_number 13
_symmetry_cell_setting 'monoclinic'
loop_
_space_group_symop_operation_xyz
x,y,z
-x,y,1/2-z
-x,-y,-z
x,-y,1/2+z
loop_
_atom_site_type_symbol
_atom_site_label
_atom_site_fract_x
_atom_site_fract_y
_atom_site_fract_z
Si Si1 0.636294 0.740402 0.488533
Si Si2 0.803143 0.467085 0.981776
Si Si3 0.668738 0.164251 0.528995
Si Si4 0.115449 0.318695 0.938997
Si Si5 0.852347 0.057937 0.972790
O O1 0.618783 0.612098 0.537869
O O2 0.424010 0.792957 0.555618
O O3 0.801187 0.729234 0.257116
O O4 0.734992 0.822932 0.542424
O O5 0.000000 0.480305 0.750000
O O6 0.905179 0.389013 0.036367
O O7 0.743673 0.585101 0.076369
O O8 0.500000 0.199845 0.750000
O O9 0.884471 0.220300 0.452644
O O10 0.682170 0.034322 0.532791
O O11 0.000000 0.065794 0.750000
O O12 0.000000 0.000000 0.000000
#
# Coordination Sequence:
#
# PCOD9230588 Si02
#       5
#     4   4   4   4   4
#     4  10  20  37  59  85 121 161 200 251 314 364
#     4   9  17  32  57  85 117 159 208 251 295 361
#     4  10  21  38  61  89 128 166 203 253 314 370
#     4   9  18  34  56  83 117 161 202 246 301 363
#     4  12  24  41  67  94 125 164 210 256 307 373
#
# _framework density 27.038036000000002
#
# number of rings (size 3 to 8) (size 9 to 14) (size 15 to 20)
#    0.000    2.000    0.000    6.000    0.000    1.600 
#    0.000    2.000    0.000    3.600    0.000    0.000 
#    0.000    0.000    0.000    0.000    0.000    0.000 
#
# Total GULP energy -111719.789082 kJ/mol
# GULP energy per Si atom -5585.989454 kJ/mol
# Density = 2.697650 g / cm^3
# Si number density = 27.038036 Si / 1000 Ang^3
#
#
#
# Elastic Constant Matrix: (Units=GPa)
#
#
# Indices 1 2 3 4 5 6 
#
# 1 84.8345 45.0978 25.9910 0.0000 19.2551 0.0000
# 2 45.0978 221.3216 17.7268 0.0000 18.4770 0.0000
# 3 25.9910 17.7268 105.0876 0.0000 16.4673 0.0000
# 4 0.0000 0.0000 0.0000 28.7155 0.0000 9.8994
# 5 19.2551 18.4770 16.4673 0.0000 32.3873 0.0000
# 6 0.0000 0.0000 0.0000 9.8994 0.0000 60.7091
#
#
#
# Elastic Compliance Matrix: (Units=1/GPa)
#
#
# Indices 1 2 3 4 5 6 
#
# 1 0.015249 -0.002375 -0.002350 0.000000 -0.006516 0.000000
# 2 -0.002375 0.005130 -0.000044 0.000000 -0.001492 0.000000
# 3 -0.002350 -0.000044 0.010737 0.000000 -0.004037 0.000000
# 4 0.000000 0.000000 0.000000 0.036899 0.000000 -0.006017
# 5 -0.006516 -0.001492 -0.004037 0.000000 0.037655 0.000000
# 6 0.000000 0.000000 0.000000 -0.006017 0.000000 0.017453
#
#
# Mechanical properties :
#
#
# Convention : Reuss Voigt Hill
#
# Bulk Modulus (GPa) = 46.34197 65.43053 55.88625
# Shear Modulus (GPa) = 35.75164 45.85759 40.80461
#
# Velocity S-wave (km/s) = 3.64025 4.12277 3.88900
# Velocity P-wave (km/s) = 5.90299 6.84945 6.39376
#
# Compressibility (1/GPa) = 0.02157871
#
# Stress axis : x y z
#
# Youngs Moduli (GPa) = 65.57741 194.91676 93.13503
#
# Poissons Ratio (x) = 0.46294 0.21885
# Poissons Ratio (y) = 0.15575 0.00411
# Poissons Ratio (z) = 0.15409 0.00861
#
# Static dielectric constant tensor:
#      x y z
#    x 2.247620 0.000000 0.005480 
#    y 0.000000 2.066040 0.000000 
#    z 0.005480 0.000000 2.031070 
# 
# From -- ./inp_files/28950.got.cif
#   From: 2010.05.17/outbox.cif.g08.bks.cpg/sg13_15_cif.got.tgz:28950.got - 2010.06.03 16:44:36.
