data_PCOD9230394
_publ_section_title
;
Structure prediction by ZEFSAII (Michael W. Deem and Ramdas Pophale) SiO2 
 PCOD9230394
Probable space group: P 2/C
;
_chemical_formula_sum "Si O2"
_cell_formula_units_Z 22
_cell_length_a 10.215316
_cell_length_b 11.790801
_cell_length_c 12.710752
_cell_angle_alpha 90.000000
_cell_angle_beta 136.288306
_cell_angle_gamma 90.000000
_cell_volume 1057.945348
_symmetry_space_group_name_H-M "P 2/C"
_symmetry_group_IT_number 13
_symmetry_cell_setting 'monoclinic'
loop_
_space_group_symop_operation_xyz
x,y,z
-x,y,1/2-z
-x,-y,-z
x,-y,1/2+z
loop_
_atom_site_type_symbol
_atom_site_label
_atom_site_fract_x
_atom_site_fract_y
_atom_site_fract_z
Si Si1 0.000000 0.690279 0.750000
Si Si2 0.789442 0.450570 0.965504
Si Si3 0.194592 0.680280 0.427347
Si Si4 0.357646 0.147404 0.472854
Si Si5 0.585558 0.648675 0.154325
Si Si6 0.613564 0.087315 0.422913
O O1 0.960038 0.609843 0.626674
O O2 0.817098 0.770209 0.652601
O O3 0.599769 0.422714 0.922921
O O4 0.745979 0.394837 0.827612
O O5 0.810961 0.585471 0.985302
O O6 0.347486 0.643640 0.426839
O O7 0.247152 0.805186 0.497617
O O8 0.000000 0.683031 0.250000
O O9 0.513812 0.221560 0.627455
O O10 0.461597 0.111932 0.426467
O O11 0.295312 0.033964 0.496518
O O12 0.500000 0.078962 0.250000
#
# Coordination Sequence:
#
# PCOD9230394 Si02
#       6
#     2   4   4   4   4   4
#     4  10  20  36  62  88 114 146 198 246 270 340
#     4  10  20  38  59  86 112 155 194 232 282 337
#     4  11  23  39  54  89 124 146 192 237 289 342
#     4   9  21  42  61  87 113 148 202 235 283 344
#     4   9  21  38  63  80 115 158 191 233 283 343
#     4  10  23  40  62  83 117 157 187 239 291 345
#
# _framework density 20.795026
#
# number of rings (size 3 to 8) (size 9 to 14) (size 15 to 20)
#    0.000    2.182    0.909    0.545    8.909    2.182 
#    0.000    0.909    0.000    0.000    0.000    0.000 
#    0.000    0.000    0.000    0.000    0.000    0.000 
#
# Total GULP energy -122810.044041 kJ/mol
# GULP energy per Si atom -5582.274729 kJ/mol
# Density = 2.074770 g / cm^3
# Si number density = 20.795026 Si / 1000 Ang^3
#
#
#
# Elastic Constant Matrix: (Units=GPa)
#
#
# Indices 1 2 3 4 5 6 
#
# 1 34.4284 14.1329 3.0475 0.0000 3.5298 0.0000
# 2 14.1329 172.5188 65.9714 0.0000 -9.0375 0.0000
# 3 3.0475 65.9714 105.5870 0.0000 -10.7406 0.0000
# 4 0.0000 0.0000 0.0000 11.6302 0.0000 5.1698
# 5 3.5298 -9.0375 -10.7406 0.0000 19.2156 0.0000
# 6 0.0000 0.0000 0.0000 5.1698 0.0000 17.1740
#
#
#
# Elastic Compliance Matrix: (Units=1/GPa)
#
#
# Indices 1 2 3 4 5 6 
#
# 1 0.030968 -0.003007 0.000279 0.000000 -0.006947 0.000000
# 2 -0.003007 0.007926 -0.004697 0.000000 0.001655 0.000000
# 3 0.000279 -0.004697 0.012901 0.000000 0.004951 0.000000
# 4 0.000000 0.000000 0.000000 0.099266 0.000000 -0.029881
# 5 -0.006947 0.001655 0.004951 0.000000 0.056863 0.000000
# 6 0.000000 0.000000 0.000000 -0.029881 0.000000 0.067223
#
#
# Mechanical properties :
#
#
# Convention : Reuss Voigt Hill
#
# Bulk Modulus (GPa) = 27.06857 53.20418 40.13638
# Shear Modulus (GPa) = 16.53922 24.89611 20.71766
#
# Velocity S-wave (km/s) = 2.82325 3.46383 3.15981
# Velocity P-wave (km/s) = 4.86546 6.45276 5.71449
#
# Compressibility (1/GPa) = 0.03694321
#
# Stress axis : x y z
#
# Youngs Moduli (GPa) = 32.29144 126.17348 77.51302
#
# Poissons Ratio (x) = 0.37945 -0.02159
# Poissons Ratio (y) = 0.09711 0.36407
# Poissons Ratio (z) = -0.00899 0.59262
#
# Static dielectric constant tensor:
#      x y z
#    x 1.768260 0.000000 0.000440 
#    y 0.000000 1.769210 0.000000 
#    z 0.000440 0.000000 1.728940 
# 
# From -- ./inp_files/34066.got.cif
#   From: 2010.05.17/outbox.cif.g08.bks.cpg/sg13_18_cif.got.tgz:34066.got - 2010.06.03 16:44:36.
