data_PCOD9230353
_publ_section_title
;
Structure prediction by ZEFSAII (Michael W. Deem and Ramdas Pophale) SiO2 
 PCOD9230353
Probable space group: P 2/C
;
_chemical_formula_sum "Si O2"
_cell_formula_units_Z 30
_cell_length_a 16.038250
_cell_length_b 5.486446
_cell_length_c 25.955370
_cell_angle_alpha 90.000000
_cell_angle_beta 143.052155
_cell_angle_gamma 90.000000
_cell_volume 1372.818812
_symmetry_space_group_name_H-M "P 2/C"
_symmetry_group_IT_number 13
_symmetry_cell_setting 'monoclinic'
loop_
_space_group_symop_operation_xyz
x,y,z
-x,y,1/2-z
-x,-y,-z
x,-y,1/2+z
loop_
_atom_site_type_symbol
_atom_site_label
_atom_site_fract_x
_atom_site_fract_y
_atom_site_fract_z
Si Si1 0.416102 0.403050 0.115973
Si Si2 0.003416 0.051090 0.314236
Si Si3 0.331321 0.764546 0.241871
Si Si4 0.453135 0.031299 0.393310
Si Si5 0.500000 0.938628 0.750000
Si Si6 0.272597 0.718374 0.974935
Si Si7 0.349915 0.594832 0.910773
Si Si8 0.144851 0.555369 0.224997
O O1 0.536675 0.590225 0.188920
O O2 0.463821 0.261402 0.088498
O O3 0.426086 0.217142 0.168299
O O4 0.282695 0.556696 0.031418
O O5 0.927405 0.295040 0.299429
O O6 0.000000 0.066586 0.250000
O O7 0.156682 0.076737 0.414472
O O8 0.941549 0.790844 0.300099
O O9 0.198280 0.606859 0.192940
O O10 0.347111 0.959184 0.295966
O O11 0.371289 0.907559 0.210043
O O12 0.371350 0.124910 0.402595
O O13 0.574295 0.833851 0.457332
O O14 0.251494 0.569431 0.911566
O O15 0.281394 0.457412 0.829025
O O16 0.500000 0.500000 0.000000
#
# Coordination Sequence:
#
# PCOD9230353 Si02
#       8
#     4   4   4   4   2   4   4   4
#     4  10  20  39  65  98 131 162 217 286 362 422
#     4  12  28  43  64  90 140 204 246 269 313 388
#     4  10  21  40  63 101 128 165 219 284 367 414
#     4  10  20  36  60  95 131 171 216 283 349 406
#     4  10  22  38  74 100 130 164 208 300 384 440
#     4  11  24  38  61  94 137 186 235 275 331 413
#     4  12  21  36  62  96 133 179 216 289 342 405
#     4  12  26  44  64  94 141 187 238 280 323 405
#
# _framework density 21.852847000000001
#
# number of rings (size 3 to 8) (size 9 to 14) (size 15 to 20)
#    0.000    1.067    4.000    2.800    5.600    0.000 
#    0.000    0.000    0.000    1.600    0.000    0.000 
#    0.000    0.000    0.000    0.000    0.000    0.000 
#
# Total GULP energy -167360.948160 kJ/mol
# GULP energy per Si atom -5578.698272 kJ/mol
# Density = 2.180311 g / cm^3
# Si number density = 21.852847 Si / 1000 Ang^3
#
#
#
# Elastic Constant Matrix: (Units=GPa)
#
#
# Indices 1 2 3 4 5 6 
#
# 1 97.4568 36.6250 19.7188 0.0000 -14.4624 0.0000
# 2 36.6250 92.8857 13.2437 0.0000 -3.7040 0.0000
# 3 19.7188 13.2437 42.5058 0.0000 5.7395 0.0000
# 4 0.0000 0.0000 0.0000 34.2246 0.0000 -1.4115
# 5 -14.4624 -3.7040 5.7395 0.0000 27.1197 0.0000
# 6 0.0000 0.0000 0.0000 -1.4115 0.0000 30.6211
#
#
#
# Elastic Compliance Matrix: (Units=1/GPa)
#
#
# Indices 1 2 3 4 5 6 
#
# 1 0.014511 -0.004457 -0.006491 0.000000 0.008504 0.000000
# 2 -0.004457 0.012783 -0.001884 0.000000 -0.000232 0.000000
# 3 -0.006491 -0.001884 0.028439 0.000000 -0.009738 0.000000
# 4 0.000000 0.000000 0.000000 0.029274 0.000000 0.001349
# 5 0.008504 -0.000232 -0.009738 0.000000 0.043438 0.000000
# 6 0.000000 0.000000 0.000000 0.001349 0.000000 0.032719
#
#
# Mechanical properties :
#
#
# Convention : Reuss Voigt Hill
#
# Bulk Modulus (GPa) = 33.25693 41.33594 37.29643
# Shear Modulus (GPa) = 25.39975 29.27715 27.33845
#
# Velocity S-wave (km/s) = 3.41296 3.66422 3.54082
# Velocity P-wave (km/s) = 5.54822 6.07113 5.81555
#
# Compressibility (1/GPa) = 0.03006893
#
# Stress axis : x y z
#
# Youngs Moduli (GPa) = 68.91148 78.23070 35.16246
#
# Poissons Ratio (x) = 0.34869 0.22825
# Poissons Ratio (y) = 0.30715 0.06623
# Poissons Ratio (z) = 0.44733 0.14736
#
# Static dielectric constant tensor:
#      x y z
#    x 1.839440 0.000000 0.010640 
#    y 0.000000 1.918290 0.000000 
#    z 0.010640 0.000000 1.837620 
# 
# From -- ./inp_files/92668.got.cif
#   From: 2010.05.17/outbox.cif.g08.bks.cpg/sg13_47_cif.got.tgz:92668.got - 2010.06.03 16:44:36.
