data_PCOD9230680
_publ_section_title
;
Structure prediction by ZEFSAII (Michael W. Deem and Ramdas Pophale) SiO2 
 PCOD9230680
Probable space group: P 2/C
;
_chemical_formula_sum "Si O2"
_cell_formula_units_Z 32
_cell_length_a 15.903604
_cell_length_b 21.874472
_cell_length_c 9.390333
_cell_angle_alpha 90.000000
_cell_angle_beta 149.097521
_cell_angle_gamma 90.000000
_cell_volume 1677.725310
_symmetry_space_group_name_H-M "P 2/C"
_symmetry_group_IT_number 13
_symmetry_cell_setting 'monoclinic'
loop_
_space_group_symop_operation_xyz
x,y,z
-x,y,1/2-z
-x,-y,-z
x,-y,1/2+z
loop_
_atom_site_type_symbol
_atom_site_label
_atom_site_fract_x
_atom_site_fract_y
_atom_site_fract_z
Si Si1 0.622903 0.984513 0.054945
Si Si2 0.874774 0.872264 0.437210
Si Si3 0.826643 0.336065 0.575020
Si Si4 0.830416 0.535776 0.251374
Si Si5 0.333241 0.247811 0.922851
Si Si6 0.639739 0.455627 0.761325
Si Si7 0.931174 0.943655 0.991285
Si Si8 0.497077 0.678327 0.083623
O O1 0.746196 0.928516 0.265032
O O2 0.737837 0.044335 0.200565
O O3 0.500000 0.968536 0.750000
O O4 0.500000 0.000000 0.000000
O O5 0.772272 0.810920 0.271009
O O6 0.988971 0.884962 0.465596
O O7 0.000000 0.871611 0.750000
O O8 0.832578 0.403601 0.655709
O O9 0.772785 0.291023 0.625590
O O10 0.000000 0.323629 0.750000
O O11 0.682938 0.329267 0.248316
O O12 0.772262 0.550087 0.326659
O O13 0.000000 0.500000 0.500000
O O14 0.708344 0.488233 0.000069
O O15 0.394959 0.282648 0.870962
O O16 0.500000 0.230912 0.250000
O O17 0.500000 0.500000 0.500000
O O18 0.573221 0.389089 0.697932
O O19 0.000000 0.948949 0.250000
O O20 0.000000 0.000000 0.000000
O O21 0.500000 0.702763 0.250000
#
# Coordination Sequence:
#
# PCOD9230680 Si02
#       8
#     4   4   4   4   4   4   4   4
#     4  11  20  35  62  98 131 168 209 259 313 366
#     4  11  23  42  63  92 131 172 219 266 322 385
#     4  11  24  44  65  90 128 162 212 266 331 389
#     4  12  25  41  58  96 128 163 201 266 323 400
#     4  10  24  47  69  88 124 177 224 272 329 398
#     4  12  23  39  65  92 127 160 209 256 333 398
#     4  10  20  37  61  93 136 175 212 264 323 376
#     4  11  24  44  67  93 122 166 213 272 327 401
#
# _framework density 19.073443999999999
#
# number of rings (size 3 to 8) (size 9 to 14) (size 15 to 20)
#    0.000    1.000    2.500    6.375    1.750    1.500 
#    0.000    4.375    0.000    0.000    0.000    0.000 
#    0.000    0.000    0.000    0.000    0.000    0.000 
#
# Total GULP energy -178720.498976 kJ/mol
# GULP energy per Si atom -5585.015593 kJ/mol
# Density = 1.903003 g / cm^3
# Si number density = 19.073444 Si / 1000 Ang^3
#
#
#
# Elastic Constant Matrix: (Units=GPa)
#
#
# Indices 1 2 3 4 5 6 
#
# 1 155.9040 49.2542 61.9949 0.0000 4.2333 0.0000
# 2 49.2542 107.5154 75.2942 0.0000 4.4694 0.0000
# 3 61.9949 75.2942 124.6902 0.0000 2.8447 0.0000
# 4 0.0000 0.0000 0.0000 50.3087 0.0000 0.2490
# 5 4.2333 4.4694 2.8447 0.0000 45.4368 0.0000
# 6 0.0000 0.0000 0.0000 0.2490 0.0000 30.3254
#
#
#
# Elastic Compliance Matrix: (Units=1/GPa)
#
#
# Indices 1 2 3 4 5 6 
#
# 1 0.008149 -0.001534 -0.003116 0.000000 -0.000413 0.000000
# 2 -0.001534 0.016448 -0.009149 0.000000 -0.000902 0.000000
# 3 -0.003116 -0.009149 0.015088 0.000000 0.000246 0.000000
# 4 0.000000 0.000000 0.000000 0.019878 0.000000 -0.000163
# 5 -0.000413 -0.000902 0.000246 0.000000 0.022120 0.000000
# 6 0.000000 0.000000 0.000000 -0.000163 0.000000 0.032977
#
#
# Mechanical properties :
#
#
# Convention : Reuss Voigt Hill
#
# Bulk Modulus (GPa) = 82.72875 84.57734 83.65305
# Shear Modulus (GPa) = 34.17899 38.65194 36.41546
#
# Velocity S-wave (km/s) = 4.23776 4.50653 4.37421
# Velocity P-wave (km/s) = 8.21052 8.45681 8.33458
#
# Compressibility (1/GPa) = 0.01208770
#
# Stress axis : x y z
#
# Youngs Moduli (GPa) = 122.71315 60.79595 66.27656
#
# Poissons Ratio (x) = 0.09325 0.20652
# Poissons Ratio (y) = 0.18822 0.60638
# Poissons Ratio (z) = 0.38238 0.55624
#
# Static dielectric constant tensor:
#      x y z
#    x 1.771600 0.000000 0.118590 
#    y 0.000000 1.643260 0.000000 
#    z 0.118590 0.000000 1.773580 
# 
# From -- ./inp_files/20236.got.cif
#   From: 2010.05.17/outbox.cif.g08.bks.cpg/sg13_11_cif.got.tgz:20236.got - 2010.06.03 16:44:36.
