data_PCOD9230987
_publ_section_title
;
Structure prediction by ZEFSAII (Michael W. Deem and Ramdas Pophale) SiO2 
 PCOD9230987
Probable space group: P 2/C
;
_chemical_formula_sum "Si O2"
_cell_formula_units_Z 18
_cell_length_a 7.098189
_cell_length_b 20.673060
_cell_length_c 7.843920
_cell_angle_alpha 90.000000
_cell_angle_beta 139.346490
_cell_angle_gamma 90.000000
_cell_volume 749.874511
_symmetry_space_group_name_H-M "P 2/C"
_symmetry_group_IT_number 13
_symmetry_cell_setting 'monoclinic'
loop_
_space_group_symop_operation_xyz
x,y,z
-x,y,1/2-z
-x,-y,-z
x,-y,1/2+z
loop_
_atom_site_type_symbol
_atom_site_label
_atom_site_fract_x
_atom_site_fract_y
_atom_site_fract_z
Si Si1 0.343845 0.269719 0.462343
Si Si2 0.631484 0.870288 0.652643
Si Si3 0.500000 0.503182 0.250000
Si Si4 0.128277 0.068171 0.649611
Si Si5 0.280075 0.406941 0.320829
O O1 0.447846 0.201823 0.458446
O O2 0.383304 0.333467 0.373573
O O3 0.000000 0.262919 0.250000
O O4 0.500000 0.281573 0.750000
O O5 0.500000 0.881299 0.750000
O O6 0.469165 0.920361 0.414413
O O7 0.972935 0.881002 0.917070
O O8 0.253528 0.450153 0.132452
O O9 0.506227 0.552406 0.411907
O O10 0.000000 0.078314 0.750000
O O11 0.000000 0.000000 0.500000
O O12 0.000000 0.405538 0.250000
#
# Coordination Sequence:
#
# PCOD9230987 Si02
#       5
#     4   4   2   4   4
#     4  11  23  40  61  89 124 161 206 257 306 369
#     4  10  22  39  60  85 123 157 200 246 301 367
#     4  10  20  38  62  86 122 166 206 266 330 368
#     4  10  21  38  60  89 119 154 198 249 298 361
#     4  10  21  37  60  88 124 160 216 263 317 381
#
# _framework density 24.004017000000001
#
# number of rings (size 3 to 8) (size 9 to 14) (size 15 to 20)
#    0.000    1.778    1.111    2.667    1.556    2.667 
#    0.000    0.000    0.000    0.000    0.000    0.000 
#    0.000    0.000    0.000    0.000    0.000    0.000 
#
# Total GULP energy -100397.206061 kJ/mol
# GULP energy per Si atom -5577.622559 kJ/mol
# Density = 2.394938 g / cm^3
# Si number density = 24.004017 Si / 1000 Ang^3
#
#
#
# Elastic Constant Matrix: (Units=GPa)
#
#
# Indices 1 2 3 4 5 6 
#
# 1 49.1953 -0.0455 26.5986 0.0000 -16.7914 0.0000
# 2 -0.0455 166.8716 42.7756 0.0000 -10.8233 0.0000
# 3 26.5986 42.7756 128.2871 0.0000 7.8698 0.0000
# 4 0.0000 0.0000 0.0000 76.7415 0.0000 -17.5694
# 5 -16.7914 -10.8233 7.8698 0.0000 34.1877 0.0000
# 6 0.0000 0.0000 0.0000 -17.5694 0.0000 46.9640
#
#
#
# Elastic Compliance Matrix: (Units=1/GPa)
#
#
# Indices 1 2 3 4 5 6 
#
# 1 0.031433 0.003472 -0.008814 0.000000 0.018567 0.000000
# 2 0.003472 0.007175 -0.003404 0.000000 0.004761 0.000000
# 3 -0.008814 -0.003404 0.011248 0.000000 -0.007996 0.000000
# 4 0.000000 0.000000 0.000000 0.014251 0.000000 0.005331
# 5 0.018567 0.004761 -0.007996 0.000000 0.041717 0.000000
# 6 0.000000 0.000000 0.000000 0.005331 0.000000 0.023287
#
#
# Mechanical properties :
#
#
# Convention : Reuss Voigt Hill
#
# Bulk Modulus (GPa) = 30.89868 53.66795 42.28332
# Shear Modulus (GPa) = 31.76781 49.91367 40.84074
#
# Velocity S-wave (km/s) = 3.64185 4.56498 4.12929
# Velocity P-wave (km/s) = 5.53031 7.08462 6.35516
#
# Compressibility (1/GPa) = 0.03236384
#
# Stress axis : x y z
#
# Youngs Moduli (GPa) = 31.81377 139.37257 88.90380
#
# Poissons Ratio (x) = -0.48392 0.78359
# Poissons Ratio (y) = -0.11046 0.30266
# Poissons Ratio (z) = 0.28040 0.47447
#
# Static dielectric constant tensor:
#      x y z
#    x 1.999830 0.000000 0.012520 
#    y 0.000000 1.934610 0.000000 
#    z 0.012520 0.000000 1.977450 
# 
# From -- ./inp_files/13596.got.cif
#   From: 2010.05.17/outbox.cif.g08.bks.cpg/sg13_7_cif.got.tgz:13596.got - 2010.06.03 16:44:36.
