data_PCOD9230563
_publ_section_title
;
Structure prediction by ZEFSAII (Michael W. Deem and Ramdas Pophale) SiO2 
 PCOD9230563
Probable space group: P 2/C
;
_chemical_formula_sum "Si O2"
_cell_formula_units_Z 30
_cell_length_a 26.750802
_cell_length_b 6.160721
_cell_length_c 30.770244
_cell_angle_alpha 90.000000
_cell_angle_beta 16.838472
_cell_angle_gamma 90.000000
_cell_volume 1468.958779
_symmetry_space_group_name_H-M "P 2/C"
_symmetry_group_IT_number 13
_symmetry_cell_setting 'monoclinic'
loop_
_space_group_symop_operation_xyz
x,y,z
-x,y,1/2-z
-x,-y,-z
x,-y,1/2+z
loop_
_atom_site_type_symbol
_atom_site_label
_atom_site_fract_x
_atom_site_fract_y
_atom_site_fract_z
Si Si1 0.467996 0.868849 0.202108
Si Si2 0.628348 0.741025 0.777287
Si Si3 0.140586 0.447838 0.271326
Si Si4 0.114792 0.889630 0.867103
Si Si5 0.377459 0.796036 0.118324
Si Si6 0.398160 0.624257 0.488730
Si Si7 0.500000 0.174499 0.250000
Si Si8 0.238235 0.519365 0.916684
O O1 0.588037 0.728734 0.070410
O O2 0.325505 0.719710 0.344781
O O3 0.381196 0.034979 0.240493
O O4 0.560489 0.017547 0.160764
O O5 0.731676 0.772536 0.734934
O O6 0.447599 0.627717 0.939094
O O7 0.729443 0.584710 0.660459
O O8 0.069794 0.285720 0.367871
O O9 0.309517 0.585647 0.147590
O O10 0.961598 0.557574 0.406689
O O11 0.222070 0.336643 0.160964
O O12 0.193457 0.091859 0.776938
O O13 0.000000 0.000000 0.000000
O O14 0.457159 0.719816 0.098118
O O15 0.500000 0.000000 0.000000
O O16 0.645743 0.326480 0.149590
#
# Coordination Sequence:
#
# PCOD9230563 Si02
#       8
#     4   4   4   4   4   4   2   4
#     4  10  21  41  71  93 117 164 217 266 331 402
#     4  10  20  37  58  88 125 170 215 251 309 382
#     4  12  25  38  59  99 142 170 218 267 309 390
#     4  12  23  34  57  89 133 179 220 259 308 369
#     4  12  23  39  58  89 140 191 216 244 310 384
#     4  11  22  38  61  91 131 179 214 252 307 390
#     4  10  22  46  74  90 116 154 216 280 344 390
#     4  10  23  41  66  96 121 160 207 277 332 381
#
# _framework density 20.422629000000001
#
# number of rings (size 3 to 8) (size 9 to 14) (size 15 to 20)
#    0.000    1.067    4.000    3.200    1.867    2.133 
#    0.000    0.000    0.000   19.200    0.000    0.000 
#    0.000    0.000    0.000    0.000    0.000    0.000 
#
# Total GULP energy -167035.577828 kJ/mol
# GULP energy per Si atom -5567.852594 kJ/mol
# Density = 2.037615 g / cm^3
# Si number density = 20.422629 Si / 1000 Ang^3
#
#
#
# Elastic Constant Matrix: (Units=GPa)
#
#
# Indices 1 2 3 4 5 6 
#
# 1 91.3619 26.2564 29.4146 0.0000 2.7232 0.0000
# 2 26.2564 76.2269 31.2721 0.0000 4.6570 0.0000
# 3 29.4146 31.2721 92.7074 0.0000 14.4737 0.0000
# 4 0.0000 0.0000 0.0000 17.6977 0.0000 6.9264
# 5 2.7232 4.6570 14.4737 0.0000 15.9659 0.0000
# 6 0.0000 0.0000 0.0000 6.9264 0.0000 38.6078
#
#
#
# Elastic Compliance Matrix: (Units=1/GPa)
#
#
# Indices 1 2 3 4 5 6 
#
# 1 0.012866 -0.003194 -0.003270 0.000000 0.001702 0.000000
# 2 -0.003194 0.016019 -0.004363 0.000000 -0.000172 0.000000
# 3 -0.003270 -0.004363 0.015155 0.000000 -0.011908 0.000000
# 4 0.000000 0.000000 0.000000 0.060771 0.000000 -0.010903
# 5 0.001702 -0.000172 -0.011908 0.000000 0.073189 0.000000
# 6 0.000000 0.000000 0.000000 -0.010903 0.000000 0.027858
#
#
# Mechanical properties :
#
#
# Convention : Reuss Voigt Hill
#
# Bulk Modulus (GPa) = 44.67286 48.24248 46.45767
# Shear Modulus (GPa) = 21.27882 26.01114 23.64498
#
# Velocity S-wave (km/s) = 3.23139 3.57269 3.40631
# Velocity P-wave (km/s) = 5.98700 6.37904 6.18612
#
# Compressibility (1/GPa) = 0.02238496
#
# Stress axis : x y z
#
# Youngs Moduli (GPa) = 77.72691 62.42397 65.98343
#
# Poissons Ratio (x) = 0.19937 0.21579
# Poissons Ratio (y) = 0.24825 0.28792
# Poissons Ratio (z) = 0.25420 0.27238
#
# Static dielectric constant tensor:
#      x y z
#    x 1.571210 0.000000 0.099060 
#    y 0.000000 1.456880 0.000000 
#    z 0.099060 0.000000 1.752110 
# 
# From -- ./inp_files/97806.got.cif
#   From: 2010.05.17/outbox.cif.g08.bks.cpg/sg13_49_cif.got.tgz:97806.got - 2010.06.03 16:44:36.
