data_PCOD9230815
_publ_section_title
;
Structure prediction by ZEFSAII (Michael W. Deem and Ramdas Pophale) SiO2 
 PCOD9230815
Probable space group: P 2/C
;
_chemical_formula_sum "Si O2"
_cell_formula_units_Z 22
_cell_length_a 13.987778
_cell_length_b 8.480528
_cell_length_c 20.125043
_cell_angle_alpha 90.000000
_cell_angle_beta 21.238083
_cell_angle_gamma 90.000000
_cell_volume 864.788406
_symmetry_space_group_name_H-M "P 2/C"
_symmetry_group_IT_number 13
_symmetry_cell_setting 'monoclinic'
loop_
_space_group_symop_operation_xyz
x,y,z
-x,y,1/2-z
-x,-y,-z
x,-y,1/2+z
loop_
_atom_site_type_symbol
_atom_site_label
_atom_site_fract_x
_atom_site_fract_y
_atom_site_fract_z
Si Si1 0.500000 0.523358 0.250000
Si Si2 0.692149 0.360268 0.487183
Si Si3 0.973655 0.170323 0.140521
Si Si4 0.500000 0.993153 0.750000
Si Si5 0.759021 0.159729 0.781215
Si Si6 0.162328 0.742201 0.909988
Si Si7 0.000000 0.341232 0.750000
O O1 0.456000 0.617432 0.345783
O O2 0.741312 0.408258 0.111997
O O3 0.958121 0.275793 0.341035
O O4 0.509469 0.254563 0.558433
O O5 0.759967 0.537197 0.420043
O O6 0.897123 0.280165 0.128297
O O7 0.766462 0.029101 0.285846
O O8 0.249544 0.085896 0.940184
O O9 0.390885 0.874567 0.764746
O O10 0.921456 0.186624 0.607500
O O11 0.917831 0.236625 0.739984
#
# Coordination Sequence:
#
# PCOD9230815 Si02
#       7
#     2   4   4   2   4   4   2
#     4  11  23  40  72 108 144 178 228 294 354 404
#     4  12  26  45  72 104 137 184 235 284 351 416
#     4  11  22  40  71 106 138 176 234 293 350 405
#     4   9  17  34  58 104 138 170 208 286 344 406
#     4  11  24  47  70  99 144 189 228 287 343 413
#     4  10  20  37  69 107 139 172 229 289 354 404
#     4  12  28  50  66 102 144 192 230 280 342 422
#
# _framework density 25.439748999999999
#
# number of rings (size 3 to 8) (size 9 to 14) (size 15 to 20)
#    0.000    1.091    1.818    6.545    2.545    2.182 
#    0.000    1.818    0.000    0.000    0.000    0.000 
#    0.000    0.000    0.000    0.000    0.000    0.000 
#
# Total GULP energy -123247.615565 kJ/mol
# GULP energy per Si atom -5602.164344 kJ/mol
# Density = 2.538185 g / cm^3
# Si number density = 25.439749 Si / 1000 Ang^3
#
#
#
# Elastic Constant Matrix: (Units=GPa)
#
#
# Indices 1 2 3 4 5 6 
#
# 1 166.3790 37.6593 0.3485 0.0000 -12.8045 0.0000
# 2 37.6593 98.0810 -6.0767 0.0000 -8.0426 0.0000
# 3 0.3485 -6.0767 54.8552 0.0000 -4.8653 0.0000
# 4 0.0000 0.0000 0.0000 20.7887 0.0000 10.7701
# 5 -12.8045 -8.0426 -4.8653 0.0000 36.3186 0.0000
# 6 0.0000 0.0000 0.0000 10.7701 0.0000 36.2182
#
#
#
# Elastic Compliance Matrix: (Units=1/GPa)
#
#
# Indices 1 2 3 4 5 6 
#
# 1 0.006700 -0.002434 -0.000152 0.000000 0.001803 0.000000
# 2 -0.002434 0.011371 0.001439 0.000000 0.001853 0.000000
# 3 -0.000152 0.001439 0.018635 0.000000 0.002761 0.000000
# 4 0.000000 0.000000 0.000000 0.056863 0.000000 -0.016909
# 5 0.001803 0.001853 0.002761 0.000000 0.028950 0.000000
# 6 0.000000 0.000000 0.000000 -0.016909 0.000000 0.032639
#
#
# Mechanical properties :
#
#
# Convention : Reuss Voigt Hill
#
# Bulk Modulus (GPa) = 29.05900 42.57526 35.81713
# Shear Modulus (GPa) = 29.59911 37.82405 33.71158
#
# Velocity S-wave (km/s) = 3.41471 3.86010 3.64422
# Velocity P-wave (km/s) = 5.19562 6.05303 5.64064
#
# Compressibility (1/GPa) = 0.03441274
#
# Stress axis : x y z
#
# Youngs Moduli (GPa) = 149.24398 87.93958 53.66196
#
# Poissons Ratio (x) = 0.21407 0.00817
# Poissons Ratio (y) = 0.36331 -0.07725
# Poissons Ratio (z) = 0.02273 -0.12659
#
# Static dielectric constant tensor:
#      x y z
#    x 1.942460 0.000000 0.004010 
#    y 0.000000 1.996240 0.000000 
#    z 0.004010 0.000000 2.111470 
# 
# From -- ./inp_files/87256.got.cif
#   From: 2010.05.17/outbox.cif.g08.bks.cpg/sg13_44_cif.got.tgz:87256.got - 2010.06.03 16:44:36.
