data_PCOD9230687
_publ_section_title
;
Structure prediction by ZEFSAII (Michael W. Deem and Ramdas Pophale) SiO2 
 PCOD9230687
Probable space group: P 2/C
;
_chemical_formula_sum "Si O2"
_cell_formula_units_Z 18
_cell_length_a 24.789746
_cell_length_b 7.130270
_cell_length_c 11.213286
_cell_angle_alpha 90.000000
_cell_angle_beta 154.703164
_cell_angle_gamma 90.000000
_cell_volume 846.938570
_symmetry_space_group_name_H-M "P 2/C"
_symmetry_group_IT_number 13
_symmetry_cell_setting 'monoclinic'
loop_
_space_group_symop_operation_xyz
x,y,z
-x,y,1/2-z
-x,-y,-z
x,-y,1/2+z
loop_
_atom_site_type_symbol
_atom_site_label
_atom_site_fract_x
_atom_site_fract_y
_atom_site_fract_z
Si Si1 0.571500 0.034414 0.268453
Si Si2 0.760578 0.660102 0.147070
Si Si3 0.187808 0.779241 0.728788
Si Si4 0.076105 0.284151 0.753082
Si Si5 0.000000 0.638538 0.750000
O O1 0.500000 0.986752 0.250000
O O2 0.625226 0.245879 0.389387
O O3 0.698821 0.913064 0.514752
O O4 0.500000 0.000000 0.000000
O O5 0.762679 0.435547 0.164963
O O6 0.819266 0.709237 0.137037
O O7 0.869903 0.736799 0.455517
O O8 0.137182 0.804462 0.493014
O O9 0.059840 0.803937 0.550278
O O10 0.036399 0.495489 0.715341
#
# Coordination Sequence:
#
# PCOD9230687 Si02
#       5
#     4   4   4   4   2
#     4  12  28  42  56  84 118 162 210 232 266 344
#     4  10  20  37  62  86 114 147 189 243 293 345
#     4   9  20  38  60  86 119 147 183 245 300 341
#     4   8  16  35  62  91 114 141 181 239 313 357
#     4   8  16  30  60  94 112 136 184 238 306 362
#
# _framework density 21.253015999999999
#
# number of rings (size 3 to 8) (size 9 to 14) (size 15 to 20)
#    0.000    3.111    0.000    4.000    0.000    9.778 
#    0.000    0.000    0.000    0.000    0.000    0.000 
#    0.000    0.000    0.000    0.000    0.000    0.000 
#
# Total GULP energy -100368.612983 kJ/mol
# GULP energy per Si atom -5576.034055 kJ/mol
# Density = 2.120464 g / cm^3
# Si number density = 21.253016 Si / 1000 Ang^3
#
#
#
# Elastic Constant Matrix: (Units=GPa)
#
#
# Indices 1 2 3 4 5 6 
#
# 1 92.0568 6.8527 28.7762 0.0000 3.4652 0.0000
# 2 6.8527 65.8410 34.4386 0.0000 2.9297 0.0000
# 3 28.7762 34.4386 133.6739 0.0000 -8.6763 0.0000
# 4 0.0000 0.0000 0.0000 39.8452 0.0000 14.0777
# 5 3.4652 2.9297 -8.6763 0.0000 23.8210 0.0000
# 6 0.0000 0.0000 0.0000 14.0777 0.0000 11.7150
#
#
#
# Elastic Compliance Matrix: (Units=1/GPa)
#
#
# Indices 1 2 3 4 5 6 
#
# 1 0.011822 0.000370 -0.002822 0.000000 -0.002793 0.000000
# 2 0.000370 0.017926 -0.004962 0.000000 -0.004066 0.000000
# 3 -0.002822 -0.004962 0.009661 0.000000 0.004540 0.000000
# 4 0.000000 0.000000 0.000000 0.043614 0.000000 -0.052410
# 5 -0.002793 -0.004066 0.004540 0.000000 0.044540 0.000000
# 6 0.000000 0.000000 0.000000 -0.052410 0.000000 0.148341
#
#
# Mechanical properties :
#
#
# Convention : Reuss Voigt Hill
#
# Bulk Modulus (GPa) = 40.67976 47.96738 44.32357
# Shear Modulus (GPa) = 16.72658 29.84318 23.28488
#
# Velocity S-wave (km/s) = 2.80843 3.75131 3.31358
# Velocity P-wave (km/s) = 5.44965 6.43287 5.96156
#
# Compressibility (1/GPa) = 0.02458225
#
# Stress axis : x y z
#
# Youngs Moduli (GPa) = 84.58472 55.78559 103.50647
#
# Poissons Ratio (x) = -0.02062 0.29205
# Poissons Ratio (y) = -0.03127 0.51357
# Poissons Ratio (z) = 0.23866 0.27679
#
# Static dielectric constant tensor:
#      x y z
#    x 1.831630 0.000000 -0.027280 
#    y 0.000000 1.857620 0.000000 
#    z -0.027280 0.000000 1.785750 
# 
# From -- ./inp_files/42229.got.cif
#   From: 2010.05.17/outbox.cif.g08.bks.cpg/sg13_22_cif.got.tgz:42229.got - 2010.06.03 16:44:36.
