data_PCOD9230791
_publ_section_title
;
Structure prediction by ZEFSAII (Michael W. Deem and Ramdas Pophale) SiO2 
 PCOD9230791
Probable space group: P 2/C
;
_chemical_formula_sum "Si O2"
_cell_formula_units_Z 28
_cell_length_a 21.820408
_cell_length_b 10.329756
_cell_length_c 18.726623
_cell_angle_alpha 90.000000
_cell_angle_beta 18.578202
_cell_angle_gamma 90.000000
_cell_volume 1344.796008
_symmetry_space_group_name_H-M "P 2/C"
_symmetry_group_IT_number 13
_symmetry_cell_setting 'monoclinic'
loop_
_space_group_symop_operation_xyz
x,y,z
-x,y,1/2-z
-x,-y,-z
x,-y,1/2+z
loop_
_atom_site_type_symbol
_atom_site_label
_atom_site_fract_x
_atom_site_fract_y
_atom_site_fract_z
Si Si1 0.419790 0.119810 0.681760
Si Si2 0.224291 0.229318 0.630392
Si Si3 0.229107 0.052667 0.495741
Si Si4 0.214063 0.299400 0.413121
Si Si5 0.780353 0.041464 0.739589
Si Si6 0.487036 0.475044 0.341777
Si Si7 0.576710 0.624070 0.958167
O O1 0.287162 0.056953 0.766910
O O2 0.427817 0.269780 0.651930
O O3 0.336232 0.073757 0.849220
O O4 0.633034 0.060810 0.436935
O O5 0.274589 0.110319 0.522816
O O6 0.233094 0.174303 0.700663
O O7 0.372643 0.342906 0.456931
O O8 0.015971 0.285460 0.837745
O O9 0.274124 0.169859 0.390012
O O10 0.000000 0.029868 0.750000
O O11 0.310500 0.422955 0.347368
O O12 0.290371 0.305576 0.247284
O O13 0.000000 0.000000 0.500000
O O14 0.500000 0.539380 0.250000
O O15 0.360656 0.558959 0.536740
O O16 0.500000 0.500000 0.000000
#
# Coordination Sequence:
#
# PCOD9230791 Si02
#       7
#     4   4   4   4   4   4   4
#     4  11  22  40  62  88 135 166 198 271 325 365
#     4  11  22  37  67  93 123 161 210 264 312 382
#     4  10  20  37  65  95 123 164 208 262 329 385
#     4  10  20  39  64  94 125 155 208 267 318 373
#     4  11  22  37  63 100 124 159 210 261 327 388
#     4  11  22  39  63  90 122 168 220 254 306 378
#     4  10  22  41  64  87 124 174 211 254 309 373
#
# _framework density 20.821002
#
# number of rings (size 3 to 8) (size 9 to 14) (size 15 to 20)
#    0.000    1.429    1.429    6.857    0.000    0.571 
#    2.571    2.857    6.286    0.000    0.000    0.000 
#    0.000    0.000    0.000    0.000    0.000    0.000 
#
# Total GULP energy -156248.623557 kJ/mol
# GULP energy per Si atom -5580.307984 kJ/mol
# Density = 2.077361 g / cm^3
# Si number density = 20.821002 Si / 1000 Ang^3
#
#
#
# Elastic Constant Matrix: (Units=GPa)
#
#
# Indices 1 2 3 4 5 6 
#
# 1 100.4464 7.4348 32.6527 0.0000 17.8463 0.0000
# 2 7.4348 56.5763 24.0200 0.0000 7.2277 0.0000
# 3 32.6527 24.0200 90.4362 0.0000 1.8330 0.0000
# 4 0.0000 0.0000 0.0000 -51.6143 0.0000 81.6040
# 5 17.8463 7.2277 1.8330 0.0000 35.1797 0.0000
# 6 0.0000 0.0000 0.0000 81.6040 0.0000 -13.0119
#
#
#
# Elastic Compliance Matrix: (Units=1/GPa)
#
#
# Indices 1 2 3 4 5 6 
#
# 1 0.012526 0.001161 -0.004702 0.000000 -0.006348 0.000000
# 2 0.001161 0.020556 -0.005788 0.000000 -0.004511 0.000000
# 3 -0.004702 -0.005788 0.014235 0.000000 0.002833 0.000000
# 4 0.000000 0.000000 0.000000 0.002173 0.000000 0.013629
# 5 -0.006348 -0.004511 0.002833 0.000000 0.032425 0.000000
# 6 0.000000 0.000000 0.000000 0.013629 0.000000 0.008620
#
#
# Mechanical properties :
#
#
# Convention : Reuss Voigt Hill
#
# Bulk Modulus (GPa) = 34.89192 41.74154 38.31673
# Shear Modulus (GPa) = 42.10657 6.33412 24.22035
#
# Velocity S-wave (km/s) = 4.50189 1.74608 3.41437
# Velocity P-wave (km/s) = 6.61945 4.91491 5.82982
#
# Compressibility (1/GPa) = 0.02865993
#
# Stress axis : x y z
#
# Youngs Moduli (GPa) = 79.83337 48.64738 70.24864
#
# Poissons Ratio (x) = -0.05650 0.33034
# Poissons Ratio (y) = -0.09271 0.40657
# Poissons Ratio (z) = 0.37541 0.28155
#
# Static dielectric constant tensor:
#      x y z
#    x 1.811980 0.000000 0.040670 
#    y 0.000000 1.786510 0.000000 
#    z 0.040670 0.000000 1.769930 
# 
# From -- ./inp_files/70676.got.cif
#   From: 2010.05.17/outbox.cif.g08.bks.cpg/sg13_36_cif.got.tgz:70676.got - 2010.06.03 16:44:36.
