data_PCOD9230221
_publ_section_title
;
Structure prediction by ZEFSAII (Michael W. Deem and Ramdas Pophale) SiO2 
 PCOD9230221
Probable space group: P 2/C
;
_chemical_formula_sum "Si O2"
_cell_formula_units_Z 28
_cell_length_a 11.366315
_cell_length_b 9.090906
_cell_length_c 14.590548
_cell_angle_alpha 90.000000
_cell_angle_beta 51.705070
_cell_angle_gamma 90.000000
_cell_volume 1183.245125
_symmetry_space_group_name_H-M "P 2/C"
_symmetry_group_IT_number 13
_symmetry_cell_setting 'monoclinic'
loop_
_space_group_symop_operation_xyz
x,y,z
-x,y,1/2-z
-x,-y,-z
x,-y,1/2+z
loop_
_atom_site_type_symbol
_atom_site_label
_atom_site_fract_x
_atom_site_fract_y
_atom_site_fract_z
Si Si1 0.333445 0.154682 0.867239
Si Si2 0.500000 0.370829 0.250000
Si Si3 0.950299 0.614189 0.598769
Si Si4 0.324873 0.583381 0.229844
Si Si5 0.356044 0.800436 0.049094
Si Si6 0.320511 0.134381 0.094236
Si Si7 0.000000 0.262587 0.250000
Si Si8 0.218899 0.164377 0.425507
O O1 0.500000 0.120307 0.750000
O O2 0.292545 0.300551 0.828890
O O3 0.238004 0.007183 0.895878
O O4 0.337022 0.166872 0.976462
O O5 0.473508 0.489144 0.181004
O O6 0.358538 0.264749 0.325605
O O7 0.804216 0.537244 0.712117
O O8 0.051236 0.644956 0.637356
O O9 0.920145 0.764329 0.558625
O O10 0.000000 0.500000 0.500000
O O11 0.332400 0.674502 0.133760
O O12 0.340270 0.960925 0.102409
O O13 0.530798 0.794528 0.932258
O O14 0.234453 0.807080 0.026689
O O15 0.151679 0.176495 0.204361
#
# Coordination Sequence:
#
# PCOD9230221 Si02
#       8
#     4   2   4   4   4   4   2   4
#     4  11  19  40  69 103 141 177 224 298 349 404
#     4  10  20  36  58 102 130 176 218 274 348 402
#     4  11  28  49  66  95 143 193 234 282 360 438
#     4  11  22  39  67  98 134 178 228 286 345 417
#     4  10  22  41  70 106 136 171 238 300 341 407
#     4  10  23  42  69 109 137 181 232 290 359 415
#     4  12  28  48  72  98 150 194 226 292 360 442
#     4  10  24  39  69  97 135 177 235 288 341 414
#
# _framework density 23.663736
#
# number of rings (size 3 to 8) (size 9 to 14) (size 15 to 20)
#    0.000    1.429    2.857    0.857    8.000    1.714 
#    5.143    3.571    0.000    0.000    0.000    0.000 
#    0.000    0.000    0.000    0.000    0.000    0.000 
#
# Total GULP energy -156423.195424 kJ/mol
# GULP energy per Si atom -5586.542694 kJ/mol
# Density = 2.360988 g / cm^3
# Si number density = 23.663736 Si / 1000 Ang^3
#
#
#
# Elastic Constant Matrix: (Units=GPa)
#
#
# Indices 1 2 3 4 5 6 
#
# 1 59.0928 33.5593 11.9021 0.0000 10.9199 0.0000
# 2 33.5593 112.6851 7.7198 0.0000 10.1730 0.0000
# 3 11.9021 7.7198 60.5897 0.0000 6.6435 0.0000
# 4 0.0000 0.0000 0.0000 30.0897 0.0000 6.0992
# 5 10.9199 10.1730 6.6435 0.0000 33.6777 0.0000
# 6 0.0000 0.0000 0.0000 6.0992 0.0000 32.7361
#
#
#
# Elastic Compliance Matrix: (Units=1/GPa)
#
#
# Indices 1 2 3 4 5 6 
#
# 1 0.021708 -0.005836 -0.003007 0.000000 -0.004683 0.000000
# 2 -0.005836 0.010738 -0.000075 0.000000 -0.001336 0.000000
# 3 -0.003007 -0.000075 0.017371 0.000000 -0.002429 0.000000
# 4 0.000000 0.000000 0.000000 0.034538 0.000000 -0.006435
# 5 -0.004683 -0.001336 -0.002429 0.000000 0.032094 0.000000
# 6 0.000000 0.000000 0.000000 -0.006435 0.000000 0.031746
#
#
# Mechanical properties :
#
#
# Convention : Reuss Voigt Hill
#
# Bulk Modulus (GPa) = 31.26952 37.63667 34.45310
# Shear Modulus (GPa) = 28.29758 31.24645 29.77202
#
# Velocity S-wave (km/s) = 3.46182 3.63772 3.55086
# Velocity P-wave (km/s) = 5.40571 5.79511 5.60380
#
# Compressibility (1/GPa) = 0.03198002
#
# Stress axis : x y z
#
# Youngs Moduli (GPa) = 46.06598 93.12540 57.56693
#
# Poissons Ratio (x) = 0.54350 0.17312
# Poissons Ratio (y) = 0.26885 0.00433
# Poissons Ratio (z) = 0.13853 0.00700
#
# Static dielectric constant tensor:
#      x y z
#    x 1.952820 0.000000 -0.004850 
#    y 0.000000 1.857970 0.000000 
#    z -0.004850 0.000000 1.954150 
# 
# From -- ./inp_files/50284.got.cif
#   From: 2010.05.17/outbox.cif.g08.bks.cpg/sg13_26_cif.got.tgz:50284.got - 2010.06.03 16:44:36.
