data_PCOD9230120
_publ_section_title
;
Structure prediction by ZEFSAII (Michael W. Deem and Ramdas Pophale) SiO2 
 PCOD9230120
Probable space group: P 2/C
;
_chemical_formula_sum "Si O2"
_cell_formula_units_Z 24
_cell_length_a 14.533943
_cell_length_b 8.662542
_cell_length_c 14.866748
_cell_angle_alpha 90.000000
_cell_angle_beta 136.364468
_cell_angle_gamma 90.000000
_cell_volume 1291.626638
_symmetry_space_group_name_H-M "P 2/C"
_symmetry_group_IT_number 13
_symmetry_cell_setting 'monoclinic'
loop_
_space_group_symop_operation_xyz
x,y,z
-x,y,1/2-z
-x,-y,-z
x,-y,1/2+z
loop_
_atom_site_type_symbol
_atom_site_label
_atom_site_fract_x
_atom_site_fract_y
_atom_site_fract_z
Si Si1 0.434698 0.329372 0.445775
Si Si2 0.164893 0.550715 0.691886
Si Si3 0.594607 0.821492 0.901415
Si Si4 0.872505 0.378037 0.020231
Si Si5 0.376935 0.187361 0.599528
Si Si6 0.853570 0.353326 0.648183
O O1 0.500000 0.500000 0.500000
O O2 0.293131 0.347454 0.297886
O O3 0.521457 0.220751 0.442954
O O4 0.406845 0.263107 0.524426
O O5 0.165891 0.478815 0.593874
O O6 0.173242 0.408062 0.768820
O O7 0.030066 0.648159 0.615144
O O8 0.500000 0.770149 0.750000
O O9 0.618643 0.003060 0.906678
O O10 0.737340 0.739150 0.016009
O O11 0.764467 0.244894 0.960463
O O12 0.865018 0.487248 0.101599
O O13 0.500000 0.235688 0.750000
O O14 0.000000 0.276540 0.750000
#
# Coordination Sequence:
#
# PCOD9230120 Si02
#       6
#     4   4   4   4   4   4
#     4  12  21  37  64  89 115 156 209 253 307 351
#     4  10  20  35  64  93 117 151 208 260 300 355
#     4  11  24  41  59  86 129 164 198 253 309 373
#     4  10  20  38  62  87 124 154 202 257 305 359
#     4  11  24  39  59  87 124 164 202 245 307 378
#     4  10  20  39  61  89 119 158 204 256 302 358
#
# _framework density 18.581219999999998
#
# number of rings (size 3 to 8) (size 9 to 14) (size 15 to 20)
#    0.000    1.333    3.333    2.500    0.000    1.333 
#    3.000    0.000    0.000    5.000    0.000    0.000 
#    0.000    0.000    0.000    0.000    0.000    0.000 
#
# Total GULP energy -133887.172680 kJ/mol
# GULP energy per Si atom -5578.632195 kJ/mol
# Density = 1.853893 g / cm^3
# Si number density = 18.581220 Si / 1000 Ang^3
#
#
#
# Elastic Constant Matrix: (Units=GPa)
#
#
# Indices 1 2 3 4 5 6 
#
# 1 93.6488 34.6026 43.3967 0.0000 15.3680 0.0000
# 2 34.6026 49.6249 31.8918 0.0000 22.1233 0.0000
# 3 43.3967 31.8918 127.9388 0.0000 24.0672 0.0000
# 4 0.0000 0.0000 0.0000 23.5513 0.0000 4.2530
# 5 15.3680 22.1233 24.0672 0.0000 45.1383 0.0000
# 6 0.0000 0.0000 0.0000 4.2530 0.0000 23.1208
#
#
#
# Elastic Compliance Matrix: (Units=1/GPa)
#
#
# Indices 1 2 3 4 5 6 
#
# 1 0.015329 -0.009093 -0.003100 0.000000 0.000891 0.000000
# 2 -0.009093 0.033744 -0.003110 0.000000 -0.011785 0.000000
# 3 -0.003100 -0.003110 0.010179 0.000000 -0.002847 0.000000
# 4 0.000000 0.000000 0.000000 0.043919 0.000000 -0.008079
# 5 0.000891 -0.011785 -0.002847 0.000000 0.029145 0.000000
# 6 0.000000 0.000000 0.000000 -0.008079 0.000000 0.044737
#
#
# Mechanical properties :
#
#
# Convention : Reuss Voigt Hill
#
# Bulk Modulus (GPa) = 34.91133 54.55495 44.73314
# Shear Modulus (GPa) = 23.01937 29.11682 26.06810
#
# Velocity S-wave (km/s) = 3.52355 3.96283 3.74963
# Velocity P-wave (km/s) = 5.94838 7.09667 6.54774
#
# Compressibility (1/GPa) = 0.02864399
#
# Stress axis : x y z
#
# Youngs Moduli (GPa) = 65.23794 29.63476 98.24339
#
# Poissons Ratio (x) = 0.26947 0.30459
# Poissons Ratio (y) = 0.59321 0.30557
# Poissons Ratio (z) = 0.20226 0.09217
#
# Static dielectric constant tensor:
#      x y z
#    x 1.661860 0.000000 0.013480 
#    y 0.000000 1.607620 0.000000 
#    z 0.013480 0.000000 1.647190 
# 
# From -- ./inp_files/52905.got.cif
#   From: 2010.05.17/outbox.cif.g08.bks.cpg/sg13_27_cif.got.tgz:52905.got - 2010.06.03 16:44:36.
