data_PCOD9230867
_publ_section_title
;
Structure prediction by ZEFSAII (Michael W. Deem and Ramdas Pophale) SiO2 
 PCOD9230867
Probable space group: P 2/C
;
_chemical_formula_sum "Si O2"
_cell_formula_units_Z 26
_cell_length_a 14.956835
_cell_length_b 5.532498
_cell_length_c 15.926532
_cell_angle_alpha 90.000000
_cell_angle_beta 114.405525
_cell_angle_gamma 90.000000
_cell_volume 1200.136742
_symmetry_space_group_name_H-M "P 2/C"
_symmetry_group_IT_number 13
_symmetry_cell_setting 'monoclinic'
loop_
_space_group_symop_operation_xyz
x,y,z
-x,y,1/2-z
-x,-y,-z
x,-y,1/2+z
loop_
_atom_site_type_symbol
_atom_site_label
_atom_site_fract_x
_atom_site_fract_y
_atom_site_fract_z
Si Si1 0.000000 0.108305 0.250000
Si Si2 0.142310 0.828460 0.098103
Si Si3 0.935588 0.210990 0.568673
Si Si4 0.405615 0.759986 0.535822
Si Si5 0.622957 0.742909 0.577064
Si Si6 0.811988 0.221486 0.264621
Si Si7 0.759925 0.432889 0.424832
O O1 0.084967 0.268171 0.240952
O O2 0.048444 0.937817 0.340027
O O3 0.235690 0.718425 0.086525
O O4 0.041589 0.686001 0.082056
O O5 0.177393 0.946366 0.198219
O O6 0.100071 0.024915 0.016974
O O7 0.844285 0.392228 0.528234
O O8 0.522909 0.764468 0.592797
O O9 0.384262 0.516452 0.472541
O O10 0.337476 0.706138 0.589090
O O11 0.378010 0.015618 0.481689
O O12 0.720882 0.744638 0.669159
O O13 0.794535 0.361082 0.344636
#
# Coordination Sequence:
#
# PCOD9230867 Si02
#       7
#     2   4   4   4   4   4   4
#     4  10  20  38  58  90 126 178 220 276 326 396
#     4   9  20  37  56  88 125 170 215 265 326 394
#     4   9  19  37  56  83 128 169 215 267 321 392
#     4  10  24  42  73  93 132 168 226 265 345 393
#     4  10  23  47  66 100 126 175 215 282 327 405
#     4  10  23  38  63  89 135 164 225 268 333 390
#     4  11  22  37  63  93 125 177 213 280 327 403
#
# _framework density 21.664199
#
# number of rings (size 3 to 8) (size 9 to 14) (size 15 to 20)
#    0.000    2.154    0.000    2.308    8.615    0.615 
#    0.000    1.538    0.000    0.000    0.000    0.000 
#    0.000    0.000    0.000    0.000    0.000    0.000 
#
# Total GULP energy -144866.612386 kJ/mol
# GULP energy per Si atom -5571.792784 kJ/mol
# Density = 2.161489 g / cm^3
# Si number density = 21.664199 Si / 1000 Ang^3
#
#
#
# Elastic Constant Matrix: (Units=GPa)
#
#
# Indices 1 2 3 4 5 6 
#
# 1 155.9533 39.7390 44.1470 0.0000 -0.6155 0.0000
# 2 39.7390 60.2893 9.8531 0.0000 6.0909 0.0000
# 3 44.1470 9.8531 85.1725 0.0000 12.6166 0.0000
# 4 0.0000 0.0000 0.0000 22.6830 0.0000 -2.6104
# 5 -0.6155 6.0909 12.6166 0.0000 19.1325 0.0000
# 6 0.0000 0.0000 0.0000 -2.6104 0.0000 35.6282
#
#
#
# Elastic Compliance Matrix: (Units=1/GPa)
#
#
# Indices 1 2 3 4 5 6 
#
# 1 0.009343 -0.005897 -0.004968 0.000000 0.005454 0.000000
# 2 -0.005897 0.020992 0.001825 0.000000 -0.008076 0.000000
# 3 -0.004968 0.001825 0.015754 0.000000 -0.011129 0.000000
# 4 0.000000 0.000000 0.000000 0.044461 0.000000 0.003258
# 5 0.005454 -0.008076 -0.011129 0.000000 0.062352 0.000000
# 6 0.000000 0.000000 0.000000 0.003258 0.000000 0.028306
#
#
# Mechanical properties :
#
#
# Convention : Reuss Voigt Hill
#
# Bulk Modulus (GPa) = 35.70691 54.32149 45.01420
# Shear Modulus (GPa) = 23.96648 29.33381 26.65015
#
# Velocity S-wave (km/s) = 3.32967 3.68370 3.51115
# Velocity P-wave (km/s) = 5.59465 6.57431 6.10416
#
# Compressibility (1/GPa) = 0.02800578
#
# Stress axis : x y z
#
# Youngs Moduli (GPa) = 107.03375 47.63830 63.47769
#
# Poissons Ratio (x) = 0.28094 0.31538
# Poissons Ratio (y) = 0.63121 -0.11582
# Poissons Ratio (z) = 0.53178 -0.08692
#
# Static dielectric constant tensor:
#      x y z
#    x 1.875770 0.000000 -0.018220 
#    y 0.000000 2.003550 0.000000 
#    z -0.018220 0.000000 1.726780 
# 
# From -- ./inp_files/67286.got.cif
#   From: 2010.05.17/outbox.cif.g08.bks.cpg/sg13_34_cif.got.tgz:67286.got - 2010.06.03 16:44:36.
