data_PCOD9230366
_publ_section_title
;
Structure prediction by ZEFSAII (Michael W. Deem and Ramdas Pophale) SiO2 
 PCOD9230366
Probable space group: P 2/C
;
_chemical_formula_sum "Si O2"
_cell_formula_units_Z 30
_cell_length_a 13.146006
_cell_length_b 14.786625
_cell_length_c 14.653550
_cell_angle_alpha 90.000000
_cell_angle_beta 149.725111
_cell_angle_gamma 90.000000
_cell_volume 1436.034246
_symmetry_space_group_name_H-M "P 2/C"
_symmetry_group_IT_number 13
_symmetry_cell_setting 'monoclinic'
loop_
_space_group_symop_operation_xyz
x,y,z
-x,y,1/2-z
-x,-y,-z
x,-y,1/2+z
loop_
_atom_site_type_symbol
_atom_site_label
_atom_site_fract_x
_atom_site_fract_y
_atom_site_fract_z
Si Si1 0.953015 0.931070 0.609919
Si Si2 0.286699 0.816643 0.215074
Si Si3 0.960826 0.350927 0.993765
Si Si4 0.407817 0.099830 0.426973
Si Si5 0.936526 0.474552 0.595813
Si Si6 0.947425 0.143972 0.606264
Si Si7 0.500000 0.601734 0.750000
Si Si8 0.349706 0.245697 0.247566
O O1 0.169543 0.915070 0.730780
O O2 0.000000 0.903785 0.750000
O O3 0.786775 0.875302 0.427412
O O4 0.901102 0.037094 0.568740
O O5 0.507067 0.847372 0.418736
O O6 0.134662 0.840317 0.182022
O O7 0.235974 0.712521 0.154323
O O8 0.158215 0.286628 0.154675
O O9 0.976019 0.428007 0.081571
O O10 0.969698 0.400270 0.901465
O O11 0.464205 0.166613 0.388451
O O12 0.500000 0.000000 0.500000
O O13 0.698856 0.456533 0.407246
O O14 0.000000 0.466686 0.750000
O O15 0.759892 0.201394 0.424423
O O16 0.000000 0.169740 0.750000
O O17 0.516998 0.669361 0.677316
#
# Coordination Sequence:
#
# PCOD9230366 Si02
#       8
#     4   4   4   4   4   4   2   4
#     4  11  23  41  59  85 130 176 222 263 308 362
#     4  11  22  39  63  88 129 168 217 261 309 382
#     4   9  21  43  63  94 124 168 207 254 333 393
#     4  12  23  38  64  95 130 179 216 262 314 362
#     4  10  22  44  69  91 129 157 201 272 335 387
#     4  10  20  36  61  90 124 174 213 261 315 360
#     4  10  24  40  64 104 122 150 220 268 322 392
#     4  10  22  38  62  95 136 163 213 265 315 383
#
# _framework density 20.890865999999999
#
# number of rings (size 3 to 8) (size 9 to 14) (size 15 to 20)
#    0.000    1.600    4.000    1.200    3.733    4.800 
#    2.400    2.000    0.000    0.000    0.000    0.000 
#    0.000    0.000    0.000    0.000    0.000    0.000 
#
# Total GULP energy -167587.762734 kJ/mol
# GULP energy per Si atom -5586.258758 kJ/mol
# Density = 2.084332 g / cm^3
# Si number density = 20.890866 Si / 1000 Ang^3
#
#
#
# Elastic Constant Matrix: (Units=GPa)
#
#
# Indices 1 2 3 4 5 6 
#
# 1 39.7607 5.3475 5.5424 0.0000 -16.0062 0.0000
# 2 5.3475 85.7526 26.3489 0.0000 -2.8386 0.0000
# 3 5.5424 26.3489 71.8105 0.0000 -13.3103 0.0000
# 4 0.0000 0.0000 0.0000 18.0100 0.0000 3.5476
# 5 -16.0062 -2.8386 -13.3103 0.0000 32.6708 0.0000
# 6 0.0000 0.0000 0.0000 3.5476 0.0000 20.0696
#
#
#
# Elastic Compliance Matrix: (Units=1/GPa)
#
#
# Indices 1 2 3 4 5 6 
#
# 1 0.031588 -0.001800 0.001149 0.000000 0.015787 0.000000
# 2 -0.001800 0.013270 -0.005062 0.000000 -0.001791 0.000000
# 3 0.001149 -0.005062 0.017001 0.000000 0.007049 0.000000
# 4 0.000000 0.000000 0.000000 0.057528 0.000000 -0.010169
# 5 0.015787 -0.001791 0.007049 0.000000 0.041059 0.000000
# 6 0.000000 0.000000 0.000000 -0.010169 0.000000 0.051624
#
#
# Mechanical properties :
#
#
# Convention : Reuss Voigt Hill
#
# Bulk Modulus (GPa) = 19.82891 30.20015 25.01453
# Shear Modulus (GPa) = 20.80674 24.82243 22.81458
#
# Velocity S-wave (km/s) = 3.15933 3.45076 3.30825
# Velocity P-wave (km/s) = 4.77711 5.51040 5.15680
#
# Compressibility (1/GPa) = 0.05043141
#
# Stress axis : x y z
#
# Youngs Moduli (GPa) = 31.65784 75.35901 58.82053
#
# Poissons Ratio (x) = 0.13566 -0.06757
# Poissons Ratio (y) = 0.05699 0.29775
# Poissons Ratio (z) = -0.03637 0.38147
#
# Static dielectric constant tensor:
#      x y z
#    x 1.823790 0.000000 0.002500 
#    y 0.000000 1.735840 0.000000 
#    z 0.002500 0.000000 1.715010 
# 
# From -- ./inp_files/53877.got.cif
#   From: 2010.05.17/outbox.cif.g08.bks.cpg/sg13_27_cif.got.tgz:53877.got - 2010.06.03 16:44:36.
