data_PCOD9230617
_publ_section_title
;
Structure prediction by ZEFSAII (Michael W. Deem and Ramdas Pophale) SiO2 
 PCOD9230617
Probable space group: P 2/C
;
_chemical_formula_sum "Si O2"
_cell_formula_units_Z 28
_cell_length_a 16.135260
_cell_length_b 9.044845
_cell_length_c 10.836498
_cell_angle_alpha 90.000000
_cell_angle_beta 109.621304
_cell_angle_gamma 90.000000
_cell_volume 1489.655714
_symmetry_space_group_name_H-M "P 2/C"
_symmetry_group_IT_number 13
_symmetry_cell_setting 'monoclinic'
loop_
_space_group_symop_operation_xyz
x,y,z
-x,y,1/2-z
-x,-y,-z
x,-y,1/2+z
loop_
_atom_site_type_symbol
_atom_site_label
_atom_site_fract_x
_atom_site_fract_y
_atom_site_fract_z
Si Si1 0.690975 0.500000 0.845487
Si Si2 0.000000 0.364816 0.097597
Si Si3 0.428725 0.758119 0.323981
Si Si4 0.688404 1.000000 0.844201
Si Si5 0.190135 0.254037 0.202946
Si Si6 0.809865 0.745964 0.512809
Si Si7 0.571276 0.241881 0.395256
O O1 0.631920 0.384413 0.738480
O O2 0.755068 0.596328 0.792112
O O3 0.631921 0.615586 0.893440
O O4 0.755069 0.403671 0.962953
O O5 0.910455 0.276849 0.023383
O O6 0.000000 0.398552 0.250000
O O7 0.089546 0.276851 0.112930
O O8 0.000000 0.500000 0.000000
O O9 0.500000 0.760961 0.250000
O O10 0.373757 0.910501 0.281766
O O11 0.463002 0.745937 0.481501
O O12 0.752675 0.873987 0.827759
O O13 0.626243 0.910500 0.908008
O O14 0.752676 0.126011 0.924915
O O15 0.186123 0.219216 0.343062
O O16 0.500000 0.239041 0.250000
#
# Coordination Sequence:
#
# PCOD9230617 Si02
#       7
#     4   4   4   4   4   4   4
#     4  10  21  37  60  86 118 152 196 245 293 352
#     4  10  20  37  62  92 122 154 192 239 292 344
#     4  11  24  40  60  86 117 155 199 247 299 352
#     4  10  23  39  58  84 118 158 200 239 291 350
#     4  10  20  37  60  86 120 156 193 239 291 348
#     4  10  20  37  60  86 120 156 193 239 291 348
#     4  11  24  40  60  86 117 155 199 247 299 352
#
# _framework density 18.796289999999999
#
# number of rings (size 3 to 8) (size 9 to 14) (size 15 to 20)
#    0.000    1.714    1.429    2.571    0.000    9.714 
#    0.000    1.429    0.000    0.000    0.000    0.000 
#    0.000    0.000    0.000    0.000    0.000    0.000 
#
# Total GULP energy -156059.608806 kJ/mol
# GULP energy per Si atom -5573.557457 kJ/mol
# Density = 1.875351 g / cm^3
# Si number density = 18.796290 Si / 1000 Ang^3
#
#
#
# Elastic Constant Matrix: (Units=GPa)
#
#
# Indices 1 2 3 4 5 6 
#
# 1 118.9931 33.9562 50.5090 0.0000 10.3965 0.0000
# 2 33.9562 85.3993 21.2808 0.0000 8.8009 0.0000
# 3 50.5090 21.2808 92.7578 0.0000 7.8190 0.0000
# 4 0.0000 0.0000 0.0000 8.7696 0.0000 8.7637
# 5 10.3965 8.8009 7.8190 0.0000 28.5447 0.0000
# 6 0.0000 0.0000 0.0000 8.7637 0.0000 21.3922
#
#
#
# Elastic Compliance Matrix: (Units=1/GPa)
#
#
# Indices 1 2 3 4 5 6 
#
# 1 0.011816 -0.003125 -0.005564 0.000000 -0.001816 0.000000
# 2 -0.003125 0.013524 -0.001173 0.000000 -0.002710 0.000000
# 3 -0.005564 -0.001173 0.014206 0.000000 -0.001503 0.000000
# 4 0.000000 0.000000 0.000000 0.193073 0.000000 -0.079096
# 5 -0.001816 -0.002710 -0.001503 0.000000 0.036942 0.000000
# 6 0.000000 0.000000 0.000000 -0.079096 0.000000 0.079149
#
#
# Mechanical properties :
#
#
# Convention : Reuss Voigt Hill
#
# Bulk Modulus (GPa) = 50.44638 56.51577 53.48108
# Shear Modulus (GPa) = 13.33189 24.50157 18.91673
#
# Velocity S-wave (km/s) = 2.66613 3.61436 3.17583
# Velocity P-wave (km/s) = 6.03112 6.89572 6.47786
#
# Compressibility (1/GPa) = 0.01982303
#
# Stress axis : x y z
#
# Youngs Moduli (GPa) = 84.63122 73.94467 70.39093
#
# Poissons Ratio (x) = 0.23104 0.39167
# Poissons Ratio (y) = 0.26443 0.08255
# Poissons Ratio (z) = 0.47090 0.08672
#
# Static dielectric constant tensor:
#      x y z
#    x 1.705990 0.000000 0.027760 
#    y 0.000000 1.642250 0.000000 
#    z 0.027760 0.000000 1.666010 
# 
# From -- ./inp_files/22998.got.cif
#   From: 2010.05.17/outbox.cif.g08.bks.cpg/sg13_12_cif.got.tgz:22998.got - 2010.06.03 16:44:36.
