data_PCOD9230148
_publ_section_title
;
Structure prediction by ZEFSAII (Michael W. Deem and Ramdas Pophale) SiO2 
 PCOD9230148
Probable space group: P 2/C
;
_chemical_formula_sum "Si O2"
_cell_formula_units_Z 22
_cell_length_a 18.703481
_cell_length_b 6.250913
_cell_length_c 8.307023
_cell_angle_alpha 90.000000
_cell_angle_beta 77.366974
_cell_angle_gamma 90.000000
_cell_volume 947.693836
_symmetry_space_group_name_H-M "P 2/C"
_symmetry_group_IT_number 13
_symmetry_cell_setting 'monoclinic'
loop_
_space_group_symop_operation_xyz
x,y,z
-x,y,1/2-z
-x,-y,-z
x,-y,1/2+z
loop_
_atom_site_type_symbol
_atom_site_label
_atom_site_fract_x
_atom_site_fract_y
_atom_site_fract_z
Si Si1 0.550242 0.859648 0.095600
Si Si2 0.112798 0.573447 0.005747
Si Si3 0.344602 0.910125 0.711714
Si Si4 0.125727 0.824743 0.673918
Si Si5 0.000000 0.840414 0.250000
Si Si6 0.244916 0.829003 0.045569
O O1 0.500000 0.730251 0.250000
O O2 0.594457 0.015495 0.191876
O O3 0.500000 0.000000 0.000000
O O4 0.614549 0.771604 0.946674
O O5 0.104010 0.321850 0.033579
O O6 0.183002 0.648004 0.079568
O O7 0.129546 0.666196 0.822909
O O8 0.039119 0.686607 0.103330
O O9 0.307156 0.121099 0.648070
O O10 0.284188 0.803740 0.854269
O O11 0.065953 0.998222 0.757441
O O12 0.197696 0.952211 0.584206
#
# Coordination Sequence:
#
# PCOD9230148 Si02
#       6
#     4   4   4   4   2   4
#     4   8  14  25  46  83 122 150 188 239 277 329
#     4  11  24  39  59  84 114 149 195 244 292 349
#     4   9  16  29  52  76 118 162 184 235 291 332
#     4  11  24  39  59  84 114 149 195 243 293 350
#     4  10  24  42  64  82 110 148 194 242 300 344
#     4  10  20  36  54  81 118 155 194 240 291 343
#
# _framework density 23.214247
#
# number of rings (size 3 to 8) (size 9 to 14) (size 15 to 20)
#    0.000    2.182    1.818    1.091    2.545    4.364 
#    0.000    0.000    0.000    0.000    0.000    0.000 
#    0.000  366.545    0.000    0.000    0.000    0.000 
#
# Total GULP energy -122567.539608 kJ/mol
# GULP energy per Si atom -5571.251800 kJ/mol
# Density = 2.316141 g / cm^3
# Si number density = 23.214247 Si / 1000 Ang^3
#
#
#
# Elastic Constant Matrix: (Units=GPa)
#
#
# Indices 1 2 3 4 5 6 
#
# 1 111.0653 17.3837 59.0145 0.0000 -8.6717 0.0000
# 2 17.3837 58.8393 38.6540 0.0000 -7.6615 0.0000
# 3 59.0145 38.6540 147.0194 0.0000 -40.8547 0.0000
# 4 0.0000 0.0000 0.0000 -183.6416 0.0000 -1.2273
# 5 -8.6717 -7.6615 -40.8547 0.0000 47.1129 0.0000
# 6 0.0000 0.0000 0.0000 -1.2273 0.0000 0.6752
#
#
#
# Elastic Compliance Matrix: (Units=1/GPa)
#
#
# Indices 1 2 3 4 5 6 
#
# 1 0.011672 -0.000290 -0.005303 0.000000 -0.002497 0.000000
# 2 -0.000290 0.020664 -0.005794 0.000000 -0.001717 0.000000
# 3 -0.005303 -0.005794 0.013070 0.000000 0.009416 0.000000
# 4 0.000000 0.000000 0.000000 -0.005380 0.000000 -0.009780
# 5 -0.002497 -0.001717 0.009416 0.000000 0.028652 0.000000
# 6 0.000000 0.000000 0.000000 -0.009780 0.000000 1.463330
#
#
# Mechanical properties :
#
#
# Convention : Reuss Voigt Hill
#
# Bulk Modulus (GPa) = 44.18350 60.78091 52.48221
# Shear Modulus (GPa) = 3.20036 -13.71258 -5.25611
#
# Velocity S-wave (km/s) = 1.17542 -2.43306 -1.50635
# Velocity P-wave (km/s) = 4.57344 4.28327 4.43073
#
# Compressibility (1/GPa) = 0.02263288
#
# Stress axis : x y z
#
# Youngs Moduli (GPa) = 85.67676 48.39433 76.50997
#
# Poissons Ratio (x) = 0.01403 0.40572
# Poissons Ratio (y) = 0.02483 0.44327
# Poissons Ratio (z) = 0.45433 0.28038
#
# Static dielectric constant tensor:
#      x y z
#    x 1.966410 0.000000 0.004200 
#    y 0.000000 1.849020 0.000000 
#    z 0.004200 0.000000 1.943480 
# 
# From -- ./inp_files/22225.got.cif
#   From: 2010.05.17/outbox.cif.g08.bks.cpg/sg13_12_cif.got.tgz:22225.got - 2010.06.03 16:44:36.
