data_PCOD9230493
_publ_section_title
;
Structure prediction by ZEFSAII (Michael W. Deem and Ramdas Pophale) SiO2 
 PCOD9230493
Probable space group: P 2/C
;
_chemical_formula_sum "Si O2"
_cell_formula_units_Z 20
_cell_length_a 16.483578
_cell_length_b 11.993663
_cell_length_c 9.058072
_cell_angle_alpha 90.000000
_cell_angle_beta 33.202529
_cell_angle_gamma 90.000000
_cell_volume 980.624325
_symmetry_space_group_name_H-M "P 2/C"
_symmetry_group_IT_number 13
_symmetry_cell_setting 'monoclinic'
loop_
_space_group_symop_operation_xyz
x,y,z
-x,y,1/2-z
-x,-y,-z
x,-y,1/2+z
loop_
_atom_site_type_symbol
_atom_site_label
_atom_site_fract_x
_atom_site_fract_y
_atom_site_fract_z
Si Si1 0.304441 0.918084 0.925281
Si Si2 0.667575 0.316627 0.556184
Si Si3 0.834615 0.726792 0.518208
Si Si4 0.637835 0.138219 0.828904
Si Si5 0.394223 0.442663 0.283058
O O1 0.460935 0.871714 0.622051
O O2 0.310599 0.046933 0.869950
O O3 0.178864 0.847174 0.036966
O O4 0.298844 0.894613 0.107969
O O5 0.500000 0.297245 0.750000
O O6 0.676196 0.257798 0.701850
O O7 0.690198 0.449375 0.524691
O O8 0.781925 0.265866 0.266732
O O9 0.716518 0.645925 0.617095
O O10 0.000000 0.682904 0.250000
O O11 0.500000 0.394251 0.250000
O O12 0.500000 0.500000 0.000000
#
# Coordination Sequence:
#
# PCOD9230493 Si02
#       5
#     4   4   4   4   4
#     4  10  21  36  62  97 125 164 212 267 310 375
#     4  11  21  40  63  91 127 169 218 264 306 381
#     4  12  26  42  63  97 137 165 205 271 333 373
#     4  10  20  36  67  94 121 164 224 261 303 371
#     4  11  22  41  69  94 122 170 221 263 304 379
#
# _framework density 20.395171000000001
#
# number of rings (size 3 to 8) (size 9 to 14) (size 15 to 20)
#    0.000    1.200    6.000    1.200    8.400    0.800 
#    0.000    5.000    0.000    0.000    0.000    0.000 
#    0.000    0.000    0.000    0.000    0.000    0.000 
#
# Total GULP energy -111768.283881 kJ/mol
# GULP energy per Si atom -5588.414194 kJ/mol
# Density = 2.034875 g / cm^3
# Si number density = 20.395171 Si / 1000 Ang^3
#
#
#
# Elastic Constant Matrix: (Units=GPa)
#
#
# Indices 1 2 3 4 5 6 
#
# 1 71.7598 25.9858 38.8008 0.0000 13.1267 0.0000
# 2 25.9858 72.9240 14.3826 0.0000 0.7788 0.0000
# 3 38.8008 14.3826 75.0563 0.0000 6.4413 0.0000
# 4 0.0000 0.0000 0.0000 19.9086 0.0000 10.0391
# 5 13.1267 0.7788 6.4413 0.0000 31.6019 0.0000
# 6 0.0000 0.0000 0.0000 10.0391 0.0000 31.2758
#
#
#
# Elastic Compliance Matrix: (Units=1/GPa)
#
#
# Indices 1 2 3 4 5 6 
#
# 1 0.022920 -0.006107 -0.010050 0.000000 -0.007322 0.000000
# 2 -0.006107 0.015880 -0.000071 0.000000 0.002160 0.000000
# 3 -0.010050 -0.000071 0.018498 0.000000 0.000406 0.000000
# 4 0.000000 0.000000 0.000000 0.059930 0.000000 -0.019237
# 5 -0.007322 0.002160 0.000406 0.000000 0.034549 0.000000
# 6 0.000000 0.000000 0.000000 -0.019237 0.000000 0.038148
#
#
# Mechanical properties :
#
#
# Convention : Reuss Voigt Hill
#
# Bulk Modulus (GPa) = 40.25608 42.00870 41.13239
# Shear Modulus (GPa) = 21.67668 25.92865 23.80267
#
# Velocity S-wave (km/s) = 3.26365 3.56942 3.41995
# Velocity P-wave (km/s) = 5.82947 6.13431 5.98383
#
# Compressibility (1/GPa) = 0.02484097
#
# Stress axis : x y z
#
# Youngs Moduli (GPa) = 43.62926 62.97191 54.06090
#
# Poissons Ratio (x) = 0.38458 0.54332
# Poissons Ratio (y) = 0.26645 0.00385
# Poissons Ratio (z) = 0.43848 0.00449
#
# Static dielectric constant tensor:
#      x y z
#    x 1.744230 0.000000 0.019990 
#    y 0.000000 1.768010 0.000000 
#    z 0.019990 0.000000 1.721950 
# 
# From -- ./inp_files/11850.got.cif
#   From: 2010.05.17/outbox.cif.g08.bks.cpg/sg13_6_cif.got.tgz:11850.got - 2010.06.03 16:44:36.
