data_PCOD9230532
_publ_section_title
;
Structure prediction by ZEFSAII (Michael W. Deem and Ramdas Pophale) SiO2 
 PCOD9230532
Probable space group: P 2/C
;
_chemical_formula_sum "Si O2"
_cell_formula_units_Z 18
_cell_length_a 17.194781
_cell_length_b 7.291325
_cell_length_c 8.512020
_cell_angle_alpha 90.000000
_cell_angle_beta 138.982446
_cell_angle_gamma 90.000000
_cell_volume 700.376676
_symmetry_space_group_name_H-M "P 2/C"
_symmetry_group_IT_number 13
_symmetry_cell_setting 'monoclinic'
loop_
_space_group_symop_operation_xyz
x,y,z
-x,y,1/2-z
-x,-y,-z
x,-y,1/2+z
loop_
_atom_site_type_symbol
_atom_site_label
_atom_site_fract_x
_atom_site_fract_y
_atom_site_fract_z
Si Si1 0.500000 0.371210 0.250000
Si Si2 0.366879 0.689883 0.239534
Si Si3 0.232553 0.834803 0.786584
Si Si4 0.880684 0.892638 0.169013
Si Si5 0.868071 0.510509 0.058957
O O1 0.418936 0.506376 0.234184
O O2 0.570638 0.269529 0.498774
O O3 0.351883 0.823341 0.067238
O O4 0.230355 0.640525 0.068023
O O5 0.236687 0.918400 0.619457
O O6 0.176672 0.636349 0.656255
O O7 0.136837 0.959841 0.726673
O O8 0.875961 0.676125 0.201247
O O9 0.000000 0.915384 0.250000
O O10 0.000000 0.435221 0.250000
#
# Coordination Sequence:
#
# PCOD9230532 Si02
#       5
#     2   4   4   4   4
#     4  10  22  40  64  84 114 160 206 250 300 344
#     4  11  21  41  64  89 116 156 203 255 293 347
#     4  10  20  37  56  90 117 162 195 234 295 352
#     4   9  19  36  57  85 127 165 189 228 296 371
#     4   9  21  37  58  95 126 151 191 242 303 354
#
# _framework density 25.700454000000001
#
# number of rings (size 3 to 8) (size 9 to 14) (size 15 to 20)
#    1.333    0.889    2.222    0.667    0.000    3.556 
#    0.000    0.000    0.000   22.667    0.000    0.000 
#    0.000    0.000    0.000    0.000    0.000    0.000 
#
# Total GULP energy -100267.393028 kJ/mol
# GULP energy per Si atom -5570.410724 kJ/mol
# Density = 2.564196 g / cm^3
# Si number density = 25.700454 Si / 1000 Ang^3
#
#
#
# Elastic Constant Matrix: (Units=GPa)
#
#
# Indices 1 2 3 4 5 6 
#
# 1 19.9526 5.0045 25.6913 0.0000 2.5215 0.0000
# 2 5.0045 42.7409 4.3881 0.0000 -4.9264 0.0000
# 3 25.6913 4.3881 195.9412 0.0000 -34.9897 0.0000
# 4 0.0000 0.0000 0.0000 14.0825 0.0000 -19.1280
# 5 2.5215 -4.9264 -34.9897 0.0000 45.4476 0.0000
# 6 0.0000 0.0000 0.0000 -19.1280 0.0000 -0.3300
#
#
#
# Elastic Compliance Matrix: (Units=1/GPa)
#
#
# Indices 1 2 3 4 5 6 
#
# 1 0.068218 -0.008374 -0.011124 0.000000 -0.013257 0.000000
# 2 -0.008374 0.024722 0.001282 0.000000 0.004131 0.000000
# 3 -0.011124 0.001282 0.007731 0.000000 0.006709 0.000000
# 4 0.000000 0.000000 0.000000 0.000891 0.000000 -0.051624
# 5 -0.013257 0.004131 0.006709 0.000000 0.028352 0.000000
# 6 0.000000 0.000000 0.000000 -0.051624 0.000000 -0.038006
#
#
# Mechanical properties :
#
#
# Convention : Reuss Voigt Hill
#
# Bulk Modulus (GPa) = 15.56674 36.53361 26.05017
# Shear Modulus (GPa) = 33.38847 26.74340 30.06593
#
# Velocity S-wave (km/s) = 3.60827 3.22930 3.42403
# Velocity P-wave (km/s) = 4.84041 5.30571 5.07839
#
# Compressibility (1/GPa) = 0.06423953
#
# Stress axis : x y z
#
# Youngs Moduli (GPa) = 14.65884 40.45004 129.34238
#
# Poissons Ratio (x) = 0.33871 1.43886
# Poissons Ratio (y) = 0.12275 -0.16582
# Poissons Ratio (z) = 0.16307 -0.05186
#
# Static dielectric constant tensor:
#      x y z
#    x 2.041410 0.000000 -0.065690 
#    y 0.000000 2.027630 0.000000 
#    z -0.065690 0.000000 2.099020 
# 
# From -- ./inp_files/20815.got.cif
#   From: 2010.05.17/outbox.cif.g08.bks.cpg/sg13_11_cif.got.tgz:20815.got - 2010.06.03 16:44:36.
