data_PCOD9230277
_publ_section_title
;
Structure prediction by ZEFSAII (Michael W. Deem and Ramdas Pophale) SiO2 
 PCOD9230277
Probable space group: P 2/C
;
_chemical_formula_sum "Si O2"
_cell_formula_units_Z 32
_cell_length_a 16.375988
_cell_length_b 8.608633
_cell_length_c 22.232170
_cell_angle_alpha 90.000000
_cell_angle_beta 146.011473
_cell_angle_gamma 90.000000
_cell_volume 1752.089366
_symmetry_space_group_name_H-M "P 2/C"
_symmetry_group_IT_number 13
_symmetry_cell_setting 'monoclinic'
loop_
_space_group_symop_operation_xyz
x,y,z
-x,y,1/2-z
-x,-y,-z
x,-y,1/2+z
loop_
_atom_site_type_symbol
_atom_site_label
_atom_site_fract_x
_atom_site_fract_y
_atom_site_fract_z
Si Si1 0.841454 0.622804 0.525584
Si Si2 0.424102 0.425836 0.143550
Si Si3 0.618234 0.636524 0.183247
Si Si4 0.667145 0.841865 0.329783
Si Si5 0.534095 0.076582 0.958145
Si Si6 0.163739 0.217952 0.350968
Si Si7 0.818730 0.359296 0.271676
Si Si8 0.620370 0.139039 0.233624
O O1 0.746379 0.466866 0.455959
O O2 0.763764 0.761910 0.440625
O O3 0.836399 0.661466 0.593600
O O4 0.010232 0.618169 0.610335
O O5 0.500000 0.489531 0.250000
O O6 0.489247 0.527293 0.129410
O O7 0.493974 0.255801 0.179506
O O8 0.679412 0.734761 0.277460
O O9 0.544522 0.757010 0.093307
O O10 0.737704 0.523631 0.228323
O O11 0.500000 0.840181 0.250000
O O12 0.692946 0.021949 0.326455
O O13 0.462795 0.974139 0.862833
O O14 0.706477 0.099332 0.056186
O O15 0.500000 0.000000 0.000000
O O16 0.193896 0.292561 0.303906
O O17 0.000000 0.149561 0.250000
O O18 0.738879 0.242377 0.269790
#
# Coordination Sequence:
#
# PCOD9230277 Si02
#       8
#     4   4   4   4   4   4   4   4
#     4  11  20  37  64  81 120 160 195 230 311 346
#     4  11  19  37  58  86 111 150 196 243 278 358
#     4  10  20  36  59  85 116 148 197 240 292 344
#     4  11  19  38  62  86 113 158 195 235 294 366
#     4  11  20  37  60  84 112 159 191 240 298 353
#     4  10  21  38  58  85 115 151 197 240 287 351
#     4  10  23  38  56  92 117 152 195 253 285 350
#     4  10  23  36  59  90 120 142 202 250 287 343
#
# _framework density 18.263908000000001
#
# number of rings (size 3 to 8) (size 9 to 14) (size 15 to 20)
#    0.000    1.500    5.000    1.125    0.000    2.500 
#    0.000    1.250    5.500    0.000    0.000    0.000 
#    0.000    0.000    0.000    0.000    0.000    0.000 
#
# Total GULP energy -178440.052493 kJ/mol
# GULP energy per Si atom -5576.251640 kJ/mol
# Density = 1.822234 g / cm^3
# Si number density = 18.263908 Si / 1000 Ang^3
#
#
#
# Elastic Constant Matrix: (Units=GPa)
#
#
# Indices 1 2 3 4 5 6 
#
# 1 90.5537 46.7867 44.3921 0.0000 16.1833 0.0000
# 2 46.7867 102.9187 26.3623 0.0000 10.5129 0.0000
# 3 44.3921 26.3623 90.0815 0.0000 25.4789 0.0000
# 4 0.0000 0.0000 0.0000 15.9109 0.0000 1.7851
# 5 16.1833 10.5129 25.4789 0.0000 36.9531 0.0000
# 6 0.0000 0.0000 0.0000 1.7851 0.0000 28.9519
#
#
#
# Elastic Compliance Matrix: (Units=1/GPa)
#
#
# Indices 1 2 3 4 5 6 
#
# 1 0.017711 -0.006238 -0.006473 0.000000 -0.001519 0.000000
# 2 -0.006238 0.012736 -0.000498 0.000000 -0.000548 0.000000
# 3 -0.006473 -0.000498 0.016888 0.000000 -0.008668 0.000000
# 4 0.000000 0.000000 0.000000 0.063288 0.000000 -0.003902
# 5 -0.001519 -0.000548 -0.008668 0.000000 0.033859 0.000000
# 6 0.000000 0.000000 0.000000 -0.003902 0.000000 0.034781
#
#
# Mechanical properties :
#
#
# Convention : Reuss Voigt Hill
#
# Bulk Modulus (GPa) = 47.80787 57.62623 52.71705
# Shear Modulus (GPa) = 23.51254 27.43068 25.47161
#
# Velocity S-wave (km/s) = 3.59190 3.87965 3.73854
# Velocity P-wave (km/s) = 6.59054 7.18953 6.89654
#
# Compressibility (1/GPa) = 0.02091706
#
# Stress axis : x y z
#
# Youngs Moduli (GPa) = 56.46264 78.51868 59.21288
#
# Poissons Ratio (x) = 0.48982 0.38327
# Poissons Ratio (y) = 0.35223 0.02949
# Poissons Ratio (z) = 0.36547 0.03910
#
# Static dielectric constant tensor:
#      x y z
#    x 1.659350 0.000000 -0.035300 
#    y 0.000000 1.653210 0.000000 
#    z -0.035300 0.000000 1.686680 
# 
# From -- ./inp_files/79831.got.cif
#   From: 2010.05.17/outbox.cif.g08.bks.cpg/sg13_40_cif.got.tgz:79831.got - 2010.06.03 16:44:36.
