data_PCOD9230722
_publ_section_title
;
Structure prediction by ZEFSAII (Michael W. Deem and Ramdas Pophale) SiO2 
 PCOD9230722
Probable space group: P 2/C
;
_chemical_formula_sum "Si O2"
_cell_formula_units_Z 28
_cell_length_a 5.761286
_cell_length_b 16.318204
_cell_length_c 13.572607
_cell_angle_alpha 90.000000
_cell_angle_beta 64.224345
_cell_angle_gamma 90.000000
_cell_volume 1149.054241
_symmetry_space_group_name_H-M "P 2/C"
_symmetry_group_IT_number 13
_symmetry_cell_setting 'monoclinic'
loop_
_space_group_symop_operation_xyz
x,y,z
-x,y,1/2-z
-x,-y,-z
x,-y,1/2+z
loop_
_atom_site_type_symbol
_atom_site_label
_atom_site_fract_x
_atom_site_fract_y
_atom_site_fract_z
Si Si1 0.014508 0.864764 0.507392
Si Si2 0.181369 0.994520 0.314035
Si Si3 0.258399 0.247391 0.741296
Si Si4 0.611807 0.254687 0.132497
Si Si5 0.642653 0.292729 0.509138
Si Si6 0.189870 0.419075 0.811133
Si Si7 0.024828 0.595763 0.865481
O O1 0.112181 0.919412 0.399872
O O2 0.213710 0.793195 0.497467
O O3 0.760241 0.810794 0.537846
O O4 0.936285 0.925463 0.609805
O O5 0.500000 0.999681 0.250000
O O6 0.000000 0.986204 0.250000
O O7 0.500000 0.203680 0.750000
O O8 0.389538 0.290714 0.622557
O O9 0.174484 0.319841 0.832667
O O10 0.000000 0.205283 0.750000
O O11 0.500000 0.212640 0.250000
O O12 0.779517 0.330963 0.140512
O O13 0.401397 0.289299 0.099642
O O14 0.789079 0.379342 0.481557
O O15 0.500000 0.429204 0.750000
O O16 0.106639 0.503959 0.875952
O O17 0.000000 0.421311 0.750000
O O18 0.000000 0.597900 0.750000
#
# Coordination Sequence:
#
# PCOD9230722 Si02
#       7
#     4   4   4   4   4   4   4
#     4  10  27  44  71 111 140 187 244 283 346 434
#     4  11  27  50  77 106 150 190 233 286 350 416
#     4  10  24  47  67  94 138 185 233 294 352 421
#     4  11  22  39  69 100 143 179 231 298 359 408
#     4  11  25  42  69 104 137 184 241 291 355 420
#     4   9  19  38  64  86 129 180 226 285 353 407
#     4  10  20  37  62  97 133 177 230 299 352 418
#
# _framework density 24.367868000000001
#
# number of rings (size 3 to 8) (size 9 to 14) (size 15 to 20)
#    0.000    1.714    1.429    0.857   12.000    1.714 
#    0.000    9.286    0.000    0.000    0.000    0.000 
#    0.000    0.000    0.000    0.000    0.000    0.000 
#
# Total GULP energy -155972.694898 kJ/mol
# GULP energy per Si atom -5570.453389 kJ/mol
# Density = 2.431241 g / cm^3
# Si number density = 24.367868 Si / 1000 Ang^3
#
#
#
# Elastic Constant Matrix: (Units=GPa)
#
#
# Indices 1 2 3 4 5 6 
#
# 1 147.1255 48.1539 51.4413 0.0000 -9.3014 0.0000
# 2 48.1539 164.8315 48.6470 0.0000 2.2095 0.0000
# 3 51.4413 48.6470 130.2605 0.0000 -4.8884 0.0000
# 4 0.0000 0.0000 0.0000 40.9381 0.0000 -18.1231
# 5 -9.3014 2.2095 -4.8884 0.0000 31.2093 0.0000
# 6 0.0000 0.0000 0.0000 -18.1231 0.0000 3.6140
#
#
#
# Elastic Compliance Matrix: (Units=1/GPa)
#
#
# Indices 1 2 3 4 5 6 
#
# 1 0.008407 -0.001720 -0.002594 0.000000 0.002221 0.000000
# 2 -0.001720 0.007195 -0.002058 0.000000 -0.001344 0.000000
# 3 -0.002594 -0.002058 0.009502 0.000000 0.000861 0.000000
# 4 0.000000 0.000000 0.000000 -0.020023 0.000000 -0.100407
# 5 0.002221 -0.001344 0.000861 0.000000 0.032934 0.000000
# 6 0.000000 0.000000 0.000000 -0.100407 0.000000 -0.226809
#
#
# Mechanical properties :
#
#
# Convention : Reuss Voigt Hill
#
# Bulk Modulus (GPa) = 80.91127 82.07797 81.49462
# Shear Modulus (GPa) = -29.08195 34.75063 2.83434
#
# Velocity S-wave (km/s) = -3.45839 3.78045 1.07966
# Velocity P-wave (km/s) = 4.16280 7.26717 5.92202
#
# Compressibility (1/GPa) = 0.01235922
#
# Stress axis : x y z
#
# Youngs Moduli (GPa) = 118.94160 138.98976 105.23659
#
# Poissons Ratio (x) = 0.23910 0.27303
# Poissons Ratio (y) = 0.20461 0.21658
# Poissons Ratio (z) = 0.30858 0.28605
#
# Static dielectric constant tensor:
#      x y z
#    x 2.053520 0.000000 -0.005250 
#    y 0.000000 1.887530 0.000000 
#    z -0.005250 0.000000 2.055280 
# 
# From -- ./inp_files/44376.got.cif
#   From: 2010.05.17/outbox.cif.g08.bks.cpg/sg13_23_cif.got.tgz:44376.got - 2010.06.03 16:44:36.
