data_PCOD9230958
_publ_section_title
;
Structure prediction by ZEFSAII (Michael W. Deem and Ramdas Pophale) SiO2 
 PCOD9230958
Probable space group: P 2/C
;
_chemical_formula_sum "Si O2"
_cell_formula_units_Z 32
_cell_length_a 11.867278
_cell_length_b 6.156390
_cell_length_c 22.687613
_cell_angle_alpha 90.000000
_cell_angle_beta 103.614878
_cell_angle_gamma 90.000000
_cell_volume 1610.970497
_symmetry_space_group_name_H-M "P 2/C"
_symmetry_group_IT_number 13
_symmetry_cell_setting 'monoclinic'
loop_
_space_group_symop_operation_xyz
x,y,z
-x,y,1/2-z
-x,-y,-z
x,-y,1/2+z
loop_
_atom_site_type_symbol
_atom_site_label
_atom_site_fract_x
_atom_site_fract_y
_atom_site_fract_z
Si Si1 0.752096 0.026837 0.536892
Si Si2 0.843761 0.693133 0.953444
Si Si3 0.570887 0.619721 0.060393
Si Si4 0.181147 0.930300 0.145682
Si Si5 0.668444 0.698051 0.423202
Si Si6 0.782218 0.653621 0.629949
Si Si7 0.983881 0.454919 0.878293
Si Si8 0.121302 0.231852 0.235586
O O1 0.847117 0.177161 0.515281
O O2 0.646589 0.179076 0.545603
O O3 0.707156 0.860300 0.480757
O O4 0.796272 0.880043 0.596229
O O5 0.734954 0.528366 0.943947
O O6 0.948300 0.558998 0.936815
O O7 0.822891 0.876848 0.902003
O O8 0.469417 0.687320 0.092361
O O9 0.659737 0.449299 0.099080
O O10 0.500000 0.500000 0.000000
O O11 0.282462 0.778176 0.133397
O O12 0.065037 0.786706 0.129328
O O13 0.186265 0.039629 0.209707
O O14 0.802565 0.680244 0.701631
O O15 0.882816 0.494909 0.618875
O O16 0.916022 0.588421 0.817808
O O17 0.000000 0.156173 0.250000
#
# Coordination Sequence:
#
# PCOD9230958 Si02
#       8
#     4   4   4   4   4   4   4   4
#     4  11  21  36  60  89 118 160 204 244 312 370
#     4   9  18  36  60  87 116 158 195 248 305 368
#     4  12  23  38  60  88 124 164 207 255 306 367
#     4   9  19  36  67  86 112 162 201 243 310 373
#     4  10  20  38  61  88 118 164 205 251 302 368
#     4  11  24  36  58  93 124 156 202 257 306 374
#     4   9  20  39  59  86 120 155 197 250 310 369
#     4   9  20  39  60  87 117 150 197 252 308 368
#
# _framework density 19.863803000000001
#
# number of rings (size 3 to 8) (size 9 to 14) (size 15 to 20)
#    0.000    2.000    2.500    0.375    0.000    6.000 
#    0.000    8.750    0.000   18.000    0.000    0.000 
#    0.000    0.000    0.000    0.000    0.000    0.000 
#
# Total GULP energy -178667.506679 kJ/mol
# GULP energy per Si atom -5583.359584 kJ/mol
# Density = 1.981859 g / cm^3
# Si number density = 19.863803 Si / 1000 Ang^3
#
#
#
# Elastic Constant Matrix: (Units=GPa)
#
#
# Indices 1 2 3 4 5 6 
#
# 1 87.1856 24.9734 58.1092 0.0000 -8.1168 0.0000
# 2 24.9734 77.8158 40.8741 0.0000 -13.1998 0.0000
# 3 58.1092 40.8741 121.0624 0.0000 -2.8537 0.0000
# 4 0.0000 0.0000 0.0000 24.3596 0.0000 -13.3088
# 5 -8.1168 -13.1998 -2.8537 0.0000 26.8778 0.0000
# 6 0.0000 0.0000 0.0000 -13.3088 0.0000 27.9946
#
#
#
# Elastic Compliance Matrix: (Units=1/GPa)
#
#
# Indices 1 2 3 4 5 6 
#
# 1 0.017389 -0.000677 -0.008022 0.000000 0.004067 0.000000
# 2 -0.000677 0.017141 -0.005282 0.000000 0.007653 0.000000
# 3 -0.008022 -0.005282 0.013810 0.000000 -0.003550 0.000000
# 4 0.000000 0.000000 0.000000 0.055456 0.000000 0.026364
# 5 0.004067 0.007653 -0.003550 0.000000 0.041815 0.000000
# 6 0.000000 0.000000 0.000000 0.026364 0.000000 0.048255
#
#
# Mechanical properties :
#
#
# Convention : Reuss Voigt Hill
#
# Bulk Modulus (GPa) = 49.07229 59.33082 54.20155
# Shear Modulus (GPa) = 21.87031 26.65352 24.26192
#
# Velocity S-wave (km/s) = 3.32175 3.66705 3.49866
# Velocity P-wave (km/s) = 6.28252 6.91833 6.60808
#
# Compressibility (1/GPa) = 0.02037810
#
# Stress axis : x y z
#
# Youngs Moduli (GPa) = 57.50698 58.34107 72.40898
#
# Poissons Ratio (x) = 0.03950 0.58088
# Poissons Ratio (y) = 0.03893 0.38245
# Poissons Ratio (z) = 0.46134 0.30815
#
# Static dielectric constant tensor:
#      x y z
#    x 1.705210 0.000000 -0.022000 
#    y 0.000000 1.735890 0.000000 
#    z -0.022000 0.000000 1.696380 
# 
# From -- ./inp_files/85993.got.cif
#   From: 2010.05.17/outbox.cif.g08.bks.cpg/sg13_43_cif.got.tgz:85993.got - 2010.06.03 16:44:36.
