data_PCOD9230273
_publ_section_title
;
Structure prediction by ZEFSAII (Michael W. Deem and Ramdas Pophale) SiO2 
 PCOD9230273
Probable space group: P 2/C
;
_chemical_formula_sum "Si O2"
_cell_formula_units_Z 28
_cell_length_a 13.476223
_cell_length_b 6.700121
_cell_length_c 23.498063
_cell_angle_alpha 90.000000
_cell_angle_beta 135.607515
_cell_angle_gamma 90.000000
_cell_volume 1484.273186
_symmetry_space_group_name_H-M "P 2/C"
_symmetry_group_IT_number 13
_symmetry_cell_setting 'monoclinic'
loop_
_space_group_symop_operation_xyz
x,y,z
-x,y,1/2-z
-x,-y,-z
x,-y,1/2+z
loop_
_atom_site_type_symbol
_atom_site_label
_atom_site_fract_x
_atom_site_fract_y
_atom_site_fract_z
Si Si1 0.144430 0.259686 0.281545
Si Si2 0.891392 0.404999 0.825933
Si Si3 0.702267 0.976019 0.247308
Si Si4 0.887747 0.216022 0.402367
Si Si5 0.430106 0.989937 0.566003
Si Si6 0.888798 0.882395 0.033702
Si Si7 0.419133 0.705299 0.964624
O O1 0.112742 0.457472 0.231575
O O2 0.259056 0.309164 0.376649
O O3 0.000000 0.184138 0.250000
O O4 0.212724 0.095056 0.267674
O O5 0.761066 0.248992 0.773610
O O6 0.884101 0.564472 0.874347
O O7 0.030269 0.267905 0.890790
O O8 0.750831 0.092134 0.323935
O O9 0.538288 0.990201 0.162928
O O10 0.897164 0.210031 0.473879
O O11 0.020914 0.088240 0.432391
O O12 0.273089 0.921830 0.517409
O O13 0.499169 0.838927 0.548663
O O14 0.422466 0.194544 0.527676
O O15 0.500000 0.500000 0.000000
#
# Coordination Sequence:
#
# PCOD9230273 Si02
#       7
#     4   4   4   4   4   4   4
#     4  10  22  34  55  84 112 151 194 241 288 345
#     4  10  20  36  59  83 116 151 193 238 291 343
#     4   9  20  39  55  80 117 148 190 242 287 349
#     4   9  20  38  58  86 116 149 189 245 288 342
#     4  10  22  37  58  83 112 155 190 234 294 346
#     4  10  21  36  61  86 116 149 193 241 292 353
#     4  10  22  38  56  79 119 149 192 238 287 343
#
# _framework density 18.864453000000001
#
# number of rings (size 3 to 8) (size 9 to 14) (size 15 to 20)
#    0.000    2.286    0.000    1.286    8.000    1.143 
#    0.000    0.000    0.000   15.429    0.000    0.000 
#    0.000    0.000    0.000    0.000    0.000    0.000 
#
# Total GULP energy -156302.088493 kJ/mol
# GULP energy per Si atom -5582.217446 kJ/mol
# Density = 1.882152 g / cm^3
# Si number density = 18.864453 Si / 1000 Ang^3
#
#
#
# Elastic Constant Matrix: (Units=GPa)
#
#
# Indices 1 2 3 4 5 6 
#
# 1 38.2280 12.0747 23.7463 0.0000 27.9578 0.0000
# 2 12.0747 95.3587 31.8663 0.0000 11.5761 0.0000
# 3 23.7463 31.8663 125.3274 0.0000 26.9626 0.0000
# 4 0.0000 0.0000 0.0000 23.3830 0.0000 1.0303
# 5 27.9578 11.5761 26.9626 0.0000 25.7445 0.0000
# 6 0.0000 0.0000 0.0000 1.0303 0.0000 9.0055
#
#
#
# Elastic Compliance Matrix: (Units=1/GPa)
#
#
# Indices 1 2 3 4 5 6 
#
# 1 0.132514 -0.000967 0.007750 0.000000 -0.151589 0.000000
# 2 -0.000967 0.011616 -0.002417 0.000000 -0.001641 0.000000
# 3 0.007750 -0.002417 0.011233 0.000000 -0.019095 0.000000
# 4 0.000000 0.000000 0.000000 0.042983 0.000000 -0.004918
# 5 -0.151589 -0.001641 -0.019095 0.000000 0.224201 0.000000
# 6 0.000000 0.000000 0.000000 -0.004918 0.000000 0.111606
#
#
# Mechanical properties :
#
#
# Convention : Reuss Voigt Hill
#
# Bulk Modulus (GPa) = 6.09403 43.80986 24.95195
# Shear Modulus (GPa) = 8.61892 24.37504 16.49698
#
# Velocity S-wave (km/s) = 2.13981 3.59850 2.96040
# Velocity P-wave (km/s) = 3.05655 6.36706 4.99410
#
# Compressibility (1/GPa) = 0.16409506
#
# Stress axis : x y z
#
# Youngs Moduli (GPa) = 7.54640 86.08662 89.02204
#
# Poissons Ratio (x) = 0.08326 -0.68996
# Poissons Ratio (y) = 0.00730 0.21519
# Poissons Ratio (z) = -0.05849 0.20809
#
# Static dielectric constant tensor:
#      x y z
#    x 1.622110 0.000000 -0.006750 
#    y 0.000000 1.638810 0.000000 
#    z -0.006750 0.000000 1.666110 
# 
# From -- ./inp_files/67613.got.cif
#   From: 2010.05.17/outbox.cif.g08.bks.cpg/sg13_34_cif.got.tgz:67613.got - 2010.06.03 16:44:36.
