data_PCOD9230090
_publ_section_title
;
Structure prediction by ZEFSAII (Michael W. Deem and Ramdas Pophale) SiO2 
 PCOD9230090
Probable space group: P 2/C
;
_chemical_formula_sum "Si O2"
_cell_formula_units_Z 32
_cell_length_a 25.270064
_cell_length_b 7.748255
_cell_length_c 19.318779
_cell_angle_alpha 90.000000
_cell_angle_beta 160.767247
_cell_angle_gamma 90.000000
_cell_volume 1246.011388
_symmetry_space_group_name_H-M "P 2/C"
_symmetry_group_IT_number 13
_symmetry_cell_setting 'monoclinic'
loop_
_space_group_symop_operation_xyz
x,y,z
-x,y,1/2-z
-x,-y,-z
x,-y,1/2+z
loop_
_atom_site_type_symbol
_atom_site_label
_atom_site_fract_x
_atom_site_fract_y
_atom_site_fract_z
Si Si1 0.116531 0.162315 0.153318
Si Si2 0.003665 0.437382 0.333097
Si Si3 0.186421 0.327492 0.687274
Si Si4 0.661034 0.073915 0.526869
Si Si5 0.396548 0.647215 0.928464
Si Si6 0.673519 0.588282 0.947039
Si Si7 0.590150 0.948424 0.184566
Si Si8 0.252108 0.282496 0.114443
O O1 0.257032 0.212117 0.274538
O O2 0.224790 0.087639 0.350478
O O3 0.987297 0.315770 0.990245
O O4 0.000000 0.000000 0.000000
O O5 0.000000 0.369306 0.250000
O O6 0.122160 0.332805 0.529453
O O7 0.084687 0.627993 0.427263
O O8 0.827840 0.466257 0.148738
O O9 0.278484 0.159005 0.825841
O O10 0.311881 0.480387 0.856455
O O11 0.675360 0.234527 0.493662
O O12 0.490246 0.006495 0.341094
O O13 0.383193 0.636387 0.829365
O O14 0.561658 0.741482 0.152208
O O15 0.500000 0.507111 0.750000
O O16 0.694857 0.648424 0.894488
O O17 0.743346 0.075295 0.373923
O O18 0.500000 0.000000 0.000000
#
# Coordination Sequence:
#
# PCOD9230090 Si02
#       8
#     4   4   4   4   4   4   4   4
#     4   9  19  31  53  84 121 151 193 252 303 359
#     4   9  21  37  61  87 122 162 208 259 316 381
#     4  10  20  35  61  89 125 158 203 261 311 365
#     4  10  21  34  59  93 116 158 214 259 309 367
#     4   9  18  31  56  87 114 155 196 245 310 362
#     4  11  21  36  61  86 117 159 212 255 303 380
#     4   9  17  35  57  83 123 153 197 251 310 367
#     4   9  18  35  57  85 115 161 198 253 305 372
#
# _framework density 25.681947999999998
#
# number of rings (size 3 to 8) (size 9 to 14) (size 15 to 20)
#    0.000    2.500    1.250    0.375    8.750    0.000 
#    0.000    5.625   11.000    0.750    0.000    0.000 
#    0.000    0.000    0.000    0.000    0.000    0.000 
#
# Total GULP energy -178286.670584 kJ/mol
# GULP energy per Si atom -5571.458456 kJ/mol
# Density = 2.562349 g / cm^3
# Si number density = 25.681948 Si / 1000 Ang^3
#
#
#
# Elastic Constant Matrix: (Units=GPa)
#
#
# Indices 1 2 3 4 5 6 
#
# 1 81.6918 13.5269 25.6951 0.0000 14.5463 0.0000
# 2 13.5269 109.7877 18.5552 0.0000 8.2167 0.0000
# 3 25.6951 18.5552 84.0166 0.0000 24.3338 0.0000
# 4 0.0000 0.0000 0.0000 37.7610 0.0000 4.6878
# 5 14.5463 8.2167 24.3338 0.0000 52.1409 0.0000
# 6 0.0000 0.0000 0.0000 4.6878 0.0000 25.5254
#
#
#
# Elastic Compliance Matrix: (Units=1/GPa)
#
#
# Indices 1 2 3 4 5 6 
#
# 1 0.013851 -0.000972 -0.003407 0.000000 -0.002121 0.000000
# 2 -0.000972 0.009546 -0.001681 0.000000 -0.000449 0.000000
# 3 -0.003407 -0.001681 0.014990 0.000000 -0.005780 0.000000
# 4 0.000000 0.000000 0.000000 0.027100 0.000000 -0.004977
# 5 -0.002121 -0.000449 -0.005780 0.000000 0.022539 0.000000
# 6 0.000000 0.000000 0.000000 -0.004977 0.000000 0.040091
#
#
# Mechanical properties :
#
#
# Convention : Reuss Voigt Hill
#
# Bulk Modulus (GPa) = 38.07116 43.45005 40.76060
# Shear Modulus (GPa) = 33.55860 37.60007 35.57933
#
# Velocity S-wave (km/s) = 3.61875 3.83046 3.72611
# Velocity P-wave (km/s) = 5.68478 6.04305 5.86665
#
# Compressibility (1/GPa) = 0.02626660
#
# Stress axis : x y z
#
# Youngs Moduli (GPa) = 72.19459 104.75658 66.71179
#
# Poissons Ratio (x) = 0.10183 0.22730
# Poissons Ratio (y) = 0.07018 0.11214
# Poissons Ratio (z) = 0.24599 0.17610
#
# Static dielectric constant tensor:
#      x y z
#    x 2.105060 0.000000 -0.000590 
#    y 0.000000 2.181880 0.000000 
#    z -0.000590 0.000000 2.139970 
# 
# From -- ./inp_files/82537.got.cif
#   From: 2010.05.17/outbox.cif.g08.bks.cpg/sg13_42_cif.got.tgz:82537.got - 2010.06.03 16:44:36.
