data_PCOD9230873
_publ_section_title
;
Structure prediction by ZEFSAII (Michael W. Deem and Ramdas Pophale) SiO2 
 PCOD9230873
Probable space group: P 2/C
;
_chemical_formula_sum "Si O2"
_cell_formula_units_Z 20
_cell_length_a 12.405668
_cell_length_b 6.941913
_cell_length_c 23.187213
_cell_angle_alpha 90.000000
_cell_angle_beta 155.091350
_cell_angle_gamma 90.000000
_cell_volume 841.023503
_symmetry_space_group_name_H-M "P 2/C"
_symmetry_group_IT_number 13
_symmetry_cell_setting 'monoclinic'
loop_
_space_group_symop_operation_xyz
x,y,z
-x,y,1/2-z
-x,-y,-z
x,-y,1/2+z
loop_
_atom_site_type_symbol
_atom_site_label
_atom_site_fract_x
_atom_site_fract_y
_atom_site_fract_z
Si Si1 0.322839 0.159444 0.000190
Si Si2 0.376137 0.495446 0.096308
Si Si3 0.109098 0.879155 0.745304
Si Si4 0.892600 0.664655 0.878812
Si Si5 0.312035 0.088212 0.605847
O O1 0.357105 0.388821 0.025485
O O2 0.588735 0.081693 0.103387
O O3 0.311177 0.084317 0.060672
O O4 0.070496 0.068017 0.849999
O O5 0.087790 0.487153 0.980463
O O6 0.605800 0.403221 0.243595
O O7 0.422732 0.725294 0.123329
O O8 0.000000 0.782167 0.750000
O O9 0.082654 0.749079 0.674924
O O10 0.025519 0.832924 0.979830
O O11 0.500000 0.057551 0.750000
#
# Coordination Sequence:
#
# PCOD9230873 Si02
#       5
#     4   4   4   4   4
#     4  10  21  36  60  83 114 146 184 231 275 332
#     4   9  19  36  55  77 112 146 183 224 279 314
#     4  10  20  38  59  84 112 147 186 230 278 332
#     4   8  19  36  54  79 112 144 181 234 265 324
#     4   9  20  36  57  82 116 145 184 229 278 323
#
# _framework density 23.780546999999999
#
# number of rings (size 3 to 8) (size 9 to 14) (size 15 to 20)
#    1.200    1.600    0.000    0.600    2.800    1.600 
#    0.000   14.000    0.000    0.000    0.000    0.000 
#    0.000    0.000    0.000    0.000    0.000    0.000 
#
# Total GULP energy -111404.191970 kJ/mol
# GULP energy per Si atom -5570.209599 kJ/mol
# Density = 2.372642 g / cm^3
# Si number density = 23.780547 Si / 1000 Ang^3
#
#
#
# Elastic Constant Matrix: (Units=GPa)
#
#
# Indices 1 2 3 4 5 6 
#
# 1 67.4457 11.9848 18.1376 0.0000 -5.8055 0.0000
# 2 11.9848 67.2328 32.5637 0.0000 1.5186 0.0000
# 3 18.1376 32.5637 132.6994 0.0000 17.9040 0.0000
# 4 0.0000 0.0000 0.0000 26.6393 0.0000 5.6513
# 5 -5.8055 1.5186 17.9040 0.0000 37.4591 0.0000
# 6 0.0000 0.0000 0.0000 5.6513 0.0000 11.4385
#
#
#
# Elastic Compliance Matrix: (Units=1/GPa)
#
#
# Indices 1 2 3 4 5 6 
#
# 1 0.016070 -0.001867 -0.002228 0.000000 0.003631 0.000000
# 2 -0.001867 0.017164 -0.004087 0.000000 0.000968 0.000000
# 3 -0.002228 -0.004087 0.009479 0.000000 -0.004710 0.000000
# 4 0.000000 0.000000 0.000000 0.041934 0.000000 -0.020718
# 5 0.003631 0.000968 -0.004710 0.000000 0.029471 0.000000
# 6 0.000000 0.000000 0.000000 -0.020718 0.000000 0.097660
#
#
# Mechanical properties :
#
#
# Convention : Reuss Voigt Hill
#
# Bulk Modulus (GPa) = 37.95435 43.63892 40.79663
# Shear Modulus (GPa) = 21.10356 28.75349 24.92852
#
# Velocity S-wave (km/s) = 2.98221 3.48101 3.24122
# Velocity P-wave (km/s) = 5.27759 5.87768 5.58570
#
# Compressibility (1/GPa) = 0.02634744
#
# Stress axis : x y z
#
# Youngs Moduli (GPa) = 62.22628 58.25992 105.49713
#
# Poissons Ratio (x) = 0.10880 0.23507
# Poissons Ratio (y) = 0.11621 0.43122
# Poissons Ratio (z) = 0.13865 0.23814
#
# Static dielectric constant tensor:
#      x y z
#    x 1.997850 0.000000 -0.001040 
#    y 0.000000 1.963760 0.000000 
#    z -0.001040 0.000000 1.933240 
# 
# From -- ./inp_files/75442.got.cif
#   From: 2010.05.17/outbox.cif.g08.bks.cpg/sg13_38_cif.got.tgz:75442.got - 2010.06.03 16:44:36.
