data_PCOD9230796
_publ_section_title
;
Structure prediction by ZEFSAII (Michael W. Deem and Ramdas Pophale) SiO2 
 PCOD9230796
Probable space group: P 2/C
;
_chemical_formula_sum "Si O2"
_cell_formula_units_Z 28
_cell_length_a 11.278852
_cell_length_b 5.246357
_cell_length_c 18.800987
_cell_angle_alpha 90.000000
_cell_angle_beta 108.659479
_cell_angle_gamma 90.000000
_cell_volume 1054.031597
_symmetry_space_group_name_H-M "P 2/C"
_symmetry_group_IT_number 13
_symmetry_cell_setting 'monoclinic'
loop_
_space_group_symop_operation_xyz
x,y,z
-x,y,1/2-z
-x,-y,-z
x,-y,1/2+z
loop_
_atom_site_type_symbol
_atom_site_label
_atom_site_fract_x
_atom_site_fract_y
_atom_site_fract_z
Si Si1 0.634580 0.438479 0.928072
Si Si2 0.577605 0.084525 0.583688
Si Si3 0.377313 0.756585 0.774849
Si Si4 0.204821 0.164295 0.431049
Si Si5 0.845667 0.788378 0.969554
Si Si6 0.003450 0.525140 0.616356
Si Si7 0.756105 0.264245 0.802574
O O1 0.493067 0.336363 0.902173
O O2 0.699198 0.306641 0.871335
O O3 0.689954 0.344866 0.014727
O O4 0.698200 0.717133 0.936412
O O5 0.500000 0.000000 0.500000
O O6 0.573002 0.863032 0.641192
O O7 0.724588 0.072777 0.591650
O O8 0.500000 0.727271 0.750000
O O9 0.303899 0.491726 0.755736
O O10 0.290361 0.990434 0.731687
O O11 0.102615 0.309157 0.364524
O O12 0.140388 0.059409 0.491024
O O13 0.920418 0.610630 0.039530
O O14 0.903032 0.723638 0.904611
O O15 0.095361 0.319398 0.668367
#
# Coordination Sequence:
#
# PCOD9230796 Si02
#       7
#     4   4   4   4   4   4   4
#     4   9  20  38  61 105 131 181 229 291 358 415
#     4  10  23  45  68 102 146 184 234 294 372 440
#     4  12  26  48  71 106 140 183 242 294 362 440
#     4  10  20  37  65  99 141 183 237 288 358 431
#     4   9  18  33  61  97 134 176 235 301 339 425
#     4   9  20  36  60  98 134 177 242 289 354 412
#     4  11  25  42  74  99 139 185 237 299 353 419
#
# _framework density 26.564668000000001
#
# number of rings (size 3 to 8) (size 9 to 14) (size 15 to 20)
#    0.000    2.000    1.429    1.714    6.000    0.571 
#    7.714    0.714    0.000    0.000    0.000    0.000 
#    0.000    0.000    0.000    0.000    0.000    0.000 
#
# Total GULP energy -156490.703427 kJ/mol
# GULP energy per Si atom -5588.953694 kJ/mol
# Density = 2.650421 g / cm^3
# Si number density = 26.564668 Si / 1000 Ang^3
#
#
#
# Elastic Constant Matrix: (Units=GPa)
#
#
# Indices 1 2 3 4 5 6 
#
# 1 130.9857 41.0292 32.0834 0.0000 39.5540 0.0000
# 2 41.0292 110.1995 19.0675 0.0000 32.7067 0.0000
# 3 32.0834 19.0675 93.5286 0.0000 20.9309 0.0000
# 4 0.0000 0.0000 0.0000 25.4218 0.0000 13.4377
# 5 39.5540 32.7067 20.9309 0.0000 44.1270 0.0000
# 6 0.0000 0.0000 0.0000 13.4377 0.0000 45.6125
#
#
#
# Elastic Compliance Matrix: (Units=1/GPa)
#
#
# Indices 1 2 3 4 5 6 
#
# 1 0.010874 -0.001412 -0.001673 0.000000 -0.007907 0.000000
# 2 -0.001412 0.011838 -0.000278 0.000000 -0.007376 0.000000
# 3 -0.001673 -0.000278 0.012240 0.000000 -0.004100 0.000000
# 4 0.000000 0.000000 0.000000 0.046592 0.000000 -0.013726
# 5 -0.007907 -0.007376 -0.004100 0.000000 0.037161 0.000000
# 6 0.000000 0.000000 0.000000 -0.013726 0.000000 0.025968
#
#
# Mechanical properties :
#
#
# Convention : Reuss Voigt Hill
#
# Bulk Modulus (GPa) = 35.42938 57.67488 46.55213
# Shear Modulus (GPa) = 31.09301 39.20118 35.14710
#
# Velocity S-wave (km/s) = 3.42492 3.84564 3.64136
# Velocity P-wave (km/s) = 5.38573 6.44025 5.93645
#
# Compressibility (1/GPa) = 0.02822516
#
# Stress axis : x y z
#
# Youngs Moduli (GPa) = 91.96031 84.47648 81.69908
#
# Poissons Ratio (x) = 0.11932 0.13666
# Poissons Ratio (y) = 0.12989 0.02272
# Poissons Ratio (z) = 0.15383 0.02349
#
# Static dielectric constant tensor:
#      x y z
#    x 2.189390 0.000000 -0.025310 
#    y 0.000000 2.073650 0.000000 
#    z -0.025310 0.000000 2.102420 
# 
# From -- ./inp_files/77527.got.cif
#   From: 2010.05.17/outbox.cif.g08.bks.cpg/sg13_39_cif.got.tgz:77527.got - 2010.06.03 16:44:36.
