data_PCOD9230306
_publ_section_title
;
Structure prediction by ZEFSAII (Michael W. Deem and Ramdas Pophale) SiO2 
 PCOD9230306
Probable space group: P 2/C
;
_chemical_formula_sum "Si O2"
_cell_formula_units_Z 32
_cell_length_a 9.048471
_cell_length_b 23.195465
_cell_length_c 16.134097
_cell_angle_alpha 90.000000
_cell_angle_beta 152.000877
_cell_angle_gamma 90.000000
_cell_volume 1589.716692
_symmetry_space_group_name_H-M "P 2/C"
_symmetry_group_IT_number 13
_symmetry_cell_setting 'monoclinic'
loop_
_space_group_symop_operation_xyz
x,y,z
-x,y,1/2-z
-x,-y,-z
x,-y,1/2+z
loop_
_atom_site_type_symbol
_atom_site_label
_atom_site_fract_x
_atom_site_fract_y
_atom_site_fract_z
Si Si1 0.469523 0.181131 0.640803
Si Si2 0.226854 0.553370 0.937738
Si Si3 0.590852 0.450592 0.200904
Si Si4 0.157873 0.925613 0.238547
Si Si5 0.451438 0.979769 0.631035
Si Si6 0.157290 0.127793 0.240158
Si Si7 0.353070 0.361511 0.957082
Si Si8 0.626818 0.759194 0.572622
O O1 0.500000 0.201224 0.750000
O O2 0.728457 0.132845 0.747377
O O3 0.493195 0.227853 0.579577
O O4 0.125943 0.152118 0.456076
O O5 0.000000 0.532405 0.750000
O O6 0.962179 0.562441 0.876299
O O7 0.474875 0.506808 0.092624
O O8 0.408954 0.608712 0.991861
O O9 0.500000 0.458441 0.250000
O O10 0.407085 0.398312 0.066476
O O11 0.000000 0.916631 0.250000
O O12 0.456225 0.968438 0.384775
O O13 0.902631 0.959528 0.058166
O O14 0.500000 0.998003 0.750000
O O15 0.662638 0.924217 0.713079
O O16 0.382238 0.181570 0.378399
O O17 0.000000 0.109824 0.250000
O O18 0.000000 0.366361 0.750000
O O19 0.448378 0.295570 0.018726
O O20 0.000000 0.746479 0.750000
#
# Coordination Sequence:
#
# PCOD9230306 Si02
#       8
#     4   4   4   4   4   4   4   4
#     4  10  20  38  60  84 109 139 182 236 286 333
#     4  10  20  36  60  84 120 160 196 233 287 347
#     4  11  21  36  59  91 123 154 194 244 289 335
#     4  12  23  36  56  80 112 146 183 224 279 349
#     4  12  23  36  54  81 111 143 182 230 280 333
#     4   9  19  38  59  77 106 144 182 223 279 341
#     4  11  22  39  60  83 115 158 201 235 280 346
#     4   9  20  39  61  80 107 148 188 229 283 344
#
# _framework density 20.129373000000001
#
# number of rings (size 3 to 8) (size 9 to 14) (size 15 to 20)
#    0.000    1.750    0.000    8.625    0.000    1.500 
#    0.000    5.000    0.000    0.000    0.000    0.000 
#    0.000    0.000    0.000    0.000    0.000    0.000 
#
# Total GULP energy -178793.067810 kJ/mol
# GULP energy per Si atom -5587.283369 kJ/mol
# Density = 2.008356 g / cm^3
# Si number density = 20.129373 Si / 1000 Ang^3
#
#
#
# Elastic Constant Matrix: (Units=GPa)
#
#
# Indices 1 2 3 4 5 6 
#
# 1 72.0001 14.3296 6.6174 0.0000 -2.1750 0.0000
# 2 14.3296 60.3833 -4.9138 0.0000 3.8326 0.0000
# 3 6.6174 -4.9138 52.2598 0.0000 6.3329 0.0000
# 4 0.0000 0.0000 0.0000 20.9624 0.0000 8.9258
# 5 -2.1750 3.8326 6.3329 0.0000 27.1752 0.0000
# 6 0.0000 0.0000 0.0000 8.9258 0.0000 -25.5696
#
#
#
# Elastic Compliance Matrix: (Units=1/GPa)
#
#
# Indices 1 2 3 4 5 6 
#
# 1 0.014972 -0.003909 -0.002547 0.000000 0.002343 0.000000
# 2 -0.003909 0.017919 0.002597 0.000000 -0.003445 0.000000
# 3 -0.002547 0.002597 0.020346 0.000000 -0.005312 0.000000
# 4 0.000000 0.000000 0.000000 0.041531 0.000000 0.014498
# 5 0.002343 -0.003445 -0.005312 0.000000 0.038709 0.000000
# 6 0.000000 0.000000 0.000000 0.014498 0.000000 -0.034048
#
#
# Mechanical properties :
#
#
# Convention : Reuss Voigt Hill
#
# Bulk Modulus (GPa) = 21.96938 24.07885 23.02411
# Shear Modulus (GPa) = 40.87668 15.75427 28.31547
#
# Velocity S-wave (km/s) = 4.51122 2.80062 3.75463
# Velocity P-wave (km/s) = 6.17029 4.73772 5.50084
#
# Compressibility (1/GPa) = 0.04551791
#
# Stress axis : x y z
#
# Youngs Moduli (GPa) = 66.79247 55.80814 49.15068
#
# Poissons Ratio (x) = 0.21815 0.12520
# Poissons Ratio (y) = 0.26109 -0.12766
# Poissons Ratio (z) = 0.17014 -0.14495
#
# Static dielectric constant tensor:
#      x y z
#    x 1.730670 0.000000 0.027850 
#    y 0.000000 1.700170 0.000000 
#    z 0.027850 0.000000 1.750020 
# 
# From -- ./inp_files/48316.got.cif
#   From: 2010.05.17/outbox.cif.g08.bks.cpg/sg13_25_cif.got.tgz:48316.got - 2010.06.03 16:44:36.
