data_PCOD9230313
_publ_section_title
;
Structure prediction by ZEFSAII (Michael W. Deem and Ramdas Pophale) SiO2 
 PCOD9230313
Probable space group: P 2/C
;
_chemical_formula_sum "Si O2"
_cell_formula_units_Z 18
_cell_length_a 16.656478
_cell_length_b 9.630054
_cell_length_c 8.383584
_cell_angle_alpha 90.000000
_cell_angle_beta 32.818564
_cell_angle_gamma 90.000000
_cell_volume 728.828424
_symmetry_space_group_name_H-M "P 2/C"
_symmetry_group_IT_number 13
_symmetry_cell_setting 'monoclinic'
loop_
_space_group_symop_operation_xyz
x,y,z
-x,y,1/2-z
-x,-y,-z
x,-y,1/2+z
loop_
_atom_site_type_symbol
_atom_site_label
_atom_site_fract_x
_atom_site_fract_y
_atom_site_fract_z
Si Si1 0.500000 0.864003 0.250000
Si Si2 0.479986 0.336617 0.051770
Si Si3 0.019297 0.774039 0.392754
Si Si4 0.777248 0.047090 0.472950
Si Si5 0.255884 0.247736 0.706853
O O1 0.423852 0.755349 0.498016
O O2 0.387048 0.953411 0.330778
O O3 0.372945 0.287658 0.372800
O O4 0.500000 0.500000 0.000000
O O5 0.651774 0.300245 0.795935
O O6 0.103453 0.691100 0.392632
O O7 0.000000 0.709532 0.250000
O O8 0.875369 0.843893 0.708626
O O9 0.137462 0.900746 0.170165
O O10 0.777353 0.096887 0.657839
#
# Coordination Sequence:
#
# PCOD9230313 Si02
#       5
#     2   4   4   4   4
#     4  10  20  36  60  86 118 160 210 260 304 374
#     4  10  21  39  62  88 118 156 204 263 321 358
#     4  11  21  37  59  88 129 171 200 240 304 370
#     4  10  21  36  59  91 130 166 201 246 303 371
#     4  10  21  37  62  91 119 161 207 248 299 370
#
# _framework density 24.697171999999998
#
# number of rings (size 3 to 8) (size 9 to 14) (size 15 to 20)
#    0.000    1.778    0.000    6.000    0.000    1.778 
#    0.000    8.889    0.000   33.333    0.000    0.000 
#    0.000    0.000    0.000    0.000    0.000    0.000 
#
# Total GULP energy -100334.785676 kJ/mol
# GULP energy per Si atom -5574.154760 kJ/mol
# Density = 2.464096 g / cm^3
# Si number density = 24.697172 Si / 1000 Ang^3
#
#
#
# Elastic Constant Matrix: (Units=GPa)
#
#
# Indices 1 2 3 4 5 6 
#
# 1 141.4325 -3.4139 29.3165 0.0000 -14.0023 0.0000
# 2 -3.4139 47.1079 35.0469 0.0000 9.6707 0.0000
# 3 29.3165 35.0469 102.3915 0.0000 5.1063 0.0000
# 4 0.0000 0.0000 0.0000 -23.7796 0.0000 -22.0141
# 5 -14.0023 9.6707 5.1063 0.0000 51.4096 0.0000
# 6 0.0000 0.0000 0.0000 -22.0141 0.0000 -2.7587
#
#
#
# Elastic Compliance Matrix: (Units=1/GPa)
#
#
# Indices 1 2 3 4 5 6 
#
# 1 0.008016 0.002615 -0.003291 0.000000 0.002018 0.000000
# 2 0.002615 0.030365 -0.010947 0.000000 -0.003912 0.000000
# 3 -0.003291 -0.010947 0.014469 0.000000 -0.000274 0.000000
# 4 0.000000 0.000000 0.000000 0.006584 0.000000 -0.052537
# 5 0.002018 -0.003912 -0.000274 0.000000 0.020764 0.000000
# 6 0.000000 0.000000 0.000000 -0.052537 0.000000 0.056751
#
#
# Mechanical properties :
#
#
# Convention : Reuss Voigt Hill
#
# Bulk Modulus (GPa) = 33.77938 45.87011 39.82474
# Shear Modulus (GPa) = 29.40114 20.30643 24.85378
#
# Velocity S-wave (km/s) = 3.45406 2.87054 3.17573
# Velocity P-wave (km/s) = 5.44192 5.44059 5.44125
#
# Compressibility (1/GPa) = 0.02960386
#
# Stress axis : x y z
#
# Youngs Moduli (GPa) = 124.75813 32.93306 69.11246
#
# Poissons Ratio (x) = -0.08611 0.22742
# Poissons Ratio (y) = -0.32620 0.75656
# Poissons Ratio (z) = 0.41053 0.36051
#
# Static dielectric constant tensor:
#      x y z
#    x 2.235120 0.000000 0.068270 
#    y 0.000000 2.139640 0.000000 
#    z 0.068270 0.000000 2.051760 
# 
# From -- ./inp_files/11651.got.cif
#   From: 2010.05.17/outbox.cif.g08.bks.cpg/sg13_6_cif.got.tgz:11651.got - 2010.06.03 16:44:36.
