data_PCOD9230263
_publ_section_title
;
Structure prediction by ZEFSAII (Michael W. Deem and Ramdas Pophale) SiO2 
 PCOD9230263
Probable space group: P 2/C
;
_chemical_formula_sum "Si O2"
_cell_formula_units_Z 30
_cell_length_a 11.784276
_cell_length_b 16.002931
_cell_length_c 8.472987
_cell_angle_alpha 90.000000
_cell_angle_beta 93.720450
_cell_angle_gamma 90.000000
_cell_volume 1594.493475
_symmetry_space_group_name_H-M "P 2/C"
_symmetry_group_IT_number 13
_symmetry_cell_setting 'monoclinic'
loop_
_space_group_symop_operation_xyz
x,y,z
-x,y,1/2-z
-x,-y,-z
x,-y,1/2+z
loop_
_atom_site_type_symbol
_atom_site_label
_atom_site_fract_x
_atom_site_fract_y
_atom_site_fract_z
Si Si1 0.303254 0.398501 0.057159
Si Si2 0.876996 0.094354 0.311391
Si Si3 0.739479 0.997162 0.051022
Si Si4 0.871106 0.713091 0.781161
Si Si5 0.629950 0.111699 0.800359
Si Si6 0.322703 0.265854 0.488975
Si Si7 0.500000 0.293536 0.250000
Si Si8 0.632737 0.573741 0.294029
O O1 0.192018 0.350156 0.107576
O O2 0.411046 0.349284 0.142265
O O3 0.310018 0.491723 0.127469
O O4 0.314217 0.402193 0.869899
O O5 0.785089 0.069270 0.170312
O O6 0.871650 0.192426 0.348835
O O7 0.000000 0.076322 0.250000
O O8 0.842933 0.037426 0.455532
O O9 0.691396 0.921552 0.149812
O O10 0.645737 0.036854 0.927760
O O11 0.792591 0.718433 0.617745
O O12 0.000000 0.690038 0.750000
O O13 0.500000 0.129936 0.750000
O O14 0.685507 0.192600 0.884459
O O15 0.421355 0.244990 0.368853
O O16 0.357661 0.350331 0.582336
O O17 0.500000 0.555205 0.250000
#
# Coordination Sequence:
#
# PCOD9230263 Si02
#       8
#     4   4   4   4   4   4   2   4
#     4  11  22  38  63  93 123 162 197 250 304 364
#     4  10  20  39  64  87 116 154 209 259 302 343
#     4  10  22  39  60  88 120 159 201 251 307 364
#     4  10  23  43  63  86 126 165 205 251 305 359
#     4  11  23  39  57  89 127 163 198 243 307 372
#     4  11  23  39  62  92 123 159 209 252 300 368
#     4  10  20  36  58  90 122 160 196 248 310 350
#     4  12  22  39  64  98 128 154 202 253 307 355
#
# _framework density 18.814751000000001
#
# number of rings (size 3 to 8) (size 9 to 14) (size 15 to 20)
#    0.000    1.333    3.333    3.200    1.867    1.067 
#    1.200    3.333    0.000    0.000    0.000    0.000 
#    0.000    0.000    0.000    0.000    0.000    0.000 
#
# Total GULP energy -167575.938112 kJ/mol
# GULP energy per Si atom -5585.864604 kJ/mol
# Density = 1.877193 g / cm^3
# Si number density = 18.814751 Si / 1000 Ang^3
#
#
#
# Elastic Constant Matrix: (Units=GPa)
#
#
# Indices 1 2 3 4 5 6 
#
# 1 99.1444 19.8495 28.8371 0.0000 -12.0326 0.0000
# 2 19.8495 59.3398 15.5412 0.0000 -16.6567 0.0000
# 3 28.8371 15.5412 68.9422 0.0000 -11.2401 0.0000
# 4 0.0000 0.0000 0.0000 18.9105 0.0000 0.5085
# 5 -12.0326 -16.6567 -11.2401 0.0000 22.1196 0.0000
# 6 0.0000 0.0000 0.0000 0.5085 0.0000 22.6056
#
#
#
# Elastic Compliance Matrix: (Units=1/GPa)
#
#
# Indices 1 2 3 4 5 6 
#
# 1 0.012055 -0.002161 -0.004090 0.000000 0.002852 0.000000
# 2 -0.002161 0.022124 -0.001700 0.000000 0.014621 0.000000
# 3 -0.004090 -0.001700 0.017475 0.000000 0.005375 0.000000
# 4 0.000000 0.000000 0.000000 0.052913 0.000000 -0.001190
# 5 0.002852 0.014621 0.005375 0.000000 0.060502 0.000000
# 6 0.000000 0.000000 0.000000 -0.001190 0.000000 0.044264
#
#
# Mechanical properties :
#
#
# Convention : Reuss Voigt Hill
#
# Bulk Modulus (GPa) = 27.96970 39.54246 33.75608
# Shear Modulus (GPa) = 21.08361 23.60703 22.34532
#
# Velocity S-wave (km/s) = 3.35115 3.54603 3.44997
# Velocity P-wave (km/s) = 5.46550 6.15046 5.81807
#
# Compressibility (1/GPa) = 0.03575298
#
# Stress axis : x y z
#
# Youngs Moduli (GPa) = 82.95538 45.19948 57.22375
#
# Poissons Ratio (x) = 0.09766 0.23406
# Poissons Ratio (y) = 0.17923 0.09727
# Poissons Ratio (z) = 0.33930 0.07683
#
# Static dielectric constant tensor:
#      x y z
#    x 1.629390 0.000000 -0.001620 
#    y 0.000000 1.645970 0.000000 
#    z -0.001620 0.000000 1.652680 
# 
# From -- ./inp_files/16513.got.cif
#   From: 2010.05.17/outbox.cif.g08.bks.cpg/sg13_9_cif.got.tgz:16513.got - 2010.06.03 16:44:36.
