data_PCOD9230996
_publ_section_title
;
Structure prediction by ZEFSAII (Michael W. Deem and Ramdas Pophale) SiO2 
 PCOD9230996
Probable space group: P 2/C
;
_chemical_formula_sum "Si O2"
_cell_formula_units_Z 26
_cell_length_a 8.746697
_cell_length_b 9.752954
_cell_length_c 19.384015
_cell_angle_alpha 90.000000
_cell_angle_beta 49.056573
_cell_angle_gamma 90.000000
_cell_volume 1249.039724
_symmetry_space_group_name_H-M "P 2/C"
_symmetry_group_IT_number 13
_symmetry_cell_setting 'monoclinic'
loop_
_space_group_symop_operation_xyz
x,y,z
-x,y,1/2-z
-x,-y,-z
x,-y,1/2+z
loop_
_atom_site_type_symbol
_atom_site_label
_atom_site_fract_x
_atom_site_fract_y
_atom_site_fract_z
Si Si1 0.538375 0.842534 0.513517
Si Si2 0.000000 0.589063 0.750000
Si Si3 0.892396 0.776886 0.889754
Si Si4 0.636896 0.390372 0.872736
Si Si5 0.708733 0.743883 0.203963
Si Si6 0.792876 0.419111 0.545030
Si Si7 0.938063 0.939279 0.445000
O O1 0.315199 0.784275 0.593788
O O2 0.617569 0.734344 0.432642
O O3 0.500000 0.000000 0.500000
O O4 0.719635 0.865034 0.513567
O O5 0.049436 0.687603 0.799907
O O6 0.819048 0.494462 0.831886
O O7 0.941545 0.932698 0.891858
O O8 0.850877 0.704454 0.975673
O O9 0.695447 0.319104 0.783129
O O10 0.418611 0.468002 0.928823
O O11 0.500000 0.823955 0.250000
O O12 0.718913 0.628956 0.141845
O O13 0.903112 0.833298 0.132163
O O14 0.000000 0.500000 0.500000
O O15 0.000000 0.000000 0.500000
#
# Coordination Sequence:
#
# PCOD9230996 Si02
#       7
#     4   2   4   4   4   4   4
#     4   9  21  39  67  90 123 158 217 261 321 381
#     4  12  24  40  58  90 136 164 218 254 326 396
#     4  10  23  41  58  91 126 163 211 270 311 388
#     4  10  22  39  62  91 125 172 205 263 326 389
#     4  10  21  37  62  91 123 155 205 262 320 381
#     4  10  20  38  62  88 121 164 213 258 315 391
#     4  11  21  40  65  90 118 163 210 267 323 377
#
# _framework density 20.815992000000001
#
# number of rings (size 3 to 8) (size 9 to 14) (size 15 to 20)
#    0.000    1.846    1.538    1.846    2.154    6.154 
#    0.000    0.000    0.000    0.000    0.000    0.000 
#    0.000    0.000    0.000    0.000    0.000    0.000 
#
# Total GULP energy -144858.990724 kJ/mol
# GULP energy per Si atom -5571.499643 kJ/mol
# Density = 2.076861 g / cm^3
# Si number density = 20.815992 Si / 1000 Ang^3
#
#
#
# Elastic Constant Matrix: (Units=GPa)
#
#
# Indices 1 2 3 4 5 6 
#
# 1 108.1595 31.1299 14.9043 0.0000 -18.6325 0.0000
# 2 31.1299 64.7766 11.8603 0.0000 -10.5276 0.0000
# 3 14.9043 11.8603 53.1481 0.0000 2.0158 0.0000
# 4 0.0000 0.0000 0.0000 31.3156 0.0000 -2.2332
# 5 -18.6325 -10.5276 2.0158 0.0000 40.7022 0.0000
# 6 0.0000 0.0000 0.0000 -2.2332 0.0000 30.9166
#
#
#
# Elastic Compliance Matrix: (Units=1/GPa)
#
#
# Indices 1 2 3 4 5 6 
#
# 1 0.011593 -0.004431 -0.002424 0.000000 0.004281 0.000000
# 2 -0.004431 0.018596 -0.003018 0.000000 0.002931 0.000000
# 3 -0.002424 -0.003018 0.020279 0.000000 -0.002895 0.000000
# 4 0.000000 0.000000 0.000000 0.032098 0.000000 0.002319
# 5 0.004281 0.002931 -0.002895 0.000000 0.027430 0.000000
# 6 0.000000 0.000000 0.000000 0.002319 0.000000 0.032513
#
#
# Mechanical properties :
#
#
# Convention : Reuss Voigt Hill
#
# Bulk Modulus (GPa) = 32.55301 37.98591 35.26946
# Shear Modulus (GPa) = 28.98618 31.79952 30.39285
#
# Velocity S-wave (km/s) = 3.73566 3.91275 3.82523
# Velocity P-wave (km/s) = 5.85486 6.22101 6.04071
#
# Compressibility (1/GPa) = 0.03071913
#
# Stress axis : x y z
#
# Youngs Moduli (GPa) = 86.26227 53.77417 49.31320
#
# Poissons Ratio (x) = 0.23830 0.11955
# Poissons Ratio (y) = 0.38227 0.14884
# Poissons Ratio (z) = 0.20913 0.16231
#
# Static dielectric constant tensor:
#      x y z
#    x 1.833920 0.000000 -0.062890 
#    y 0.000000 1.743000 0.000000 
#    z -0.062890 0.000000 1.747180 
# 
# From -- ./inp_files/75923.got.cif
#   From: 2010.05.17/outbox.cif.g08.bks.cpg/sg13_38_cif.got.tgz:75923.got - 2010.06.03 16:44:36.
