data_PCOD9230066
_publ_section_title
;
Structure prediction by ZEFSAII (Michael W. Deem and Ramdas Pophale) SiO2 
 PCOD9230066
Probable space group: P 2/C
;
_chemical_formula_sum "Si O2"
_cell_formula_units_Z 30
_cell_length_a 12.109818
_cell_length_b 9.052571
_cell_length_c 14.902482
_cell_angle_alpha 90.000000
_cell_angle_beta 90.334081
_cell_angle_gamma 90.000000
_cell_volume 1633.656628
_symmetry_space_group_name_H-M "P 2/C"
_symmetry_group_IT_number 13
_symmetry_cell_setting 'monoclinic'
loop_
_space_group_symop_operation_xyz
x,y,z
-x,y,1/2-z
-x,-y,-z
x,-y,1/2+z
loop_
_atom_site_type_symbol
_atom_site_label
_atom_site_fract_x
_atom_site_fract_y
_atom_site_fract_z
Si Si1 0.726670 0.352840 0.942598
Si Si2 0.739013 0.298549 0.740323
Si Si3 0.859796 0.130633 0.436801
Si Si4 0.500000 0.834175 0.250000
Si Si5 0.483868 0.140660 0.560266
Si Si6 0.302836 0.347685 0.958769
Si Si7 0.133448 0.986665 0.757397
Si Si8 0.884871 0.836608 0.556462
O O1 0.765634 0.367822 0.838444
O O2 0.631495 0.227218 0.948056
O O3 0.682666 0.504152 0.984212
O O4 0.823757 0.296739 0.007811
O O5 0.609015 0.264139 0.748234
O O6 0.746115 0.375060 0.642367
O O7 0.806270 0.144451 0.733585
O O8 0.779655 0.241744 0.486902
O O9 0.828651 0.090358 0.334596
O O10 0.984578 0.191355 0.436617
O O11 0.864942 0.978231 0.492450
O O12 0.506251 0.924529 0.339847
O O13 0.582236 0.258729 0.549107
O O14 0.500000 0.000000 0.500000
O O15 0.154911 0.886266 0.844908
O O16 0.000000 0.009404 0.750000
#
# Coordination Sequence:
#
# PCOD9230066 Si02
#       8
#     4   4   4   2   4   4   4   4
#     4  11  23  38  58  86 121 155 189 237 295 351
#     4  10  20  37  58  79 117 155 191 230 294 347
#     4  10  20  36  58  85 112 148 198 241 278 334
#     4   8  20  34  54  84 108 144 184 240 276 334
#     4  10  21  39  61  84 114 152 199 237 283 337
#     4  11  23  38  58  86 121 155 189 237 295 351
#     4  10  20  35  60  86 114 149 197 248 283 328
#     4  10  20  36  58  85 112 148 198 241 278 334
#
# _framework density 18.363712
#
# number of rings (size 3 to 8) (size 9 to 14) (size 15 to 20)
#    0.000    1.867    2.667    1.200    3.733    1.600 
#    0.000    1.333    0.000    0.000    0.000    0.000 
#    0.000    0.000    0.000    0.000    0.000    0.000 
#
# Total GULP energy -167232.447708 kJ/mol
# GULP energy per Si atom -5574.414924 kJ/mol
# Density = 1.832192 g / cm^3
# Si number density = 18.363712 Si / 1000 Ang^3
#
#
#
# Elastic Constant Matrix: (Units=GPa)
#
#
# Indices 1 2 3 4 5 6 
#
# 1 37.8580 -7.1767 -1.5394 0.0000 -0.3648 0.0000
# 2 -7.1767 14.7953 -4.1961 0.0000 -0.5483 0.0000
# 3 -1.5394 -4.1961 126.9922 0.0000 -5.1030 0.0000
# 4 0.0000 0.0000 0.0000 26.1363 0.0000 1.7801
# 5 -0.3648 -0.5483 -5.1030 0.0000 21.5287 0.0000
# 6 0.0000 0.0000 0.0000 1.7801 0.0000 15.8463
#
#
#
# Elastic Compliance Matrix: (Units=1/GPa)
#
#
# Indices 1 2 3 4 5 6 
#
# 1 0.029200 0.014452 0.000874 0.000000 0.001070 0.000000
# 2 0.014452 0.075493 0.002783 0.000000 0.002827 0.000000
# 3 0.000874 0.002783 0.008057 0.000000 0.001996 0.000000
# 4 0.000000 0.000000 0.000000 0.038556 0.000000 -0.004331
# 5 0.001070 0.002827 0.001996 0.000000 0.047013 0.000000
# 6 0.000000 0.000000 0.000000 -0.004331 0.000000 0.063593
#
#
# Mechanical properties :
#
#
# Convention : Reuss Voigt Hill
#
# Bulk Modulus (GPa) = 6.71279 17.09122 11.90201
# Shear Modulus (GPa) = 18.15872 25.53944 21.84908
#
# Velocity S-wave (km/s) = 3.14799 3.73333 3.45308
# Velocity P-wave (km/s) = 4.10810 5.28308 4.73220
#
# Compressibility (1/GPa) = 0.14896929
#
# Stress axis : x y z
#
# Youngs Moduli (GPa) = 34.24668 13.24620 124.11179
#
# Poissons Ratio (x) = -0.19143 -0.10853
# Poissons Ratio (y) = -0.49492 -0.34544
# Poissons Ratio (z) = -0.02995 -0.03687
#
# Static dielectric constant tensor:
#      x y z
#    x 1.655860 0.000000 0.007700 
#    y 0.000000 1.588190 0.000000 
#    z 0.007700 0.000000 1.673980 
# 
# From -- ./inp_files/50065.got.cif
#   From: 2010.05.17/outbox.cif.g08.bks.cpg/sg13_26_cif.got.tgz:50065.got - 2010.06.03 16:44:36.
