data_PCOD9230868
_publ_section_title
;
Structure prediction by ZEFSAII (Michael W. Deem and Ramdas Pophale) SiO2 
 PCOD9230868
Probable space group: P 2/C
;
_chemical_formula_sum "Si O2"
_cell_formula_units_Z 20
_cell_length_a 7.875251
_cell_length_b 10.013305
_cell_length_c 10.406526
_cell_angle_alpha 90.000000
_cell_angle_beta 80.536487
_cell_angle_gamma 90.000000
_cell_volume 809.462077
_symmetry_space_group_name_H-M "P 2/C"
_symmetry_group_IT_number 13
_symmetry_cell_setting 'monoclinic'
loop_
_space_group_symop_operation_xyz
x,y,z
-x,y,1/2-z
-x,-y,-z
x,-y,1/2+z
loop_
_atom_site_type_symbol
_atom_site_label
_atom_site_fract_x
_atom_site_fract_y
_atom_site_fract_z
Si Si1 0.298007 0.463167 0.033667
Si Si2 0.137814 0.229295 0.938180
Si Si3 0.659887 0.128514 0.801711
Si Si4 0.216325 0.740331 0.949440
Si Si5 0.500000 0.876789 0.750000
Si Si6 0.000000 0.554754 0.250000
O O1 0.282118 0.308204 0.998282
O O2 0.500000 0.500000 0.000000
O O3 0.217691 0.579907 0.953216
O O4 0.167101 0.478741 0.171509
O O5 0.203720 0.118016 0.832192
O O6 0.973986 0.200288 0.046229
O O7 0.069981 0.345126 0.850463
O O8 0.500000 0.201732 0.750000
O O9 0.726408 0.206048 0.916201
O O10 0.587598 0.981441 0.839001
O O11 0.354638 0.790471 0.832579
#
# Coordination Sequence:
#
# PCOD9230868 Si02
#       6
#     4   4   4   4   2   2
#     4  11  24  38  67  98 133 171 217 273 344 417
#     4  11  21  39  67  96 125 172 216 271 342 403
#     4  10  21  40  65  89 129 176 226 269 338 388
#     4  11  21  44  62  94 132 172 223 285 332 402
#     4  10  26  38  68  92 130 180 234 282 320 398
#     4  10  20  38  58  92 132 168 206 262 334 400
#
# _framework density 24.707767
#
# number of rings (size 3 to 8) (size 9 to 14) (size 15 to 20)
#    0.600    0.800    4.000    4.200    0.000    4.000 
#    0.000    0.000    0.000    0.000    0.000    0.000 
#    0.000    0.000    0.000    0.000    0.000    0.000 
#
# Total GULP energy -111611.165659 kJ/mol
# GULP energy per Si atom -5580.558283 kJ/mol
# Density = 2.465153 g / cm^3
# Si number density = 24.707767 Si / 1000 Ang^3
#
#
#
# Elastic Constant Matrix: (Units=GPa)
#
#
# Indices 1 2 3 4 5 6 
#
# 1 94.3347 2.1496 37.2883 0.0000 -39.8606 0.0000
# 2 2.1496 64.0192 23.1969 0.0000 -4.7238 0.0000
# 3 37.2883 23.1969 120.1460 0.0000 -53.2324 0.0000
# 4 0.0000 0.0000 0.0000 26.5002 0.0000 -11.8262
# 5 -39.8606 -4.7238 -53.2324 0.0000 49.9426 0.0000
# 6 0.0000 0.0000 0.0000 -11.8262 0.0000 21.4373
#
#
#
# Elastic Compliance Matrix: (Units=1/GPa)
#
#
# Indices 1 2 3 4 5 6 
#
# 1 0.016105 0.000036 0.001310 0.000000 0.014253 0.000000
# 2 0.000036 0.017132 -0.004904 0.000000 -0.003578 0.000000
# 3 0.001310 -0.004904 0.017283 0.000000 0.019003 0.000000
# 4 0.000000 0.000000 0.000000 0.050060 0.000000 0.027616
# 5 0.014253 -0.003578 0.019003 0.000000 0.051315 0.000000
# 6 0.000000 0.000000 0.000000 0.027616 0.000000 0.061883
#
#
# Mechanical properties :
#
#
# Convention : Reuss Voigt Hill
#
# Bulk Modulus (GPa) = 23.03949 44.86327 33.95138
# Shear Modulus (GPa) = 21.24389 33.96703 27.60546
#
# Velocity S-wave (km/s) = 2.93543 3.71179 3.34620
# Velocity P-wave (km/s) = 4.56443 6.04705 5.35728
#
# Compressibility (1/GPa) = 0.04340373
#
# Stress axis : x y z
#
# Youngs Moduli (GPa) = 62.09431 58.36995 57.85956
#
# Poissons Ratio (x) = -0.00212 -0.07579
# Poissons Ratio (y) = -0.00226 0.28376
# Poissons Ratio (z) = -0.08133 0.28626
#
# Static dielectric constant tensor:
#      x y z
#    x 2.085790 0.000000 0.001480 
#    y 0.000000 1.927460 0.000000 
#    z 0.001480 0.000000 2.019850 
# 
# From -- ./inp_files/28973.got.cif
#   From: 2010.05.17/outbox.cif.g08.bks.cpg/sg13_15_cif.got.tgz:28973.got - 2010.06.03 16:44:36.
