data_PCOD9230400
_publ_section_title
;
Structure prediction by ZEFSAII (Michael W. Deem and Ramdas Pophale) SiO2 
 PCOD9230400
Probable space group: P 2/C
;
_chemical_formula_sum "Si O2"
_cell_formula_units_Z 32
_cell_length_a 13.417634
_cell_length_b 12.864121
_cell_length_c 9.192082
_cell_angle_alpha 90.000000
_cell_angle_beta 59.554465
_cell_angle_gamma 90.000000
_cell_volume 1367.833550
_symmetry_space_group_name_H-M "P 2/C"
_symmetry_group_IT_number 13
_symmetry_cell_setting 'monoclinic'
loop_
_space_group_symop_operation_xyz
x,y,z
-x,y,1/2-z
-x,-y,-z
x,-y,1/2+z
loop_
_atom_site_type_symbol
_atom_site_label
_atom_site_fract_x
_atom_site_fract_y
_atom_site_fract_z
Si Si1 0.347451 0.198958 0.953961
Si Si2 0.892104 0.044929 0.741889
Si Si3 0.608749 0.787028 0.773655
Si Si4 0.626992 0.596792 0.205588
Si Si5 0.093377 0.195135 0.291770
Si Si6 0.276240 0.005277 0.874726
Si Si7 0.774398 0.510835 0.346489
Si Si8 0.169787 0.647321 0.944263
O O1 0.363091 0.280252 0.815619
O O2 0.365626 0.085244 0.877745
O O3 0.423547 0.233152 0.035177
O O4 0.217586 0.203517 0.119827
O O5 0.930889 0.927095 0.667685
O O6 0.812679 0.071898 0.661053
O O7 0.000000 0.093530 0.750000
O O8 0.797934 0.036835 0.937448
O O9 0.500000 0.787440 0.750000
O O10 0.666285 0.902895 0.735542
O O11 0.701662 0.699853 0.655629
O O12 0.500000 0.561726 0.250000
O O13 0.670875 0.559835 0.328576
O O14 0.716706 0.555857 0.017314
O O15 0.092537 0.258229 0.441965
O O16 0.000000 0.238202 0.250000
O O17 0.846103 0.596322 0.385899
O O18 0.837912 0.438320 0.180461
#
# Coordination Sequence:
#
# PCOD9230400 Si02
#       8
#     4   4   4   4   4   4   4   4
#     4  10  22  41  56  88 126 152 198 244 293 349
#     4  10  20  36  62  90 116 153 200 251 297 342
#     4  11  23  39  61  83 122 164 199 237 291 358
#     4  11  22  38  60  88 119 155 196 243 298 344
#     4   9  17  37  65  83 114 160 190 239 304 348
#     4  11  20  40  59  87 121 160 197 239 290 360
#     4  10  22  37  62  85 119 152 194 250 294 345
#     4  10  20  40  60  88 118 150 200 241 293 351
#
# _framework density 23.394659999999998
#
# number of rings (size 3 to 8) (size 9 to 14) (size 15 to 20)
#    0.000    1.750    6.250    0.750    1.750    4.000 
#    0.000    0.625    0.000    0.000    0.000    0.000 
#    0.000    0.000    0.000    0.000    0.000    0.000 
#
# Total GULP energy -178603.374552 kJ/mol
# GULP energy per Si atom -5581.355455 kJ/mol
# Density = 2.334141 g / cm^3
# Si number density = 23.394660 Si / 1000 Ang^3
#
#
#
# Elastic Constant Matrix: (Units=GPa)
#
#
# Indices 1 2 3 4 5 6 
#
# 1 93.7091 8.9629 26.6827 0.0000 31.7269 0.0000
# 2 8.9629 67.5982 22.3637 0.0000 12.3640 0.0000
# 3 26.6827 22.3637 71.4153 0.0000 24.1696 0.0000
# 4 0.0000 0.0000 0.0000 53.9309 0.0000 22.6444
# 5 31.7269 12.3640 24.1696 0.0000 32.4654 0.0000
# 6 0.0000 0.0000 0.0000 22.6444 0.0000 14.4803
#
#
#
# Elastic Compliance Matrix: (Units=1/GPa)
#
#
# Indices 1 2 3 4 5 6 
#
# 1 0.016057 0.001043 -0.001178 0.000000 -0.015213 0.000000
# 2 0.001043 0.016833 -0.004206 0.000000 -0.004298 0.000000
# 3 -0.001178 -0.004206 0.019823 0.000000 -0.012005 0.000000
# 4 0.000000 0.000000 0.000000 0.053997 0.000000 -0.084442
# 5 -0.015213 -0.004298 -0.012005 0.000000 0.056243 0.000000
# 6 0.000000 0.000000 0.000000 -0.084442 0.000000 0.201110
#
#
# Mechanical properties :
#
#
# Convention : Reuss Voigt Hill
#
# Bulk Modulus (GPa) = 22.71110 38.74901 30.73005
# Shear Modulus (GPa) = 12.90584 31.82287 22.36436
#
# Velocity S-wave (km/s) = 2.35129 3.69217 3.09521
# Velocity P-wave (km/s) = 4.13525 5.89706 5.09292
#
# Compressibility (1/GPa) = 0.04403134
#
# Stress axis : x y z
#
# Youngs Moduli (GPa) = 62.27656 59.40806 50.44760
#
# Poissons Ratio (x) = -0.06196 0.05941
# Poissons Ratio (y) = -0.06495 0.21219
# Poissons Ratio (z) = 0.07334 0.24988
#
# Static dielectric constant tensor:
#      x y z
#    x 1.932580 0.000000 0.005340 
#    y 0.000000 1.948620 0.000000 
#    z 0.005340 0.000000 1.876300 
# 
# From -- ./inp_files/19368.got.cif
#   From: 2010.05.17/outbox.cif.g08.bks.cpg/sg13_10_cif.got.tgz:19368.got - 2010.06.03 16:44:36.
