data_PCOD9230262
_publ_section_title
;
Structure prediction by ZEFSAII (Michael W. Deem and Ramdas Pophale) SiO2 
 PCOD9230262
Probable space group: P 2/C
;
_chemical_formula_sum "Si O2"
_cell_formula_units_Z 30
_cell_length_a 11.400380
_cell_length_b 12.165338
_cell_length_c 11.151377
_cell_angle_alpha 90.000000
_cell_angle_beta 78.957040
_cell_angle_gamma 90.000000
_cell_volume 1517.941936
_symmetry_space_group_name_H-M "P 2/C"
_symmetry_group_IT_number 13
_symmetry_cell_setting 'monoclinic'
loop_
_space_group_symop_operation_xyz
x,y,z
-x,y,1/2-z
-x,-y,-z
x,-y,1/2+z
loop_
_atom_site_type_symbol
_atom_site_label
_atom_site_fract_x
_atom_site_fract_y
_atom_site_fract_z
Si Si1 0.140624 0.818559 0.368900
Si Si2 0.635650 0.780554 0.766241
Si Si3 0.142883 0.221596 0.598860
Si Si4 0.361881 0.544925 0.817261
Si Si5 0.748059 0.461857 0.903852
Si Si6 0.798083 0.699966 0.923636
Si Si7 0.808327 0.060999 0.118908
Si Si8 0.000000 0.842201 0.750000
O O1 0.176426 0.819257 0.224133
O O2 0.198275 0.724626 0.437344
O O3 0.998588 0.795639 0.395284
O O4 0.182599 0.934227 0.415904
O O5 0.500000 0.791722 0.750000
O O6 0.684997 0.671154 0.688377
O O7 0.671849 0.741551 0.892922
O O8 0.703420 0.893653 0.724604
O O9 0.181617 0.348901 0.588064
O O10 0.202182 0.141542 0.491464
O O11 0.500000 0.547779 0.750000
O O12 0.304350 0.470353 0.721917
O O13 0.340433 0.520700 0.962657
O O14 0.824681 0.572938 0.895697
O O15 0.901381 0.769328 0.837075
O O16 0.930613 0.085368 0.166765
#
# Coordination Sequence:
#
# PCOD9230262 Si02
#       8
#     4   4   4   4   4   4   4   2
#     4  11  24  37  59  91 122 161 203 252 307 361
#     4   9  20  39  64  88 114 159 212 254 307 362
#     4  11  23  38  58  90 123 159 200 252 308 367
#     4  10  20  38  62  88 119 167 217 256 305 368
#     4  11  22  38  59  89 130 161 202 258 314 367
#     4  10  22  37  61  88 125 159 208 250 304 376
#     4  11  21  39  63  84 120 157 210 254 302 373
#     4  10  20  36  58  90 108 164 210 248 308 366
#
# _framework density 19.763601000000001
#
# number of rings (size 3 to 8) (size 9 to 14) (size 15 to 20)
#    0.000    1.600    2.667    2.400    3.733    1.600 
#    0.000    0.667    0.000    0.000    0.000    0.000 
#    0.000    0.000    0.000    0.000    0.000    0.000 
#
# Total GULP energy -167119.565007 kJ/mol
# GULP energy per Si atom -5570.652167 kJ/mol
# Density = 1.971862 g / cm^3
# Si number density = 19.763601 Si / 1000 Ang^3
#
#
#
# Elastic Constant Matrix: (Units=GPa)
#
#
# Indices 1 2 3 4 5 6 
#
# 1 45.7630 26.8649 15.2521 0.0000 14.2883 0.0000
# 2 26.8649 110.2184 13.8894 0.0000 6.6052 0.0000
# 3 15.2521 13.8894 90.7903 0.0000 11.5150 0.0000
# 4 0.0000 0.0000 0.0000 33.1963 0.0000 19.3498
# 5 14.2883 6.6052 11.5150 0.0000 25.6730 0.0000
# 6 0.0000 0.0000 0.0000 19.3498 0.0000 47.3557
#
#
#
# Elastic Compliance Matrix: (Units=1/GPa)
#
#
# Indices 1 2 3 4 5 6 
#
# 1 0.030907 -0.006365 -0.002380 0.000000 -0.014497 0.000000
# 2 -0.006365 0.010646 -0.000701 0.000000 0.001118 0.000000
# 3 -0.002380 -0.000701 0.012014 0.000000 -0.003884 0.000000
# 4 0.000000 0.000000 0.000000 0.039541 0.000000 -0.016157
# 5 -0.014497 0.001118 -0.003884 0.000000 0.048474 0.000000
# 6 0.000000 0.000000 0.000000 -0.016157 0.000000 0.027719
#
#
# Mechanical properties :
#
#
# Convention : Reuss Voigt Hill
#
# Bulk Modulus (GPa) = 28.83888 39.86495 34.35191
# Shear Modulus (GPa) = 25.03114 33.96269 29.49691
#
# Velocity S-wave (km/s) = 3.56269 4.14991 3.86746
# Velocity P-wave (km/s) = 5.61670 6.57092 6.11246
#
# Compressibility (1/GPa) = 0.03467541
#
# Stress axis : x y z
#
# Youngs Moduli (GPa) = 32.35462 93.93529 83.23600
#
# Poissons Ratio (x) = 0.59788 0.19810
# Poissons Ratio (y) = 0.20593 0.05836
# Poissons Ratio (z) = 0.07700 0.06586
#
# Static dielectric constant tensor:
#      x y z
#    x 1.695210 0.000000 -0.008180 
#    y 0.000000 1.694850 0.000000 
#    z -0.008180 0.000000 1.768120 
# 
# From -- ./inp_files/33261.got.cif
#   From: 2010.05.17/outbox.cif.g08.bks.cpg/sg13_17_cif.got.tgz:33261.got - 2010.06.03 16:44:36.
