data_PCOD9230334
_publ_section_title
;
Structure prediction by ZEFSAII (Michael W. Deem and Ramdas Pophale) SiO2 
 PCOD9230334
Probable space group: P 2/C
;
_chemical_formula_sum "Si O2"
_cell_formula_units_Z 28
_cell_length_a 11.714697
_cell_length_b 8.922875
_cell_length_c 15.161456
_cell_angle_alpha 90.000000
_cell_angle_beta 118.065525
_cell_angle_gamma 90.000000
_cell_volume 1398.451010
_symmetry_space_group_name_H-M "P 2/C"
_symmetry_group_IT_number 13
_symmetry_cell_setting 'monoclinic'
loop_
_space_group_symop_operation_xyz
x,y,z
-x,y,1/2-z
-x,-y,-z
x,-y,1/2+z
loop_
_atom_site_type_symbol
_atom_site_label
_atom_site_fract_x
_atom_site_fract_y
_atom_site_fract_z
Si Si1 0.267615 0.261356 0.755592
Si Si2 0.650888 0.016656 0.321657
Si Si3 0.471311 0.672073 0.470541
Si Si4 0.875095 0.895314 0.153149
Si Si5 0.267456 0.168561 0.476580
Si Si6 0.254854 0.265871 0.034820
Si Si7 0.142234 0.423370 0.541818
O O1 0.401168 0.315182 0.849133
O O2 0.172949 0.241024 0.803133
O O3 0.203197 0.359115 0.655247
O O4 0.288862 0.091528 0.729469
O O5 0.500000 0.033664 0.250000
O O6 0.712714 0.177349 0.364114
O O7 0.676398 0.923251 0.419983
O O8 0.500000 0.500000 0.500000
O O9 0.609136 0.752176 0.520632
O O10 0.374654 0.743284 0.508848
O O11 0.869278 0.817434 0.054633
O O12 0.000000 0.947464 0.250000
O O13 0.790409 0.043625 0.108532
O O14 0.163971 0.288281 0.478868
O O15 0.229478 0.438612 0.041591
O O16 0.000000 0.500000 0.500000
#
# Coordination Sequence:
#
# PCOD9230334 Si02
#       7
#     4   4   4   4   4   4   4
#     4  10  23  39  65  87 122 166 197 258 302 365
#     4  10  20  36  60  91 121 150 197 246 308 363
#     4  11  21  40  63  92 125 153 205 252 317 358
#     4  10  22  42  62  88 122 165 211 245 298 361
#     4  10  22  40  64  88 122 162 198 257 304 360
#     4  10  23  37  63  92 120 161 197 257 304 360
#     4  11  23  43  61  89 125 163 204 245 305 363
#
# _framework density 20.022154
#
# number of rings (size 3 to 8) (size 9 to 14) (size 15 to 20)
#    0.000    1.714    2.857    0.857    2.000    4.000 
#    2.571    5.000    0.000    0.000    0.000    0.000 
#    0.000    0.000    0.000    0.000    0.000    0.000 
#
# Total GULP energy -156035.912705 kJ/mol
# GULP energy per Si atom -5572.711168 kJ/mol
# Density = 1.997658 g / cm^3
# Si number density = 20.022154 Si / 1000 Ang^3
#
#
#
# Elastic Constant Matrix: (Units=GPa)
#
#
# Indices 1 2 3 4 5 6 
#
# 1 49.4854 14.1774 27.5929 0.0000 9.1893 0.0000
# 2 14.1774 107.2336 40.9688 0.0000 7.2616 0.0000
# 3 27.5929 40.9688 107.6465 0.0000 21.2693 0.0000
# 4 0.0000 0.0000 0.0000 20.6551 0.0000 -3.5085
# 5 9.1893 7.2616 21.2693 0.0000 23.4938 0.0000
# 6 0.0000 0.0000 0.0000 -3.5085 0.0000 31.3831
#
#
#
# Elastic Compliance Matrix: (Units=1/GPa)
#
#
# Indices 1 2 3 4 5 6 
#
# 1 0.024080 -0.001009 -0.004858 0.000000 -0.004709 0.000000
# 2 -0.001009 0.010959 -0.004044 0.000000 0.000669 0.000000
# 3 -0.004858 -0.004044 0.013946 0.000000 -0.009476 0.000000
# 4 0.000000 0.000000 0.000000 0.049351 0.000000 0.005517
# 5 -0.004709 0.000669 -0.009476 0.000000 0.052778 0.000000
# 6 0.000000 0.000000 0.000000 0.005517 0.000000 0.032481
#
#
# Mechanical properties :
#
#
# Convention : Reuss Voigt Hill
#
# Bulk Modulus (GPa) = 34.29014 47.76043 41.02529
# Shear Modulus (GPa) = 23.45884 27.21481 25.33683
#
# Velocity S-wave (km/s) = 3.42664 3.69078 3.56116
# Velocity P-wave (km/s) = 5.72880 6.48599 6.11912
#
# Compressibility (1/GPa) = 0.02916290
#
# Stress axis : x y z
#
# Youngs Moduli (GPa) = 41.52779 91.25221 71.70297
#
# Poissons Ratio (x) = 0.09205 0.34835
# Poissons Ratio (y) = 0.04189 0.28999
# Poissons Ratio (z) = 0.20175 0.36905
#
# Static dielectric constant tensor:
#      x y z
#    x 1.754580 0.000000 0.022910 
#    y 0.000000 1.716740 0.000000 
#    z 0.022910 0.000000 1.742070 
# 
# From -- ./inp_files/50228.got.cif
#   From: 2010.05.17/outbox.cif.g08.bks.cpg/sg13_26_cif.got.tgz:50228.got - 2010.06.03 16:44:36.
