data_PCOD9230367
_publ_section_title
;
Structure prediction by ZEFSAII (Michael W. Deem and Ramdas Pophale) SiO2 
 PCOD9230367
Probable space group: P 2/C
;
_chemical_formula_sum "Si O2"
_cell_formula_units_Z 30
_cell_length_a 14.909136
_cell_length_b 5.593358
_cell_length_c 19.379280
_cell_angle_alpha 90.000000
_cell_angle_beta 117.650735
_cell_angle_gamma 90.000000
_cell_volume 1431.511919
_symmetry_space_group_name_H-M "P 2/C"
_symmetry_group_IT_number 13
_symmetry_cell_setting 'monoclinic'
loop_
_space_group_symop_operation_xyz
x,y,z
-x,y,1/2-z
-x,-y,-z
x,-y,1/2+z
loop_
_atom_site_type_symbol
_atom_site_label
_atom_site_fract_x
_atom_site_fract_y
_atom_site_fract_z
Si Si1 0.461805 0.869872 0.554764
Si Si2 0.727818 0.480133 0.373324
Si Si3 0.273764 0.475623 0.967192
Si Si4 0.320946 0.774209 0.857426
Si Si5 0.000000 0.808073 0.750000
Si Si6 0.825383 0.844996 0.176852
Si Si7 0.393722 0.030234 0.671755
Si Si8 0.856108 0.476710 0.292404
O O1 0.375252 0.683339 0.505817
O O2 0.562928 0.742223 0.619943
O O3 0.420286 0.040561 0.599759
O O4 0.500000 0.000000 0.500000
O O5 0.754154 0.510018 0.463523
O O6 0.667077 0.225117 0.341767
O O7 0.827417 0.470319 0.361382
O O8 0.665695 0.723511 0.331138
O O9 0.300845 0.700643 0.929436
O O10 0.191123 0.335693 0.891625
O O11 0.244932 0.627625 0.781910
O O12 0.283037 0.045601 0.841004
O O13 0.049153 0.663630 0.704489
O O14 0.093712 0.956368 0.813514
O O15 0.867925 0.734470 0.262405
O O16 0.500000 0.018600 0.750000
#
# Coordination Sequence:
#
# PCOD9230367 Si02
#       8
#     4   4   4   4   2   4   4   4
#     4  11  20  34  59  90 129 177 221 261 305 367
#     4  11  25  41  63  93 137 178 213 268 338 380
#     4  10  22  38  59  95 133 176 213 266 318 390
#     4  10  20  36  61  90 125 174 220 267 308 371
#     4  10  22  42  70  98 118 154 218 284 336 396
#     4  10  21  40  67  92 126 157 217 272 329 387
#     4  11  25  40  59  91 137 181 229 266 311 382
#     4  10  23  40  65  94 123 165 216 276 330 396
#
# _framework density 20.956865000000001
#
# number of rings (size 3 to 8) (size 9 to 14) (size 15 to 20)
#    0.000    1.600    1.333    2.800    7.467    2.133 
#    0.000    0.667    0.000   11.200    0.000    0.000 
#    0.000    0.000    0.000    0.000    0.000    0.000 
#
# Total GULP energy -167420.146522 kJ/mol
# GULP energy per Si atom -5580.671551 kJ/mol
# Density = 2.090917 g / cm^3
# Si number density = 20.956865 Si / 1000 Ang^3
#
#
#
# Elastic Constant Matrix: (Units=GPa)
#
#
# Indices 1 2 3 4 5 6 
#
# 1 112.4175 28.0754 23.4302 0.0000 -26.9563 0.0000
# 2 28.0754 77.3436 10.5540 0.0000 -14.4055 0.0000
# 3 23.4302 10.5540 51.6198 0.0000 -23.2855 0.0000
# 4 0.0000 0.0000 0.0000 17.1207 0.0000 9.5231
# 5 -26.9563 -14.4055 -23.2855 0.0000 33.3152 0.0000
# 6 0.0000 0.0000 0.0000 9.5231 0.0000 16.8259
#
#
#
# Elastic Compliance Matrix: (Units=1/GPa)
#
#
# Indices 1 2 3 4 5 6 
#
# 1 0.011594 -0.002667 -0.001469 0.000000 0.007202 0.000000
# 2 -0.002667 0.014677 0.000145 0.000000 0.004289 0.000000
# 3 -0.001469 0.000145 0.028482 0.000000 0.018781 0.000000
# 4 0.000000 0.000000 0.000000 0.085245 0.000000 -0.048247
# 5 0.007202 0.004289 0.018781 0.000000 0.050825 0.000000
# 6 0.000000 0.000000 0.000000 -0.048247 0.000000 0.086739
#
#
# Mechanical properties :
#
#
# Convention : Reuss Voigt Hill
#
# Bulk Modulus (GPa) = 21.38102 40.61113 30.99607
# Shear Modulus (GPa) = 16.60389 25.40712 21.00551
#
# Velocity S-wave (km/s) = 2.81782 3.48566 3.16938
# Velocity P-wave (km/s) = 4.56194 5.96828 5.31186
#
# Compressibility (1/GPa) = 0.04677046
#
# Stress axis : x y z
#
# Youngs Moduli (GPa) = 86.24812 68.13575 35.11039
#
# Poissons Ratio (x) = 0.18172 0.05157
# Poissons Ratio (y) = 0.23002 -0.00508
# Poissons Ratio (z) = 0.12668 -0.00986
#
# Static dielectric constant tensor:
#      x y z
#    x 1.789440 0.000000 0.023890 
#    y 0.000000 1.839280 0.000000 
#    z 0.023890 0.000000 1.773320 
# 
# From -- ./inp_files/67587.got.cif
#   From: 2010.05.17/outbox.cif.g08.bks.cpg/sg13_34_cif.got.tgz:67587.got - 2010.06.03 16:44:36.
