data_PCOD9230560
_publ_section_title
;
Structure prediction by ZEFSAII (Michael W. Deem and Ramdas Pophale) SiO2 
 PCOD9230560
Probable space group: P 2/C
;
_chemical_formula_sum "Si O2"
_cell_formula_units_Z 32
_cell_length_a 23.790089
_cell_length_b 6.692974
_cell_length_c 21.852398
_cell_angle_alpha 90.000000
_cell_angle_beta 156.191781
_cell_angle_gamma 90.000000
_cell_volume 1404.584331
_symmetry_space_group_name_H-M "P 2/C"
_symmetry_group_IT_number 13
_symmetry_cell_setting 'monoclinic'
loop_
_space_group_symop_operation_xyz
x,y,z
-x,y,1/2-z
-x,-y,-z
x,-y,1/2+z
loop_
_atom_site_type_symbol
_atom_site_label
_atom_site_fract_x
_atom_site_fract_y
_atom_site_fract_z
Si Si1 0.706631 0.562278 0.731098
Si Si2 0.258116 0.436063 0.053130
Si Si3 0.131718 0.469337 0.724657
Si Si4 0.355146 0.873669 0.565530
Si Si5 0.499408 0.395461 0.114227
Si Si6 0.129437 0.295144 0.521758
Si Si7 0.321675 0.676560 0.004394
Si Si8 0.941400 0.113569 0.501756
O O1 0.743647 0.496677 0.699519
O O2 0.553403 0.630478 0.599413
O O3 0.743991 0.367684 0.809468
O O4 0.815817 0.738776 0.857338
O O5 0.240234 0.243264 0.991814
O O6 0.358374 0.359846 0.206237
O O7 0.342048 0.580870 0.091120
O O8 0.146198 0.577042 0.975615
O O9 0.005877 0.614324 0.579784
O O10 0.062508 0.251233 0.652364
O O11 0.186479 0.567798 0.841535
O O12 0.500000 0.883308 0.750000
O O13 0.390540 0.752421 0.538550
O O14 0.307945 0.090708 0.499161
O O15 0.446168 0.612726 0.083274
O O16 0.112545 0.058170 0.505517
O O17 0.000000 0.000000 0.500000
#
# Coordination Sequence:
#
# PCOD9230560 Si02
#       8
#     4   4   4   4   4   4   4   4
#     4  10  20  37  58  87 118 152 209 265 302 365
#     4   9  20  37  60  86 114 149 204 262 300 367
#     4  11  23  36  55  88 126 160 198 257 309 375
#     4   9  18  37  60  83 114 155 204 256 312 373
#     4   9  20  37  58  85 114 152 206 258 300 368
#     4  10  20  37  62  88 115 154 209 258 311 364
#     4  11  22  36  56  83 123 163 195 245 319 375
#     4  11  19  38  65  87 115 163 211 256 313 364
#
# _framework density 22.782540000000001
#
# number of rings (size 3 to 8) (size 9 to 14) (size 15 to 20)
#    0.000    2.000    2.500    2.625    0.000    9.000 
#    0.000    0.625    0.000    7.500    0.000    0.000 
#    0.000    0.000    0.000    0.000    0.000    0.000 
#
# Total GULP energy -178367.485415 kJ/mol
# GULP energy per Si atom -5573.983919 kJ/mol
# Density = 2.273069 g / cm^3
# Si number density = 22.782540 Si / 1000 Ang^3
#
#
#
# Elastic Constant Matrix: (Units=GPa)
#
#
# Indices 1 2 3 4 5 6 
#
# 1 124.9228 54.3515 22.7685 0.0000 9.5967 0.0000
# 2 54.3515 179.6510 28.8209 0.0000 -2.4191 0.0000
# 3 22.7685 28.8209 40.6760 0.0000 3.7812 0.0000
# 4 0.0000 0.0000 0.0000 22.4557 0.0000 0.8944
# 5 9.5967 -2.4191 3.7812 0.0000 29.5849 0.0000
# 6 0.0000 0.0000 0.0000 0.8944 0.0000 29.8020
#
#
#
# Elastic Compliance Matrix: (Units=1/GPa)
#
#
# Indices 1 2 3 4 5 6 
#
# 1 0.009960 -0.002486 -0.003536 0.000000 -0.002982 0.000000
# 2 -0.002486 0.006936 -0.003694 0.000000 0.001846 0.000000
# 3 -0.003536 -0.003694 0.029453 0.000000 -0.002919 0.000000
# 4 0.000000 0.000000 0.000000 0.044585 0.000000 -0.001338
# 5 -0.002982 0.001846 -0.002919 0.000000 0.035292 0.000000
# 6 0.000000 0.000000 0.000000 -0.001338 0.000000 0.033595
#
#
# Mechanical properties :
#
#
# Convention : Reuss Voigt Hill
#
# Bulk Modulus (GPa) = 37.15366 61.90350 49.52858
# Shear Modulus (GPa) = 26.56348 32.32245 29.44297
#
# Velocity S-wave (km/s) = 3.41832 3.77070 3.59882
# Velocity P-wave (km/s) = 5.65006 6.79618 6.24945
#
# Compressibility (1/GPa) = 0.02691525
#
# Stress axis : x y z
#
# Youngs Moduli (GPa) = 100.39871 144.17398 33.95217
#
# Poissons Ratio (x) = 0.35844 0.12007
# Poissons Ratio (y) = 0.24961 0.12544
# Poissons Ratio (z) = 0.35506 0.53265
#
# Static dielectric constant tensor:
#      x y z
#    x 1.929280 0.000000 -0.009670 
#    y 0.000000 1.835840 0.000000 
#    z -0.009670 0.000000 1.945610 
# 
# From -- ./inp_files/88781.got.cif
#   From: 2010.05.17/outbox.cif.g08.bks.cpg/sg13_45_cif.got.tgz:88781.got - 2010.06.03 16:44:36.
