data_PCOD9230522
_publ_section_title
;
Structure prediction by ZEFSAII (Michael W. Deem and Ramdas Pophale) SiO2 
 PCOD9230522
Probable space group: P 2/C
;
_chemical_formula_sum "Si O2"
_cell_formula_units_Z 30
_cell_length_a 26.305587
_cell_length_b 8.909899
_cell_length_c 8.157339
_cell_angle_alpha 90.000000
_cell_angle_beta 47.821274
_cell_angle_gamma 90.000000
_cell_volume 1416.834487
_symmetry_space_group_name_H-M "P 2/C"
_symmetry_group_IT_number 13
_symmetry_cell_setting 'monoclinic'
loop_
_space_group_symop_operation_xyz
x,y,z
-x,y,1/2-z
-x,-y,-z
x,-y,1/2+z
loop_
_atom_site_type_symbol
_atom_site_label
_atom_site_fract_x
_atom_site_fract_y
_atom_site_fract_z
Si Si1 0.500000 0.075918 0.250000
Si Si2 0.427449 0.270996 0.185609
Si Si3 0.379589 0.472343 0.587087
Si Si4 0.646732 0.946260 0.862696
Si Si5 0.228679 0.155703 0.962368
Si Si6 0.047995 0.896346 0.280593
Si Si7 0.855174 0.099665 0.659561
Si Si8 0.698190 0.673978 0.958921
O O1 0.492675 0.176034 0.100964
O O2 0.429978 0.985571 0.415374
O O3 0.408990 0.365528 0.385908
O O4 0.429130 0.390887 0.034933
O O5 0.367360 0.154028 0.268729
O O6 0.310388 0.550986 0.665281
O O7 0.360555 0.379539 0.788601
O O8 0.695515 0.087899 0.733702
O O9 0.682576 0.832882 0.909826
O O10 0.236148 0.295463 0.069751
O O11 0.192551 0.186831 0.866589
O O12 0.189612 0.021903 0.142860
O O13 0.000000 0.813158 0.250000
O O14 0.099351 0.817473 0.299416
O O15 0.094050 0.005966 0.068622
O O16 0.000000 0.000000 0.500000
#
# Coordination Sequence:
#
# PCOD9230522 Si02
#       8
#     2   4   4   4   4   4   4   4
#     4  12  24  38  56  82 100 132 180 234 298 340
#     4  10  22  39  57  76  98 126 180 225 280 344
#     4   9  21  40  58  74  94 139 184 219 298 319
#     4  11  23  37  56  77 103 138 172 236 286 333
#     4  11  19  33  50  81 111 141 181 221 280 326
#     4   8  14  28  46  71 114 161 188 204 234 304
#     4   9  18  27  48  81 111 151 186 206 266 316
#     4  10  20  37  56  74 103 139 179 229 274 336
#
# _framework density 21.173960000000001
#
# number of rings (size 3 to 8) (size 9 to 14) (size 15 to 20)
#    0.000    2.133    1.333    2.000    1.867    1.600 
#    0.000    4.667    0.000    0.000    0.000    0.000 
#    0.000    0.000    0.000  223.200    2.667    0.267 
#
# Total GULP energy -167239.391622 kJ/mol
# GULP energy per Si atom -5574.646387 kJ/mol
# Density = 2.112577 g / cm^3
# Si number density = 21.173960 Si / 1000 Ang^3
#
#
#
# Elastic Constant Matrix: (Units=GPa)
#
#
# Indices 1 2 3 4 5 6 
#
# 1 134.9996 2.6788 1.9743 0.0000 27.6350 0.0000
# 2 2.6788 25.7637 -4.0293 0.0000 5.6693 0.0000
# 3 1.9743 -4.0293 60.6058 0.0000 2.5191 0.0000
# 4 0.0000 0.0000 0.0000 12.9117 0.0000 13.9322
# 5 27.6350 5.6693 2.5191 0.0000 33.8989 0.0000
# 6 0.0000 0.0000 0.0000 13.9322 0.0000 21.2091
#
#
#
# Elastic Compliance Matrix: (Units=1/GPa)
#
#
# Indices 1 2 3 4 5 6 
#
# 1 0.008903 0.000709 0.000064 0.000000 -0.007381 0.000000
# 2 0.000709 0.040893 0.003013 0.000000 -0.007641 0.000000
# 3 0.000064 0.003013 0.016773 0.000000 -0.001802 0.000000
# 4 0.000000 0.000000 0.000000 0.265975 0.000000 -0.174718
# 5 -0.007381 -0.007641 -0.001802 0.000000 0.036929 0.000000
# 6 0.000000 0.000000 0.000000 -0.174718 0.000000 0.161921
#
#
# Mechanical properties :
#
#
# Convention : Reuss Voigt Hill
#
# Bulk Modulus (GPa) = 13.48778 24.73521 19.11149
# Shear Modulus (GPa) = 9.11515 28.32031 18.71773
#
# Velocity S-wave (km/s) = 2.07707 3.66116 2.97644
# Velocity P-wave (km/s) = 3.48369 5.43869 4.56703
#
# Compressibility (1/GPa) = 0.07414120
#
# Stress axis : x y z
#
# Youngs Moduli (GPa) = 112.31593 24.45394 59.61881
#
# Poissons Ratio (x) = -0.01733 -0.00381
# Poissons Ratio (y) = -0.07958 -0.17965
# Poissons Ratio (z) = -0.00717 -0.07369
#
# Static dielectric constant tensor:
#      x y z
#    x 1.892100 0.000000 0.031260 
#    y 0.000000 1.778340 0.000000 
#    z 0.031260 0.000000 1.779650 
# 
# From -- ./inp_files/24435.got.cif
#   From: 2010.05.17/outbox.cif.g08.bks.cpg/sg13_13_cif.got.tgz:24435.got - 2010.06.03 16:44:36.
