data_PCOD9230577
_publ_section_title
;
Structure prediction by ZEFSAII (Michael W. Deem and Ramdas Pophale) SiO2 
 PCOD9230577
Probable space group: P 2/C
;
_chemical_formula_sum "Si O2"
_cell_formula_units_Z 24
_cell_length_a 14.510955
_cell_length_b 13.914465
_cell_length_c 8.901136
_cell_angle_alpha 90.000000
_cell_angle_beta 138.212205
_cell_angle_gamma 90.000000
_cell_volume 1197.638543
_symmetry_space_group_name_H-M "P 2/C"
_symmetry_group_IT_number 13
_symmetry_cell_setting 'monoclinic'
loop_
_space_group_symop_operation_xyz
x,y,z
-x,y,1/2-z
-x,-y,-z
x,-y,1/2+z
loop_
_atom_site_type_symbol
_atom_site_label
_atom_site_fract_x
_atom_site_fract_y
_atom_site_fract_z
Si Si1 0.500000 0.962914 0.250000
Si Si2 0.500000 0.460196 0.250000
Si Si3 0.597606 0.872753 0.078367
Si Si4 0.458032 0.305343 0.455239
Si Si5 0.297641 0.634343 0.023946
Si Si6 0.103211 0.862264 0.087294
Si Si7 0.000000 0.702693 0.750000
Si Si8 0.000000 0.024581 0.750000
O O1 0.588755 0.900229 0.243261
O O2 0.585914 0.032100 0.464044
O O3 0.470296 0.391528 0.353754
O O4 0.634314 0.529488 0.425420
O O5 0.473464 0.798744 0.899666
O O6 0.741491 0.825138 0.213831
O O7 0.324525 0.311544 0.398978
O O8 0.593194 0.319503 0.725988
O O9 0.141627 0.643281 0.893964
O O10 0.060224 0.907932 0.192935
O O11 0.015592 0.775465 0.910706
O O12 0.098993 0.950560 0.961410
#
# Coordination Sequence:
#
# PCOD9230577 Si02
#       8
#     2   2   4   4   4   4   2   2
#     4  10  23  33  54  92 120 154 192 251 293 332
#     4  10  21  41  66  92 112 152 202 247 301 366
#     4  11  20  37  56  88 121 153 199 246 288 345
#     4  10  20  39  65  87 114 160 194 249 288 364
#     4  10  20  39  62  87 118 153 198 238 305 359
#     4  10  20  37  59  82 121 158 212 234 302 345
#     4  11  22  38  60  89 118 166 188 249 296 367
#     4   9  20  38  56  83 112 174 196 251 278 359
#
# _framework density 20.039437
#
# number of rings (size 3 to 8) (size 9 to 14) (size 15 to 20)
#    0.000    2.000    1.667    4.500    0.000    0.000 
#   12.000    3.333    0.000    0.000    0.000    0.000 
#    0.000    0.000    0.000    0.000    0.000    0.000 
#
# Total GULP energy -133797.118386 kJ/mol
# GULP energy per Si atom -5574.879933 kJ/mol
# Density = 1.999383 g / cm^3
# Si number density = 20.039437 Si / 1000 Ang^3
#
#
#
# Elastic Constant Matrix: (Units=GPa)
#
#
# Indices 1 2 3 4 5 6 
#
# 1 128.9140 42.2363 45.5375 0.0000 4.6803 0.0000
# 2 42.2363 80.0146 5.0817 0.0000 -1.7229 0.0000
# 3 45.5375 5.0817 36.1801 0.0000 -2.3067 0.0000
# 4 0.0000 0.0000 0.0000 20.7314 0.0000 -23.1186
# 5 4.6803 -1.7229 -2.3067 0.0000 36.0261 0.0000
# 6 0.0000 0.0000 0.0000 -23.1186 0.0000 76.1613
#
#
#
# Elastic Compliance Matrix: (Units=1/GPa)
#
#
# Indices 1 2 3 4 5 6 
#
# 1 0.018685 -0.008520 -0.022594 0.000000 -0.004282 0.000000
# 2 -0.008520 0.016504 0.008562 0.000000 0.002444 0.000000
# 3 -0.022594 0.008562 0.055314 0.000000 0.006886 0.000000
# 4 0.000000 0.000000 0.000000 0.072920 0.000000 0.022135
# 5 -0.004282 0.002444 0.006886 0.000000 0.028872 0.000000
# 6 0.000000 0.000000 0.000000 0.022135 0.000000 0.019849
#
#
# Mechanical properties :
#
#
# Convention : Reuss Voigt Hill
#
# Bulk Modulus (GPa) = 22.02760 47.86885 34.94823
# Shear Modulus (GPa) = 18.35664 36.73398 27.54531
#
# Velocity S-wave (km/s) = 3.02988 4.28610 3.71152
# Velocity P-wave (km/s) = 4.82247 6.95941 5.98705
#
# Compressibility (1/GPa) = 0.04539759
#
# Stress axis : x y z
#
# Youngs Moduli (GPa) = 53.51831 60.59092 18.07873
#
# Poissons Ratio (x) = 0.51626 0.40847
# Poissons Ratio (y) = 0.45599 -0.15479
# Poissons Ratio (z) = 1.20919 -0.51876
#
# Static dielectric constant tensor:
#      x y z
#    x 1.717200 0.000000 -0.008050 
#    y 0.000000 1.736670 0.000000 
#    z -0.008050 0.000000 1.737850 
# 
# From -- ./inp_files/12604.got.cif
#   From: 2010.05.17/outbox.cif.g08.bks.cpg/sg13_7_cif.got.tgz:12604.got - 2010.06.03 16:44:36.
