data_PCOD9230634
_publ_section_title
;
Structure prediction by ZEFSAII (Michael W. Deem and Ramdas Pophale) SiO2 
 PCOD9230634
Probable space group: P 2/C
;
_chemical_formula_sum "Si O2"
_cell_formula_units_Z 22
_cell_length_a 19.063347
_cell_length_b 9.616266
_cell_length_c 8.965601
_cell_angle_alpha 90.000000
_cell_angle_beta 149.307405
_cell_angle_gamma 90.000000
_cell_volume 838.924232
_symmetry_space_group_name_H-M "P 2/C"
_symmetry_group_IT_number 13
_symmetry_cell_setting 'monoclinic'
loop_
_space_group_symop_operation_xyz
x,y,z
-x,y,1/2-z
-x,-y,-z
x,-y,1/2+z
loop_
_atom_site_type_symbol
_atom_site_label
_atom_site_fract_x
_atom_site_fract_y
_atom_site_fract_z
Si Si1 0.000000 0.890268 0.750000
Si Si2 0.000000 0.662280 0.250000
Si Si3 0.680583 0.320413 0.620274
Si Si4 0.865656 0.699471 0.727405
Si Si5 0.226285 0.879800 0.685806
Si Si6 0.500000 0.428153 0.750000
Si Si7 0.431161 0.218598 0.361419
O O1 0.022254 0.798475 0.644391
O O2 0.134788 0.983512 0.018346
O O3 0.933141 0.602001 0.977634
O O4 0.124024 0.764403 0.425777
O O5 0.623858 0.465484 0.450038
O O6 0.568452 0.235301 0.514658
O O7 0.687097 0.233284 0.480933
O O8 0.793672 0.360065 0.949211
O O9 0.763931 0.804686 0.634182
O O10 0.368745 0.897136 0.858583
O O11 0.455267 0.341065 0.525994
#
# Coordination Sequence:
#
# PCOD9230634 Si02
#       7
#     2   2   4   4   4   2   4
#     4  11  22  38  62  89 116 169 206 244 288 353
#     4   7  20  36  52  87 116 161 204 240 294 343
#     4  10  21  35  60  95 114 153 202 247 300 352
#     4  10  21  35  59  88 121 156 207 245 287 357
#     4   9  20  35  57  85 119 159 202 238 299 344
#     4  10  20  40  66  88 118 154 196 242 320 358
#     4  10  20  37  60  91 119 151 197 253 295 365
#
# _framework density 26.224060000000001
#
# number of rings (size 3 to 8) (size 9 to 14) (size 15 to 20)
#    1.091    1.455    0.000    3.818    2.545    0.000 
#    0.000    0.909    0.000    6.545    0.000    1.273 
#    0.000    0.000    0.000    0.000    0.000    0.000 
#
# Total GULP energy -122477.586428 kJ/mol
# GULP energy per Si atom -5567.163019 kJ/mol
# Density = 2.616437 g / cm^3
# Si number density = 26.224060 Si / 1000 Ang^3
#
#
#
# Elastic Constant Matrix: (Units=GPa)
#
#
# Indices 1 2 3 4 5 6 
#
# 1 147.2845 23.1020 14.8424 0.0000 -18.1802 0.0000
# 2 23.1020 41.7616 30.3413 0.0000 -2.9990 0.0000
# 3 14.8424 30.3413 189.7611 0.0000 -47.8751 0.0000
# 4 0.0000 0.0000 0.0000 7.2723 0.0000 16.2992
# 5 -18.1802 -2.9990 -47.8751 0.0000 49.1540 0.0000
# 6 0.0000 0.0000 0.0000 16.2992 0.0000 7.6342
#
#
#
# Elastic Compliance Matrix: (Units=1/GPa)
#
#
# Indices 1 2 3 4 5 6 
#
# 1 0.007904 -0.004905 0.001098 0.000000 0.003693 0.000000
# 2 -0.004905 0.030572 -0.005955 0.000000 -0.005749 0.000000
# 3 0.001098 -0.005955 0.008149 0.000000 0.007980 0.000000
# 4 0.000000 0.000000 0.000000 -0.036328 0.000000 0.077561
# 5 0.003693 -0.005749 0.007980 0.000000 0.029132 0.000000
# 6 0.000000 0.000000 0.000000 0.077561 0.000000 -0.034606
#
#
# Mechanical properties :
#
#
# Convention : Reuss Voigt Hill
#
# Bulk Modulus (GPa) = 36.89789 57.26430 47.08110
# Shear Modulus (GPa) = 149.78124 33.51354 91.64739
#
# Velocity S-wave (km/s) = 7.56571 3.57875 5.91808
# Velocity P-wave (km/s) = 9.50898 6.24184 8.04305
#
# Compressibility (1/GPa) = 0.02710182
#
# Stress axis : x y z
#
# Youngs Moduli (GPa) = 126.51498 32.70916 122.70862
#
# Poissons Ratio (x) = 0.16044 -0.13472
# Poissons Ratio (y) = 0.62054 0.73074
# Poissons Ratio (z) = -0.13890 0.19479
#
# Static dielectric constant tensor:
#      x y z
#    x 2.062910 0.000000 0.100430 
#    y 0.000000 2.072040 0.000000 
#    z 0.100430 0.000000 2.131280 
# 
# From -- ./inp_files/22917.got.cif
#   From: 2010.05.17/outbox.cif.g08.bks.cpg/sg13_12_cif.got.tgz:22917.got - 2010.06.03 16:44:36.
