data_PCOD9230243
_publ_section_title
;
Structure prediction by ZEFSAII (Michael W. Deem and Ramdas Pophale) SiO2 
 PCOD9230243
Probable space group: P 2/C
;
_chemical_formula_sum "Si O2"
_cell_formula_units_Z 30
_cell_length_a 11.838771
_cell_length_b 23.025413
_cell_length_c 5.148696
_cell_angle_alpha 90.000000
_cell_angle_beta 98.201615
_cell_angle_gamma 90.000000
_cell_volume 1389.141720
_symmetry_space_group_name_H-M "P 2/C"
_symmetry_group_IT_number 13
_symmetry_cell_setting 'monoclinic'
loop_
_space_group_symop_operation_xyz
x,y,z
-x,y,1/2-z
-x,-y,-z
x,-y,1/2+z
loop_
_atom_site_type_symbol
_atom_site_label
_atom_site_fract_x
_atom_site_fract_y
_atom_site_fract_z
Si Si1 0.624031 0.621303 0.820952
Si Si2 0.824430 0.461011 0.542011
Si Si3 0.870245 0.208095 0.296417
Si Si4 0.766442 0.842685 0.246076
Si Si5 0.000000 0.609688 0.750000
Si Si6 0.132249 0.038241 0.823719
Si Si7 0.208743 0.320157 0.453039
Si Si8 0.618589 0.260126 0.631044
O O1 0.500000 0.594180 0.750000
O O2 0.712535 0.579663 0.994413
O O3 0.692646 0.634204 0.580955
O O4 0.604633 0.686336 0.927551
O O5 0.825756 0.485933 0.833643
O O6 0.927571 0.424592 0.444353
O O7 0.860563 0.181282 0.575530
O O8 0.819352 0.273177 0.279769
O O9 0.000000 0.210764 0.250000
O O10 0.798882 0.172531 0.054491
O O11 0.777644 0.911396 0.210596
O O12 0.653778 0.807635 0.105565
O O13 0.090768 0.647110 0.944237
O O14 0.000000 0.059358 0.750000
O O15 0.144512 0.986953 0.616510
O O16 0.266615 0.281428 0.687257
O O17 0.500000 0.260299 0.750000
#
# Coordination Sequence:
#
# PCOD9230243 Si02
#       8
#     4   4   4   4   2   4   4   4
#     4  11  23  42  68  90 125 162 215 266 326 380
#     4  11  27  47  67  94 126 168 217 266 322 386
#     4  11  20  35  55  89 133 161 202 251 318 387
#     4  11  23  37  60  92 127 171 213 263 318 382
#     4  10  22  44  68  92 130 170 208 258 322 402
#     4  10  20  36  58  85 124 171 217 261 313 370
#     4  10  21  38  59  95 126 167 200 255 321 394
#     4  11  23  40  67  93 133 167 215 270 329 387
#
# _framework density 21.596067000000001
#
# number of rings (size 3 to 8) (size 9 to 14) (size 15 to 20)
#    0.000    1.333    3.333    2.400    3.733    1.600 
#    2.400    0.000    0.000    0.800    0.000    0.000 
#    0.000    0.000    0.000    0.000    0.000    0.000 
#
# Total GULP energy -167246.651730 kJ/mol
# GULP energy per Si atom -5574.888391 kJ/mol
# Density = 2.154691 g / cm^3
# Si number density = 21.596067 Si / 1000 Ang^3
#
#
#
# Elastic Constant Matrix: (Units=GPa)
#
#
# Indices 1 2 3 4 5 6 
#
# 1 128.2813 40.2323 15.2145 0.0000 -7.4121 0.0000
# 2 40.2323 73.9568 0.2209 0.0000 3.9089 0.0000
# 3 15.2145 0.2209 45.9114 0.0000 -6.3939 0.0000
# 4 0.0000 0.0000 0.0000 30.8636 0.0000 11.3942
# 5 -7.4121 3.9089 -6.3939 0.0000 21.8576 0.0000
# 6 0.0000 0.0000 0.0000 11.3942 0.0000 27.0715
#
#
#
# Elastic Compliance Matrix: (Units=1/GPa)
#
#
# Indices 1 2 3 4 5 6 
#
# 1 0.010124 -0.005691 -0.002823 0.000000 0.003625 0.000000
# 2 -0.005691 0.016857 0.001164 0.000000 -0.004604 0.000000
# 3 -0.002823 0.001164 0.023506 0.000000 0.005711 0.000000
# 4 0.000000 0.000000 0.000000 0.038361 0.000000 -0.016146
# 5 0.003625 -0.004604 0.005711 0.000000 0.049474 0.000000
# 6 0.000000 0.000000 0.000000 -0.016146 0.000000 0.043735
#
#
# Mechanical properties :
#
#
# Convention : Reuss Voigt Hill
#
# Bulk Modulus (GPa) = 27.94266 39.94275 33.94270
# Shear Modulus (GPa) = 23.95925 28.79067 26.37496
#
# Velocity S-wave (km/s) = 3.33442 3.65519 3.49848
# Velocity P-wave (km/s) = 5.27175 6.02904 5.66307
#
# Compressibility (1/GPa) = 0.03578758
#
# Stress axis : x y z
#
# Youngs Moduli (GPa) = 98.77104 59.32226 42.54179
#
# Poissons Ratio (x) = 0.33759 0.12009
# Poissons Ratio (y) = 0.56209 -0.04950
# Poissons Ratio (z) = 0.27882 -0.06903
#
# Static dielectric constant tensor:
#      x y z
#    x 1.843610 0.000000 -0.013590 
#    y 0.000000 1.876920 0.000000 
#    z -0.013590 0.000000 1.890510 
# 
# From -- ./inp_files/4135.got.cif
#   From: 2010.05.17/outbox.cif.g08.bks.cpg/sg13_3_cif.got.tgz:4135.got - 2010.06.03 16:44:36.
