data_PCOD9230742
_publ_section_title
;
Structure prediction by ZEFSAII (Michael W. Deem and Ramdas Pophale) SiO2 
 PCOD9230742
Probable space group: P 2/C
;
_chemical_formula_sum "Si O2"
_cell_formula_units_Z 30
_cell_length_a 11.717549
_cell_length_b 8.544426
_cell_length_c 15.988028
_cell_angle_alpha 90.000000
_cell_angle_beta 104.059660
_cell_angle_gamma 90.000000
_cell_volume 1552.764845
_symmetry_space_group_name_H-M "P 2/C"
_symmetry_group_IT_number 13
_symmetry_cell_setting 'monoclinic'
loop_
_space_group_symop_operation_xyz
x,y,z
-x,y,1/2-z
-x,-y,-z
x,-y,1/2+z
loop_
_atom_site_type_symbol
_atom_site_label
_atom_site_fract_x
_atom_site_fract_y
_atom_site_fract_z
Si Si1 0.419574 0.497526 0.403371
Si Si2 0.377482 0.980967 0.028413
Si Si3 0.860372 0.937296 0.220798
Si Si4 0.223273 0.233997 0.379861
Si Si5 0.500000 0.572282 0.250000
Si Si6 0.283448 0.227696 0.656693
Si Si7 0.872131 0.435915 0.001536
Si Si8 0.257642 0.735478 0.444042
O O1 0.500000 0.500000 0.500000
O O2 0.316954 0.369569 0.376701
O O3 0.496926 0.478868 0.335376
O O4 0.356991 0.664851 0.401079
O O5 0.362381 0.888733 0.112531
O O6 0.296179 0.878818 0.953372
O O7 0.500000 0.000000 0.000000
O O8 0.318496 0.150919 0.021495
O O9 0.797075 0.865020 0.291171
O O10 0.824749 0.835464 0.132315
O O11 0.000000 0.929747 0.250000
O O12 0.822219 0.118295 0.199627
O O13 0.123558 0.317951 0.418088
O O14 0.619562 0.670739 0.277942
O O15 0.200520 0.339777 0.583029
O O16 0.800836 0.588445 0.020330
O O17 0.000000 0.500000 0.000000
#
# Coordination Sequence:
#
# PCOD9230742 Si02
#       8
#     4   4   4   4   2   4   4   4
#     4  11  21  41  64  92 132 168 209 270 330 391
#     4  10  20  37  63  89 123 166 209 263 324 383
#     4  11  23  43  61  89 135 175 209 269 328 386
#     4   9  22  40  58  91 124 163 217 256 326 391
#     4  12  22  40  64  96 136 164 218 274 334 408
#     4  11  24  40  63  97 129 171 218 271 330 397
#     4  10  21  42  67  92 120 167 228 272 317 384
#     4  10  20  39  62  89 121 163 215 258 324 386
#
# _framework density 19.320378000000002
#
# number of rings (size 3 to 8) (size 9 to 14) (size 15 to 20)
#    0.000    1.600    1.333    4.800    1.867    1.067 
#    9.600    5.333    0.000    0.000    0.000    0.000 
#    0.000    0.000    0.000    0.000    0.000    0.000 
#
# Total GULP energy -167158.106773 kJ/mol
# GULP energy per Si atom -5571.936892 kJ/mol
# Density = 1.927640 g / cm^3
# Si number density = 19.320378 Si / 1000 Ang^3
#
#
#
# Elastic Constant Matrix: (Units=GPa)
#
#
# Indices 1 2 3 4 5 6 
#
# 1 127.5226 39.3718 51.4877 0.0000 -12.3780 0.0000
# 2 39.3718 92.8833 35.8749 0.0000 -2.0229 0.0000
# 3 51.4877 35.8749 102.8565 0.0000 -10.3555 0.0000
# 4 0.0000 0.0000 0.0000 31.2245 0.0000 -3.2513
# 5 -12.3780 -2.0229 -10.3555 0.0000 32.9159 0.0000
# 6 0.0000 0.0000 0.0000 -3.2513 0.0000 28.2844
#
#
#
# Elastic Compliance Matrix: (Units=1/GPa)
#
#
# Indices 1 2 3 4 5 6 
#
# 1 0.010613 -0.002878 -0.004053 0.000000 0.002539 0.000000
# 2 -0.002878 0.013235 -0.003307 0.000000 -0.001309 0.000000
# 3 -0.004053 -0.003307 0.013147 0.000000 0.002409 0.000000
# 4 0.000000 0.000000 0.000000 0.032414 0.000000 0.003726
# 5 0.002539 -0.001309 0.002409 0.000000 0.032013 0.000000
# 6 0.000000 0.000000 0.000000 0.003726 0.000000 0.035783
#
#
# Mechanical properties :
#
#
# Convention : Reuss Voigt Hill
#
# Bulk Modulus (GPa) = 60.53887 64.08123 62.31005
# Shear Modulus (GPa) = 30.63925 31.58683 31.11304
#
# Velocity S-wave (km/s) = 3.98660 4.04777 4.01730
# Velocity P-wave (km/s) = 7.25209 7.42197 7.33752
#
# Compressibility (1/GPa) = 0.01651831
#
# Stress axis : x y z
#
# Youngs Moduli (GPa) = 94.22120 75.55709 76.06072
#
# Poissons Ratio (x) = 0.21745 0.30830
# Poissons Ratio (y) = 0.27116 0.25156
# Poissons Ratio (z) = 0.38191 0.24990
#
# Static dielectric constant tensor:
#      x y z
#    x -11.538610 0.000000 -5.788750 
#    y 0.000000 1.748990 0.000000 
#    z -5.788750 0.000000 -0.828900 
# 
# From -- ./inp_files/50381.got.cif
#   From: 2010.05.17/outbox.cif.g08.bks.cpg/sg13_26_cif.got.tgz:50381.got - 2010.06.03 16:44:36.
