data_PCOD9230218
_publ_section_title
;
Structure prediction by ZEFSAII (Michael W. Deem and Ramdas Pophale) SiO2 
 PCOD9230218
Probable space group: P 2/C
;
_chemical_formula_sum "Si O2"
_cell_formula_units_Z 28
_cell_length_a 8.130264
_cell_length_b 10.821671
_cell_length_c 13.828405
_cell_angle_alpha 90.000000
_cell_angle_beta 72.659749
_cell_angle_gamma 90.000000
_cell_volume 1161.369722
_symmetry_space_group_name_H-M "P 2/C"
_symmetry_group_IT_number 13
_symmetry_cell_setting 'monoclinic'
loop_
_space_group_symop_operation_xyz
x,y,z
-x,y,1/2-z
-x,-y,-z
x,-y,1/2+z
loop_
_atom_site_type_symbol
_atom_site_label
_atom_site_fract_x
_atom_site_fract_y
_atom_site_fract_z
Si Si1 0.154946 0.684320 0.151575
Si Si2 0.062537 0.324407 0.356268
Si Si3 0.969232 0.861726 0.041841
Si Si4 0.691886 0.132691 0.741699
Si Si5 0.321778 0.462627 0.440784
Si Si6 0.678882 0.656926 0.916694
Si Si7 0.329639 0.864765 0.711424
O O1 0.289051 0.742735 0.201860
O O2 0.240086 0.601853 0.052541
O O3 0.000000 0.638146 0.250000
O O4 0.087005 0.806162 0.106772
O O5 0.188164 0.428822 0.379498
O O6 0.186222 0.224152 0.283826
O O7 0.989284 0.238785 0.455462
O O8 0.877485 0.372253 0.347665
O O9 0.787118 0.860306 0.123941
O O10 0.000000 0.000000 0.000000
O O11 0.500000 0.112014 0.750000
O O12 0.743304 0.002657 0.783128
O O13 0.331967 0.604114 0.472890
O O14 0.516015 0.411477 0.392354
O O15 0.641318 0.799320 0.897305
O O16 0.500000 0.856571 0.750000
#
# Coordination Sequence:
#
# PCOD9230218 Si02
#       7
#     4   4   4   4   4   4   4
#     4   9  21  38  59  80 121 162 191 249 301 356
#     4  11  22  39  66  91 124 159 206 251 305 372
#     4  10  20  36  57  88 120 157 195 245 300 360
#     4  10  22  37  59  90 127 158 200 249 304 371
#     4  10  23  45  59  90 125 153 211 257 299 360
#     4  11  24  39  67  88 119 165 203 253 312 356
#     4  11  22  40  59  93 128 158 201 258 305 358
#
# _framework density 24.109463999999999
#
# number of rings (size 3 to 8) (size 9 to 14) (size 15 to 20)
#    0.000    1.714    2.857    0.857    4.000    2.286 
#    0.000    3.571    0.000    0.000    0.000    0.000 
#    0.000    0.000    0.000    0.000    0.000    0.000 
#
# Total GULP energy -156130.621772 kJ/mol
# GULP energy per Si atom -5576.093635 kJ/mol
# Density = 2.405459 g / cm^3
# Si number density = 24.109464 Si / 1000 Ang^3
#
#
#
# Elastic Constant Matrix: (Units=GPa)
#
#
# Indices 1 2 3 4 5 6 
#
# 1 133.9542 23.3910 14.5025 0.0000 -14.4234 0.0000
# 2 23.3910 71.5688 25.3505 0.0000 1.8477 0.0000
# 3 14.5025 25.3505 41.3533 0.0000 -8.2015 0.0000
# 4 0.0000 0.0000 0.0000 53.6138 0.0000 -4.1101
# 5 -14.4234 1.8477 -8.2015 0.0000 23.5402 0.0000
# 6 0.0000 0.0000 0.0000 -4.1101 0.0000 32.5712
#
#
#
# Elastic Compliance Matrix: (Units=1/GPa)
#
#
# Indices 1 2 3 4 5 6 
#
# 1 0.008570 -0.002883 -0.000163 0.000000 0.005420 0.000000
# 2 -0.002883 0.019533 -0.012480 0.000000 -0.007648 0.000000
# 3 -0.000163 -0.012480 0.034444 0.000000 0.012880 0.000000
# 4 0.000000 0.000000 0.000000 0.018834 0.000000 0.002377
# 5 0.005420 -0.007648 0.012880 0.000000 0.050889 0.000000
# 6 0.000000 0.000000 0.000000 0.002377 0.000000 0.031002
#
#
# Mechanical properties :
#
#
# Convention : Reuss Voigt Hill
#
# Bulk Modulus (GPa) = 31.75115 41.48493 36.61804
# Shear Modulus (GPa) = 24.41144 34.18718 29.29931
#
# Velocity S-wave (km/s) = 3.18547 3.76972 3.48984
# Velocity P-wave (km/s) = 5.16989 6.01597 5.60891
#
# Compressibility (1/GPa) = 0.03149493
#
# Stress axis : x y z
#
# Youngs Moduli (GPa) = 116.68639 51.19599 29.03274
#
# Poissons Ratio (x) = 0.14761 0.00473
# Poissons Ratio (y) = 0.33642 0.36232
# Poissons Ratio (z) = 0.01902 0.63891
#
# Static dielectric constant tensor:
#      x y z
#    x 1.964430 0.000000 -0.022110 
#    y 0.000000 1.956310 0.000000 
#    z -0.022110 0.000000 2.087460 
# 
# From -- ./inp_files/46847.got.cif
#   From: 2010.05.17/outbox.cif.g08.bks.cpg/sg13_24_cif.got.tgz:46847.got - 2010.06.03 16:44:36.
