data_PCOD9230145
_publ_section_title
;
Structure prediction by ZEFSAII (Michael W. Deem and Ramdas Pophale) SiO2 
 PCOD9230145
Probable space group: P 2/C
;
_chemical_formula_sum "Si O2"
_cell_formula_units_Z 18
_cell_length_a 5.170068
_cell_length_b 5.688259
_cell_length_c 26.255691
_cell_angle_alpha 90.000000
_cell_angle_beta 118.200135
_cell_angle_gamma 90.000000
_cell_volume 680.493519
_symmetry_space_group_name_H-M "P 2/C"
_symmetry_group_IT_number 13
_symmetry_cell_setting 'monoclinic'
loop_
_space_group_symop_operation_xyz
x,y,z
-x,y,1/2-z
-x,-y,-z
x,-y,1/2+z
loop_
_atom_site_type_symbol
_atom_site_label
_atom_site_fract_x
_atom_site_fract_y
_atom_site_fract_z
Si Si1 0.500000 0.016334 0.250000
Si Si2 0.756481 0.805525 0.028304
Si Si3 0.008651 0.027139 0.138022
Si Si4 0.239987 0.654168 0.307015
Si Si5 0.505202 0.587744 0.582169
O O1 0.368228 0.847141 0.280978
O O2 0.735049 0.151578 0.306118
O O3 0.636422 0.605589 0.055473
O O4 0.032204 0.924921 0.082690
O O5 0.775197 0.692662 0.973813
O O6 0.500000 0.000000 0.000000
O O7 0.740016 0.204945 0.110602
O O8 0.930255 0.803023 0.165712
O O9 0.494937 0.520705 0.361480
O O10 0.000000 0.516794 0.250000
#
# Coordination Sequence:
#
# PCOD9230145 Si02
#       5
#     2   4   4   4   4
#     4  10  20  36  54  76 114 150 180 228 278 322
#     4   8  15  30  56  81 103 137 178 221 272 323
#     4   9  18  34  53  77 108 142 179 222 272 325
#     4   9  19  34  51  75 109 145 182 225 273 324
#     4   9  16  31  56  79 103 140 181 222 270 323
#
# _framework density 26.45139
#
# number of rings (size 3 to 8) (size 9 to 14) (size 15 to 20)
#    0.000    3.111    0.000    0.000    0.000    2.667 
#    0.000   18.889    0.000   45.333    0.000    0.000 
#    0.000    0.000    0.000    0.000    0.000    0.000 
#
# Total GULP energy -100411.993957 kJ/mol
# GULP energy per Si atom -5578.444109 kJ/mol
# Density = 2.639119 g / cm^3
# Si number density = 26.451390 Si / 1000 Ang^3
#
#
#
# Elastic Constant Matrix: (Units=GPa)
#
#
# Indices 1 2 3 4 5 6 
#
# 1 31.1792 6.7901 45.4094 0.0000 -1.3803 0.0000
# 2 6.7901 60.3317 80.2381 0.0000 0.3727 0.0000
# 3 45.4094 80.2381 267.5299 0.0000 11.0775 0.0000
# 4 0.0000 0.0000 0.0000 -331.4891 0.0000 -579.0320
# 5 -1.3803 0.3727 11.0775 0.0000 23.7983 0.0000
# 6 0.0000 0.0000 0.0000 -579.0320 0.0000 -775.5196
#
#
#
# Elastic Compliance Matrix: (Units=1/GPa)
#
#
# Indices 1 2 3 4 5 6 
#
# 1 0.046392 0.009359 -0.010999 0.000000 0.007664 0.000000
# 2 0.009359 0.029748 -0.010721 0.000000 0.005067 0.000000
# 3 -0.010999 -0.010721 0.009013 0.000000 -0.004665 0.000000
# 4 0.000000 0.000000 0.000000 0.009917 0.000000 -0.007404
# 5 0.007664 0.005067 -0.004665 0.000000 0.044557 0.000000
# 6 0.000000 0.000000 0.000000 -0.007404 0.000000 0.004239
#
#
# Mechanical properties :
#
#
# Convention : Reuss Voigt Hill
#
# Bulk Modulus (GPa) = 16.54705 69.32399 42.93552
# Shear Modulus (GPa) = 26.49274 -201.53519 -87.52123
#
# Velocity S-wave (km/s) = 3.16818 -8.73820 -5.75842
# Velocity P-wave (km/s) = 4.43310 8.69156 5.28634
#
# Compressibility (1/GPa) = 0.06043372
#
# Stress axis : x y z
#
# Youngs Moduli (GPa) = 21.55524 33.61554 110.94709
#
# Poissons Ratio (x) = -0.31462 1.22029
# Poissons Ratio (y) = -0.20174 1.18941
# Poissons Ratio (z) = 0.23708 0.36038
#
# Static dielectric constant tensor:
#      x y z
#    x 2.231700 0.000000 0.088110 
#    y 0.000000 2.093990 0.000000 
#    z 0.088110 0.000000 2.219020 
# 
# From -- ./inp_files/82961.got.cif
#   From: 2010.05.17/outbox.cif.g08.bks.cpg/sg13_42_cif.got.tgz:82961.got - 2010.06.03 16:44:36.
