data_PCOD9230198
_publ_section_title
;
Structure prediction by ZEFSAII (Michael W. Deem and Ramdas Pophale) SiO2 
 PCOD9230198
Probable space group: P 2/C
;
_chemical_formula_sum "Si O2"
_cell_formula_units_Z 18
_cell_length_a 23.311869
_cell_length_b 8.218709
_cell_length_c 9.470640
_cell_angle_alpha 90.000000
_cell_angle_beta 24.424269
_cell_angle_gamma 90.000000
_cell_volume 750.283124
_symmetry_space_group_name_H-M "P 2/C"
_symmetry_group_IT_number 13
_symmetry_cell_setting 'monoclinic'
loop_
_space_group_symop_operation_xyz
x,y,z
-x,y,1/2-z
-x,-y,-z
x,-y,1/2+z
loop_
_atom_site_type_symbol
_atom_site_label
_atom_site_fract_x
_atom_site_fract_y
_atom_site_fract_z
Si Si1 0.161144 0.664134 0.928898
Si Si2 0.794945 0.978367 0.047943
Si Si3 0.000000 0.238776 0.250000
Si Si4 0.368564 0.106972 0.333380
Si Si5 0.754727 0.571939 0.462756
O O1 0.200609 0.554991 0.976073
O O2 0.000000 0.655334 0.250000
O O3 0.743838 0.601527 0.912235
O O4 0.188330 0.844874 0.920394
O O5 0.755882 0.016917 0.975168
O O6 0.668911 0.897472 0.417958
O O7 0.926772 0.869944 0.792964
O O8 0.882757 0.343844 0.590699
O O9 0.366308 0.294170 0.284952
O O10 0.500000 0.000000 0.000000
#
# Coordination Sequence:
#
# PCOD9230198 Si02
#       5
#     4   4   2   4   4
#     4  11  21  35  55  90 125 156 183 240 304 360
#     4  10  22  35  63  86 120 151 200 246 300 349
#     4  10  20  36  56  94 116 154 198 240 304 354
#     4  10  22  41  60  84 113 159 206 249 285 343
#     4  10  23  35  59  86 123 154 196 236 296 358
#
# _framework density 23.990940999999999
#
# number of rings (size 3 to 8) (size 9 to 14) (size 15 to 20)
#    0.000    1.778    2.222    1.333    3.111    4.444 
#    0.000    1.111    0.000    8.000    0.000    0.000 
#    0.000    0.000    0.000    0.000    0.000    0.000 
#
# Total GULP energy -100684.463617 kJ/mol
# GULP energy per Si atom -5593.581312 kJ/mol
# Density = 2.393634 g / cm^3
# Si number density = 23.990941 Si / 1000 Ang^3
#
#
#
# Elastic Constant Matrix: (Units=GPa)
#
#
# Indices 1 2 3 4 5 6 
#
# 1 93.8334 3.4311 -12.4002 0.0000 11.9324 0.0000
# 2 3.4311 56.4885 6.2645 0.0000 -11.2817 0.0000
# 3 -12.4002 6.2645 61.9591 0.0000 -10.8443 0.0000
# 4 0.0000 0.0000 0.0000 10.6102 0.0000 17.5147
# 5 11.9324 -11.2817 -10.8443 0.0000 21.8867 0.0000
# 6 0.0000 0.0000 0.0000 17.5147 0.0000 32.2027
#
#
#
# Elastic Compliance Matrix: (Units=1/GPa)
#
#
# Indices 1 2 3 4 5 6 
#
# 1 0.011800 -0.002250 0.001380 0.000000 -0.006909 0.000000
# 2 -0.002250 0.020166 -0.000498 0.000000 0.011374 0.000000
# 3 0.001380 -0.000498 0.017836 0.000000 0.007828 0.000000
# 4 0.000000 0.000000 0.000000 0.922390 0.000000 -0.501680
# 5 -0.006909 0.011374 0.007828 0.000000 0.059199 0.000000
# 6 0.000000 0.000000 0.000000 -0.501680 0.000000 0.303912
#
#
# Mechanical properties :
#
#
# Convention : Reuss Voigt Hill
#
# Bulk Modulus (GPa) = 21.24652 22.98575 22.11614
# Shear Modulus (GPa) = 3.69350 27.27230 15.48290
#
# Velocity S-wave (km/s) = 1.24213 3.37527 2.54316
# Velocity P-wave (km/s) = 3.30643 4.97913 4.22636
#
# Compressibility (1/GPa) = 0.04706653
#
# Stress axis : x y z
#
# Youngs Moduli (GPa) = 84.74262 49.58764 56.06534
#
# Poissons Ratio (x) = 0.11156 -0.07736
# Poissons Ratio (y) = 0.19065 0.02794
# Poissons Ratio (z) = -0.11693 0.02472
#
# Static dielectric constant tensor:
#      x y z
#    x 1.926090 0.000000 -0.004660 
#    y 0.000000 1.977350 0.000000 
#    z -0.004660 0.000000 1.940860 
# 
# From -- ./inp_files/27746.got.cif
#   From: 2010.05.17/outbox.cif.g08.bks.cpg/sg13_14_cif.got.tgz:27746.got - 2010.06.03 16:44:36.
