data_PCOD9230678
_publ_section_title
;
Structure prediction by ZEFSAII (Michael W. Deem and Ramdas Pophale) SiO2 
 PCOD9230678
Probable space group: P 2/C
;
_chemical_formula_sum "Si O2"
_cell_formula_units_Z 30
_cell_length_a 11.907157
_cell_length_b 23.734104
_cell_length_c 5.485560
_cell_angle_alpha 90.000000
_cell_angle_beta 91.823911
_cell_angle_gamma 90.000000
_cell_volume 1549.465126
_symmetry_space_group_name_H-M "P 2/C"
_symmetry_group_IT_number 13
_symmetry_cell_setting 'monoclinic'
loop_
_space_group_symop_operation_xyz
x,y,z
-x,y,1/2-z
-x,-y,-z
x,-y,1/2+z
loop_
_atom_site_type_symbol
_atom_site_label
_atom_site_fract_x
_atom_site_fract_y
_atom_site_fract_z
Si Si1 0.634441 0.471073 0.767257
Si Si2 0.315846 0.242793 0.570772
Si Si3 0.877918 0.213120 0.316082
Si Si4 0.500000 0.770317 0.750000
Si Si5 0.675032 0.845231 0.052160
Si Si6 0.757228 0.643540 0.315306
Si Si7 0.370524 0.976947 0.483396
Si Si8 0.882391 0.343275 0.344359
O O1 0.500000 0.476244 0.750000
O O2 0.676444 0.495894 0.511475
O O3 0.668489 0.406321 0.800237
O O4 0.203637 0.226870 0.416648
O O5 0.422737 0.264439 0.426505
O O6 0.349297 0.183654 0.691780
O O7 0.289743 0.293915 0.749883
O O8 0.802003 0.172895 0.482672
O O9 0.899598 0.276678 0.412828
O O10 0.000000 0.189708 0.250000
O O11 0.407770 0.810641 0.625827
O O12 0.643331 0.910171 0.040129
O O13 0.802315 0.649643 0.598822
O O14 0.842236 0.630757 0.097398
O O15 0.500000 0.000000 0.500000
O O16 0.319367 0.003949 0.236626
O O17 0.000000 0.365343 0.250000
#
# Coordination Sequence:
#
# PCOD9230678 Si02
#       8
#     4   4   4   2   4   4   4   4
#     4  10  22  41  61  85 115 165 214 256 295 356
#     4  10  22  35  57  91 122 161 192 250 320 370
#     4   9  20  37  58  87 121 158 202 248 308 374
#     4  10  22  34  52  84 128 156 184 238 320 366
#     4  11  21  37  59  84 123 154 201 250 301 366
#     4  11  21  39  61  90 121 158 205 248 312 366
#     4  10  23  37  57  83 112 159 205 238 288 354
#     4  10  20  37  61  92 125 156 197 248 311 379
#
# _framework density 19.361519999999999
#
# number of rings (size 3 to 8) (size 9 to 14) (size 15 to 20)
#    0.000    1.867    1.333    2.400    7.467    1.600 
#    3.600    0.000    0.000    8.800    0.000    0.000 
#    0.000    0.000    0.000    0.000    0.000    0.000 
#
# Total GULP energy -167022.307270 kJ/mol
# GULP energy per Si atom -5567.410242 kJ/mol
# Density = 1.931745 g / cm^3
# Si number density = 19.361520 Si / 1000 Ang^3
#
#
#
# Elastic Constant Matrix: (Units=GPa)
#
#
# Indices 1 2 3 4 5 6 
#
# 1 80.3960 2.7868 22.8496 0.0000 -20.1718 0.0000
# 2 2.7868 64.1834 21.5022 0.0000 0.4025 0.0000
# 3 22.8496 21.5022 94.4601 0.0000 -14.3230 0.0000
# 4 0.0000 0.0000 0.0000 29.7078 0.0000 6.0459
# 5 -20.1718 0.4025 -14.3230 0.0000 20.4301 0.0000
# 6 0.0000 0.0000 0.0000 6.0459 0.0000 26.0726
#
#
#
# Elastic Compliance Matrix: (Units=1/GPa)
#
#
# Indices 1 2 3 4 5 6 
#
# 1 0.016788 -0.000269 -0.001662 0.000000 0.015416 0.000000
# 2 -0.000269 0.017083 -0.004380 0.000000 -0.003673 0.000000
# 3 -0.001662 -0.004380 0.013148 0.000000 0.007662 0.000000
# 4 0.000000 0.000000 0.000000 0.035328 0.000000 -0.008192
# 5 0.015416 -0.003673 0.007662 0.000000 0.069612 0.000000
# 6 0.000000 0.000000 0.000000 -0.008192 0.000000 0.040254
#
#
# Mechanical properties :
#
#
# Convention : Reuss Voigt Hill
#
# Bulk Modulus (GPa) = 29.07382 37.03519 33.05450
# Shear Modulus (GPa) = 23.11591 28.03549 25.57570
#
# Velocity S-wave (km/s) = 3.45905 3.80939 3.63844
# Velocity P-wave (km/s) = 5.56797 6.20632 5.89579
#
# Compressibility (1/GPa) = 0.03439521
#
# Stress axis : x y z
#
# Youngs Moduli (GPa) = 59.56608 58.53926 76.05963
#
# Poissons Ratio (x) = 0.01573 0.12644
# Poissons Ratio (y) = 0.01601 0.33318
# Poissons Ratio (z) = 0.09902 0.25643
#
# Static dielectric constant tensor:
#      x y z
#    x 1.260780 0.000000 -0.323800 
#    y 0.000000 1.639020 0.000000 
#    z -0.323800 0.000000 1.606190 
# 
# From -- ./inp_files/4133.got.cif
#   From: 2010.05.17/outbox.cif.g08.bks.cpg/sg13_3_cif.got.tgz:4133.got - 2010.06.03 16:44:36.
