data_PCOD9230104
_publ_section_title
;
Structure prediction by ZEFSAII (Michael W. Deem and Ramdas Pophale) SiO2 
 PCOD9230104
Probable space group: P 2/C
;
_chemical_formula_sum "Si O2"
_cell_formula_units_Z 30
_cell_length_a 24.540652
_cell_length_b 5.626188
_cell_length_c 26.158671
_cell_angle_alpha 90.000000
_cell_angle_beta 22.014971
_cell_angle_gamma 90.000000
_cell_volume 1353.855123
_symmetry_space_group_name_H-M "P 2/C"
_symmetry_group_IT_number 13
_symmetry_cell_setting 'monoclinic'
loop_
_space_group_symop_operation_xyz
x,y,z
-x,y,1/2-z
-x,-y,-z
x,-y,1/2+z
loop_
_atom_site_type_symbol
_atom_site_label
_atom_site_fract_x
_atom_site_fract_y
_atom_site_fract_z
Si Si1 0.265600 0.367019 0.294158
Si Si2 0.500000 0.384479 0.250000
Si Si3 0.467707 0.061693 0.186992
Si Si4 0.743321 0.322818 0.593836
Si Si5 0.960698 0.191981 0.586594
Si Si6 0.636062 0.094644 0.452353
Si Si7 0.652330 0.276382 0.852634
Si Si8 0.946415 0.697445 0.658409
O O1 0.384465 0.191273 0.213357
O O2 0.257896 0.558696 0.347829
O O3 0.323387 0.456718 0.189311
O O4 0.102965 0.265261 0.431259
O O5 0.538505 0.230631 0.166933
O O6 0.360906 0.531489 0.352717
O O7 0.339489 0.923988 0.327271
O O8 0.588056 0.911508 0.052998
O O9 0.909648 0.315064 0.431628
O O10 0.802538 0.170315 0.698173
O O11 0.940868 0.431584 0.638653
O O12 0.986147 0.938430 0.591312
O O13 0.656344 0.837857 0.405803
O O14 0.497799 0.204573 0.543152
O O15 0.786309 0.237358 0.317298
#
# Coordination Sequence:
#
# PCOD9230104 Si02
#       8
#     4   2   4   4   4   4   4   4
#     4  10  20  35  62  97 131 178 223 273 316 381
#     4  10  24  40  76 102 114 158 224 294 346 400
#     4  11  21  41  68  96 127 163 221 277 344 395
#     4  10  20  42  64  97 127 163 219 281 335 395
#     4  10  21  38  61  95 136 185 232 270 309 373
#     4  10  23  39  63  99 137 182 215 268 330 397
#     4  10  21  38  57  98 141 182 225 260 315 394
#     4  10  22  41  65  95 136 178 219 270 331 389
#
# _framework density 22.158944999999999
#
# number of rings (size 3 to 8) (size 9 to 14) (size 15 to 20)
#    0.000    1.867    2.667    0.800    0.000    6.400 
#    0.000    6.667    0.000    4.800    0.000    0.000 
#    0.000    0.000    0.000    0.000    0.000    0.000 
#
# Total GULP energy -167279.481243 kJ/mol
# GULP energy per Si atom -5575.982708 kJ/mol
# Density = 2.210851 g / cm^3
# Si number density = 22.158945 Si / 1000 Ang^3
#
#
#
# Elastic Constant Matrix: (Units=GPa)
#
#
# Indices 1 2 3 4 5 6 
#
# 1 68.8740 -7.2783 52.1342 0.0000 -29.6814 0.0000
# 2 -7.2783 32.5435 40.0118 0.0000 -9.9382 0.0000
# 3 52.1342 40.0118 145.4030 0.0000 -24.5160 0.0000
# 4 0.0000 0.0000 0.0000 28.4769 0.0000 -10.5388
# 5 -29.6814 -9.9382 -24.5160 0.0000 26.1076 0.0000
# 6 0.0000 0.0000 0.0000 -10.5388 0.0000 -11.5514
#
#
#
# Elastic Compliance Matrix: (Units=1/GPa)
#
#
# Indices 1 2 3 4 5 6 
#
# 1 0.685322 0.802083 -0.336938 0.000000 0.768061 0.000000
# 2 0.802083 0.986199 -0.406241 0.000000 0.905812 0.000000
# 3 -0.336938 -0.406241 0.176809 0.000000 -0.371671 0.000000
# 4 0.000000 0.000000 0.000000 0.026252 0.000000 -0.023951
# 5 0.768061 0.905812 -0.371671 0.000000 0.907298 0.000000
# 6 0.000000 0.000000 0.000000 -0.023951 0.000000 -0.064718
#
#
# Mechanical properties :
#
#
# Convention : Reuss Voigt Hill
#
# Bulk Modulus (GPa) = 0.50861 46.28399 23.39630
# Shear Modulus (GPa) = 1.53622 19.40345 10.46984
#
# Velocity S-wave (km/s) = 0.83353 2.96235 2.17604
# Velocity P-wave (km/s) = 1.07536 5.71255 4.11033
#
# Compressibility (1/GPa) = 1.96613918
#
# Stress axis : x y z
#
# Youngs Moduli (GPa) = 1.45917 1.01399 5.65583
#
# Poissons Ratio (x) = -0.81331 1.90566
# Poissons Ratio (y) = -1.17037 2.29763
# Poissons Ratio (z) = 0.49165 0.41193
#
# Static dielectric constant tensor:
#      x y z
#    x 1.812230 0.000000 0.003740 
#    y 0.000000 1.981850 0.000000 
#    z 0.003740 0.000000 1.836870 
# 
# From -- ./inp_files/97808.got.cif
#   From: 2010.05.17/outbox.cif.g08.bks.cpg/sg13_49_cif.got.tgz:97808.got - 2010.06.03 16:44:36.
