data_PCOD9230965
_publ_section_title
;
Structure prediction by ZEFSAII (Michael W. Deem and Ramdas Pophale) SiO2 
 PCOD9230965
Probable space group: P 2/C
;
_chemical_formula_sum "Si O2"
_cell_formula_units_Z 20
_cell_length_a 6.004117
_cell_length_b 7.134909
_cell_length_c 23.002314
_cell_angle_alpha 90.000000
_cell_angle_beta 66.849748
_cell_angle_gamma 90.000000
_cell_volume 906.045487
_symmetry_space_group_name_H-M "P 2/C"
_symmetry_group_IT_number 13
_symmetry_cell_setting 'monoclinic'
loop_
_space_group_symop_operation_xyz
x,y,z
-x,y,1/2-z
-x,-y,-z
x,-y,1/2+z
loop_
_atom_site_type_symbol
_atom_site_label
_atom_site_fract_x
_atom_site_fract_y
_atom_site_fract_z
Si Si1 0.862171 0.485045 0.600494
Si Si2 0.773520 0.507305 0.240030
Si Si3 0.580478 0.219275 0.856038
Si Si4 0.806088 0.816662 0.458225
Si Si5 0.263621 0.906160 0.911627
O O1 0.882139 0.437111 0.666859
O O2 0.624323 0.372289 0.605808
O O3 0.821554 0.704909 0.601070
O O4 0.090425 0.394635 0.544851
O O5 0.500000 0.430073 0.250000
O O6 0.714996 0.682769 0.288516
O O7 0.000000 0.403404 0.250000
O O8 0.708319 0.177603 0.903579
O O9 0.457017 0.019854 0.853776
O O10 0.649326 0.870082 0.530622
O O11 0.033916 0.956586 0.436819
#
# Coordination Sequence:
#
# PCOD9230965 Si02
#       5
#     4   4   4   4   4
#     4  10  21  38  61  87 123 163 212 261 320 379
#     4  10  20  40  67  85 124 173 211 263 325 372
#     4  10  21  38  62  85 126 165 208 263 319 378
#     4  10  20  38  61  89 128 161 203 266 322 380
#     4  10  22  37  60  95 123 161 211 261 318 389
#
# _framework density 22.073948000000001
#
# number of rings (size 3 to 8) (size 9 to 14) (size 15 to 20)
#    0.000    2.000    2.000    1.200    0.000    2.400 
#    0.000   15.000    0.000    0.000    0.000    0.000 
#    0.000    0.000    0.000    0.000    0.000    0.000 
#
# Total GULP energy -111337.408694 kJ/mol
# GULP energy per Si atom -5566.870435 kJ/mol
# Density = 2.202371 g / cm^3
# Si number density = 22.073948 Si / 1000 Ang^3
#
#
#
# Elastic Constant Matrix: (Units=GPa)
#
#
# Indices 1 2 3 4 5 6 
#
# 1 69.4154 3.4118 2.7811 0.0000 27.9012 0.0000
# 2 3.4118 115.1484 6.0994 0.0000 0.3868 0.0000
# 3 2.7811 6.0994 70.1068 0.0000 17.2210 0.0000
# 4 0.0000 0.0000 0.0000 11.9686 0.0000 2.4609
# 5 27.9012 0.3868 17.2210 0.0000 36.8197 0.0000
# 6 0.0000 0.0000 0.0000 2.4609 0.0000 3.8745
#
#
#
# Elastic Compliance Matrix: (Units=1/GPa)
#
#
# Indices 1 2 3 4 5 6 
#
# 1 0.021539 -0.000770 0.003638 0.000000 -0.018016 0.000000
# 2 -0.000770 0.008755 -0.000963 0.000000 0.000942 0.000000
# 3 0.003638 -0.000963 0.016809 0.000000 -0.010609 0.000000
# 4 0.000000 0.000000 0.000000 0.096102 0.000000 -0.061038
# 5 -0.018016 0.000942 -0.010609 0.000000 0.045763 0.000000
# 6 0.000000 0.000000 0.000000 -0.061038 0.000000 0.296863
#
#
# Mechanical properties :
#
#
# Convention : Reuss Voigt Hill
#
# Bulk Modulus (GPa) = 19.64109 31.02836 25.33473
# Shear Modulus (GPa) = 10.02018 26.69112 18.35565
#
# Velocity S-wave (km/s) = 2.13289 3.48108 2.88679
# Velocity P-wave (km/s) = 3.87076 5.49948 4.75537
#
# Compressibility (1/GPa) = 0.05091367
#
# Stress axis : x y z
#
# Youngs Moduli (GPa) = 46.42657 114.21923 59.49105
#
# Poissons Ratio (x) = 0.08799 -0.21642
# Poissons Ratio (y) = 0.03577 0.05726
# Poissons Ratio (z) = -0.16890 0.10994
#
# Static dielectric constant tensor:
#      x y z
#    x 1.940080 0.000000 0.004430 
#    y 0.000000 1.797810 0.000000 
#    z 0.004430 0.000000 1.821050 
# 
# From -- ./inp_files/89883.got.cif
#   From: 2010.05.17/outbox.cif.g08.bks.cpg/sg13_45_cif.got.tgz:89883.got - 2010.06.03 16:44:36.
