data_PCOD9230596
_publ_section_title
;
Structure prediction by ZEFSAII (Michael W. Deem and Ramdas Pophale) SiO2 
 PCOD9230596
Probable space group: P 2/C
;
_chemical_formula_sum "Si O2"
_cell_formula_units_Z 32
_cell_length_a 8.811349
_cell_length_b 11.424911
_cell_length_c 31.269862
_cell_angle_alpha 90.000000
_cell_angle_beta 30.465421
_cell_angle_gamma 90.000000
_cell_volume 1596.043765
_symmetry_space_group_name_H-M "P 2/C"
_symmetry_group_IT_number 13
_symmetry_cell_setting 'monoclinic'
loop_
_space_group_symop_operation_xyz
x,y,z
-x,y,1/2-z
-x,-y,-z
x,-y,1/2+z
loop_
_atom_site_type_symbol
_atom_site_label
_atom_site_fract_x
_atom_site_fract_y
_atom_site_fract_z
Si Si1 0.355718 0.874311 0.041767
Si Si2 0.143841 0.794758 0.452634
Si Si3 0.698054 0.926832 0.349340
Si Si4 0.832361 0.432294 0.502186
Si Si5 0.804367 0.244621 0.653373
Si Si6 0.540036 0.187553 0.408717
Si Si7 0.796952 0.437613 0.338600
Si Si8 0.861223 0.499680 0.660655
O O1 0.331597 0.857710 0.098319
O O2 0.017744 0.865479 0.107228
O O3 0.518185 0.795968 0.965984
O O4 0.500000 0.000000 0.000000
O O5 0.389710 0.895468 0.399721
O O6 0.162825 0.703320 0.486398
O O7 0.239083 0.729146 0.385820
O O8 0.797111 0.825874 0.528245
O O9 0.000000 0.895754 0.250000
O O10 0.703502 0.065724 0.358577
O O11 0.498087 0.484391 0.582180
O O12 0.000000 0.500000 0.500000
O O13 0.002331 0.452188 0.416423
O O14 0.500000 0.218516 0.750000
O O15 0.939859 0.360871 0.641760
O O16 0.686463 0.305467 0.355677
O O17 0.000000 0.480883 0.250000
O O18 0.994363 0.440645 0.333380
O O19 0.500000 0.507611 0.750000
#
# Coordination Sequence:
#
# PCOD9230596 Si02
#       8
#     4   4   4   4   4   4   4   4
#     4   9  20  38  60  86 119 162 214 261 311 387
#     4  11  23  37  66  91 125 168 215 263 320 397
#     4  11  23  39  63  94 125 163 220 278 324 385
#     4  12  22  42  64  95 135 172 214 265 327 396
#     4  10  20  37  59  88 128 165 201 259 328 376
#     4  10  22  44  63  87 127 176 214 264 330 388
#     4  12  26  41  68  97 133 176 219 269 335 399
#     4  11  25  42  64  96 134 170 217 273 328 402
#
# _framework density 20.049575999999998
#
# number of rings (size 3 to 8) (size 9 to 14) (size 15 to 20)
#    0.000    1.250    2.500    3.375    5.250    0.500 
#    0.000    0.000    0.000    3.000    0.000    0.000 
#    0.000    0.000    0.000    0.000    0.000    0.000 
#
# Total GULP energy -178512.479812 kJ/mol
# GULP energy per Si atom -5578.514994 kJ/mol
# Density = 2.000394 g / cm^3
# Si number density = 20.049576 Si / 1000 Ang^3
#
#
#
# Elastic Constant Matrix: (Units=GPa)
#
#
# Indices 1 2 3 4 5 6 
#
# 1 105.3200 18.6241 53.9735 0.0000 0.6790 0.0000
# 2 18.6241 56.1545 27.2169 0.0000 -6.9577 0.0000
# 3 53.9735 27.2169 143.1418 0.0000 11.0831 0.0000
# 4 0.0000 0.0000 0.0000 10.1927 0.0000 -3.6651
# 5 0.6790 -6.9577 11.0831 0.0000 26.8710 0.0000
# 6 0.0000 0.0000 0.0000 -3.6651 0.0000 24.6417
#
#
#
# Elastic Compliance Matrix: (Units=1/GPa)
#
#
# Indices 1 2 3 4 5 6 
#
# 1 0.011986 -0.001790 -0.004256 0.000000 0.000989 0.000000
# 2 -0.001790 0.021179 -0.003905 0.000000 0.007140 0.000000
# 3 -0.004256 -0.003905 0.009713 0.000000 -0.004910 0.000000
# 4 0.000000 0.000000 0.000000 0.103654 0.000000 0.015417
# 5 0.000989 0.007140 -0.004910 0.000000 0.041064 0.000000
# 6 0.000000 0.000000 0.000000 0.015417 0.000000 0.042875
#
#
# Mechanical properties :
#
#
# Convention : Reuss Voigt Hill
#
# Bulk Modulus (GPa) = 43.52148 56.02724 49.77436
# Shear Modulus (GPa) = 19.37757 25.99452 22.68604
#
# Velocity S-wave (km/s) = 3.11220 3.60462 3.36742
# Velocity P-wave (km/s) = 5.88799 6.73271 6.32447
#
# Compressibility (1/GPa) = 0.02297716
#
# Stress axis : x y z
#
# Youngs Moduli (GPa) = 83.43104 47.21678 102.95120
#
# Poissons Ratio (x) = 0.08452 0.43812
# Poissons Ratio (y) = 0.14935 0.40200
# Poissons Ratio (z) = 0.35505 0.18437
#
# Static dielectric constant tensor:
#      x y z
#    x 1.730350 0.000000 0.018510 
#    y 0.000000 1.795200 0.000000 
#    z 0.018510 0.000000 1.602900 
# 
# From -- ./inp_files/96135.got.cif
#   From: 2010.05.17/outbox.cif.g08.bks.cpg/sg13_49_cif.got.tgz:96135.got - 2010.06.03 16:44:36.
