data_PCOD9230425
_publ_section_title
;
Structure prediction by ZEFSAII (Michael W. Deem and Ramdas Pophale) SiO2 
 PCOD9230425
Probable space group: P 2/C
;
_chemical_formula_sum "Si O2"
_cell_formula_units_Z 28
_cell_length_a 12.858413
_cell_length_b 14.291639
_cell_length_c 9.004452
_cell_angle_alpha 90.000000
_cell_angle_beta 119.957075
_cell_angle_gamma 90.000000
_cell_volume 1433.656193
_symmetry_space_group_name_H-M "P 2/C"
_symmetry_group_IT_number 13
_symmetry_cell_setting 'monoclinic'
loop_
_space_group_symop_operation_xyz
x,y,z
-x,y,1/2-z
-x,-y,-z
x,-y,1/2+z
loop_
_atom_site_type_symbol
_atom_site_label
_atom_site_fract_x
_atom_site_fract_y
_atom_site_fract_z
Si Si1 0.811496 0.877228 0.886241
Si Si2 0.454003 0.363308 0.568258
Si Si3 0.858976 0.938135 0.603345
Si Si4 0.957046 0.235389 0.050121
Si Si5 0.634182 0.284382 0.284306
Si Si6 0.673915 0.445976 0.531826
Si Si7 0.928285 0.423892 0.851672
O O1 0.789018 0.915786 0.703981
O O2 0.710624 0.806898 0.868851
O O3 0.932503 0.814985 0.955901
O O4 0.825583 0.966780 0.999760
O O5 0.500000 0.315056 0.750000
O O6 0.376028 0.303555 0.398341
O O7 0.569330 0.400719 0.558848
O O8 0.377107 0.454723 0.557464
O O9 0.857751 0.845992 0.498633
O O10 0.000000 0.947137 0.750000
O O11 0.000000 0.258666 0.250000
O O12 0.919090 0.328038 0.938135
O O13 0.500000 0.274228 0.250000
O O14 0.689637 0.375009 0.405570
O O15 0.795926 0.456942 0.709702
O O16 0.000000 0.407228 0.750000
O O17 0.000000 0.500000 0.000000
#
# Coordination Sequence:
#
# PCOD9230425 Si02
#       7
#     4   4   4   4   4   4   4
#     4  10  20  36  63  85 120 154 197 258 299 362
#     4  10  21  38  65  83 108 158 212 258 291 354
#     4   9  19  36  60  90 115 157 203 243 298 369
#     4   9  20  39  58  86 121 163 202 242 297 368
#     4  10  22  40  59  89 116 153 207 260 311 356
#     4  10  22  38  59  84 118 160 207 249 293 363
#     4  12  27  38  55  89 131 171 197 245 311 365
#
# _framework density 19.530486
#
# number of rings (size 3 to 8) (size 9 to 14) (size 15 to 20)
#    0.000    2.286    0.000    5.143    6.000    6.286 
#    0.000    2.143    0.000    0.000    0.000    0.000 
#    0.000    0.000    0.000    0.000    0.000    0.000 
#
# Total GULP energy -156399.388130 kJ/mol
# GULP energy per Si atom -5585.692433 kJ/mol
# Density = 1.948603 g / cm^3
# Si number density = 19.530486 Si / 1000 Ang^3
#
#
#
# Elastic Constant Matrix: (Units=GPa)
#
#
# Indices 1 2 3 4 5 6 
#
# 1 32.0783 26.0834 18.2273 0.0000 5.0160 0.0000
# 2 26.0834 114.0681 57.6361 0.0000 -3.6007 0.0000
# 3 18.2273 57.6361 93.7437 0.0000 0.1245 0.0000
# 4 0.0000 0.0000 0.0000 34.3454 0.0000 6.3469
# 5 5.0160 -3.6007 0.1245 0.0000 26.5823 0.0000
# 6 0.0000 0.0000 0.0000 6.3469 0.0000 13.5443
#
#
#
# Elastic Compliance Matrix: (Units=1/GPa)
#
#
# Indices 1 2 3 4 5 6 
#
# 1 0.040825 -0.008135 -0.002925 0.000000 -0.008792 0.000000
# 2 -0.008135 0.014421 -0.007290 0.000000 0.003523 0.000000
# 3 -0.002925 -0.007290 0.015719 0.000000 -0.000509 0.000000
# 4 0.000000 0.000000 0.000000 0.031876 0.000000 -0.014937
# 5 -0.008792 0.003523 -0.000509 0.000000 0.039758 0.000000
# 6 0.000000 0.000000 0.000000 -0.014937 0.000000 0.080831
#
#
# Mechanical properties :
#
#
# Convention : Reuss Voigt Hill
#
# Bulk Modulus (GPa) = 29.18301 49.30928 39.24615
# Shear Modulus (GPa) = 18.41277 24.09063 21.25170
#
# Velocity S-wave (km/s) = 3.07379 3.51592 3.30226
# Velocity P-wave (km/s) = 5.25093 6.46408 5.88883
#
# Compressibility (1/GPa) = 0.03426652
#
# Stress axis : x y z
#
# Youngs Moduli (GPa) = 24.49476 69.34173 63.61929
#
# Poissons Ratio (x) = 0.56410 0.18606
# Poissons Ratio (y) = 0.19927 0.46375
# Poissons Ratio (z) = 0.07164 0.50547
#
# Static dielectric constant tensor:
#      x y z
#    x 1.700520 0.000000 -0.026270 
#    y 0.000000 1.655430 0.000000 
#    z -0.026270 0.000000 1.674450 
# 
# From -- ./inp_files/16851.got.cif
#   From: 2010.05.17/outbox.cif.g08.bks.cpg/sg13_9_cif.got.tgz:16851.got - 2010.06.03 16:44:36.
