data_PCOD9230112
_publ_section_title
;
Structure prediction by ZEFSAII (Michael W. Deem and Ramdas Pophale) SiO2 
 PCOD9230112
Probable space group: P 2/C
;
_chemical_formula_sum "Si O2"
_cell_formula_units_Z 32
_cell_length_a 11.797298
_cell_length_b 9.601813
_cell_length_c 13.602898
_cell_angle_alpha 90.000000
_cell_angle_beta 92.089165
_cell_angle_gamma 90.000000
_cell_volume 1539.850172
_symmetry_space_group_name_H-M "P 2/C"
_symmetry_group_IT_number 13
_symmetry_cell_setting 'monoclinic'
loop_
_space_group_symop_operation_xyz
x,y,z
-x,y,1/2-z
-x,-y,-z
x,-y,1/2+z
loop_
_atom_site_type_symbol
_atom_site_label
_atom_site_fract_x
_atom_site_fract_y
_atom_site_fract_z
Si Si1 0.052978 0.942540 0.644282
Si Si2 0.252159 0.757078 0.709629
Si Si3 0.684057 0.547802 0.282894
Si Si4 0.413809 0.974701 0.650126
Si Si5 0.219101 0.188824 0.634559
Si Si6 0.460406 0.412047 0.903492
Si Si7 0.187702 0.874589 0.916293
Si Si8 0.371169 0.902542 0.420956
O O1 0.159589 0.837704 0.639783
O O2 0.000000 0.923626 0.750000
O O3 0.945603 0.904927 0.574712
O O4 0.107522 0.095182 0.643497
O O5 0.264474 0.597777 0.681876
O O6 0.372461 0.832631 0.697887
O O7 0.214184 0.783367 0.820868
O O8 0.774212 0.670494 0.303277
O O9 0.633316 0.521429 0.172418
O O10 0.576260 0.597025 0.344170
O O11 0.395122 0.948098 0.533105
O O12 0.324712 0.095188 0.673599
O O13 0.542846 0.025007 0.653760
O O14 0.232245 0.200482 0.516472
O O15 0.404500 0.260215 0.920552
O O16 0.500000 0.500000 0.000000
O O17 0.249182 0.024668 0.900167
#
# Coordination Sequence:
#
# PCOD9230112 Si02
#       8
#     4   4   4   4   4   4   4   4
#     4   9  20  40  66  93 126 162 216 275 324 373
#     4  10  22  39  60  89 129 171 218 259 324 387
#     4  11  25  39  62  92 126 181 210 254 332 390
#     4   9  19  36  60  90 124 161 209 265 311 386
#     4  10  20  40  64  93 125 161 219 270 317 387
#     4  11  25  40  60  89 142 167 206 261 327 402
#     4  10  22  37  68  94 124 169 217 282 325 372
#     4  10  20  35  63  95 123 161 214 265 327 380
#
# _framework density 20.781241999999999
#
# number of rings (size 3 to 8) (size 9 to 14) (size 15 to 20)
#    0.000    2.000    1.250    1.125    7.000    2.500 
#    0.000    2.500    0.000    0.000    0.000    0.000 
#    0.000    0.000    0.000    0.000    0.000    0.000 
#
# Total GULP energy -178478.942321 kJ/mol
# GULP energy per Si atom -5577.466948 kJ/mol
# Density = 2.073394 g / cm^3
# Si number density = 20.781242 Si / 1000 Ang^3
#
#
#
# Elastic Constant Matrix: (Units=GPa)
#
#
# Indices 1 2 3 4 5 6 
#
# 1 87.5882 37.2204 25.8987 0.0000 19.9648 0.0000
# 2 37.2204 135.4425 11.5104 0.0000 10.0445 0.0000
# 3 25.8987 11.5104 56.8340 0.0000 15.5690 0.0000
# 4 0.0000 0.0000 0.0000 13.2279 0.0000 1.4007
# 5 19.9648 10.0445 15.5690 0.0000 26.5769 0.0000
# 6 0.0000 0.0000 0.0000 1.4007 0.0000 15.4039
#
#
#
# Elastic Compliance Matrix: (Units=1/GPa)
#
#
# Indices 1 2 3 4 5 6 
#
# 1 0.016032 -0.003427 -0.004368 0.000000 -0.008189 0.000000
# 2 -0.003427 0.008367 0.000034 0.000000 -0.000608 0.000000
# 3 -0.004368 0.000034 0.022255 0.000000 -0.009768 0.000000
# 4 0.000000 0.000000 0.000000 0.076333 0.000000 -0.006941
# 5 -0.008189 -0.000608 -0.009768 0.000000 0.049730 0.000000
# 6 0.000000 0.000000 0.000000 -0.006941 0.000000 0.065550
#
#
# Mechanical properties :
#
#
# Convention : Reuss Voigt Hill
#
# Bulk Modulus (GPa) = 32.12314 47.68041 39.90178
# Shear Modulus (GPa) = 18.92751 24.72411 21.82581
#
# Velocity S-wave (km/s) = 3.02122 3.45299 3.24429
# Velocity P-wave (km/s) = 5.25943 6.23629 5.76858
#
# Compressibility (1/GPa) = 0.03113021
#
# Stress axis : x y z
#
# Youngs Moduli (GPa) = 62.37709 119.51452 44.93427
#
# Poissons Ratio (x) = 0.40958 0.19628
# Poissons Ratio (y) = 0.21377 -0.00151
# Poissons Ratio (z) = 0.27247 -0.00401
#
# Static dielectric constant tensor:
#      x y z
#    x 1.779350 0.000000 0.048050 
#    y 0.000000 1.747050 0.000000 
#    z 0.048050 0.000000 1.837440 
# 
# From -- ./inp_files/50348.got.cif
#   From: 2010.05.17/outbox.cif.g08.bks.cpg/sg13_26_cif.got.tgz:50348.got - 2010.06.03 16:44:36.
