data_PCOD9230895
_publ_section_title
;
Structure prediction by ZEFSAII (Michael W. Deem and Ramdas Pophale) SiO2 
 PCOD9230895
Probable space group: P 2/C
;
_chemical_formula_sum "Si O2"
_cell_formula_units_Z 24
_cell_length_a 12.422985
_cell_length_b 11.316817
_cell_length_c 22.780543
_cell_angle_alpha 90.000000
_cell_angle_beta 156.464498
_cell_angle_gamma 90.000000
_cell_volume 1278.887589
_symmetry_space_group_name_H-M "P 2/C"
_symmetry_group_IT_number 13
_symmetry_cell_setting 'monoclinic'
loop_
_space_group_symop_operation_xyz
x,y,z
-x,y,1/2-z
-x,-y,-z
x,-y,1/2+z
loop_
_atom_site_type_symbol
_atom_site_label
_atom_site_fract_x
_atom_site_fract_y
_atom_site_fract_z
Si Si1 0.870651 0.241159 0.880591
Si Si2 0.621929 0.144786 0.435797
Si Si3 0.086266 0.747806 0.621866
Si Si4 0.250579 0.502685 0.668640
Si Si5 0.425410 0.134116 0.587231
Si Si6 0.320521 0.118031 0.907433
O O1 0.748175 0.371056 0.804973
O O2 0.630251 0.153108 0.743629
O O3 0.969637 0.237849 0.997441
O O4 0.131703 0.208705 0.973023
O O5 0.607933 0.185725 0.496781
O O6 0.343269 0.171104 0.263554
O O7 0.664262 0.003029 0.458391
O O8 0.838352 0.785572 0.538521
O O9 0.195281 0.613719 0.682643
O O10 0.500000 0.524598 0.750000
O O11 0.000000 0.500000 0.500000
O O12 0.592947 0.167867 0.612423
O O13 0.000000 0.094463 0.750000
O O14 0.500000 0.000000 0.000000
#
# Coordination Sequence:
#
# PCOD9230895 Si02
#       6
#     4   4   4   4   4   4
#     4  11  21  38  60  86 121 157 192 240 296 349
#     4  11  23  37  59  87 122 154 192 242 294 351
#     4  11  23  36  58  90 119 153 196 240 295 347
#     4  10  20  38  60  81 114 159 206 234 271 350
#     4  11  23  37  59  87 120 156 194 239 296 352
#     4  10  22  40  62  83 113 161 207 236 278 351
#
# _framework density 18.766309
#
# number of rings (size 3 to 8) (size 9 to 14) (size 15 to 20)
#    0.000    1.333    1.667    6.000    7.000    4.000 
#    0.000    0.000    0.000    6.000    0.000    0.000 
#    0.000    0.000    0.000    0.000    0.000    0.000 
#
# Total GULP energy -133847.088753 kJ/mol
# GULP energy per Si atom -5576.962031 kJ/mol
# Density = 1.872360 g / cm^3
# Si number density = 18.766309 Si / 1000 Ang^3
#
#
#
# Elastic Constant Matrix: (Units=GPa)
#
#
# Indices 1 2 3 4 5 6 
#
# 1 93.0159 44.8871 31.2334 0.0000 22.1813 0.0000
# 2 44.8871 72.1063 26.0496 0.0000 12.8124 0.0000
# 3 31.2334 26.0496 105.9650 0.0000 28.1982 0.0000
# 4 0.0000 0.0000 0.0000 18.7498 0.0000 18.8211
# 5 22.1813 12.8124 28.1982 0.0000 43.8052 0.0000
# 6 0.0000 0.0000 0.0000 18.8211 0.0000 5.3132
#
#
#
# Elastic Compliance Matrix: (Units=1/GPa)
#
#
# Indices 1 2 3 4 5 6 
#
# 1 0.016769 -0.009055 -0.001402 0.000000 -0.004940 0.000000
# 2 -0.009055 0.020333 -0.002374 0.000000 0.000166 0.000000
# 3 -0.001402 -0.002374 0.012140 0.000000 -0.006410 0.000000
# 4 0.000000 0.000000 0.000000 -0.020868 0.000000 0.073920
# 5 -0.004940 0.000166 -0.006410 0.000000 0.029408 0.000000
# 6 0.000000 0.000000 0.000000 0.073920 0.000000 -0.073640
#
#
# Mechanical properties :
#
#
# Convention : Reuss Voigt Hill
#
# Bulk Modulus (GPa) = 42.40721 52.82528 47.61624
# Shear Modulus (GPa) = 283.06215 24.83478 153.94846
#
# Velocity S-wave (km/s) = 12.29483 3.64176 9.06712
# Velocity P-wave (km/s) = 14.97321 6.77446 11.62089
#
# Compressibility (1/GPa) = 0.02358089
#
# Stress axis : x y z
#
# Youngs Moduli (GPa) = 59.63241 49.18061 82.37399
#
# Poissons Ratio (x) = 0.44532 0.11550
# Poissons Ratio (y) = 0.53996 0.19554
# Poissons Ratio (z) = 0.08362 0.11674
#
# Static dielectric constant tensor:
#      x y z
#    x 1.684920 0.000000 -0.010390 
#    y 0.000000 1.744600 0.000000 
#    z -0.010390 0.000000 1.637520 
# 
# From -- ./inp_files/86626.got.cif
#   From: 2010.05.17/outbox.cif.g08.bks.cpg/sg13_44_cif.got.tgz:86626.got - 2010.06.03 16:44:36.
