data_PCOD9230619
_publ_section_title
;
Structure prediction by ZEFSAII (Michael W. Deem and Ramdas Pophale) SiO2 
 PCOD9230619
Probable space group: P 2/C
;
_chemical_formula_sum "Si O2"
_cell_formula_units_Z 24
_cell_length_a 10.776096
_cell_length_b 14.545369
_cell_length_c 9.764727
_cell_angle_alpha 90.000000
_cell_angle_beta 42.274043
_cell_angle_gamma 90.000000
_cell_volume 1029.563448
_symmetry_space_group_name_H-M "P 2/C"
_symmetry_group_IT_number 13
_symmetry_cell_setting 'monoclinic'
loop_
_space_group_symop_operation_xyz
x,y,z
-x,y,1/2-z
-x,-y,-z
x,-y,1/2+z
loop_
_atom_site_type_symbol
_atom_site_label
_atom_site_fract_x
_atom_site_fract_y
_atom_site_fract_z
Si Si1 0.831810 0.848580 0.496461
Si Si2 0.878265 0.798369 0.041009
Si Si3 0.625653 0.971096 0.268042
Si Si4 0.638740 0.497873 0.512985
Si Si5 0.662613 0.700980 0.441621
Si Si6 0.338663 0.701434 0.498436
O O1 0.725257 0.940891 0.621502
O O2 0.703310 0.775715 0.524126
O O3 0.000000 0.864821 0.250000
O O4 0.916101 0.811859 0.570745
O O5 0.799121 0.719318 0.203846
O O6 0.810049 0.771624 0.944748
O O7 0.774495 0.892103 0.173002
O O8 0.500000 0.931075 0.250000
O O9 0.500000 0.000000 0.500000
O O10 0.500000 0.490145 0.750000
O O11 0.500000 0.500000 0.500000
O O12 0.716494 0.600353 0.453082
O O13 0.747403 0.401694 0.421123
O O14 0.458895 0.713382 0.539891
O O15 0.500000 0.702622 0.250000
#
# Coordination Sequence:
#
# PCOD9230619 Si02
#       6
#     4   4   4   4   4   4
#     4  10  22  41  63  91 126 166 206 257 321 380
#     4  10  20  37  60  86 122 163 200 254 322 378
#     4  12  25  41  65  96 125 164 216 266 312 377
#     4   9  17  30  54  86 119 155 204 261 308 358
#     4   9  17  32  56  87 116 157 209 257 303 368
#     4   8  15  31  55  86 118 159 209 257 307 369
#
# _framework density 23.310849999999999
#
# number of rings (size 3 to 8) (size 9 to 14) (size 15 to 20)
#    0.000    2.333    0.000    5.000    0.000    2.000 
#    0.000    0.833    0.000    0.000    0.000    0.000 
#    0.000    0.000    0.000    0.000    0.000    0.000 
#
# Total GULP energy -133906.834432 kJ/mol
# GULP energy per Si atom -5579.451435 kJ/mol
# Density = 2.325779 g / cm^3
# Si number density = 23.310850 Si / 1000 Ang^3
#
#
#
# Elastic Constant Matrix: (Units=GPa)
#
#
# Indices 1 2 3 4 5 6 
#
# 1 161.7023 57.2537 31.6946 0.0000 9.1995 0.0000
# 2 57.2537 147.7103 27.6876 0.0000 -10.2746 0.0000
# 3 31.6946 27.6876 68.5421 0.0000 9.7461 0.0000
# 4 0.0000 0.0000 0.0000 -15.4268 0.0000 21.7146
# 5 9.1995 -10.2746 9.7461 0.0000 37.0130 0.0000
# 6 0.0000 0.0000 0.0000 21.7146 0.0000 19.1351
#
#
#
# Elastic Compliance Matrix: (Units=1/GPa)
#
#
# Indices 1 2 3 4 5 6 
#
# 1 0.007691 -0.002722 -0.002158 0.000000 -0.002099 0.000000
# 2 -0.002722 0.008606 -0.002756 0.000000 0.003791 0.000000
# 3 -0.002158 -0.002756 0.017384 0.000000 -0.004806 0.000000
# 4 0.000000 0.000000 0.000000 -0.024957 0.000000 0.028322
# 5 -0.002099 0.003791 -0.004806 0.000000 0.029857 0.000000
# 6 0.000000 0.000000 0.000000 0.028322 0.000000 0.020121
#
#
# Mechanical properties :
#
#
# Convention : Reuss Voigt Hill
#
# Bulk Modulus (GPa) = 54.32792 67.91404 61.12098
# Shear Modulus (GPa) = 62.41384 25.56554 43.98969
#
# Velocity S-wave (km/s) = 5.18003 3.31527 4.34878
# Velocity P-wave (km/s) = 7.68982 6.62209 7.17584
#
# Compressibility (1/GPa) = 0.01840674
#
# Stress axis : x y z
#
# Youngs Moduli (GPa) = 130.03035 116.20274 57.52295
#
# Poissons Ratio (x) = 0.31635 0.12413
# Poissons Ratio (y) = 0.35399 0.15856
# Poissons Ratio (z) = 0.28061 0.32031
#
# Static dielectric constant tensor:
#      x y z
#    x 1.955640 0.000000 -0.021250 
#    y 0.000000 1.945190 0.000000 
#    z -0.021250 0.000000 1.890550 
# 
# From -- ./inp_files/34331.got.cif
#   From: 2010.05.17/outbox.cif.g08.bks.cpg/sg13_18_cif.got.tgz:34331.got - 2010.06.03 16:44:36.
