data_PCOD9230756
_publ_section_title
;
Structure prediction by ZEFSAII (Michael W. Deem and Ramdas Pophale) SiO2 
 PCOD9230756
Probable space group: P 2/C
;
_chemical_formula_sum "Si O2"
_cell_formula_units_Z 30
_cell_length_a 13.298358
_cell_length_b 8.459080
_cell_length_c 14.092934
_cell_angle_alpha 90.000000
_cell_angle_beta 62.499231
_cell_angle_gamma 90.000000
_cell_volume 1406.204425
_symmetry_space_group_name_H-M "P 2/C"
_symmetry_group_IT_number 13
_symmetry_cell_setting 'monoclinic'
loop_
_space_group_symop_operation_xyz
x,y,z
-x,y,1/2-z
-x,-y,-z
x,-y,1/2+z
loop_
_atom_site_type_symbol
_atom_site_label
_atom_site_fract_x
_atom_site_fract_y
_atom_site_fract_z
Si Si1 0.686910 0.771832 0.036577
Si Si2 0.526814 0.183859 0.968459
Si Si3 0.789935 0.743213 0.334891
Si Si4 0.404029 0.234789 0.212768
Si Si5 0.854869 0.961180 0.452568
Si Si6 0.000000 0.162577 0.250000
Si Si7 0.792113 0.387479 0.308259
Si Si8 0.762780 0.055797 0.676324
O O1 0.723978 0.791101 0.129796
O O2 0.552774 0.767641 0.084310
O O3 0.738800 0.649673 0.937457
O O4 0.737648 0.941864 0.978053
O O5 0.474128 0.256221 0.085851
O O6 0.654053 0.239102 0.900311
O O7 0.500000 0.000000 0.000000
O O8 0.844093 0.791188 0.411145
O O9 0.823530 0.569792 0.290279
O O10 0.819438 0.878763 0.245938
O O11 0.500000 0.260581 0.250000
O O12 0.296379 0.345910 0.237086
O O13 0.342844 0.062415 0.256127
O O14 0.150650 0.032318 0.432103
O O15 0.949610 0.059825 0.357780
O O16 0.101042 0.272532 0.243973
#
# Coordination Sequence:
#
# PCOD9230756 Si02
#       8
#     4   4   4   4   4   2   4   4
#     4   8  18  36  56  87 125 172 212 254 315 385
#     4  11  17  33  60  87 126 174 211 256 311 391
#     4  12  22  38  62  99 132 168 221 273 341 399
#     4  11  21  38  61  95 136 172 215 262 327 398
#     4   9  20  39  65  90 113 171 224 279 309 391
#     4  10  20  48  72  82 128 176 228 282 342 382
#     4  10  24  42  63  93 136 173 211 285 348 392
#     4  10  20  37  63  95 126 169 229 262 311 397
#
# _framework density 21.334026000000001
#
# number of rings (size 3 to 8) (size 9 to 14) (size 15 to 20)
#    0.800    1.067    2.667    3.200    0.000    2.667 
#    7.200    3.333    0.000    0.000    0.000    0.000 
#    0.000    0.000    0.000    0.000    0.000    0.000 
#
# Total GULP energy -167122.850760 kJ/mol
# GULP energy per Si atom -5570.761692 kJ/mol
# Density = 2.128547 g / cm^3
# Si number density = 21.334026 Si / 1000 Ang^3
#
#
#
# Elastic Constant Matrix: (Units=GPa)
#
#
# Indices 1 2 3 4 5 6 
#
# 1 71.1403 20.8748 12.4543 0.0000 -7.2586 0.0000
# 2 20.8748 53.4028 5.3808 0.0000 -3.9351 0.0000
# 3 12.4543 5.3808 64.0692 0.0000 -2.8053 0.0000
# 4 0.0000 0.0000 0.0000 14.3789 0.0000 6.2285
# 5 -7.2586 -3.9351 -2.8053 0.0000 32.2192 0.0000
# 6 0.0000 0.0000 0.0000 6.2285 0.0000 15.1973
#
#
#
# Elastic Compliance Matrix: (Units=1/GPa)
#
#
# Indices 1 2 3 4 5 6 
#
# 1 0.016556 -0.006006 -0.002592 0.000000 0.002771 0.000000
# 2 -0.006006 0.021218 -0.000562 0.000000 0.001189 0.000000
# 3 -0.002592 -0.000562 0.016192 0.000000 0.000757 0.000000
# 4 0.000000 0.000000 0.000000 0.084558 0.000000 -0.034655
# 5 0.002771 0.001189 0.000757 0.000000 0.031873 0.000000
# 6 0.000000 0.000000 0.000000 -0.034655 0.000000 0.080004
#
#
# Mechanical properties :
#
#
# Convention : Reuss Voigt Hill
#
# Bulk Modulus (GPa) = 28.05536 29.55912 28.80724
# Shear Modulus (GPa) = 17.81870 22.35256 20.08563
#
# Velocity S-wave (km/s) = 2.89316 3.24040 3.07169
# Velocity P-wave (km/s) = 4.93352 5.28069 5.11005
#
# Compressibility (1/GPa) = 0.03564381
#
# Stress axis : x y z
#
# Youngs Moduli (GPa) = 60.40234 47.13055 61.75721
#
# Poissons Ratio (x) = 0.28307 0.16010
# Poissons Ratio (y) = 0.36278 0.03473
# Poissons Ratio (z) = 0.15659 0.02650
#
# Static dielectric constant tensor:
#      x y z
#    x 1.813280 0.000000 0.012620 
#    y 0.000000 1.773690 0.000000 
#    z 0.012620 0.000000 1.872750 
# 
# From -- ./inp_files/50329.got.cif
#   From: 2010.05.17/outbox.cif.g08.bks.cpg/sg13_26_cif.got.tgz:50329.got - 2010.06.03 16:44:36.
