data_PCOD9230186
_publ_section_title
;
Structure prediction by ZEFSAII (Michael W. Deem and Ramdas Pophale) SiO2 
 PCOD9230186
Probable space group: P 2/C
;
_chemical_formula_sum "Si O2"
_cell_formula_units_Z 32
_cell_length_a 12.105408
_cell_length_b 14.436780
_cell_length_c 14.468039
_cell_angle_alpha 90.000000
_cell_angle_beta 140.241181
_cell_angle_gamma 90.000000
_cell_volume 1617.107624
_symmetry_space_group_name_H-M "P 2/C"
_symmetry_group_IT_number 13
_symmetry_cell_setting 'monoclinic'
loop_
_space_group_symop_operation_xyz
x,y,z
-x,y,1/2-z
-x,-y,-z
x,-y,1/2+z
loop_
_atom_site_type_symbol
_atom_site_label
_atom_site_fract_x
_atom_site_fract_y
_atom_site_fract_z
Si Si1 0.197579 0.331153 0.221868
Si Si2 0.507825 0.010083 0.615219
Si Si3 0.654243 0.799089 0.170294
Si Si4 0.179883 0.659561 0.092217
Si Si5 0.812478 0.895909 0.090485
Si Si6 0.680461 0.165140 0.321047
Si Si7 0.343490 0.341207 0.498456
Si Si8 0.572387 0.504577 0.695437
O O1 0.250341 0.233827 0.211344
O O2 0.190801 0.328860 0.327803
O O3 0.349183 0.404244 0.298001
O O4 0.016722 0.359120 0.060580
O O5 0.310732 0.983616 0.512358
O O6 0.626999 0.932117 0.739004
O O7 0.500000 0.000000 0.500000
O O8 0.583790 0.111219 0.680113
O O9 0.795914 0.743694 0.320655
O O10 0.721809 0.834371 0.113564
O O11 0.494255 0.728134 0.062200
O O12 0.285262 0.680434 0.065369
O O13 0.272692 0.569545 0.193894
O O14 0.000000 0.920190 0.250000
O O15 0.811134 0.843998 0.991278
O O16 0.500000 0.199783 0.250000
O O17 0.421129 0.445498 0.549253
O O18 0.500000 0.527855 0.750000
#
# Coordination Sequence:
#
# PCOD9230186 Si02
#       8
#     4   4   4   4   4   4   4   4
#     4  12  20  35  57  83 113 143 178 234 283 320
#     4   9  19  37  56  76 108 151 187 219 268 337
#     4  10  20  40  61  75 109 157 186 214 277 344
#     4  10  22  37  56  83 110 141 187 235 270 319
#     4  10  20  36  56  85 115 142 185 243 282 319
#     4  10  21  35  55  84 115 148 186 229 280 339
#     4  10  21  37  56  82 110 147 189 223 268 335
#     4   9  20  37  57  78 107 147 185 219 276 345
#
# _framework density 19.788418
#
# number of rings (size 3 to 8) (size 9 to 14) (size 15 to 20)
#    0.000    2.000    0.000    5.625    0.000    3.000 
#    0.000   11.875    0.000    0.000    0.000    0.000 
#    0.000    0.000    0.000    0.000    0.000    0.000 
#
# Total GULP energy -178470.646519 kJ/mol
# GULP energy per Si atom -5577.207704 kJ/mol
# Density = 1.974338 g / cm^3
# Si number density = 19.788418 Si / 1000 Ang^3
#
#
#
# Elastic Constant Matrix: (Units=GPa)
#
#
# Indices 1 2 3 4 5 6 
#
# 1 51.1352 27.4808 19.0224 0.0000 -9.0367 0.0000
# 2 27.4808 76.6431 27.8543 0.0000 -6.6601 0.0000
# 3 19.0224 27.8543 104.1304 0.0000 -20.5904 0.0000
# 4 0.0000 0.0000 0.0000 12.8469 0.0000 -5.5226
# 5 -9.0367 -6.6601 -20.5904 0.0000 27.1515 0.0000
# 6 0.0000 0.0000 0.0000 -5.5226 0.0000 20.6904
#
#
#
# Elastic Compliance Matrix: (Units=1/GPa)
#
#
# Indices 1 2 3 4 5 6 
#
# 1 0.025399 -0.008130 -0.001398 0.000000 0.005400 0.000000
# 2 -0.008130 0.017067 -0.003279 0.000000 -0.001006 0.000000
# 3 -0.001398 -0.003279 0.012334 0.000000 0.008084 0.000000
# 4 0.000000 0.000000 0.000000 0.087929 0.000000 0.023470
# 5 0.005400 -0.001006 0.008084 0.000000 0.044511 0.000000
# 6 0.000000 0.000000 0.000000 0.023470 0.000000 0.054596
#
#
# Mechanical properties :
#
#
# Convention : Reuss Voigt Hill
#
# Bulk Modulus (GPa) = 34.26139 42.29152 38.27645
# Shear Modulus (GPa) = 18.03887 22.64116 20.34002
#
# Velocity S-wave (km/s) = 3.02253 3.38622 3.20953
# Velocity P-wave (km/s) = 5.43437 6.05862 5.75496
#
# Compressibility (1/GPa) = 0.02918737
#
# Stress axis : x y z
#
# Youngs Moduli (GPa) = 39.37124 58.59336 81.07454
#
# Poissons Ratio (x) = 0.47636 0.11330
# Poissons Ratio (y) = 0.32009 0.26585
# Poissons Ratio (z) = 0.05502 0.19213
#
# Static dielectric constant tensor:
#      x y z
#    x 1.707150 0.000000 -0.013750 
#    y 0.000000 1.689070 0.000000 
#    z -0.013750 0.000000 1.717800 
# 
# From -- ./inp_files/51492.got.cif
#   From: 2010.05.17/outbox.cif.g08.bks.cpg/sg13_26_cif.got.tgz:51492.got - 2010.06.03 16:44:36.
