data_PCOD9230196
_publ_section_title
;
Structure prediction by ZEFSAII (Michael W. Deem and Ramdas Pophale) SiO2 
 PCOD9230196
Probable space group: P 2/C
;
_chemical_formula_sum "Si O2"
_cell_formula_units_Z 28
_cell_length_a 12.750390
_cell_length_b 13.785401
_cell_length_c 9.850744
_cell_angle_alpha 90.000000
_cell_angle_beta 58.350366
_cell_angle_gamma 90.000000
_cell_volume 1473.942733
_symmetry_space_group_name_H-M "P 2/C"
_symmetry_group_IT_number 13
_symmetry_cell_setting 'monoclinic'
loop_
_space_group_symop_operation_xyz
x,y,z
-x,y,1/2-z
-x,-y,-z
x,-y,1/2+z
loop_
_atom_site_type_symbol
_atom_site_label
_atom_site_fract_x
_atom_site_fract_y
_atom_site_fract_z
Si Si1 0.384774 0.534989 0.224731
Si Si2 0.239967 0.119546 0.805676
Si Si3 0.745085 0.303981 0.546399
Si Si4 0.967959 0.113273 0.005405
Si Si5 0.000000 0.228455 0.250000
Si Si6 0.439993 0.659521 0.568274
Si Si7 0.500000 0.817468 0.750000
Si Si8 0.733880 0.059694 0.012199
O O1 0.500000 0.530906 0.250000
O O2 0.273327 0.592250 0.369345
O O3 0.361657 0.425310 0.195696
O O4 0.439944 0.600963 0.066146
O O5 0.296292 0.219997 0.819405
O O6 0.279746 0.064540 0.641628
O O7 0.251408 0.045338 0.925604
O O8 0.099465 0.152234 0.869758
O O9 0.644936 0.302017 0.494700
O O10 0.882518 0.284567 0.394401
O O11 0.855031 0.117956 0.980042
O O12 0.944497 0.161083 0.167635
O O13 0.000000 0.000000 0.000000
O O14 0.479207 0.746366 0.637610
O O15 0.383158 0.885821 0.848868
#
# Coordination Sequence:
#
# PCOD9230196 Si02
#       8
#     4   4   4   4   2   4   2   4
#     4   9  18  37  60  88 108 146 202 250 298 355
#     4  10  23  39  60  85 119 157 208 240 295 348
#     4  10  21  38  61  84 121 154 193 255 300 358
#     4   9  20  33  63  80 115 151 213 248 281 330
#     4  10  20  36  56  92 118 158 198 246 308 358
#     4  10  20  36  62  86 111 150 199 251 299 357
#     4  12  24  36  56  84 130 150 200 242 306 358
#     4  11  24  38  56  87 120 165 197 248 288 357
#
# _framework density 18.996666999999999
#
# number of rings (size 3 to 8) (size 9 to 14) (size 15 to 20)
#    0.000    2.000    0.714    2.143   14.000    0.571 
#    3.857    0.714    0.000    0.000    0.000    0.000 
#    0.000    0.000    0.000    0.000    0.000    0.000 
#
# Total GULP energy -156023.611208 kJ/mol
# GULP energy per Si atom -5572.271829 kJ/mol
# Density = 1.895343 g / cm^3
# Si number density = 18.996667 Si / 1000 Ang^3
#
#
#
# Elastic Constant Matrix: (Units=GPa)
#
#
# Indices 1 2 3 4 5 6 
#
# 1 69.6979 38.4831 19.7483 0.0000 3.6621 0.0000
# 2 38.4831 61.7767 18.9174 0.0000 0.1810 0.0000
# 3 19.7483 18.9174 64.5026 0.0000 5.9767 0.0000
# 4 0.0000 0.0000 0.0000 35.0541 0.0000 5.1407
# 5 3.6621 0.1810 5.9767 0.0000 27.4631 0.0000
# 6 0.0000 0.0000 0.0000 5.1407 0.0000 26.5306
#
#
#
# Elastic Compliance Matrix: (Units=1/GPa)
#
#
# Indices 1 2 3 4 5 6 
#
# 1 0.022541 -0.013170 -0.002825 0.000000 -0.002304 0.000000
# 2 -0.013170 0.025508 -0.003670 0.000000 0.002387 0.000000
# 3 -0.002825 -0.003670 0.017766 0.000000 -0.003465 0.000000
# 4 0.000000 0.000000 0.000000 0.029362 0.000000 -0.005689
# 5 -0.002304 0.002387 -0.003465 0.000000 0.037458 0.000000
# 6 0.000000 0.000000 0.000000 -0.005689 0.000000 0.038795
#
#
# Mechanical properties :
#
#
# Convention : Reuss Voigt Hill
#
# Bulk Modulus (GPa) = 37.75788 38.91942 38.33865
# Shear Modulus (GPa) = 22.77003 25.73148 24.25075
#
# Velocity S-wave (km/s) = 3.46588 3.68438 3.57680
# Velocity P-wave (km/s) = 5.99464 6.21543 6.10603
#
# Compressibility (1/GPa) = 0.02648454
#
# Stress axis : x y z
#
# Youngs Moduli (GPa) = 44.36427 39.20333 56.28818
#
# Poissons Ratio (x) = 0.51629 0.15903
# Poissons Ratio (y) = 0.58426 0.20659
# Poissons Ratio (z) = 0.12534 0.14388
#
# Static dielectric constant tensor:
#      x y z
#    x 1.697050 0.000000 -0.004690 
#    y 0.000000 1.679050 0.000000 
#    z -0.004690 0.000000 1.744790 
# 
# From -- ./inp_files/16716.got.cif
#   From: 2010.05.17/outbox.cif.g08.bks.cpg/sg13_9_cif.got.tgz:16716.got - 2010.06.03 16:44:36.
