data_PCOD9230081
_publ_section_title
;
Structure prediction by ZEFSAII (Michael W. Deem and Ramdas Pophale) SiO2 
 PCOD9230081
Probable space group: P 2/C
;
_chemical_formula_sum "Si O2"
_cell_formula_units_Z 32
_cell_length_a 15.995046
_cell_length_b 9.467419
_cell_length_c 25.785607
_cell_angle_alpha 90.000000
_cell_angle_beta 25.099861
_cell_angle_gamma 90.000000
_cell_volume 1656.388760
_symmetry_space_group_name_H-M "P 2/C"
_symmetry_group_IT_number 13
_symmetry_cell_setting 'monoclinic'
loop_
_space_group_symop_operation_xyz
x,y,z
-x,y,1/2-z
-x,-y,-z
x,-y,1/2+z
loop_
_atom_site_type_symbol
_atom_site_label
_atom_site_fract_x
_atom_site_fract_y
_atom_site_fract_z
Si Si1 0.982310 0.740118 0.145184
Si Si2 0.523776 0.200886 0.890267
Si Si3 0.575837 0.382802 0.765766
Si Si4 0.160858 0.505870 0.699659
Si Si5 0.508071 0.696785 0.975850
Si Si6 0.630744 0.110318 0.035854
Si Si7 0.992220 0.338399 0.984026
Si Si8 0.395045 0.286693 0.252952
O O1 0.065447 0.680477 0.043818
O O2 0.764529 0.807963 0.259381
O O3 0.942574 0.605280 0.204089
O O4 0.143526 0.844687 0.079172
O O5 0.472801 0.307316 0.871915
O O6 0.418729 0.053993 0.937423
O O7 0.462492 0.259638 0.980885
O O8 0.500000 0.382096 0.750000
O O9 0.595094 0.548349 0.769244
O O10 0.780848 0.298521 0.643811
O O11 0.288774 0.624780 0.656639
O O12 0.329934 0.416443 0.574650
O O13 0.000000 0.562151 0.750000
O O14 0.438460 0.825135 0.979951
O O15 0.499595 0.187552 0.153249
O O16 0.835705 0.257123 0.106900
O O17 0.000000 0.500000 0.000000
O O18 0.500000 0.275366 0.250000
#
# Coordination Sequence:
#
# PCOD9230081 Si02
#       8
#     4   4   4   4   4   4   4   4
#     4  10  21  40  64  87 123 166 206 251 320 369
#     4  10  24  43  60  87 128 166 208 255 313 381
#     4   9  20  39  61  88 123 161 201 260 320 359
#     4  10  20  38  63  94 116 156 204 256 310 367
#     4  10  23  39  62  94 125 158 207 260 313 366
#     4  12  23  40  65  90 126 170 209 255 311 380
#     4   9  18  35  57  89 122 152 195 258 306 362
#     4  10  20  35  60  93 116 155 210 255 307 366
#
# _framework density 19.319136
#
# number of rings (size 3 to 8) (size 9 to 14) (size 15 to 20)
#    0.000    2.000    2.500    0.375    8.750    0.500 
#    4.500    1.250    0.000    0.000    0.000    0.000 
#    0.000    0.000    0.000    0.000    0.000    0.000 
#
# Total GULP energy -178362.277244 kJ/mol
# GULP energy per Si atom -5573.821164 kJ/mol
# Density = 1.927516 g / cm^3
# Si number density = 19.319136 Si / 1000 Ang^3
#
#
#
# Elastic Constant Matrix: (Units=GPa)
#
#
# Indices 1 2 3 4 5 6 
#
# 1 75.0098 29.9671 9.8513 0.0000 5.7281 0.0000
# 2 29.9671 64.5339 12.5757 0.0000 3.1251 0.0000
# 3 9.8513 12.5757 54.1950 0.0000 2.0211 0.0000
# 4 0.0000 0.0000 0.0000 7.9438 0.0000 -5.7537
# 5 5.7281 3.1251 2.0211 0.0000 23.8178 0.0000
# 6 0.0000 0.0000 0.0000 -5.7537 0.0000 24.4011
#
#
#
# Elastic Compliance Matrix: (Units=1/GPa)
#
#
# Indices 1 2 3 4 5 6 
#
# 1 0.016653 -0.007355 -0.001211 0.000000 -0.002937 0.000000
# 2 -0.007355 0.019557 -0.003181 0.000000 -0.000527 0.000000
# 3 -0.001211 -0.003181 0.019445 0.000000 -0.000941 0.000000
# 4 0.000000 0.000000 0.000000 0.151812 0.000000 0.035796
# 5 -0.002937 -0.000527 -0.000941 0.000000 0.042841 0.000000
# 6 0.000000 0.000000 0.000000 0.035796 0.000000 0.049422
#
#
# Mechanical properties :
#
#
# Convention : Reuss Voigt Hill
#
# Bulk Modulus (GPa) = 31.09392 33.16966 32.13179
# Shear Modulus (GPa) = 14.97253 20.65553 17.81403
#
# Velocity S-wave (km/s) = 2.78692 3.27337 3.03989
# Velocity P-wave (km/s) = 5.14643 5.61188 5.38419
#
# Compressibility (1/GPa) = 0.03216063
#
# Stress axis : x y z
#
# Youngs Moduli (GPa) = 60.04823 51.13372 51.42615
#
# Poissons Ratio (x) = 0.37609 0.06227
# Poissons Ratio (y) = 0.44165 0.16361
# Poissons Ratio (z) = 0.07271 0.16268
#
# Static dielectric constant tensor:
#      x y z
#    x 1.719190 0.000000 -0.001640 
#    y 0.000000 1.658340 0.000000 
#    z -0.001640 0.000000 1.730100 
# 
# From -- ./inp_files/87414.got.cif
#   From: 2010.05.17/outbox.cif.g08.bks.cpg/sg13_44_cif.got.tgz:87414.got - 2010.06.03 16:44:36.
