data_PCOD9230552
_publ_section_title
;
Structure prediction by ZEFSAII (Michael W. Deem and Ramdas Pophale) SiO2 
 PCOD9230552
Probable space group: P 2/C
;
_chemical_formula_sum "Si O2"
_cell_formula_units_Z 28
_cell_length_a 12.226627
_cell_length_b 6.929536
_cell_length_c 19.216946
_cell_angle_alpha 90.000000
_cell_angle_beta 124.258810
_cell_angle_gamma 90.000000
_cell_volume 1345.673587
_symmetry_space_group_name_H-M "P 2/C"
_symmetry_group_IT_number 13
_symmetry_cell_setting 'monoclinic'
loop_
_space_group_symop_operation_xyz
x,y,z
-x,y,1/2-z
-x,-y,-z
x,-y,1/2+z
loop_
_atom_site_type_symbol
_atom_site_label
_atom_site_fract_x
_atom_site_fract_y
_atom_site_fract_z
Si Si1 0.422341 0.309151 0.452046
Si Si2 0.000000 0.569022 0.250000
Si Si3 0.046075 0.282438 0.501474
Si Si4 0.478927 0.046484 0.896291
Si Si5 0.500000 0.987908 0.250000
Si Si6 0.175990 0.928557 0.296564
Si Si7 0.865838 0.267930 0.119718
Si Si8 0.810813 0.973267 0.857885
O O1 0.500000 0.500000 0.500000
O O2 0.427743 0.160129 0.518671
O O3 0.267027 0.347010 0.390377
O O4 0.484915 0.185627 0.410786
O O5 0.975908 0.424518 0.178110
O O6 0.883935 0.717657 0.224125
O O7 0.133630 0.259611 0.462783
O O8 0.134947 0.179783 0.593122
O O9 0.000000 0.500000 0.500000
O O10 0.908966 0.169470 0.434422
O O11 0.493990 0.111931 0.822786
O O12 0.330759 0.092540 0.866691
O O13 0.347245 0.072144 0.190562
O O14 0.116537 0.061666 0.336539
O O15 0.165085 0.025457 0.216573
#
# Coordination Sequence:
#
# PCOD9230552 Si02
#       8
#     4   2   4   4   2   4   4   4
#     4  10  20  37  58  84 114 146 188 234 282 338
#     4  12  20  32  56  80 108 148 188 228 276 324
#     4  11  23  39  58  86 121 155 191 236 293 353
#     4   9  20  37  58  81 112 147 182 232 284 336
#     4  10  20  40  62  84 114 152 194 238 294 346
#     4  10  21  38  57  82 112 146 190 234 278 332
#     4  11  23  36  57  86 114 147 191 237 278 335
#     4  10  22  40  61  83 116 154 191 241 291 344
#
# _framework density 20.807424000000001
#
# number of rings (size 3 to 8) (size 9 to 14) (size 15 to 20)
#    0.000    1.714    0.000    4.714    0.000    2.286 
#    0.000    5.714    0.000    0.000    0.000    0.000 
#    0.000    0.000    0.000    0.000    0.000    0.000 
#
# Total GULP energy -155967.889193 kJ/mol
# GULP energy per Si atom -5570.281757 kJ/mol
# Density = 2.076007 g / cm^3
# Si number density = 20.807424 Si / 1000 Ang^3
#
#
#
# Elastic Constant Matrix: (Units=GPa)
#
#
# Indices 1 2 3 4 5 6 
#
# 1 87.6194 25.4963 17.7591 0.0000 2.2959 0.0000
# 2 25.4963 107.6054 20.7009 0.0000 2.7646 0.0000
# 3 17.7591 20.7009 85.4384 0.0000 -5.7949 0.0000
# 4 0.0000 0.0000 0.0000 29.6793 0.0000 8.6000
# 5 2.2959 2.7646 -5.7949 0.0000 39.8925 0.0000
# 6 0.0000 0.0000 0.0000 8.6000 0.0000 17.2057
#
#
#
# Elastic Compliance Matrix: (Units=1/GPa)
#
#
# Indices 1 2 3 4 5 6 
#
# 1 0.012599 -0.002568 -0.002054 0.000000 -0.000845 0.000000
# 2 -0.002568 0.010313 -0.002023 0.000000 -0.000861 0.000000
# 3 -0.002054 -0.002023 0.012765 0.000000 0.002113 0.000000
# 4 0.000000 0.000000 0.000000 0.039400 0.000000 -0.019694
# 5 -0.000845 -0.000861 0.002113 0.000000 0.025483 0.000000
# 6 0.000000 0.000000 0.000000 -0.019694 0.000000 0.067964
#
#
# Mechanical properties :
#
#
# Convention : Reuss Voigt Hill
#
# Bulk Modulus (GPa) = 44.67133 45.39730 45.03431
# Shear Modulus (GPa) = 26.41645 31.80261 29.10953
#
# Velocity S-wave (km/s) = 3.56697 3.91375 3.74438
# Velocity P-wave (km/s) = 6.20321 6.50296 6.35485
#
# Compressibility (1/GPa) = 0.02238572
#
# Stress axis : x y z
#
# Youngs Moduli (GPa) = 79.37270 96.96382 78.34065
#
# Poissons Ratio (x) = 0.24904 0.16090
# Poissons Ratio (y) = 0.20386 0.15851
# Poissons Ratio (z) = 0.16302 0.19619
#
# Static dielectric constant tensor:
#      x y z
#    x 1.799150 0.000000 0.014320 
#    y 0.000000 1.766170 0.000000 
#    z 0.014320 0.000000 1.776830 
# 
# From -- ./inp_files/77626.got.cif
#   From: 2010.05.17/outbox.cif.g08.bks.cpg/sg13_39_cif.got.tgz:77626.got - 2010.06.03 16:44:36.
