data_PCOD9230844
_publ_section_title
;
Structure prediction by ZEFSAII (Michael W. Deem and Ramdas Pophale) SiO2 
 PCOD9230844
Probable space group: P 2/C
;
_chemical_formula_sum "Si O2"
_cell_formula_units_Z 28
_cell_length_a 14.985279
_cell_length_b 11.329023
_cell_length_c 9.861522
_cell_angle_alpha 90.000000
_cell_angle_beta 108.879247
_cell_angle_gamma 90.000000
_cell_volume 1584.110187
_symmetry_space_group_name_H-M "P 2/C"
_symmetry_group_IT_number 13
_symmetry_cell_setting 'monoclinic'
loop_
_space_group_symop_operation_xyz
x,y,z
-x,y,1/2-z
-x,-y,-z
x,-y,1/2+z
loop_
_atom_site_type_symbol
_atom_site_label
_atom_site_fract_x
_atom_site_fract_y
_atom_site_fract_z
Si Si1 0.801874 0.152636 0.589628
Si Si2 0.402624 0.128288 0.025779
Si Si3 0.875006 0.251815 0.896425
Si Si4 0.087902 0.756685 0.615231
Si Si5 0.202038 0.126363 0.390677
Si Si6 0.606229 0.893645 0.658338
Si Si7 0.930559 0.494678 0.839649
O O1 0.693742 0.197027 0.553766
O O2 0.860052 0.175384 0.754660
O O3 0.849946 0.215621 0.486192
O O4 0.797386 0.011085 0.566711
O O5 0.389638 0.090586 0.177470
O O6 0.509726 0.176498 0.075627
O O7 0.402415 0.019818 0.920379
O O8 0.862150 0.386608 0.839656
O O9 0.807094 0.206132 0.980837
O O10 0.979888 0.239267 0.011657
O O11 0.115881 0.848167 0.745939
O O12 0.108825 0.626995 0.688961
O O13 0.296746 0.156104 0.353285
O O14 0.000000 0.465623 0.750000
O O15 0.000000 0.500000 0.000000
#
# Coordination Sequence:
#
# PCOD9230844 Si02
#       7
#     4   4   4   4   4   4   4
#     4  11  22  34  51  81 114 142 172 210 269 330
#     4   9  18  33  53  76 104 141 179 220 258 310
#     4  11  23  35  53  76 108 142 181 224 259 307
#     4  11  21  37  55  76 104 146 183 218 261 310
#     4  11  22  34  51  81 112 144 172 212 266 334
#     4   9  18  33  53  76 104 140 181 218 260 308
#     4  10  20  38  58  74  95 136 193 238 254 284
#
# _framework density 17.675538
#
# number of rings (size 3 to 8) (size 9 to 14) (size 15 to 20)
#    0.000    1.714    1.429    5.143    6.000    3.429 
#    0.000    0.000    0.000    0.000    0.000    6.000 
#    0.000    0.000    0.000    0.000    0.000    0.000 
#
# Total GULP energy -155976.139595 kJ/mol
# GULP energy per Si atom -5570.576414 kJ/mol
# Density = 1.763531 g / cm^3
# Si number density = 17.675538 Si / 1000 Ang^3
#
#
#
# Elastic Constant Matrix: (Units=GPa)
#
#
# Indices 1 2 3 4 5 6 
#
# 1 76.3743 27.1297 12.8066 0.0000 -5.1291 0.0000
# 2 27.1297 52.8291 12.7761 0.0000 -1.1212 0.0000
# 3 12.8066 12.7761 72.1285 0.0000 -11.3714 0.0000
# 4 0.0000 0.0000 0.0000 16.4416 0.0000 -13.8012
# 5 -5.1291 -1.1212 -11.3714 0.0000 34.3504 0.0000
# 6 0.0000 0.0000 0.0000 -13.8012 0.0000 6.3633
#
#
#
# Elastic Compliance Matrix: (Units=1/GPa)
#
#
# Indices 1 2 3 4 5 6 
#
# 1 0.016263 -0.008027 -0.001186 0.000000 0.001774 0.000000
# 2 -0.008027 0.023748 -0.003005 0.000000 -0.001418 0.000000
# 3 -0.001186 -0.003005 0.015365 0.000000 0.004811 0.000000
# 4 0.000000 0.000000 0.000000 -0.074121 0.000000 -0.160759
# 5 0.001774 -0.001418 0.004811 0.000000 0.030923 0.000000
# 6 0.000000 0.000000 0.000000 -0.160759 0.000000 -0.191515
#
#
# Mechanical properties :
#
#
# Convention : Reuss Voigt Hill
#
# Bulk Modulus (GPa) = 32.32035 34.08407 33.20221
# Shear Modulus (GPa) = -34.58092 21.33905 -6.62094
#
# Velocity S-wave (km/s) = -4.42795 3.47834 -1.93751
# Velocity P-wave (km/s) = 2.79594 5.95457 3.71750
#
# Compressibility (1/GPa) = 0.03094026
#
# Stress axis : x y z
#
# Youngs Moduli (GPa) = 61.49014 42.10929 65.08087
#
# Poissons Ratio (x) = 0.33801 0.07719
# Poissons Ratio (y) = 0.49358 0.19555
# Poissons Ratio (z) = 0.07293 0.12653
#
# Static dielectric constant tensor:
#      x y z
#    x 1.651120 0.000000 0.021250 
#    y 0.000000 1.650200 0.000000 
#    z 0.021250 0.000000 1.606510 
# 
# From -- ./inp_files/18743.got.cif
#   From: 2010.05.17/outbox.cif.g08.bks.cpg/sg13_10_cif.got.tgz:18743.got - 2010.06.03 16:44:36.
