data_PCOD9230959
_publ_section_title
;
Structure prediction by ZEFSAII (Michael W. Deem and Ramdas Pophale) SiO2 
 PCOD9230959
Probable space group: P 2/C
;
_chemical_formula_sum "Si O2"
_cell_formula_units_Z 30
_cell_length_a 20.972224
_cell_length_b 6.973289
_cell_length_c 20.338984
_cell_angle_alpha 90.000000
_cell_angle_beta 150.623794
_cell_angle_gamma 90.000000
_cell_volume 1459.108290
_symmetry_space_group_name_H-M "P 2/C"
_symmetry_group_IT_number 13
_symmetry_cell_setting 'monoclinic'
loop_
_space_group_symop_operation_xyz
x,y,z
-x,y,1/2-z
-x,-y,-z
x,-y,1/2+z
loop_
_atom_site_type_symbol
_atom_site_label
_atom_site_fract_x
_atom_site_fract_y
_atom_site_fract_z
Si Si1 0.824448 0.708500 0.551691
Si Si2 0.259925 0.699701 0.673256
Si Si3 0.661885 0.302082 0.038066
Si Si4 0.000000 0.054793 0.750000
Si Si5 0.228623 0.415025 0.763520
Si Si6 0.580101 0.594650 0.255754
Si Si7 0.016983 0.360843 0.869042
Si Si8 0.656043 0.004285 0.142531
O O1 0.757117 0.664941 0.561720
O O2 0.894322 0.911172 0.624319
O O3 0.709577 0.706328 0.394458
O O4 0.923956 0.542953 0.617409
O O5 0.221858 0.531162 0.690004
O O6 0.376820 0.606353 0.736966
O O7 0.139425 0.732306 0.516751
O O8 0.299739 0.876731 0.753955
O O9 0.672810 0.477199 0.098633
O O10 0.698615 0.118528 0.114735
O O11 0.515876 0.292784 0.878934
O O12 0.045800 0.201737 0.734909
O O13 0.090175 0.422594 0.674964
O O14 0.279499 0.202528 0.798241
O O15 0.500000 0.558430 0.250000
O O16 0.500000 0.000000 0.000000
#
# Coordination Sequence:
#
# PCOD9230959 Si02
#       8
#     4   4   4   2   4   4   4   4
#     4  10  22  40  61  86 120 156 196 245 296 352
#     4  10  23  41  60  86 119 156 197 244 297 353
#     4  10  20  38  61  88 119 155 198 243 296 352
#     4  12  22  36  60  86 116 152 194 242 292 346
#     4  11  22  38  61  86 119 158 198 245 296 352
#     4   9  19  38  63  85 113 154 193 239 297 353
#     4  11  24  40  60  88 119 157 202 245 296 354
#     4  11  23  37  60  91 121 157 201 247 299 357
#
# _framework density 20.560503000000001
#
# number of rings (size 3 to 8) (size 9 to 14) (size 15 to 20)
#    0.000    1.600    0.000    4.800    0.000    6.933 
#    0.000    1.333    0.000    5.600    0.000    0.000 
#    0.000    0.000    0.000    0.000    0.000    0.000 
#
# Total GULP energy -167681.701169 kJ/mol
# GULP energy per Si atom -5589.390039 kJ/mol
# Density = 2.051371 g / cm^3
# Si number density = 20.560503 Si / 1000 Ang^3
#
#
#
# Elastic Constant Matrix: (Units=GPa)
#
#
# Indices 1 2 3 4 5 6 
#
# 1 62.4463 29.2961 20.1488 0.0000 2.9157 0.0000
# 2 29.2961 116.3090 28.9631 0.0000 -2.1584 0.0000
# 3 20.1488 28.9631 64.5494 0.0000 2.0755 0.0000
# 4 0.0000 0.0000 0.0000 21.2430 0.0000 2.7643
# 5 2.9157 -2.1584 2.0755 0.0000 30.1240 0.0000
# 6 0.0000 0.0000 0.0000 2.7643 0.0000 19.8304
#
#
#
# Elastic Compliance Matrix: (Units=1/GPa)
#
#
# Indices 1 2 3 4 5 6 
#
# 1 0.019264 -0.003832 -0.004234 0.000000 -0.001847 0.000000
# 2 -0.003832 0.010471 -0.003546 0.000000 0.001366 0.000000
# 3 -0.004234 -0.003546 0.018441 0.000000 -0.001115 0.000000
# 4 0.000000 0.000000 0.000000 0.047944 0.000000 -0.006683
# 5 -0.001847 0.001366 -0.001115 0.000000 0.033550 0.000000
# 6 0.000000 0.000000 0.000000 -0.006683 0.000000 0.051359
#
#
# Mechanical properties :
#
#
# Convention : Reuss Voigt Hill
#
# Bulk Modulus (GPa) = 40.07867 44.45784 42.26826
# Shear Modulus (GPa) = 23.52150 25.23260 24.37705
#
# Velocity S-wave (km/s) = 3.38600 3.50699 3.44703
# Velocity P-wave (km/s) = 5.90102 6.16997 6.03699
#
# Compressibility (1/GPa) = 0.02495093
#
# Stress axis : x y z
#
# Youngs Moduli (GPa) = 51.91008 95.49778 54.22774
#
# Poissons Ratio (x) = 0.36596 0.22962
# Poissons Ratio (y) = 0.19893 0.19230
# Poissons Ratio (z) = 0.21980 0.33866
#
# Static dielectric constant tensor:
#      x y z
#    x 1.733500 0.000000 0.002860 
#    y 0.000000 1.701270 0.000000 
#    z 0.002860 0.000000 1.746100 
# 
# From -- ./inp_files/81971.got.cif
#   From: 2010.05.17/outbox.cif.g08.bks.cpg/sg13_41_cif.got.tgz:81971.got - 2010.06.03 16:44:36.
