data_PCOD9230464
_publ_section_title
;
Structure prediction by ZEFSAII (Michael W. Deem and Ramdas Pophale) SiO2 
 PCOD9230464
Probable space group: P 2/C
;
_chemical_formula_sum "Si O2"
_cell_formula_units_Z 28
_cell_length_a 15.454002
_cell_length_b 7.791218
_cell_length_c 15.888104
_cell_angle_alpha 90.000000
_cell_angle_beta 129.856669
_cell_angle_gamma 90.000000
_cell_volume 1468.526106
_symmetry_space_group_name_H-M "P 2/C"
_symmetry_group_IT_number 13
_symmetry_cell_setting 'monoclinic'
loop_
_space_group_symop_operation_xyz
x,y,z
-x,y,1/2-z
-x,-y,-z
x,-y,1/2+z
loop_
_atom_site_type_symbol
_atom_site_label
_atom_site_fract_x
_atom_site_fract_y
_atom_site_fract_z
Si Si1 0.306996 0.304093 0.425535
Si Si2 0.321002 0.084268 0.274921
Si Si3 0.112307 0.109198 0.567557
Si Si4 0.079638 0.544697 0.127263
Si Si5 0.338055 0.545685 0.780862
Si Si6 0.074672 0.696763 0.867442
Si Si7 0.479398 0.786094 0.332173
O O1 0.355061 0.449530 0.392614
O O2 0.192625 0.357067 0.399681
O O3 0.403003 0.253277 0.550078
O O4 0.282420 0.149080 0.343664
O O5 0.220063 0.007453 0.156043
O O6 0.412825 0.935813 0.338350
O O7 0.369804 0.264035 0.268649
O O8 0.102589 0.253350 0.634556
O O9 0.109550 0.200376 0.473990
O O10 0.000000 0.000000 0.500000
O O11 0.202545 0.464084 0.189017
O O12 0.009751 0.458246 0.158860
O O13 0.000000 0.500000 0.000000
O O14 0.402484 0.385751 0.782612
O O15 0.000000 0.795233 0.750000
O O16 0.500000 0.843563 0.250000
#
# Coordination Sequence:
#
# PCOD9230464 Si02
#       7
#     4   4   4   4   4   4   4
#     4  10  23  41  65  91 130 173 210 275 321 386
#     4  10  22  41  66  89 131 168 218 261 332 382
#     4  11  21  38  63  95 130 172 213 265 327 387
#     4  10  20  36  65  91 131 167 208 263 321 386
#     4  10  22  42  66  92 128 171 211 265 331 382
#     4  11  20  39  64  95 130 169 215 267 326 391
#     4  12  24  42  67  95 127 170 226 270 324 388
#
# _framework density 19.066737
#
# number of rings (size 3 to 8) (size 9 to 14) (size 15 to 20)
#    0.857    0.571    2.857    4.286    2.000    0.571 
#    0.000    3.571    0.000    0.000    0.000    0.000 
#    0.000    0.000    0.000    0.000    0.000    0.000 
#
# Total GULP energy -155913.964224 kJ/mol
# GULP energy per Si atom -5568.355865 kJ/mol
# Density = 1.902334 g / cm^3
# Si number density = 19.066737 Si / 1000 Ang^3
#
#
#
# Elastic Constant Matrix: (Units=GPa)
#
#
# Indices 1 2 3 4 5 6 
#
# 1 65.8558 17.2164 16.0589 0.0000 4.4506 0.0000
# 2 17.2164 88.7010 -1.7561 0.0000 6.6914 0.0000
# 3 16.0589 -1.7561 92.8066 0.0000 9.4848 0.0000
# 4 0.0000 0.0000 0.0000 20.8049 0.0000 -2.8706
# 5 4.4506 6.6914 9.4848 0.0000 34.9830 0.0000
# 6 0.0000 0.0000 0.0000 -2.8706 0.0000 -2.8729
#
#
#
# Elastic Compliance Matrix: (Units=1/GPa)
#
#
# Indices 1 2 3 4 5 6 
#
# 1 0.016792 -0.003262 -0.002893 0.000000 -0.000728 0.000000
# 2 -0.003262 0.012091 0.001015 0.000000 -0.002173 0.000000
# 3 -0.002893 0.001015 0.011599 0.000000 -0.002971 0.000000
# 4 0.000000 0.000000 0.000000 0.042242 0.000000 -0.042208
# 5 -0.000728 -0.002173 -0.002971 0.000000 0.029899 0.000000
# 6 0.000000 0.000000 0.000000 -0.042208 0.000000 -0.305908
#
#
# Mechanical properties :
#
#
# Convention : Reuss Voigt Hill
#
# Bulk Modulus (GPa) = 33.10943 34.48908 33.79926
# Shear Modulus (GPa) = -28.91192 24.97260 -1.96966
#
# Velocity S-wave (km/s) = -3.89826 3.62297 -1.01748
# Velocity P-wave (km/s) = 1.69092 5.96901 4.04783
#
# Compressibility (1/GPa) = 0.03020288
#
# Stress axis : x y z
#
# Youngs Moduli (GPa) = 59.55213 82.70675 86.21804
#
# Poissons Ratio (x) = 0.26976 0.24942
# Poissons Ratio (y) = 0.19423 -0.08753
# Poissons Ratio (z) = 0.17228 -0.08397
#
# Static dielectric constant tensor:
#      x y z
#    x 1.670710 0.000000 -0.004080 
#    y 0.000000 1.705870 0.000000 
#    z -0.004080 0.000000 1.681970 
# 
# From -- ./inp_files/53128.got.cif
#   From: 2010.05.17/outbox.cif.g08.bks.cpg/sg13_27_cif.got.tgz:53128.got - 2010.06.03 16:44:36.
