data_PCOD9230630
_publ_section_title
;
Structure prediction by ZEFSAII (Michael W. Deem and Ramdas Pophale) SiO2 
 PCOD9230630
Probable space group: P 2/C
;
_chemical_formula_sum "Si O2"
_cell_formula_units_Z 18
_cell_length_a 9.942515
_cell_length_b 5.270996
_cell_length_c 20.079004
_cell_angle_alpha 90.000000
_cell_angle_beta 38.726554
_cell_angle_gamma 90.000000
_cell_volume 658.310559
_symmetry_space_group_name_H-M "P 2/C"
_symmetry_group_IT_number 13
_symmetry_cell_setting 'monoclinic'
loop_
_space_group_symop_operation_xyz
x,y,z
-x,y,1/2-z
-x,-y,-z
x,-y,1/2+z
loop_
_atom_site_type_symbol
_atom_site_label
_atom_site_fract_x
_atom_site_fract_y
_atom_site_fract_z
Si Si1 0.000000 0.667602 0.250000
Si Si2 0.756083 0.327626 0.959126
Si Si3 0.763472 0.710741 0.067419
Si Si4 0.871614 0.967809 0.643205
Si Si5 0.394249 0.036069 0.137948
O O1 0.111654 0.507788 0.146783
O O2 0.208694 0.844888 0.184994
O O3 0.928893 0.101899 0.897486
O O4 0.734287 0.446350 0.040907
O O5 0.515396 0.222972 0.040036
O O6 0.754154 0.807117 0.147044
O O7 0.586109 0.875096 0.096619
O O8 0.009796 0.779023 0.952270
O O9 0.718049 0.832645 0.754987
#
# Coordination Sequence:
#
# PCOD9230630 Si02
#       5
#     2   4   4   4   4
#     4  10  22  40  58  86 128 168 208 254 298 350
#     4  10  21  38  61  87 119 163 206 247 302 363
#     4  10  20  37  60  89 118 152 203 254 304 368
#     4   9  20  38  59  86 122 155 193 253 316 365
#     4  10  21  38  59  86 122 163 204 250 303 359
#
# _framework density 27.34272
#
# number of rings (size 3 to 8) (size 9 to 14) (size 15 to 20)
#    0.000    2.222    0.000    2.000    0.000    4.444 
#    0.000   17.778    0.000    0.000    0.000    0.000 
#    0.000    0.000    0.000    0.000    0.000    0.000 
#
# Total GULP energy -100345.620746 kJ/mol
# GULP energy per Si atom -5574.756708 kJ/mol
# Density = 2.728049 g / cm^3
# Si number density = 27.342720 Si / 1000 Ang^3
#
#
#
# Elastic Constant Matrix: (Units=GPa)
#
#
# Indices 1 2 3 4 5 6 
#
# 1 106.8819 9.4568 47.9898 0.0000 -25.4482 0.0000
# 2 9.4568 47.9685 36.7323 0.0000 -12.8876 0.0000
# 3 47.9898 36.7323 215.3754 0.0000 -12.7248 0.0000
# 4 0.0000 0.0000 0.0000 7.4287 0.0000 -23.8135
# 5 -25.4482 -12.8876 -12.7248 0.0000 38.5472 0.0000
# 6 0.0000 0.0000 0.0000 -23.8135 0.0000 37.6836
#
#
#
# Elastic Compliance Matrix: (Units=1/GPa)
#
#
# Indices 1 2 3 4 5 6 
#
# 1 0.012199 0.001622 -0.002536 0.000000 0.007758 0.000000
# 2 0.001622 0.026079 -0.004315 0.000000 0.008365 0.000000
# 3 -0.002536 -0.004315 0.005875 0.000000 -0.001178 0.000000
# 4 0.000000 0.000000 0.000000 -0.131236 0.000000 -0.082932
# 5 0.007758 0.008365 -0.001178 0.000000 0.033472 0.000000
# 6 0.000000 0.000000 0.000000 -0.082932 0.000000 -0.025871
#
#
# Mechanical properties :
#
#
# Convention : Reuss Voigt Hill
#
# Bulk Modulus (GPa) = 29.67969 62.06485 45.87227
# Shear Modulus (GPa) = -86.51641 35.13503 -25.69069
#
# Velocity S-wave (km/s) = -5.63118 3.58856 -3.06858
# Velocity P-wave (km/s) = 5.60375 6.31811 2.06355
#
# Compressibility (1/GPa) = 0.03369308
#
# Stress axis : x y z
#
# Youngs Moduli (GPa) = 81.97636 38.34515 170.22706
#
# Poissons Ratio (x) = -0.06218 0.43175
# Poissons Ratio (y) = -0.13294 0.73451
# Poissons Ratio (z) = 0.20792 0.16545
#
# Static dielectric constant tensor:
#      x y z
#    x 2.345820 0.000000 0.235400 
#    y 0.000000 2.278130 0.000000 
#    z 0.235400 0.000000 2.210720 
# 
# From -- ./inp_files/31318.got.cif
#   From: 2010.05.17/outbox.cif.g08.bks.cpg/sg13_16_cif.got.tgz:31318.got - 2010.06.03 16:44:36.
