data_PCOD9230824
_publ_section_title
;
Structure prediction by ZEFSAII (Michael W. Deem and Ramdas Pophale) SiO2 
 PCOD9230824
Probable space group: P 2/C
;
_chemical_formula_sum "Si O2"
_cell_formula_units_Z 28
_cell_length_a 21.868195
_cell_length_b 11.043810
_cell_length_c 18.757016
_cell_angle_alpha 90.000000
_cell_angle_beta 18.860394
_cell_angle_gamma 90.000000
_cell_volume 1464.374266
_symmetry_space_group_name_H-M "P 2/C"
_symmetry_group_IT_number 13
_symmetry_cell_setting 'monoclinic'
loop_
_space_group_symop_operation_xyz
x,y,z
-x,y,1/2-z
-x,-y,-z
x,-y,1/2+z
loop_
_atom_site_type_symbol
_atom_site_label
_atom_site_fract_x
_atom_site_fract_y
_atom_site_fract_z
Si Si1 0.500000 0.702370 0.750000
Si Si2 0.693798 0.942206 0.502831
Si Si3 0.000000 0.908141 0.750000
Si Si4 0.150648 0.237634 0.960864
Si Si5 0.524928 0.856605 0.971862
Si Si6 0.188227 0.521806 0.340093
Si Si7 0.147988 0.915835 0.796450
Si Si8 0.461074 0.637555 0.634263
O O1 0.668209 0.797934 0.542794
O O2 0.453091 0.628920 0.729219
O O3 0.721633 0.993298 0.393118
O O4 0.500000 0.992691 0.750000
O O5 0.870231 0.001307 0.348066
O O6 0.132808 0.817596 0.558792
O O7 0.348725 0.195225 0.709611
O O8 0.139484 0.377740 0.953872
O O9 0.975578 0.173412 0.114670
O O10 0.722012 0.838738 0.794897
O O11 0.531793 0.781228 0.891469
O O12 0.500000 0.000000 0.000000
O O13 0.289712 0.416946 0.275311
O O14 0.000000 0.500000 0.500000
O O15 0.350541 0.574774 0.107130
O O16 0.000000 0.000000 0.000000
#
# Coordination Sequence:
#
# PCOD9230824 Si02
#       8
#     2   4   2   4   4   4   4   4
#     4  10  22  42  60  94 130 160 202 252 338 386
#     4   9  21  35  55  83 136 161 189 250 315 388
#     4  10  20  38  54  88 126 160 198 244 314 372
#     4  10  22  36  60  85 117 158 203 252 300 369
#     4  11  20  34  61  89 123 158 197 245 312 371
#     4  10  22  46  66  85 120 163 222 266 306 359
#     4  11  20  32  55  91 120 160 205 241 301 378
#     4  10  23  41  65  91 122 165 209 264 312 385
#
# _framework density 19.120795000000001
#
# number of rings (size 3 to 8) (size 9 to 14) (size 15 to 20)
#    0.429    1.429    1.429    2.571    4.000    0.000 
#    5.143    0.000    0.000    0.000    0.000    0.000 
#    0.000    0.000    0.000    0.000    0.000    0.000 
#
# Total GULP energy -155907.963542 kJ/mol
# GULP energy per Si atom -5568.141555 kJ/mol
# Density = 1.907727 g / cm^3
# Si number density = 19.120795 Si / 1000 Ang^3
#
#
#
# Elastic Constant Matrix: (Units=GPa)
#
#
# Indices 1 2 3 4 5 6 
#
# 1 111.7273 33.0808 26.6336 0.0000 -6.8646 0.0000
# 2 33.0808 88.1340 12.6378 0.0000 -6.6807 0.0000
# 3 26.6336 12.6378 68.0175 0.0000 -10.7091 0.0000
# 4 0.0000 0.0000 0.0000 14.5988 0.0000 -8.9780
# 5 -6.8646 -6.6807 -10.7091 0.0000 36.9045 0.0000
# 6 0.0000 0.0000 0.0000 -8.9780 0.0000 17.8773
#
#
#
# Elastic Compliance Matrix: (Units=1/GPa)
#
#
# Indices 1 2 3 4 5 6 
#
# 1 0.010865 -0.003544 -0.003541 0.000000 0.000352 0.000000
# 2 -0.003544 0.012898 -0.000781 0.000000 0.001449 0.000000
# 3 -0.003541 -0.000781 0.016879 0.000000 0.004098 0.000000
# 4 0.000000 0.000000 0.000000 0.099108 0.000000 0.049773
# 5 0.000352 0.001449 0.004098 0.000000 0.028614 0.000000
# 6 0.000000 0.000000 0.000000 0.049773 0.000000 0.080933
#
#
# Mechanical properties :
#
#
# Convention : Reuss Voigt Hill
#
# Bulk Modulus (GPa) = 40.14126 45.84259 42.99193
# Shear Modulus (GPa) = 18.29276 26.91121 22.60199
#
# Velocity S-wave (km/s) = 3.09640 3.75565 3.44184
# Velocity P-wave (km/s) = 5.81573 6.54475 6.19098
#
# Compressibility (1/GPa) = 0.02491202
#
# Stress axis : x y z
#
# Youngs Moduli (GPa) = 92.03615 77.52944 59.24598
#
# Poissons Ratio (x) = 0.27475 0.20977
# Poissons Ratio (y) = 0.32616 0.04625
# Poissons Ratio (z) = 0.32587 0.06053
#
# Static dielectric constant tensor:
#      x y z
#    x 1.720380 0.000000 0.004680 
#    y 0.000000 1.691820 0.000000 
#    z 0.004680 0.000000 1.645750 
# 
# From -- ./inp_files/70697.got.cif
#   From: 2010.05.17/outbox.cif.g08.bks.cpg/sg13_36_cif.got.tgz:70697.got - 2010.06.03 16:44:36.
