data_PCOD9230309
_publ_section_title
;
Structure prediction by ZEFSAII (Michael W. Deem and Ramdas Pophale) SiO2 
 PCOD9230309
Probable space group: P 2/C
;
_chemical_formula_sum "Si O2"
_cell_formula_units_Z 20
_cell_length_a 7.381352
_cell_length_b 23.767961
_cell_length_c 8.300524
_cell_angle_alpha 90.000000
_cell_angle_beta 37.316860
_cell_angle_gamma 90.000000
_cell_volume 882.806189
_symmetry_space_group_name_H-M "P 2/C"
_symmetry_group_IT_number 13
_symmetry_cell_setting 'monoclinic'
loop_
_space_group_symop_operation_xyz
x,y,z
-x,y,1/2-z
-x,-y,-z
x,-y,1/2+z
loop_
_atom_site_type_symbol
_atom_site_label
_atom_site_fract_x
_atom_site_fract_y
_atom_site_fract_z
Si Si1 0.858702 0.944270 0.024034
Si Si2 0.880202 0.172178 0.148465
Si Si3 0.221366 0.538693 0.238005
Si Si4 0.380118 0.229604 0.651069
Si Si5 0.651565 0.347641 0.968293
O O1 0.500000 0.943792 0.250000
O O2 0.000000 0.942949 0.750000
O O3 0.992354 0.887081 0.006076
O O4 0.000000 0.000000 0.000000
O O5 0.532550 0.183455 0.426354
O O6 0.000000 0.177368 0.250000
O O7 0.030223 0.218765 0.928120
O O8 0.362241 0.601344 0.153686
O O9 0.000000 0.550650 0.250000
O O10 0.000000 0.500000 0.500000
O O11 0.500000 0.500000 0.000000
O O12 0.500000 0.224027 0.750000
O O13 0.473354 0.290076 0.516750
O O14 0.000000 0.335461 0.750000
O O15 0.500000 0.362145 0.250000
#
# Coordination Sequence:
#
# PCOD9230309 Si02
#       5
#     4   4   4   4   4
#     4  11  22  39  61  87 121 162 204 255 310 365
#     4   9  18  35  58  82 114 152 193 244 300 350
#     4  11  23  41  63  88 120 159 199 242 295 355
#     4  10  20  36  60  86 109 149 203 242 283 357
#     4  11  23  41  59  85 124 158 187 243 315 359
#
# _framework density 22.65503
#
# number of rings (size 3 to 8) (size 9 to 14) (size 15 to 20)
#    0.000    1.600    0.000    7.800    0.000    1.600 
#    0.000    8.000    0.000    0.000    0.000    0.000 
#    0.000    0.000    0.000    0.000    0.000    0.000 
#
# Total GULP energy -111342.248555 kJ/mol
# GULP energy per Si atom -5567.112428 kJ/mol
# Density = 2.260347 g / cm^3
# Si number density = 22.655030 Si / 1000 Ang^3
#
#
#
# Elastic Constant Matrix: (Units=GPa)
#
#
# Indices 1 2 3 4 5 6 
#
# 1 25.3260 9.9548 19.8253 0.0000 -7.5918 0.0000
# 2 9.9548 168.4032 66.1680 0.0000 2.7837 0.0000
# 3 19.8253 66.1680 192.7146 0.0000 -20.1766 0.0000
# 4 0.0000 0.0000 0.0000 39.0375 0.0000 4.4838
# 5 -7.5918 2.7837 -20.1766 0.0000 34.6865 0.0000
# 6 0.0000 0.0000 0.0000 4.4838 0.0000 31.5297
#
#
#
# Elastic Compliance Matrix: (Units=1/GPa)
#
#
# Indices 1 2 3 4 5 6 
#
# 1 0.045062 -0.001512 -0.003270 0.000000 0.008082 0.000000
# 2 -0.001512 0.007054 -0.002513 0.000000 -0.002359 0.000000
# 3 -0.003270 -0.002513 0.006745 0.000000 0.003410 0.000000
# 4 0.000000 0.000000 0.000000 0.026042 0.000000 -0.003703
# 5 0.008082 -0.002359 0.003410 0.000000 0.032771 0.000000
# 6 0.000000 0.000000 0.000000 -0.003703 0.000000 0.032243
#
#
# Mechanical properties :
#
#
# Convention : Reuss Voigt Hill
#
# Bulk Modulus (GPa) = 22.58888 64.25998 43.42443
# Shear Modulus (GPa) = 27.89147 40.41712 34.15430
#
# Velocity S-wave (km/s) = 3.51256 4.22835 3.88697
# Velocity P-wave (km/s) = 5.14230 7.22944 6.27328
#
# Compressibility (1/GPa) = 0.04426957
#
# Stress axis : x y z
#
# Youngs Moduli (GPa) = 22.19150 141.76200 148.24923
#
# Poissons Ratio (x) = 0.21440 0.48482
# Poissons Ratio (y) = 0.03356 0.37261
# Poissons Ratio (z) = 0.07257 0.35631
#
# Static dielectric constant tensor:
#      x y z
#    x 1.873510 0.000000 0.005640 
#    y 0.000000 2.242900 0.000000 
#    z 0.005640 0.000000 1.825800 
# 
# From -- ./inp_files/13773.got.cif
#   From: 2010.05.17/outbox.cif.g08.bks.cpg/sg13_7_cif.got.tgz:13773.got - 2010.06.03 16:44:36.
