data_PCOD9230784
_publ_section_title
;
Structure prediction by ZEFSAII (Michael W. Deem and Ramdas Pophale) SiO2 
 PCOD9230784
Probable space group: P 2/C
;
_chemical_formula_sum "Si O2"
_cell_formula_units_Z 28
_cell_length_a 13.743425
_cell_length_b 6.532141
_cell_length_c 12.479637
_cell_angle_alpha 90.000000
_cell_angle_beta 113.389979
_cell_angle_gamma 90.000000
_cell_volume 1028.281268
_symmetry_space_group_name_H-M "P 2/C"
_symmetry_group_IT_number 13
_symmetry_cell_setting 'monoclinic'
loop_
_space_group_symop_operation_xyz
x,y,z
-x,y,1/2-z
-x,-y,-z
x,-y,1/2+z
loop_
_atom_site_type_symbol
_atom_site_label
_atom_site_fract_x
_atom_site_fract_y
_atom_site_fract_z
Si Si1 0.713757 0.578464 0.617712
Si Si2 0.805334 0.856525 0.025071
Si Si3 0.630545 0.811833 0.210178
Si Si4 0.860580 0.844693 0.283873
Si Si5 0.907540 0.725960 0.849237
Si Si6 0.138413 0.662412 0.990998
Si Si7 0.598545 0.909398 0.439999
O O1 0.655054 0.401264 0.659193
O O2 0.815843 0.653310 0.729379
O O3 0.768486 0.533372 0.525400
O O4 0.633172 0.754527 0.548141
O O5 0.858559 0.783980 0.159767
O O6 0.834126 0.100582 0.026626
O O7 0.858397 0.747394 0.946540
O O8 0.675880 0.890588 0.973407
O O9 0.740654 0.931191 0.245849
O O10 0.617024 0.797895 0.332046
O O11 0.528506 0.924826 0.118491
O O12 0.868483 0.679294 0.382396
O O13 0.934695 0.035953 0.334825
O O14 0.021391 0.618558 0.896184
#
# Coordination Sequence:
#
# PCOD9230784 Si02
#       7
#     4   4   4   4   4   4   4
#     4  11  22  41  65  93 134 179 219 267 330 399
#     4  10  20  37  65 100 128 167 219 276 331 399
#     4  11  23  39  68  89 134 178 215 268 342 387
#     4  11  20  39  65  96 128 166 218 280 325 396
#     4  11  21  38  66  94 129 174 216 274 335 389
#     4  10  21  38  66  89 134 172 214 270 336 377
#     4  10  21  42  64  92 131 172 215 281 332 389
#
# _framework density 27.229904999999999
#
# number of rings (size 3 to 8) (size 9 to 14) (size 15 to 20)
#    0.000    1.429    7.143    2.571    0.000    3.429 
#    0.000    0.714    9.429    0.000    0.000    0.000 
#    0.000    0.000    0.000    0.000    0.000    0.000 
#
# Total GULP energy -156706.208052 kJ/mol
# GULP energy per Si atom -5596.650288 kJ/mol
# Density = 2.716793 g / cm^3
# Si number density = 27.229905 Si / 1000 Ang^3
#
#
#
# Elastic Constant Matrix: (Units=GPa)
#
#
# Indices 1 2 3 4 5 6 
#
# 1 164.3073 47.1056 49.0359 0.0000 18.3605 0.0000
# 2 47.1056 72.9975 50.2899 0.0000 -13.7961 0.0000
# 3 49.0359 50.2899 195.1552 0.0000 0.0156 0.0000
# 4 0.0000 0.0000 0.0000 58.8830 0.0000 -10.0810
# 5 18.3605 -13.7961 0.0156 0.0000 58.5731 0.0000
# 6 0.0000 0.0000 0.0000 -10.0810 0.0000 49.4709
#
#
#
# Elastic Compliance Matrix: (Units=1/GPa)
#
#
# Indices 1 2 3 4 5 6 
#
# 1 0.008352 -0.005706 -0.000628 0.000000 -0.003962 0.000000
# 2 -0.005706 0.021508 -0.004109 0.000000 0.006855 0.000000
# 3 -0.000628 -0.004109 0.006341 0.000000 -0.000773 0.000000
# 4 0.000000 0.000000 0.000000 0.017597 0.000000 0.003586
# 5 -0.003962 0.006855 -0.000773 0.000000 0.019929 0.000000
# 6 0.000000 0.000000 0.000000 0.003586 0.000000 0.020945
#
#
# Mechanical properties :
#
#
# Convention : Reuss Voigt Hill
#
# Bulk Modulus (GPa) = 65.29669 80.59144 72.94406
# Shear Modulus (GPa) = 41.43796 52.45397 46.94597
#
# Velocity S-wave (km/s) = 3.90523 4.39377 4.15668
# Velocity P-wave (km/s) = 6.66080 7.44320 7.06284
#
# Compressibility (1/GPa) = 0.01531471
#
# Stress axis : x y z
#
# Youngs Moduli (GPa) = 119.73063 46.49502 157.70665
#
# Poissons Ratio (x) = 0.26529 0.09903
# Poissons Ratio (y) = 0.68316 0.64805
# Poissons Ratio (z) = 0.07518 0.19106
#
# Static dielectric constant tensor:
#      x y z
#    x 2.150590 0.000000 -0.081750 
#    y 0.000000 2.319410 0.000000 
#    z -0.081750 0.000000 2.157320 
# 
# From -- ./inp_files/36237.got.cif
#   From: 2010.05.17/outbox.cif.g08.bks.cpg/sg13_19_cif.got.tgz:36237.got - 2010.06.03 16:44:36.
