data_PCOD9230547
_publ_section_title
;
Structure prediction by ZEFSAII (Michael W. Deem and Ramdas Pophale) SiO2 
 PCOD9230547
Probable space group: P 2/C
;
_chemical_formula_sum "Si O2"
_cell_formula_units_Z 30
_cell_length_a 6.411718
_cell_length_b 8.484574
_cell_length_c 29.299466
_cell_angle_alpha 90.000000
_cell_angle_beta 103.514243
_cell_angle_gamma 90.000000
_cell_volume 1549.778896
_symmetry_space_group_name_H-M "P 2/C"
_symmetry_group_IT_number 13
_symmetry_cell_setting 'monoclinic'
loop_
_space_group_symop_operation_xyz
x,y,z
-x,y,1/2-z
-x,-y,-z
x,-y,1/2+z
loop_
_atom_site_type_symbol
_atom_site_label
_atom_site_fract_x
_atom_site_fract_y
_atom_site_fract_z
Si Si1 0.327844 0.169802 0.936348
Si Si2 0.328382 0.458364 0.705659
Si Si3 0.157318 0.257022 0.021423
Si Si4 0.263325 0.389721 0.532715
Si Si5 0.000000 0.347445 0.250000
Si Si6 0.112138 0.261691 0.617086
Si Si7 0.433696 0.224023 0.298759
Si Si8 0.620344 0.047592 0.394530
O O1 0.514128 0.299397 0.951785
O O2 0.141083 0.231887 0.893406
O O3 0.438891 0.018166 0.919822
O O4 0.218062 0.151005 0.980404
O O5 0.500000 0.387127 0.750000
O O6 0.137710 0.543897 0.723325
O O7 0.226731 0.335153 0.666365
O O8 0.459609 0.602461 0.689049
O O9 0.269028 0.427653 0.020224
O O10 0.243057 0.176601 0.071173
O O11 0.904018 0.295275 0.007818
O O12 0.152777 0.379307 0.576881
O O13 0.822690 0.244350 0.214715
O O14 0.226838 0.098851 0.609638
O O15 0.500000 0.177513 0.250000
O O16 0.518865 0.113975 0.342977
#
# Coordination Sequence:
#
# PCOD9230547 Si02
#       8
#     4   4   4   4   2   4   4   4
#     4  10  22  36  54  82 114 146 183 225 271 327
#     4   9  19  37  60  81 105 139 183 232 275 318
#     4  10  20  37  58  81 108 144 186 230 273 320
#     4   9  20  38  59  79 106 144 189 233 269 315
#     4   8  18  36  62  86 104 134 186 240 274 312
#     4  10  22  37  52  80 113 146 183 221 272 331
#     4   9  20  39  60  82 108 141 183 229 273 323
#     4  11  23  36  54  81 116 149 177 219 277 333
#
# _framework density 19.357600000000001
#
# number of rings (size 3 to 8) (size 9 to 14) (size 15 to 20)
#    0.000    2.667    0.000    1.600    0.000   13.867 
#    0.000    0.000    0.000    0.000    0.000    0.000 
#    0.000    0.000    0.000    0.000    0.000    0.000 
#
# Total GULP energy -167391.231324 kJ/mol
# GULP energy per Si atom -5579.707711 kJ/mol
# Density = 1.931354 g / cm^3
# Si number density = 19.357600 Si / 1000 Ang^3
#
#
#
# Elastic Constant Matrix: (Units=GPa)
#
#
# Indices 1 2 3 4 5 6 
#
# 1 87.1392 35.4743 44.3217 0.0000 30.4645 0.0000
# 2 35.4743 68.9441 61.2525 0.0000 11.1209 0.0000
# 3 44.3217 61.2525 135.1790 0.0000 29.9941 0.0000
# 4 0.0000 0.0000 0.0000 39.0010 0.0000 9.1962
# 5 30.4645 11.1209 29.9941 0.0000 25.2935 0.0000
# 6 0.0000 0.0000 0.0000 9.1962 0.0000 12.1830
#
#
#
# Elastic Compliance Matrix: (Units=1/GPa)
#
#
# Indices 1 2 3 4 5 6 
#
# 1 0.023962 -0.010629 0.003157 0.000000 -0.027932 0.000000
# 2 -0.010629 0.029187 -0.013209 0.000000 0.015633 0.000000
# 3 0.003157 -0.013209 0.016153 0.000000 -0.017150 0.000000
# 4 0.000000 0.000000 0.000000 0.031192 0.000000 -0.023545
# 5 -0.027932 0.015633 -0.017150 0.000000 0.086641 0.000000
# 6 0.000000 0.000000 0.000000 -0.023545 0.000000 0.099854
#
#
# Mechanical properties :
#
#
# Convention : Reuss Voigt Hill
#
# Bulk Modulus (GPa) = 35.78997 63.70660 49.74829
# Shear Modulus (GPa) = 14.80757 25.30976 20.05866
#
# Velocity S-wave (km/s) = 2.76877 3.61984 3.22252
# Velocity P-wave (km/s) = 5.36194 7.10301 6.29298
#
# Compressibility (1/GPa) = 0.02794079
#
# Stress axis : x y z
#
# Youngs Moduli (GPa) = 41.73252 34.26142 61.90769
#
# Poissons Ratio (x) = 0.36416 -0.19546
# Poissons Ratio (y) = 0.44357 0.81775
# Poissons Ratio (z) = -0.13176 0.45256
#
# Static dielectric constant tensor:
#      x y z
#    x 1.693880 0.000000 0.002990 
#    y 0.000000 1.665360 0.000000 
#    z 0.002990 0.000000 1.678960 
# 
# From -- ./inp_files/95091.got.cif
#   From: 2010.05.17/outbox.cif.g08.bks.cpg/sg13_48_cif.got.tgz:95091.got - 2010.06.03 16:44:36.
