data_PCOD9230252
_publ_section_title
;
Structure prediction by ZEFSAII (Michael W. Deem and Ramdas Pophale) SiO2 
 PCOD9230252
Probable space group: P 2/C
;
_chemical_formula_sum "Si O2"
_cell_formula_units_Z 20
_cell_length_a 16.312586
_cell_length_b 5.113783
_cell_length_c 8.587916
_cell_angle_alpha 90.000000
_cell_angle_beta 87.843633
_cell_angle_gamma 90.000000
_cell_volume 715.888271
_symmetry_space_group_name_H-M "P 2/C"
_symmetry_group_IT_number 13
_symmetry_cell_setting 'monoclinic'
loop_
_space_group_symop_operation_xyz
x,y,z
-x,y,1/2-z
-x,-y,-z
x,-y,1/2+z
loop_
_atom_site_type_symbol
_atom_site_label
_atom_site_fract_x
_atom_site_fract_y
_atom_site_fract_z
Si Si1 0.289781 0.717705 0.726861
Si Si2 0.142640 0.374315 0.805008
Si Si3 0.607525 0.667151 0.506302
Si Si4 0.000000 0.280690 0.250000
Si Si5 0.854815 0.011076 0.933387
Si Si6 0.500000 0.687302 0.250000
O O1 0.225930 0.528026 0.820574
O O2 0.341219 0.831323 0.869561
O O3 0.341535 0.540252 0.602719
O O4 0.230564 0.907722 0.634799
O O5 0.061169 0.534966 0.841641
O O6 0.141601 0.309167 0.620370
O O7 0.144407 0.101187 0.894536
O O8 0.558159 0.826558 0.374983
O O9 0.551963 0.496609 0.629152
O O10 0.061643 0.110932 0.142760
#
# Coordination Sequence:
#
# PCOD9230252 Si02
#       6
#     4   4   4   2   4   2
#     4  10  20  36  58  86 124 158 200 244 296 346
#     4  11  24  39  59  88 118 158 202 246 298 351
#     4   9  16  32  56  89 124 152 194 247 286 352
#     4  10  24  42  64  82 118 154 202 252 298 348
#     4  11  24  39  59  88 118 158 202 246 298 351
#     4   8  16  28  56  96 118 148 204 234 288 356
#
# _framework density 27.937317
#
# number of rings (size 3 to 8) (size 9 to 14) (size 15 to 20)
#    0.000    2.000    2.000    1.200    2.800    4.800 
#    0.000    0.000    0.000    0.000    0.000   98.000 
#    0.000    0.000    0.000    0.000    0.000    0.000 
#
# Total GULP energy -111913.973434 kJ/mol
# GULP energy per Si atom -5595.698672 kJ/mol
# Density = 2.787373 g / cm^3
# Si number density = 27.937317 Si / 1000 Ang^3
#
#
#
# Elastic Constant Matrix: (Units=GPa)
#
#
# Indices 1 2 3 4 5 6 
#
# 1 121.5587 9.0380 89.9084 0.0000 3.9047 0.0000
# 2 9.0380 20.8280 11.9232 0.0000 2.7063 0.0000
# 3 89.9084 11.9232 195.1243 0.0000 20.7275 0.0000
# 4 0.0000 0.0000 0.0000 36.6745 0.0000 -10.4182
# 5 3.9047 2.7063 20.7275 0.0000 70.1919 0.0000
# 6 0.0000 0.0000 0.0000 -10.4182 0.0000 -15.8713
#
#
#
# Elastic Compliance Matrix: (Units=1/GPa)
#
#
# Indices 1 2 3 4 5 6 
#
# 1 0.012659 -0.002311 -0.005809 0.000000 0.001100 0.000000
# 2 -0.002311 0.050250 -0.001872 0.000000 -0.001256 0.000000
# 3 -0.005809 -0.001872 0.008129 0.000000 -0.002005 0.000000
# 4 0.000000 0.000000 0.000000 0.022982 0.000000 -0.015085
# 5 0.001100 -0.001256 -0.002005 0.000000 0.014826 0.000000
# 6 0.000000 0.000000 0.000000 -0.015085 0.000000 -0.053104
#
#
# Mechanical properties :
#
#
# Convention : Reuss Voigt Hill
#
# Bulk Modulus (GPa) = 19.58701 62.13890 40.86296
# Shear Modulus (GPa) = 53.91213 33.30846 43.61029
#
# Velocity S-wave (km/s) = 4.39766 3.45665 3.95524
# Velocity P-wave (km/s) = 5.72819 6.18238 5.95961
#
# Compressibility (1/GPa) = 0.05105424
#
# Stress axis : x y z
#
# Youngs Moduli (GPa) = 78.99358 19.90045 123.01853
#
# Poissons Ratio (x) = 0.04599 0.71458
# Poissons Ratio (y) = 0.18255 0.23033
# Poissons Ratio (z) = 0.45885 0.03726
#
# Static dielectric constant tensor:
#      x y z
#    x 2.213120 0.000000 0.065120 
#    y 0.000000 2.119830 0.000000 
#    z 0.065120 0.000000 2.168960 
# 
# From -- ./inp_files/20356.got.cif
#   From: 2010.05.17/outbox.cif.g08.bks.cpg/sg13_11_cif.got.tgz:20356.got - 2010.06.03 16:44:36.
