data_PCOD9230315
_publ_section_title
;
Structure prediction by ZEFSAII (Michael W. Deem and Ramdas Pophale) SiO2 
 PCOD9230315
Probable space group: P 2/C
;
_chemical_formula_sum "Si O2"
_cell_formula_units_Z 30
_cell_length_a 8.912247
_cell_length_b 17.939061
_cell_length_c 15.282184
_cell_angle_alpha 90.000000
_cell_angle_beta 146.074680
_cell_angle_gamma 90.000000
_cell_volume 1363.620715
_symmetry_space_group_name_H-M "P 2/C"
_symmetry_group_IT_number 13
_symmetry_cell_setting 'monoclinic'
loop_
_space_group_symop_operation_xyz
x,y,z
-x,y,1/2-z
-x,-y,-z
x,-y,1/2+z
loop_
_atom_site_type_symbol
_atom_site_label
_atom_site_fract_x
_atom_site_fract_y
_atom_site_fract_z
Si Si1 0.275563 0.168286 0.491816
Si Si2 0.182454 0.572687 0.084899
Si Si3 0.218276 0.832298 0.619705
Si Si4 0.107468 0.825777 0.209026
Si Si5 0.216791 0.337861 0.424990
Si Si6 0.250422 0.007091 0.188162
Si Si7 0.820066 0.648551 0.236536
Si Si8 0.000000 0.037298 0.250000
O O1 0.585601 0.154594 0.667735
O O2 0.256881 0.248023 0.434033
O O3 0.192647 0.095592 0.395683
O O4 0.058279 0.185817 0.462863
O O5 0.500000 0.554203 0.250000
O O6 0.115068 0.618142 0.138229
O O7 0.138788 0.627961 0.981540
O O8 0.000000 0.500000 0.000000
O O9 0.500000 0.786356 0.750000
O O10 0.310387 0.904557 0.719517
O O11 0.105012 0.846610 0.468209
O O12 0.124819 0.736456 0.227291
O O13 0.000000 0.853444 0.250000
O O14 0.517791 0.366588 0.560739
O O15 0.000000 0.362373 0.250000
O O16 0.500000 0.975131 0.250000
O O17 0.153652 0.993946 0.243043
O O18 0.000000 0.000000 0.000000
O O19 0.000000 0.613470 0.250000
#
# Coordination Sequence:
#
# PCOD9230315 Si02
#       8
#     4   4   4   4   4   4   4   2
#     4  10  20  36  63  86 126 155 200 250 321 375
#     4  10  22  39  57  79 114 155 204 250 299 362
#     4  10  22  38  59  86 121 158 203 257 302 366
#     4  10  21  34  58  91 120 154 196 244 316 375
#     4  10  20  36  60  87 114 156 199 246 309 372
#     4  10  24  43  63  89 127 168 220 261 310 368
#     4   9  20  38  56  81 118 151 191 248 298 366
#     4  10  22  40  68  96 126 168 210 266 320 370
#
# _framework density 22.000254000000002
#
# number of rings (size 3 to 8) (size 9 to 14) (size 15 to 20)
#    0.000    2.133    0.667    1.200    5.600    7.467 
#    1.200    4.000    0.000    0.000    0.000    0.000 
#    0.000    0.000    0.000    0.000    0.000    0.000 
#
# Total GULP energy -167057.387795 kJ/mol
# GULP energy per Si atom -5568.579593 kJ/mol
# Density = 2.195018 g / cm^3
# Si number density = 22.000254 Si / 1000 Ang^3
#
#
#
# Elastic Constant Matrix: (Units=GPa)
#
#
# Indices 1 2 3 4 5 6 
#
# 1 199.4958 34.0787 94.2117 0.0000 -1.1030 0.0000
# 2 34.0787 57.1146 28.0720 0.0000 3.7771 0.0000
# 3 94.2117 28.0720 160.6469 0.0000 -8.9450 0.0000
# 4 0.0000 0.0000 0.0000 27.5379 0.0000 -10.2091
# 5 -1.1030 3.7771 -8.9450 0.0000 27.3344 0.0000
# 6 0.0000 0.0000 0.0000 -10.2091 0.0000 49.7301
#
#
#
# Elastic Compliance Matrix: (Units=1/GPa)
#
#
# Indices 1 2 3 4 5 6 
#
# 1 0.007241 -0.002377 -0.003867 0.000000 -0.000645 0.000000
# 2 -0.002377 0.020332 -0.002364 0.000000 -0.003679 0.000000
# 3 -0.003867 -0.002364 0.009081 0.000000 0.003142 0.000000
# 4 0.000000 0.000000 0.000000 0.039305 0.000000 0.008069
# 5 -0.000645 -0.003679 0.003142 0.000000 0.038094 0.000000
# 6 0.000000 0.000000 0.000000 0.008069 0.000000 0.021765
#
#
# Mechanical properties :
#
#
# Convention : Reuss Voigt Hill
#
# Bulk Modulus (GPa) = 51.44549 81.10913 66.27731
# Shear Modulus (GPa) = 31.34508 38.31348 34.82928
#
# Velocity S-wave (km/s) = 3.77869 4.17766 3.98317
# Velocity P-wave (km/s) = 6.51712 7.76001 7.16557
#
# Compressibility (1/GPa) = 0.01943805
#
# Stress axis : x y z
#
# Youngs Moduli (GPa) = 138.09303 49.18320 110.12288
#
# Poissons Ratio (x) = 0.11693 0.42587
# Poissons Ratio (y) = 0.32830 0.26028
# Poissons Ratio (z) = 0.53404 0.11625
#
# Static dielectric constant tensor:
#      x y z
#    x 1.795570 0.000000 0.191970 
#    y 0.000000 1.847100 0.000000 
#    z 0.191970 0.000000 1.558850 
# 
# From -- ./inp_files/48283.got.cif
#   From: 2010.05.17/outbox.cif.g08.bks.cpg/sg13_25_cif.got.tgz:48283.got - 2010.06.03 16:44:36.
