data_PCOD9230157
_publ_section_title
;
Structure prediction by ZEFSAII (Michael W. Deem and Ramdas Pophale) SiO2 
 PCOD9230157
Probable space group: P 2/C
;
_chemical_formula_sum "Si O2"
_cell_formula_units_Z 20
_cell_length_a 23.666996
_cell_length_b 7.564740
_cell_length_c 9.591606
_cell_angle_alpha 90.000000
_cell_angle_beta 28.993414
_cell_angle_gamma 90.000000
_cell_volume 832.356990
_symmetry_space_group_name_H-M "P 2/C"
_symmetry_group_IT_number 13
_symmetry_cell_setting 'monoclinic'
loop_
_space_group_symop_operation_xyz
x,y,z
-x,y,1/2-z
-x,-y,-z
x,-y,1/2+z
loop_
_atom_site_type_symbol
_atom_site_label
_atom_site_fract_x
_atom_site_fract_y
_atom_site_fract_z
Si Si1 0.753865 0.093979 0.883609
Si Si2 0.378362 0.596818 0.749038
Si Si3 0.240965 0.555784 0.783465
Si Si4 0.950475 0.697326 0.139817
Si Si5 0.189700 0.173248 0.031029
O O1 0.853856 0.217186 0.743208
O O2 0.799141 0.053973 0.631739
O O3 0.732970 0.920374 0.019554
O O4 0.638647 0.216397 0.136389
O O5 0.500000 0.500000 0.500000
O O6 0.341347 0.626892 0.669236
O O7 0.285537 0.472620 0.032440
O O8 0.123074 0.665423 0.060355
O O9 0.217388 0.362591 0.902887
O O10 0.000000 0.500000 0.000000
O O11 0.063331 0.816431 0.874797
#
# Coordination Sequence:
#
# PCOD9230157 Si02
#       5
#     4   4   4   4   4
#     4  10  21  36  56  86 117 151 193 237 292 353
#     4  10  20  38  61  84 110 147 197 249 290 338
#     4   9  20  36  58  84 112 147 193 237 286 348
#     4   9  18  34  55  81 114 152 189 232 282 340
#     4  10  20  36  55  83 121 151 185 237 292 351
#
# _framework density 24.028151000000001
#
# number of rings (size 3 to 8) (size 9 to 14) (size 15 to 20)
#    0.000    2.400    0.000    1.800    0.000    4.800 
#    0.000   16.000    0.000    7.200    0.000    0.000 
#    0.000    0.000    0.000    0.000    0.000    0.000 
#
# Total GULP energy -111596.712750 kJ/mol
# GULP energy per Si atom -5579.835638 kJ/mol
# Density = 2.397346 g / cm^3
# Si number density = 24.028151 Si / 1000 Ang^3
#
#
#
# Elastic Constant Matrix: (Units=GPa)
#
#
# Indices 1 2 3 4 5 6 
#
# 1 58.1028 3.0552 23.5458 0.0000 19.0910 0.0000
# 2 3.0552 110.7918 32.1508 0.0000 1.5162 0.0000
# 3 23.5458 32.1508 100.0390 0.0000 4.2167 0.0000
# 4 0.0000 0.0000 0.0000 21.2501 0.0000 3.6105
# 5 19.0910 1.5162 4.2167 0.0000 42.3929 0.0000
# 6 0.0000 0.0000 0.0000 3.6105 0.0000 41.5216
#
#
#
# Elastic Compliance Matrix: (Units=1/GPa)
#
#
# Indices 1 2 3 4 5 6 
#
# 1 0.022425 0.001023 -0.005201 0.000000 -0.009618 0.000000
# 2 0.001023 0.010001 -0.003435 0.000000 -0.000477 0.000000
# 3 -0.005201 -0.003435 0.012272 0.000000 0.001245 0.000000
# 4 0.000000 0.000000 0.000000 0.047764 0.000000 -0.004153
# 5 -0.009618 -0.000477 0.001245 0.000000 0.027813 0.000000
# 6 0.000000 0.000000 0.000000 -0.004153 0.000000 0.024445
#
#
# Mechanical properties :
#
#
# Convention : Reuss Voigt Hill
#
# Bulk Modulus (GPa) = 33.93179 42.93745 38.43462
# Shear Modulus (GPa) = 29.45140 35.04504 32.24822
#
# Velocity S-wave (km/s) = 3.50480 3.82317 3.66744
# Velocity P-wave (km/s) = 5.52544 6.11533 5.82786
#
# Compressibility (1/GPa) = 0.02947089
#
# Stress axis : x y z
#
# Youngs Moduli (GPa) = 44.59282 99.99001 81.48806
#
# Poissons Ratio (x) = -0.10225 0.42385
# Poissons Ratio (y) = -0.04560 0.27989
# Poissons Ratio (z) = 0.23194 0.34344
#
# Static dielectric constant tensor:
#      x y z
#    x 1.973000 0.000000 0.016450 
#    y 0.000000 2.016250 0.000000 
#    z 0.016450 0.000000 1.899120 
# 
# From -- ./inp_files/23930.got.cif
#   From: 2010.05.17/outbox.cif.g08.bks.cpg/sg13_12_cif.got.tgz:23930.got - 2010.06.03 16:44:36.
