data_PCOD9230445
_publ_section_title
;
Structure prediction by ZEFSAII (Michael W. Deem and Ramdas Pophale) SiO2 
 PCOD9230445
Probable space group: P 2/C
;
_chemical_formula_sum "Si O2"
_cell_formula_units_Z 26
_cell_length_a 18.237914
_cell_length_b 12.119321
_cell_length_c 13.404196
_cell_angle_alpha 90.000000
_cell_angle_beta 20.777480
_cell_angle_gamma 90.000000
_cell_volume 1051.002564
_symmetry_space_group_name_H-M "P 2/C"
_symmetry_group_IT_number 13
_symmetry_cell_setting 'monoclinic'
loop_
_space_group_symop_operation_xyz
x,y,z
-x,y,1/2-z
-x,-y,-z
x,-y,1/2+z
loop_
_atom_site_type_symbol
_atom_site_label
_atom_site_fract_x
_atom_site_fract_y
_atom_site_fract_z
Si Si1 0.263589 0.209043 0.320446
Si Si2 0.197571 0.766535 0.142371
Si Si3 0.771679 0.972345 0.080655
Si Si4 0.000000 0.446818 0.250000
Si Si5 0.500000 0.353275 0.750000
Si Si6 0.691093 0.729906 0.194030
Si Si7 0.797141 0.468938 0.818525
Si Si8 0.500000 0.044315 0.250000
O O1 0.237487 0.230063 0.471967
O O2 0.050870 0.234720 0.533805
O O3 0.294029 0.076589 0.269045
O O4 0.463907 0.273186 0.029383
O O5 0.275180 0.656695 0.098444
O O6 0.323333 0.873440 0.018719
O O7 0.781496 0.848655 0.108242
O O8 0.613495 0.974839 0.189536
O O9 0.000000 0.001985 0.750000
O O10 0.852775 0.368276 0.504122
O O11 0.862062 0.518969 0.352432
O O12 0.348795 0.281612 0.874712
O O13 0.626189 0.438048 0.519620
O O14 0.000000 0.500000 0.500000
#
# Coordination Sequence:
#
# PCOD9230445 Si02
#       8
#     4   4   4   2   2   4   4   2
#     4  10  20  38  62  90 121 161 214 251 319 380
#     4  10  20  38  61  89 124 157 204 273 309 365
#     4  11  20  39  63  92 126 164 207 260 313 377
#     4  10  24  40  62  90 126 170 214 254 320 374
#     4  10  24  40  56  90 122 160 210 258 308 378
#     4  11  22  40  62  85 127 170 203 259 316 375
#     4  11  23  41  63  91 125 163 212 263 315 377
#     4  10  20  36  64  88 124 164 202 256 320 360
#
# _framework density 24.738284
#
# number of rings (size 3 to 8) (size 9 to 14) (size 15 to 20)
#    0.000    1.538    3.846    3.231    0.000    3.692 
#    0.000    4.615    0.000    0.000    0.000    0.000 
#    0.000    0.000    0.000    0.000    0.000    0.000 
#
# Total GULP energy -145479.587166 kJ/mol
# GULP energy per Si atom -5595.368737 kJ/mol
# Density = 2.468198 g / cm^3
# Si number density = 24.738284 Si / 1000 Ang^3
#
#
#
# Elastic Constant Matrix: (Units=GPa)
#
#
# Indices 1 2 3 4 5 6 
#
# 1 50.0222 -0.4190 -1.9632 0.0000 -17.5140 0.0000
# 2 -0.4190 100.1283 6.2804 0.0000 4.5764 0.0000
# 3 -1.9632 6.2804 129.4618 0.0000 -9.9699 0.0000
# 4 0.0000 0.0000 0.0000 30.4624 0.0000 -8.0746
# 5 -17.5140 4.5764 -9.9699 0.0000 30.5441 0.0000
# 6 0.0000 0.0000 0.0000 -8.0746 0.0000 6.4156
#
#
#
# Elastic Compliance Matrix: (Units=1/GPa)
#
#
# Indices 1 2 3 4 5 6 
#
# 1 0.025355 -0.000686 0.001585 0.000000 0.015159 0.000000
# 2 -0.000686 0.010123 -0.000665 0.000000 -0.002127 0.000000
# 3 0.001585 -0.000665 0.008061 0.000000 0.003640 0.000000
# 4 0.000000 0.000000 0.000000 0.049261 0.000000 0.062000
# 5 0.015159 -0.002127 0.003640 0.000000 0.042938 0.000000
# 6 0.000000 0.000000 0.000000 0.062000 0.000000 0.233903
#
#
# Mechanical properties :
#
#
# Convention : Reuss Voigt Hill
#
# Bulk Modulus (GPa) = 22.72388 31.93431 27.32909
# Shear Modulus (GPa) = 13.02613 31.86536 22.44575
#
# Velocity S-wave (km/s) = 2.29717 3.59290 3.01546
# Velocity P-wave (km/s) = 4.03010 5.49079 4.81614
#
# Compressibility (1/GPa) = 0.04400657
#
# Stress axis : x y z
#
# Youngs Moduli (GPa) = 39.43986 98.78224 124.05554
#
# Poissons Ratio (x) = 0.06778 -0.19665
# Poissons Ratio (y) = 0.02706 0.08254
# Poissons Ratio (z) = -0.06252 0.06572
#
# Static dielectric constant tensor:
#      x y z
#    x 1.945490 0.000000 0.033240 
#    y 0.000000 1.941020 0.000000 
#    z 0.033240 0.000000 1.977560 
# 
# From -- ./inp_files/57708.got.cif
#   From: 2010.05.17/outbox.cif.g08.bks.cpg/sg13_29_cif.got.tgz:57708.got - 2010.06.03 16:44:36.
