data_PCOD9230750
_publ_section_title
;
Structure prediction by ZEFSAII (Michael W. Deem and Ramdas Pophale) SiO2 
 PCOD9230750
Probable space group: P 2/C
;
_chemical_formula_sum "Si O2"
_cell_formula_units_Z 16
_cell_length_a 11.132145
_cell_length_b 4.869540
_cell_length_c 14.136309
_cell_angle_alpha 90.000000
_cell_angle_beta 51.905398
_cell_angle_gamma 90.000000
_cell_volume 603.078401
_symmetry_space_group_name_H-M "P 2/C"
_symmetry_group_IT_number 13
_symmetry_cell_setting 'monoclinic'
loop_
_space_group_symop_operation_xyz
x,y,z
-x,y,1/2-z
-x,-y,-z
x,-y,1/2+z
loop_
_atom_site_type_symbol
_atom_site_label
_atom_site_fract_x
_atom_site_fract_y
_atom_site_fract_z
Si Si1 0.754267 0.820821 0.993161
Si Si2 0.558674 0.675871 0.622727
Si Si3 0.230676 0.629183 0.722125
Si Si4 0.952402 0.876576 0.161016
O O1 0.798339 0.660323 0.875714
O O2 0.903270 0.979391 0.958165
O O3 0.671937 0.577567 0.089584
O O4 0.638947 0.073710 0.029467
O O5 0.500000 0.794998 0.750000
O O6 0.407700 0.559541 0.646278
O O7 0.193611 0.928560 0.779633
O O8 0.109698 0.424688 0.827804
O O9 0.000000 0.874813 0.250000
#
# Coordination Sequence:
#
# PCOD9230750 Si02
#       4
#     4   4   4   4
#     4  11  22  41  65  90 121 162 204 252 304 359
#     4  12  25  41  59  90 129 166 203 247 298 362
#     4  11  21  39  65  92 119 156 203 254 304 359
#     4  10  20  37  63  94 118 148 202 261 303 352
#
# _framework density 26.530546999999999
#
# number of rings (size 3 to 8) (size 9 to 14) (size 15 to 20)
#    0.000    1.000    0.000   10.500    0.000    0.000 
#    0.000    7.500    0.000    0.000    0.000    0.000 
#    0.000    0.000    0.000    0.000    0.000    0.000 
#
# Total GULP energy -89558.240853 kJ/mol
# GULP energy per Si atom -5597.390053 kJ/mol
# Density = 2.647016 g / cm^3
# Si number density = 26.530547 Si / 1000 Ang^3
#
#
#
# Elastic Constant Matrix: (Units=GPa)
#
#
# Indices 1 2 3 4 5 6 
#
# 1 91.9095 17.2422 27.6785 0.0000 -26.3927 0.0000
# 2 17.2422 147.1514 39.0155 0.0000 -18.9742 0.0000
# 3 27.6785 39.0155 90.2956 0.0000 -24.4277 0.0000
# 4 0.0000 0.0000 0.0000 25.5643 0.0000 -24.5730
# 5 -26.3927 -18.9742 -24.4277 0.0000 34.6297 0.0000
# 6 0.0000 0.0000 0.0000 -24.5730 0.0000 21.3639
#
#
#
# Elastic Compliance Matrix: (Units=1/GPa)
#
#
# Indices 1 2 3 4 5 6 
#
# 1 0.014150 0.000044 -0.001770 0.000000 0.009560 0.000000
# 2 0.000044 0.007827 -0.002751 0.000000 0.002381 0.000000
# 3 -0.001770 -0.002751 0.014871 0.000000 0.007633 0.000000
# 4 0.000000 0.000000 0.000000 -0.370403 0.000000 -0.426041
# 5 0.009560 0.002381 0.007633 0.000000 0.042852 0.000000
# 6 0.000000 0.000000 0.000000 -0.426041 0.000000 -0.443229
#
#
# Mechanical properties :
#
#
# Convention : Reuss Voigt Hill
#
# Bulk Modulus (GPa) = 35.85046 55.24765 45.54906
# Shear Modulus (GPa) = -6.98638 32.67295 12.84328
#
# Velocity S-wave (km/s) = -1.62452 3.51311 2.20260
# Velocity P-wave (km/s) = 3.16599 6.10944 4.86564
#
# Compressibility (1/GPa) = 0.02789364
#
# Stress axis : x y z
#
# Youngs Moduli (GPa) = 70.66962 127.76143 67.24393
#
# Poissons Ratio (x) = -0.00562 0.11904
# Poissons Ratio (y) = -0.00311 0.18500
# Poissons Ratio (z) = 0.12511 0.35150
#
# Static dielectric constant tensor:
#      x y z
#    x 2.125120 0.000000 0.028850 
#    y 0.000000 1.974730 0.000000 
#    z 0.028850 0.000000 2.072250 
# 
# From -- ./inp_files/48549.got.cif
#   From: 2010.05.17/outbox.cif.g08.bks.cpg/sg13_25_cif.got.tgz:48549.got - 2010.06.03 16:44:36.
