data_PCOD9230562
_publ_section_title
;
Structure prediction by ZEFSAII (Michael W. Deem and Ramdas Pophale) SiO2 
 PCOD9230562
Probable space group: P 2/C
;
_chemical_formula_sum "Si O2"
_cell_formula_units_Z 28
_cell_length_a 15.235062
_cell_length_b 12.417356
_cell_length_c 9.285181
_cell_angle_alpha 90.000000
_cell_angle_beta 115.142068
_cell_angle_gamma 90.000000
_cell_volume 1590.141129
_symmetry_space_group_name_H-M "P 2/C"
_symmetry_group_IT_number 13
_symmetry_cell_setting 'monoclinic'
loop_
_space_group_symop_operation_xyz
x,y,z
-x,y,1/2-z
-x,-y,-z
x,-y,1/2+z
loop_
_atom_site_type_symbol
_atom_site_label
_atom_site_fract_x
_atom_site_fract_y
_atom_site_fract_z
Si Si1 0.331882 0.001565 0.380498
Si Si2 0.784603 0.895899 0.458071
Si Si3 0.061840 0.933529 0.426699
Si Si4 0.805890 0.735639 0.885247
Si Si5 0.927947 0.536914 0.076836
Si Si6 0.885636 0.700615 0.632736
Si Si7 0.605808 0.154482 0.324757
O O1 0.252573 0.943408 0.219979
O O2 0.376432 0.908809 0.512704
O O3 0.296621 0.089799 0.474608
O O4 0.393696 0.065984 0.304466
O O5 0.839535 0.782181 0.484805
O O6 0.863587 0.977654 0.577094
O O7 0.123666 0.835845 0.531239
O O8 0.000000 0.893664 0.250000
O O9 0.000000 0.000000 0.500000
O O10 0.819713 0.719502 0.725661
O O11 0.698414 0.769270 0.859437
O O12 0.850761 0.627802 0.984926
O O13 0.880606 0.424470 0.090834
O O14 0.000000 0.578758 0.250000
O O15 0.000000 0.500000 0.000000
O O16 0.000000 0.723597 0.750000
O O17 0.500000 0.207466 0.250000
#
# Coordination Sequence:
#
# PCOD9230562 Si02
#       7
#     4   4   4   4   4   4   4
#     4  10  20  37  58  88 121 153 196 243 300 359
#     4  11  19  35  55  86 121 160 191 232 298 358
#     4  12  23  32  54  87 128 163 192 235 296 367
#     4  12  22  40  59  87 124 155 206 253 297 356
#     4  11  23  40  59  88 118 160 206 240 294 361
#     4  11  21  37  59  84 121 164 198 241 294 352
#     4  11  23  40  64  88 118 161 205 253 304 357
#
# _framework density 17.608498999999998
#
# number of rings (size 3 to 8) (size 9 to 14) (size 15 to 20)
#    0.000    0.857    7.143    3.857    0.000    1.143 
#    0.000    0.000    0.000    0.857    0.000    0.000 
#    0.000    0.000    0.000    0.000    0.000    0.000 
#
# Total GULP energy -156090.324569 kJ/mol
# GULP energy per Si atom -5574.654449 kJ/mol
# Density = 1.756842 g / cm^3
# Si number density = 17.608499 Si / 1000 Ang^3
#
#
#
# Elastic Constant Matrix: (Units=GPa)
#
#
# Indices 1 2 3 4 5 6 
#
# 1 100.0993 47.7979 49.1464 0.0000 13.0308 0.0000
# 2 47.7979 94.7696 21.4886 0.0000 17.5204 0.0000
# 3 49.1464 21.4886 74.4006 0.0000 -2.4629 0.0000
# 4 0.0000 0.0000 0.0000 15.1690 0.0000 6.9930
# 5 13.0308 17.5204 -2.4629 0.0000 19.6300 0.0000
# 6 0.0000 0.0000 0.0000 6.9930 0.0000 4.6590
#
#
#
# Elastic Compliance Matrix: (Units=1/GPa)
#
#
# Indices 1 2 3 4 5 6 
#
# 1 0.019572 -0.005452 -0.011672 0.000000 -0.009591 0.000000
# 2 -0.005452 0.015493 -0.001216 0.000000 -0.010362 0.000000
# 3 -0.011672 -0.001216 0.021885 0.000000 0.011579 0.000000
# 4 0.000000 0.000000 0.000000 0.214003 0.000000 -0.321207
# 5 -0.009591 -0.010362 0.011579 0.000000 0.068010 0.000000
# 6 0.000000 0.000000 0.000000 -0.321207 0.000000 0.696754
#
#
# Mechanical properties :
#
#
# Convention : Reuss Voigt Hill
#
# Bulk Modulus (GPa) = 49.33222 56.23727 52.78474
# Shear Modulus (GPa) = 4.63326 17.94738 11.29032
#
# Velocity S-wave (km/s) = 1.62388 3.19603 2.53491
# Velocity P-wave (km/s) = 5.62076 6.75473 6.21367
#
# Compressibility (1/GPa) = 0.02027073
#
# Stress axis : x y z
#
# Youngs Moduli (GPa) = 51.09216 64.54517 45.69273
#
# Poissons Ratio (x) = 0.35189 0.53331
# Poissons Ratio (y) = 0.27855 0.05558
# Poissons Ratio (z) = 0.59633 0.07851
#
# Static dielectric constant tensor:
#      x y z
#    x 1.689390 0.000000 -0.008480 
#    y 0.000000 1.629260 0.000000 
#    z -0.008480 0.000000 1.630210 
# 
# From -- ./inp_files/18821.got.cif
#   From: 2010.05.17/outbox.cif.g08.bks.cpg/sg13_10_cif.got.tgz:18821.got - 2010.06.03 16:44:36.
