data_PCOD9230857
_publ_section_title
;
Structure prediction by ZEFSAII (Michael W. Deem and Ramdas Pophale) SiO2 
 PCOD9230857
Probable space group: P 2/C
;
_chemical_formula_sum "Si O2"
_cell_formula_units_Z 20
_cell_length_a 5.269605
_cell_length_b 13.380941
_cell_length_c 11.664389
_cell_angle_alpha 90.000000
_cell_angle_beta 104.089069
_cell_angle_gamma 90.000000
_cell_volume 797.741058
_symmetry_space_group_name_H-M "P 2/C"
_symmetry_group_IT_number 13
_symmetry_cell_setting 'monoclinic'
loop_
_space_group_symop_operation_xyz
x,y,z
-x,y,1/2-z
-x,-y,-z
x,-y,1/2+z
loop_
_atom_site_type_symbol
_atom_site_label
_atom_site_fract_x
_atom_site_fract_y
_atom_site_fract_z
Si Si1 0.341813 0.074114 0.568923
Si Si2 0.139018 0.518670 0.143764
Si Si3 0.858493 0.894242 0.851623
Si Si4 0.605430 0.700407 0.441920
Si Si5 0.198655 0.688748 0.588231
O O1 0.448878 0.185259 0.604353
O O2 0.069777 0.095982 0.475234
O O3 0.500000 0.000000 0.500000
O O4 0.272987 0.002361 0.666640
O O5 0.326280 0.611701 0.137675
O O6 0.244948 0.406301 0.172350
O O7 0.000000 0.541701 0.250000
O O8 0.000000 0.500000 0.000000
O O9 0.691177 0.797092 0.863818
O O10 0.000000 0.872827 0.750000
O O11 0.353603 0.668735 0.487515
O O12 0.882869 0.702306 0.542894
#
# Coordination Sequence:
#
# PCOD9230857 Si02
#       5
#     4   4   4   4   4
#     4  10  20  38  58  84 124 166 206 266 322 392
#     4  10  22  42  67  97 134 174 223 274 336 397
#     4  10  21  36  60  88 122 162 217 266 326 386
#     4  10  21  39  65  90 129 168 215 267 333 391
#     4  10  20  40  63  94 124 166 213 271 326 395
#
# _framework density 25.070791
#
# number of rings (size 3 to 8) (size 9 to 14) (size 15 to 20)
#    0.000    2.000    2.000    1.200    0.000    1.600 
#    0.000   22.000    8.800    0.000    0.000    0.000 
#    0.000    0.000    0.000    0.000    0.000    0.000 
#
# Total GULP energy -111471.292582 kJ/mol
# GULP energy per Si atom -5573.564629 kJ/mol
# Density = 2.501373 g / cm^3
# Si number density = 25.070791 Si / 1000 Ang^3
#
#
#
# Elastic Constant Matrix: (Units=GPa)
#
#
# Indices 1 2 3 4 5 6 
#
# 1 64.8323 16.6747 33.8801 0.0000 2.2771 0.0000
# 2 16.6747 246.7491 32.7934 0.0000 -45.9507 0.0000
# 3 33.8801 32.7934 110.9330 0.0000 -25.1931 0.0000
# 4 0.0000 0.0000 0.0000 8.9927 0.0000 -55.3696
# 5 2.2771 -45.9507 -25.1931 0.0000 70.1130 0.0000
# 6 0.0000 0.0000 0.0000 -55.3696 0.0000 -12.5325
#
#
#
# Elastic Compliance Matrix: (Units=1/GPa)
#
#
# Indices 1 2 3 4 5 6 
#
# 1 0.019158 -0.001130 -0.006344 0.000000 -0.003642 0.000000
# 2 -0.001130 0.004739 -0.000373 0.000000 0.003009 0.000000
# 3 -0.006344 -0.000373 0.012036 0.000000 0.004287 0.000000
# 4 0.000000 0.000000 0.000000 0.003943 0.000000 -0.017420
# 5 -0.003642 0.003009 0.004287 0.000000 0.017893 0.000000
# 6 0.000000 0.000000 0.000000 -0.017420 0.000000 -0.002829
#
#
# Mechanical properties :
#
#
# Convention : Reuss Voigt Hill
#
# Bulk Modulus (GPa) = 49.40845 65.46790 57.43818
# Shear Modulus (GPa) = 64.61663 35.92571 50.27117
#
# Velocity S-wave (km/s) = 5.08229 3.78957 4.48277
# Velocity P-wave (km/s) = 7.36138 6.73184 7.05363
#
# Compressibility (1/GPa) = 0.02023945
#
# Stress axis : x y z
#
# Youngs Moduli (GPa) = 52.19655 211.02258 83.08612
#
# Poissons Ratio (x) = 0.23841 0.52713
# Poissons Ratio (y) = 0.05897 0.03096
# Poissons Ratio (z) = 0.33115 0.07862
#
# Static dielectric constant tensor:
#      x y z
#    x 2.043980 0.000000 0.026880 
#    y 0.000000 2.101510 0.000000 
#    z 0.026880 0.000000 1.964370 
# 
# From -- ./inp_files/26157.got.cif
#   From: 2010.05.17/outbox.cif.g08.bks.cpg/sg13_14_cif.got.tgz:26157.got - 2010.06.03 16:44:36.
