data_PCOD9230322
_publ_section_title
;
Structure prediction by ZEFSAII (Michael W. Deem and Ramdas Pophale) SiO2 
 PCOD9230322
Probable space group: P 2/C
;
_chemical_formula_sum "Si O2"
_cell_formula_units_Z 28
_cell_length_a 14.180783
_cell_length_b 12.043925
_cell_length_c 8.968136
_cell_angle_alpha 90.000000
_cell_angle_beta 69.633030
_cell_angle_gamma 90.000000
_cell_volume 1435.931551
_symmetry_space_group_name_H-M "P 2/C"
_symmetry_group_IT_number 13
_symmetry_cell_setting 'monoclinic'
loop_
_space_group_symop_operation_xyz
x,y,z
-x,y,1/2-z
-x,-y,-z
x,-y,1/2+z
loop_
_atom_site_type_symbol
_atom_site_label
_atom_site_fract_x
_atom_site_fract_y
_atom_site_fract_z
Si Si1 0.439812 0.087581 0.927738
Si Si2 0.277994 0.818042 0.717883
Si Si3 0.921788 0.017132 0.412365
Si Si4 0.261031 0.941911 0.319836
Si Si5 0.890494 0.639363 0.747224
Si Si6 0.224127 0.806314 0.075095
Si Si7 0.105864 0.412435 0.607272
O O1 0.500000 0.132898 0.750000
O O2 0.349321 0.029463 0.885446
O O3 0.380647 0.173569 0.067006
O O4 0.500000 0.000000 0.000000
O O5 0.194335 0.733793 0.705360
O O6 0.236416 0.944709 0.745852
O O7 0.287903 0.793764 0.888719
O O8 0.864585 0.900408 0.401472
O O9 0.000000 0.061911 0.250000
O O10 0.834390 0.092360 0.530256
O O11 0.000000 0.000000 0.500000
O O12 0.284757 0.850462 0.183915
O O13 0.856595 0.533789 0.864592
O O14 0.903399 0.602314 0.566347
O O15 0.000000 0.673108 0.750000
O O16 0.173880 0.688087 0.128089
O O17 0.000000 0.401757 0.750000
#
# Coordination Sequence:
#
# PCOD9230322 Si02
#       7
#     4   4   4   4   4   4   4
#     4  12  26  41  66  87 122 161 199 260 319 379
#     4  10  22  41  58  90 121 156 210 248 309 377
#     4  11  21  34  52  80 130 174 199 234 290 362
#     4  11  23  40  58  88 128 159 208 245 304 384
#     4  10  21  39  61  87 128 169 211 259 296 355
#     4  10  22  39  56  88 130 166 208 246 297 358
#     4  10  20  36  60  88 124 173 221 249 292 354
#
# _framework density 19.499535000000002
#
# number of rings (size 3 to 8) (size 9 to 14) (size 15 to 20)
#    0.000    1.429    2.857    3.857    2.000    2.286 
#   12.857    0.000    0.000    0.000    0.000    9.000 
#    4.286    0.143    0.000    0.000    0.000    0.000 
#
# Total GULP energy -156094.040550 kJ/mol
# GULP energy per Si atom -5574.787163 kJ/mol
# Density = 1.945515 g / cm^3
# Si number density = 19.499535 Si / 1000 Ang^3
#
#
#
# Elastic Constant Matrix: (Units=GPa)
#
#
# Indices 1 2 3 4 5 6 
#
# 1 99.7045 44.4365 52.4535 0.0000 13.6872 0.0000
# 2 44.4365 89.0123 49.9361 0.0000 6.4922 0.0000
# 3 52.4535 49.9361 157.1563 0.0000 -8.7358 0.0000
# 4 0.0000 0.0000 0.0000 23.1089 0.0000 -5.9149
# 5 13.6872 6.4922 -8.7358 0.0000 42.9949 0.0000
# 6 0.0000 0.0000 0.0000 -5.9149 0.0000 18.1104
#
#
#
# Elastic Compliance Matrix: (Units=1/GPa)
#
#
# Indices 1 2 3 4 5 6 
#
# 1 0.014812 -0.005029 -0.003606 0.000000 -0.004689 0.000000
# 2 -0.005029 0.015767 -0.003413 0.000000 -0.001473 0.000000
# 3 -0.003606 -0.003413 0.008844 0.000000 0.003460 0.000000
# 4 0.000000 0.000000 0.000000 0.047221 0.000000 0.015422
# 5 -0.004689 -0.001473 0.003460 0.000000 0.025677 0.000000
# 6 0.000000 0.000000 0.000000 0.015422 0.000000 0.060254
#
#
# Mechanical properties :
#
#
# Convention : Reuss Voigt Hill
#
# Bulk Modulus (GPa) = 65.25194 71.05835 68.15515
# Shear Modulus (GPa) = 24.77935 30.11266 27.44601
#
# Velocity S-wave (km/s) = 3.56865 3.93399 3.75576
# Velocity P-wave (km/s) = 7.10748 7.56011 7.33729
#
# Compressibility (1/GPa) = 0.01532521
#
# Stress axis : x y z
#
# Youngs Moduli (GPa) = 67.51290 63.42167 113.07476
#
# Poissons Ratio (x) = 0.31896 0.40778
# Poissons Ratio (y) = 0.33954 0.38597
# Poissons Ratio (z) = 0.24347 0.21648
#
# Static dielectric constant tensor:
#      x y z
#    x 1.723090 0.000000 0.015120 
#    y 0.000000 1.835230 0.000000 
#    z 0.015120 0.000000 1.778810 
# 
# From -- ./inp_files/18738.got.cif
#   From: 2010.05.17/outbox.cif.g08.bks.cpg/sg13_10_cif.got.tgz:18738.got - 2010.06.03 16:44:36.
