data_PCOD9230787
_publ_section_title
;
Structure prediction by ZEFSAII (Michael W. Deem and Ramdas Pophale) SiO2 
 PCOD9230787
Probable space group: P 2/C
;
_chemical_formula_sum "Si O2"
_cell_formula_units_Z 20
_cell_length_a 25.631270
_cell_length_b 7.005135
_cell_length_c 17.763212
_cell_angle_alpha 90.000000
_cell_angle_beta 18.720222
_cell_angle_gamma 90.000000
_cell_volume 1023.627235
_symmetry_space_group_name_H-M "P 2/C"
_symmetry_group_IT_number 13
_symmetry_cell_setting 'monoclinic'
loop_
_space_group_symop_operation_xyz
x,y,z
-x,y,1/2-z
-x,-y,-z
x,-y,1/2+z
loop_
_atom_site_type_symbol
_atom_site_label
_atom_site_fract_x
_atom_site_fract_y
_atom_site_fract_z
Si Si1 0.325850 0.899502 0.232894
Si Si2 0.877232 0.558893 0.234227
Si Si3 0.154088 0.712283 0.945116
Si Si4 0.261376 0.564057 0.432263
Si Si5 0.628898 0.429344 0.949601
O O1 0.289268 0.763830 0.353210
O O2 0.330373 0.754884 0.156445
O O3 0.201446 0.072194 0.396481
O O4 0.500000 0.000000 0.000000
O O5 0.835301 0.410275 0.357803
O O6 0.710743 0.603554 0.418693
O O7 0.000000 0.500000 0.000000
O O8 0.979236 0.710224 0.143521
O O9 0.174813 0.579411 0.990950
O O10 0.281727 0.609837 0.712981
O O11 0.437692 0.471689 0.208941
#
# Coordination Sequence:
#
# PCOD9230787 Si02
#       5
#     4   4   4   4   4
#     4  11  19  37  69  95 116 155 211 262 311 368
#     4  10  23  40  58  86 129 169 200 253 318 365
#     4  10  20  39  62  92 124 156 208 261 308 375
#     4  11  20  38  66  91 117 165 215 253 307 381
#     4  10  20  37  65  90 123 161 205 257 315 372
#
# _framework density 19.538364000000001
#
# number of rings (size 3 to 8) (size 9 to 14) (size 15 to 20)
#    0.000    1.600    4.000    2.400    0.000    0.800 
#    0.000   16.000    0.000    0.000    0.000    0.000 
#    0.000    0.000    0.000    0.000    0.000    0.000 
#
# Total GULP energy -111523.180876 kJ/mol
# GULP energy per Si atom -5576.159044 kJ/mol
# Density = 1.949389 g / cm^3
# Si number density = 19.538364 Si / 1000 Ang^3
#
#
#
# Elastic Constant Matrix: (Units=GPa)
#
#
# Indices 1 2 3 4 5 6 
#
# 1 159.8155 63.8552 60.1770 0.0000 -8.3552 0.0000
# 2 63.8552 136.4936 38.3464 0.0000 1.0212 0.0000
# 3 60.1770 38.3464 72.7018 0.0000 3.8349 0.0000
# 4 0.0000 0.0000 0.0000 10.2801 0.0000 -12.0592
# 5 -8.3552 1.0212 3.8349 0.0000 49.1412 0.0000
# 6 0.0000 0.0000 0.0000 -12.0592 0.0000 19.7312
#
#
#
# Elastic Compliance Matrix: (Units=1/GPa)
#
#
# Indices 1 2 3 4 5 6 
#
# 1 0.010147 -0.002783 -0.007055 0.000000 0.002334 0.000000
# 2 -0.002783 0.009365 -0.002612 0.000000 -0.000464 0.000000
# 3 -0.007055 -0.002612 0.021119 0.000000 -0.002793 0.000000
# 4 0.000000 0.000000 0.000000 0.343671 0.000000 0.210043
# 5 0.002334 -0.000464 -0.002793 0.000000 0.020974 0.000000
# 6 0.000000 0.000000 0.000000 0.210043 0.000000 0.179054
#
#
# Mechanical properties :
#
#
# Convention : Reuss Voigt Hill
#
# Bulk Modulus (GPa) = 63.55930 77.08533 70.32232
# Shear Modulus (GPa) = 8.13704 29.60598 18.87151
#
# Velocity S-wave (km/s) = 2.04296 3.89688 3.11122
# Velocity P-wave (km/s) = 6.17787 7.73217 6.99831
#
# Compressibility (1/GPa) = 0.01573334
#
# Stress axis : x y z
#
# Youngs Moduli (GPa) = 98.54710 106.77508 47.35054
#
# Poissons Ratio (x) = 0.29713 0.33404
# Poissons Ratio (y) = 0.27423 0.12368
# Poissons Ratio (z) = 0.69521 0.27889
#
# Static dielectric constant tensor:
#      x y z
#    x 1.715420 0.000000 -0.007460 
#    y 0.000000 1.633060 0.000000 
#    z -0.007460 0.000000 1.759450 
# 
# From -- ./inp_files/65045.got.cif
#   From: 2010.05.17/outbox.cif.g08.bks.cpg/sg13_33_cif.got.tgz:65045.got - 2010.06.03 16:44:36.
