data_PCOD9230829
_publ_section_title
;
Structure prediction by ZEFSAII (Michael W. Deem and Ramdas Pophale) SiO2 
 PCOD9230829
Probable space group: P 2/C
;
_chemical_formula_sum "Si O2"
_cell_formula_units_Z 30
_cell_length_a 10.216314
_cell_length_b 9.913760
_cell_length_c 27.398254
_cell_angle_alpha 90.000000
_cell_angle_beta 148.607816
_cell_angle_gamma 90.000000
_cell_volume 1445.453752
_symmetry_space_group_name_H-M "P 2/C"
_symmetry_group_IT_number 13
_symmetry_cell_setting 'monoclinic'
loop_
_space_group_symop_operation_xyz
x,y,z
-x,y,1/2-z
-x,-y,-z
x,-y,1/2+z
loop_
_atom_site_type_symbol
_atom_site_label
_atom_site_fract_x
_atom_site_fract_y
_atom_site_fract_z
Si Si1 0.827323 0.610914 0.970793
Si Si2 0.349260 0.346045 0.253818
Si Si3 0.394857 0.971673 0.041020
Si Si4 0.813193 0.108812 0.232844
Si Si5 0.500000 0.212381 0.750000
Si Si6 0.164356 0.867245 0.056499
Si Si7 0.850397 0.873839 0.120779
Si Si8 0.032461 0.391082 0.638684
O O1 0.557169 0.612650 0.860082
O O2 0.000000 0.500000 0.000000
O O3 0.973520 0.748447 0.006443
O O4 0.839106 0.591663 0.032468
O O5 0.500000 0.335072 0.250000
O O6 0.225852 0.207683 0.234055
O O7 0.139510 0.462924 0.186152
O O8 0.287514 0.858145 0.042430
O O9 0.594825 0.903797 0.068462
O O10 0.549081 0.076236 0.123596
O O11 0.195091 0.059052 0.946953
O O12 0.000000 0.164890 0.250000
O O13 0.934108 0.965861 0.286824
O O14 0.624019 0.129747 0.833916
O O15 0.278542 0.308775 0.698596
O O16 0.000000 0.000000 0.000000
O O17 0.913817 0.716289 0.138430
#
# Coordination Sequence:
#
# PCOD9230829 Si02
#       8
#     4   4   4   4   2   4   4   4
#     4  11  23  41  58  86 129 161 196 261 316 364
#     4  12  23  41  64  93 126 168 210 259 318 380
#     4  10  21  41  62  94 123 161 205 262 317 368
#     4  10  23  43  63  91 129 165 206 261 322 378
#     4  10  20  38  56  84 124 158 196 256 312 360
#     4  11  22  37  62  92 120 157 209 258 313 379
#     4  10  22  40  67  87 125 165 206 258 313 377
#     4  11  21  41  63  89 123 169 209 253 314 374
#
# _framework density 20.754729000000001
#
# number of rings (size 3 to 8) (size 9 to 14) (size 15 to 20)
#    0.000    1.333    2.000    4.800    1.867    0.000 
#    8.400    4.667    0.000    8.800    0.000    0.000 
#    0.000    0.000    0.000    0.000    0.000    0.000 
#
# Total GULP energy -167633.526983 kJ/mol
# GULP energy per Si atom -5587.784233 kJ/mol
# Density = 2.070749 g / cm^3
# Si number density = 20.754729 Si / 1000 Ang^3
#
#
#
# Elastic Constant Matrix: (Units=GPa)
#
#
# Indices 1 2 3 4 5 6 
#
# 1 67.0134 29.7460 9.5773 0.0000 -9.2160 0.0000
# 2 29.7460 87.1698 4.8755 0.0000 -15.8902 0.0000
# 3 9.5773 4.8755 96.9169 0.0000 -24.7841 0.0000
# 4 0.0000 0.0000 0.0000 20.1934 0.0000 -9.5877
# 5 -9.2160 -15.8902 -24.7841 0.0000 24.8922 0.0000
# 6 0.0000 0.0000 0.0000 -9.5877 0.0000 24.0485
#
#
#
# Elastic Compliance Matrix: (Units=1/GPa)
#
#
# Indices 1 2 3 4 5 6 
#
# 1 0.017856 -0.005668 -0.000958 0.000000 0.002039 0.000000
# 2 -0.005668 0.015067 0.002314 0.000000 0.009824 0.000000
# 3 -0.000958 0.002314 0.014199 0.000000 0.015260 0.000000
# 4 0.000000 0.000000 0.000000 0.061084 0.000000 0.024353
# 5 0.002039 0.009824 0.015260 0.000000 0.062393 0.000000
# 6 0.000000 0.000000 0.000000 0.024353 0.000000 0.051292
#
#
# Mechanical properties :
#
#
# Convention : Reuss Voigt Hill
#
# Bulk Modulus (GPa) = 25.97472 37.72197 31.84834
# Shear Modulus (GPa) = 20.54686 27.62024 24.08355
#
# Velocity S-wave (km/s) = 3.14982 3.65196 3.41014
# Velocity P-wave (km/s) = 5.07649 5.99975 5.55732
#
# Compressibility (1/GPa) = 0.03849897
#
# Stress axis : x y z
#
# Youngs Moduli (GPa) = 56.00511 66.36841 70.42906
#
# Poissons Ratio (x) = 0.37616 0.06747
# Poissons Ratio (y) = 0.31743 -0.16301
# Poissons Ratio (z) = 0.05365 -0.15361
#
# Static dielectric constant tensor:
#      x y z
#    x 1.810040 0.000000 -0.012770 
#    y 0.000000 1.713660 0.000000 
#    z -0.012770 0.000000 1.736570 
# 
# From -- ./inp_files/96612.got.cif
#   From: 2010.05.17/outbox.cif.g08.bks.cpg/sg13_49_cif.got.tgz:96612.got - 2010.06.03 16:44:36.
