data_PCOD9230622
_publ_section_title
;
Structure prediction by ZEFSAII (Michael W. Deem and Ramdas Pophale) SiO2 
 PCOD9230622
Probable space group: P 2/C
;
_chemical_formula_sum "Si O2"
_cell_formula_units_Z 32
_cell_length_a 29.696575
_cell_length_b 9.171828
_cell_length_c 11.755397
_cell_angle_alpha 90.000000
_cell_angle_beta 30.198905
_cell_angle_gamma 90.000000
_cell_volume 1610.536277
_symmetry_space_group_name_H-M "P 2/C"
_symmetry_group_IT_number 13
_symmetry_cell_setting 'monoclinic'
loop_
_space_group_symop_operation_xyz
x,y,z
-x,y,1/2-z
-x,-y,-z
x,-y,1/2+z
loop_
_atom_site_type_symbol
_atom_site_label
_atom_site_fract_x
_atom_site_fract_y
_atom_site_fract_z
Si Si1 0.207565 0.788714 0.183529
Si Si2 0.295868 0.086927 0.916354
Si Si3 0.992743 0.901877 0.899166
Si Si4 0.733684 0.549921 0.628524
Si Si5 0.424910 0.917271 0.505496
Si Si6 0.177391 0.256700 0.008254
Si Si7 0.527279 0.392686 0.539204
Si Si8 0.665291 0.289140 0.464026
O O1 0.214219 0.739696 0.299470
O O2 0.104660 0.829766 0.384575
O O3 0.238351 0.664712 0.028742
O O4 0.264056 0.937035 0.043492
O O5 0.225512 0.128910 0.973427
O O6 0.307847 0.218997 0.976688
O O7 0.390137 0.050830 0.652340
O O8 0.072973 0.784155 0.731601
O O9 0.000000 0.965228 0.750000
O O10 0.000000 0.000000 0.000000
O O11 0.791898 0.404968 0.497837
O O12 0.625195 0.538468 0.856220
O O13 0.740691 0.613629 0.741375
O O14 0.452292 0.779538 0.524104
O O15 0.348277 0.844921 0.594244
O O16 0.500000 0.955260 0.250000
O O17 0.500000 0.500000 0.500000
O O18 0.432241 0.369567 0.815180
#
# Coordination Sequence:
#
# PCOD9230622 Si02
#       8
#     4   4   4   4   4   4   4   4
#     4  11  24  43  70  95 139 168 223 285 336 405
#     4  12  21  40  67  96 127 174 229 276 336 405
#     4  10  22  45  71 104 141 171 220 287 346 418
#     4  11  24  44  63  93 137 177 223 276 338 403
#     4   9  20  38  53  89 128 165 216 277 331 379
#     4  11  26  41  68 101 127 177 226 271 347 411
#     4  10  20  37  60  86 128 182 221 274 333 389
#     4  10  22  38  62  89 132 174 223 280 333 390
#
# _framework density 19.869157000000001
#
# number of rings (size 3 to 8) (size 9 to 14) (size 15 to 20)
#    0.000    1.500    3.750    2.625    3.500    2.500 
#    2.250    1.250    0.000    0.000    0.000    0.000 
#    0.000    0.000    0.000    0.000    0.000    0.000 
#
# Total GULP energy -178165.467176 kJ/mol
# GULP energy per Si atom -5567.670849 kJ/mol
# Density = 1.982393 g / cm^3
# Si number density = 19.869157 Si / 1000 Ang^3
#
#
#
# Elastic Constant Matrix: (Units=GPa)
#
#
# Indices 1 2 3 4 5 6 
#
# 1 98.0120 32.0949 36.9707 0.0000 9.8845 0.0000
# 2 32.0949 49.3818 37.5973 0.0000 10.3434 0.0000
# 3 36.9707 37.5973 91.0872 0.0000 9.4493 0.0000
# 4 0.0000 0.0000 0.0000 9.9839 0.0000 9.1363
# 5 9.8845 10.3434 9.4493 0.0000 25.9049 0.0000
# 6 0.0000 0.0000 0.0000 9.1363 0.0000 29.6912
#
#
#
# Elastic Compliance Matrix: (Units=1/GPa)
#
#
# Indices 1 2 3 4 5 6 
#
# 1 0.013460 -0.006384 -0.002660 0.000000 -0.001616 0.000000
# 2 -0.006384 0.034086 -0.010725 0.000000 -0.007262 0.000000
# 3 -0.002660 -0.010725 0.016562 0.000000 -0.000744 0.000000
# 4 0.000000 0.000000 0.000000 0.139420 0.000000 -0.042901
# 5 -0.001616 -0.007262 -0.000744 0.000000 0.042391 0.000000
# 6 0.000000 0.000000 0.000000 -0.042901 0.000000 0.046881
#
#
# Mechanical properties :
#
#
# Convention : Reuss Voigt Hill
#
# Bulk Modulus (GPa) = 40.70047 50.20077 45.45062
# Shear Modulus (GPa) = 14.68305 21.90388 18.29346
#
# Velocity S-wave (km/s) = 2.72138 3.32385 3.03759
# Velocity P-wave (km/s) = 5.51392 6.32860 5.93525
#
# Compressibility (1/GPa) = 0.02456974
#
# Stress axis : x y z
#
# Youngs Moduli (GPa) = 74.29508 29.33745 60.37791
#
# Poissons Ratio (x) = 0.18729 0.16063
# Poissons Ratio (y) = 0.47429 0.64755
# Poissons Ratio (z) = 0.19765 0.31464
#
# Static dielectric constant tensor:
#      x y z
#    x 1.739510 0.000000 -0.010880 
#    y 0.000000 1.660500 0.000000 
#    z -0.010880 0.000000 1.672090 
# 
# From -- ./inp_files/42750.got.cif
#   From: 2010.05.17/outbox.cif.g08.bks.cpg/sg13_22_cif.got.tgz:42750.got - 2010.06.03 16:44:36.
