data_PCOD9230686
_publ_section_title
;
Structure prediction by ZEFSAII (Michael W. Deem and Ramdas Pophale) SiO2 
 PCOD9230686
Probable space group: P 2/C
;
_chemical_formula_sum "Si O2"
_cell_formula_units_Z 20
_cell_length_a 11.467902
_cell_length_b 4.844716
_cell_length_c 24.999120
_cell_angle_alpha 90.000000
_cell_angle_beta 42.297661
_cell_angle_gamma 90.000000
_cell_volume 934.718142
_symmetry_space_group_name_H-M "P 2/C"
_symmetry_group_IT_number 13
_symmetry_cell_setting 'monoclinic'
loop_
_space_group_symop_operation_xyz
x,y,z
-x,y,1/2-z
-x,-y,-z
x,-y,1/2+z
loop_
_atom_site_type_symbol
_atom_site_label
_atom_site_fract_x
_atom_site_fract_y
_atom_site_fract_z
Si Si1 0.689455 0.673098 0.705785
Si Si2 0.879405 0.177699 0.594696
Si Si3 0.522667 0.811578 0.044016
Si Si4 0.442037 0.674274 0.635914
Si Si5 0.805749 0.424953 0.509117
O O1 0.500000 0.766962 0.750000
O O2 0.729596 0.372090 0.669733
O O3 0.686080 0.653227 0.771165
O O4 0.835165 0.879725 0.633221
O O5 0.866871 0.216438 0.534718
O O6 0.054781 0.340569 0.550790
O O7 0.419680 0.525931 0.091219
O O8 0.459914 0.011523 0.112652
O O9 0.723526 0.733388 0.986532
O O10 0.500000 0.000000 0.000000
O O11 0.633104 0.576846 0.589977
#
# Coordination Sequence:
#
# PCOD9230686 Si02
#       5
#     4   4   4   4   4
#     4  12  21  36  54  86 123 166 198 244 308 383
#     4  11  23  34  58  85 129 165 194 249 319 373
#     4  10  20  37  62  86 112 154 208 264 306 357
#     4  10  21  36  58  87 119 151 209 253 303 369
#     4   9  23  36  57  88 125 158 207 251 307 373
#
# _framework density 21.396826999999998
#
# number of rings (size 3 to 8) (size 9 to 14) (size 15 to 20)
#    1.200    0.400    2.000    3.600    2.800    1.600 
#    0.000    0.000    0.000    1.200    0.000    0.000 
#    0.000    0.000    0.000    0.000    0.000    0.000 
#
# Total GULP energy -111520.216437 kJ/mol
# GULP energy per Si atom -5576.010822 kJ/mol
# Density = 2.134813 g / cm^3
# Si number density = 21.396827 Si / 1000 Ang^3
#
#
#
# Elastic Constant Matrix: (Units=GPa)
#
#
# Indices 1 2 3 4 5 6 
#
# 1 70.3833 11.6909 21.9197 0.0000 6.0761 0.0000
# 2 11.6909 105.2886 13.2402 0.0000 -1.3746 0.0000
# 3 21.9197 13.2402 98.0542 0.0000 2.9078 0.0000
# 4 0.0000 0.0000 0.0000 37.7020 0.0000 -2.4810
# 5 6.0761 -1.3746 2.9078 0.0000 15.2793 0.0000
# 6 0.0000 0.0000 0.0000 -2.4810 0.0000 33.5892
#
#
#
# Elastic Compliance Matrix: (Units=1/GPa)
#
#
# Indices 1 2 3 4 5 6 
#
# 1 0.015950 -0.001446 -0.003196 0.000000 -0.005864 0.000000
# 2 -0.001446 0.009812 -0.001051 0.000000 0.001658 0.000000
# 3 -0.003196 -0.001051 0.011083 0.000000 -0.000933 0.000000
# 4 0.000000 0.000000 0.000000 0.026653 0.000000 0.001969
# 5 -0.005864 0.001658 -0.000933 0.000000 0.068107 0.000000
# 6 0.000000 0.000000 0.000000 0.001969 0.000000 0.029917
#
#
# Mechanical properties :
#
#
# Convention : Reuss Voigt Hill
#
# Bulk Modulus (GPa) = 39.27967 40.82531 40.05249
# Shear Modulus (GPa) = 27.56440 32.43910 30.00175
#
# Velocity S-wave (km/s) = 3.59311 3.89790 3.74860
# Velocity P-wave (km/s) = 5.96754 6.27532 6.12336
#
# Compressibility (1/GPa) = 0.02545846
#
# Stress axis : x y z
#
# Youngs Moduli (GPa) = 62.69683 101.91585 90.23202
#
# Poissons Ratio (x) = 0.14733 0.28842
# Poissons Ratio (y) = 0.09064 0.09483
# Poissons Ratio (z) = 0.20040 0.10710
#
# Static dielectric constant tensor:
#      x y z
#    x 1.834780 0.000000 0.015290 
#    y 0.000000 1.788670 0.000000 
#    z 0.015290 0.000000 1.790060 
# 
# From -- ./inp_files/85732.got.cif
#   From: 2010.05.17/outbox.cif.g08.bks.cpg/sg13_43_cif.got.tgz:85732.got - 2010.06.03 16:44:36.
