data_PCOD9230555
_publ_section_title
;
Structure prediction by ZEFSAII (Michael W. Deem and Ramdas Pophale) SiO2 
 PCOD9230555
Probable space group: P 2/C
;
_chemical_formula_sum "Si O2"
_cell_formula_units_Z 22
_cell_length_a 19.231758
_cell_length_b 5.361644
_cell_length_c 8.547893
_cell_angle_alpha 90.000000
_cell_angle_beta 110.125974
_cell_angle_gamma 90.000000
_cell_volume 827.585973
_symmetry_space_group_name_H-M "P 2/C"
_symmetry_group_IT_number 13
_symmetry_cell_setting 'monoclinic'
loop_
_space_group_symop_operation_xyz
x,y,z
-x,y,1/2-z
-x,-y,-z
x,-y,1/2+z
loop_
_atom_site_type_symbol
_atom_site_label
_atom_site_fract_x
_atom_site_fract_y
_atom_site_fract_z
Si Si1 0.500000 0.673053 0.250000
Si Si2 0.598534 0.343935 0.563970
Si Si3 0.692591 0.698268 0.865226
Si Si4 0.826832 0.014611 0.304701
Si Si5 0.047361 0.686778 0.428051
Si Si6 0.819815 0.647407 0.523526
O O1 0.547155 0.497416 0.403115
O O2 0.446361 0.806875 0.335473
O O3 0.642512 0.550233 0.701067
O O4 0.648207 0.188048 0.479243
O O5 0.752424 0.868232 0.823589
O O6 0.743434 0.489244 0.987527
O O7 0.903911 0.121923 0.433258
O O8 0.824901 0.102604 0.126815
O O9 0.823088 0.726530 0.344394
O O10 0.109155 0.517018 0.392513
O O11 0.000000 0.802159 0.250000
O O12 0.000000 0.500000 0.500000
#
# Coordination Sequence:
#
# PCOD9230555 Si02
#       6
#     2   4   4   4   4   4
#     4   8  16  28  52  94 118 144 206 234 282 344
#     4   9  16  31  56  86 120 153 192 246 281 347
#     4  10  20  37  58  84 121 155 199 238 297 339
#     4  11  25  39  59  88 119 152 197 247 290 349
#     4  11  24  44  62  83 117 155 194 241 299 353
#     4  11  25  39  59  89 118 152 199 244 292 347
#
# _framework density 26.58334
#
# number of rings (size 3 to 8) (size 9 to 14) (size 15 to 20)
#    0.000    1.818    3.636    0.000    5.091    1.455 
#    0.000    0.000    0.000    0.000    0.000   89.091 
#    0.000    0.000    0.000    0.000    0.000    0.000 
#
# Total GULP energy -123083.352656 kJ/mol
# GULP energy per Si atom -5594.697848 kJ/mol
# Density = 2.652284 g / cm^3
# Si number density = 26.583340 Si / 1000 Ang^3
#
#
#
# Elastic Constant Matrix: (Units=GPa)
#
#
# Indices 1 2 3 4 5 6 
#
# 1 132.1187 11.6709 77.6195 0.0000 -23.1786 0.0000
# 2 11.6709 14.4872 13.0004 0.0000 -6.0304 0.0000
# 3 77.6195 13.0004 167.4123 0.0000 0.3615 0.0000
# 4 0.0000 0.0000 0.0000 41.6388 0.0000 -10.8279
# 5 -23.1786 -6.0304 0.3615 0.0000 57.1938 0.0000
# 6 0.0000 0.0000 0.0000 -10.8279 0.0000 2.5737
#
#
#
# Elastic Compliance Matrix: (Units=1/GPa)
#
#
# Indices 1 2 3 4 5 6 
#
# 1 0.011653 -0.002878 -0.005189 0.000000 0.004452 0.000000
# 2 -0.002878 0.078618 -0.004786 0.000000 0.007153 0.000000
# 3 -0.005189 -0.004786 0.008756 0.000000 -0.002663 0.000000
# 4 0.000000 0.000000 0.000000 -0.255403 0.000000 -1.074514
# 5 0.004452 0.007153 -0.002663 0.000000 0.020060 0.000000
# 6 0.000000 0.000000 0.000000 -1.074514 0.000000 -4.132065
#
#
# Mechanical properties :
#
#
# Convention : Reuss Voigt Hill
#
# Bulk Modulus (GPa) = 13.63868 57.62219 35.63043
# Shear Modulus (GPa) = -1.18533 34.39643 16.60555
#
# Velocity S-wave (km/s) = -0.66848 3.60100 2.50203
# Velocity P-wave (km/s) = 2.13210 6.24601 4.66683
#
# Compressibility (1/GPa) = 0.07332086
#
# Stress axis : x y z
#
# Youngs Moduli (GPa) = 85.81804 12.71978 114.20201
#
# Poissons Ratio (x) = 0.03661 0.59256
# Poissons Ratio (y) = 0.24699 0.54658
# Poissons Ratio (z) = 0.44529 0.06088
#
# Static dielectric constant tensor:
#      x y z
#    x 2.163300 0.000000 -0.017840 
#    y 0.000000 2.003650 0.000000 
#    z -0.017840 0.000000 2.024740 
# 
# From -- ./inp_files/22218.got.cif
#   From: 2010.05.17/outbox.cif.g08.bks.cpg/sg13_12_cif.got.tgz:22218.got - 2010.06.03 16:44:36.
