data_PCOD9230696
_publ_section_title
;
Structure prediction by ZEFSAII (Michael W. Deem and Ramdas Pophale) SiO2 
 PCOD9230696
Probable space group: P 2/C
;
_chemical_formula_sum "Si O2"
_cell_formula_units_Z 24
_cell_length_a 8.345981
_cell_length_b 17.771800
_cell_length_c 17.672869
_cell_angle_alpha 90.000000
_cell_angle_beta 27.663013
_cell_angle_gamma 90.000000
_cell_volume 1216.989556
_symmetry_space_group_name_H-M "P 2/C"
_symmetry_group_IT_number 13
_symmetry_cell_setting 'monoclinic'
loop_
_space_group_symop_operation_xyz
x,y,z
-x,y,1/2-z
-x,-y,-z
x,-y,1/2+z
loop_
_atom_site_type_symbol
_atom_site_label
_atom_site_fract_x
_atom_site_fract_y
_atom_site_fract_z
Si Si1 0.430339 0.092438 0.690258
Si Si2 0.836511 0.384193 0.894244
Si Si3 0.762387 0.386808 0.465019
Si Si4 0.417535 0.268523 0.696241
Si Si5 0.517316 0.528947 0.832820
Si Si6 0.141503 0.969889 0.617039
O O1 0.500000 0.080438 0.750000
O O2 0.360386 0.180460 0.706757
O O3 0.761437 0.072851 0.499996
O O4 0.118354 0.037896 0.794930
O O5 0.451902 0.373621 0.022076
O O6 0.000000 0.422827 0.750000
O O7 0.075911 0.312774 0.810895
O O8 0.782299 0.427583 0.995296
O O9 0.737352 0.306944 0.517849
O O10 0.550093 0.444419 0.609236
O O11 0.124721 0.427519 0.300370
O O12 0.500000 0.279573 0.750000
O O13 0.500000 0.530399 0.750000
O O14 0.000000 0.925670 0.750000
O O15 0.500000 0.000000 0.500000
#
# Coordination Sequence:
#
# PCOD9230696 Si02
#       6
#     4   4   4   4   4   4
#     4  10  20  37  62  88 118 152 191 236 284 340
#     4  10  22  39  59  83 115 153 193 238 289 344
#     4  11  22  37  58  87 116 151 194 241 292 346
#     4  10  21  39  60  85 117 154 192 237 292 344
#     4  12  23  39  62  86 115 151 196 247 291 344
#     4   9  19  35  58  87 118 151 187 229 279 340
#
# _framework density 19.720794000000001
#
# number of rings (size 3 to 8) (size 9 to 14) (size 15 to 20)
#    0.000    1.667    0.000    5.500    0.000    7.333 
#    0.000    6.667    0.000   10.000    0.000    0.000 
#    0.000    0.000    0.000    0.000    0.000    0.000 
#
# Total GULP energy -133630.746459 kJ/mol
# GULP energy per Si atom -5567.947769 kJ/mol
# Density = 1.967591 g / cm^3
# Si number density = 19.720794 Si / 1000 Ang^3
#
#
#
# Elastic Constant Matrix: (Units=GPa)
#
#
# Indices 1 2 3 4 5 6 
#
# 1 94.4644 53.9635 51.8456 0.0000 18.8231 0.0000
# 2 53.9635 97.2886 44.7440 0.0000 10.8280 0.0000
# 3 51.8456 44.7440 121.0616 0.0000 25.5126 0.0000
# 4 0.0000 0.0000 0.0000 -3.6620 0.0000 -25.5353
# 5 18.8231 10.8280 25.5126 0.0000 48.8491 0.0000
# 6 0.0000 0.0000 0.0000 -25.5353 0.0000 13.2489
#
#
#
# Elastic Compliance Matrix: (Units=1/GPa)
#
#
# Indices 1 2 3 4 5 6 
#
# 1 0.017845 -0.007639 -0.004188 0.000000 -0.002996 0.000000
# 2 -0.007639 0.015661 -0.002703 0.000000 0.000884 0.000000
# 3 -0.004188 -0.002703 0.011896 0.000000 -0.004000 0.000000
# 4 0.000000 0.000000 0.000000 -0.018912 0.000000 -0.036449
# 5 -0.002996 0.000884 -0.004000 0.000000 0.023519 0.000000
# 6 0.000000 0.000000 0.000000 -0.036449 0.000000 0.005227
#
#
# Mechanical properties :
#
#
# Convention : Reuss Voigt Hill
#
# Bulk Modulus (GPa) = 61.19067 68.21343 64.70205
# Shear Modulus (GPa) = 55.71546 22.50464 39.11005
#
# Velocity S-wave (km/s) = 5.32104 3.38177 4.45813
# Velocity P-wave (km/s) = 8.29742 7.06493 7.70585
#
# Compressibility (1/GPa) = 0.01634236
#
# Stress axis : x y z
#
# Youngs Moduli (GPa) = 56.03807 63.85490 84.06463
#
# Poissons Ratio (x) = 0.48778 0.35203
# Poissons Ratio (y) = 0.42806 0.22722
# Poissons Ratio (z) = 0.23467 0.17260
#
# Static dielectric constant tensor:
#      x y z
#    x 1.736400 0.000000 -0.009610 
#    y 0.000000 1.677730 0.000000 
#    z -0.009610 0.000000 1.795530 
# 
# From -- ./inp_files/64721.got.cif
#   From: 2010.05.17/outbox.cif.g08.bks.cpg/sg13_33_cif.got.tgz:64721.got - 2010.06.03 16:44:36.
