data_PCOD9230908
_publ_section_title
;
Structure prediction by ZEFSAII (Michael W. Deem and Ramdas Pophale) SiO2 
 PCOD9230908
Probable space group: P 2/C
;
_chemical_formula_sum "Si O2"
_cell_formula_units_Z 30
_cell_length_a 10.201457
_cell_length_b 5.567217
_cell_length_c 20.379055
_cell_angle_alpha 90.000000
_cell_angle_beta 71.065929
_cell_angle_gamma 90.000000
_cell_volume 1094.778375
_symmetry_space_group_name_H-M "P 2/C"
_symmetry_group_IT_number 13
_symmetry_cell_setting 'monoclinic'
loop_
_space_group_symop_operation_xyz
x,y,z
-x,y,1/2-z
-x,-y,-z
x,-y,1/2+z
loop_
_atom_site_type_symbol
_atom_site_label
_atom_site_fract_x
_atom_site_fract_y
_atom_site_fract_z
Si Si1 0.347330 0.812801 0.574836
Si Si2 0.982230 0.708215 0.878283
Si Si3 0.502633 0.465869 0.147657
Si Si4 0.294290 0.770660 0.439917
Si Si5 0.291654 0.814935 0.194496
Si Si6 0.138063 0.258346 0.482917
Si Si7 0.500000 0.083906 0.250000
Si Si8 0.970495 0.210372 0.847328
O O1 0.185414 0.717722 0.606313
O O2 0.464885 0.636892 0.582856
O O3 0.368994 0.842390 0.495047
O O4 0.349030 0.047861 0.619755
O O5 0.044656 0.466306 0.837840
O O6 0.013634 0.706259 0.950908
O O7 0.041572 0.952150 0.838217
O O8 0.595256 0.703348 0.133336
O O9 0.351002 0.549495 0.194813
O O10 0.557256 0.258912 0.183941
O O11 0.229112 0.500701 0.459710
O O12 0.202199 0.006688 0.445931
O O13 0.133952 0.795738 0.197025
O O14 0.365456 0.956069 0.240956
O O15 0.102490 0.220273 0.566258
#
# Coordination Sequence:
#
# PCOD9230908 Si02
#       8
#     4   4   4   4   4   4   2   4
#     4  10  21  36  57  93 122 170 205 249 306 377
#     4  11  20  34  58  85 132 168 208 248 287 365
#     4  11  23  41  60  86 124 159 214 258 325 381
#     4  12  25  36  58  89 134 173 198 245 313 393
#     4  10  20  38  60  85 123 149 213 258 316 371
#     4  12  22  37  54  92 132 178 204 237 307 377
#     4  10  24  40  62  86 112 160 210 280 318 374
#     4  11  19  35  58  89 123 164 206 253 295 361
#
# _framework density 27.402808
#
# number of rings (size 3 to 8) (size 9 to 14) (size 15 to 20)
#    0.000    1.067    5.333    2.400    3.733    0.533 
#    0.000    0.000    0.000    0.000    0.000    8.400 
#    0.000    0.000    0.000    0.000    0.000    0.000 
#
# Total GULP energy -167689.306986 kJ/mol
# GULP energy per Si atom -5589.643566 kJ/mol
# Density = 2.734044 g / cm^3
# Si number density = 27.402808 Si / 1000 Ang^3
#
#
#
# Elastic Constant Matrix: (Units=GPa)
#
#
# Indices 1 2 3 4 5 6 
#
# 1 106.2448 56.3126 61.7373 0.0000 28.1417 0.0000
# 2 56.3126 183.0610 30.5850 0.0000 22.6172 0.0000
# 3 61.7373 30.5850 99.3698 0.0000 45.1768 0.0000
# 4 0.0000 0.0000 0.0000 38.5375 0.0000 15.2735
# 5 28.1417 22.6172 45.1768 0.0000 55.6840 0.0000
# 6 0.0000 0.0000 0.0000 15.2735 0.0000 42.2884
#
#
#
# Elastic Compliance Matrix: (Units=1/GPa)
#
#
# Indices 1 2 3 4 5 6 
#
# 1 0.016728 -0.003638 -0.009667 0.000000 0.000867 0.000000
# 2 -0.003638 0.006622 0.000965 0.000000 -0.001634 0.000000
# 3 -0.009667 0.000965 0.021753 0.000000 -0.013155 0.000000
# 4 0.000000 0.000000 0.000000 0.030284 0.000000 -0.010938
# 5 0.000867 -0.001634 -0.013155 0.000000 0.028857 0.000000
# 6 0.000000 0.000000 0.000000 -0.010938 0.000000 0.027598
#
#
# Mechanical properties :
#
#
# Convention : Reuss Voigt Hill
#
# Bulk Modulus (GPa) = 48.96442 76.21615 62.59028
# Shear Modulus (GPa) = 30.61268 43.30471 36.95869
#
# Velocity S-wave (km/s) = 3.34599 3.97961 3.67648
# Velocity P-wave (km/s) = 5.73015 6.99929 6.39628
#
# Compressibility (1/GPa) = 0.02042299
#
# Stress axis : x y z
#
# Youngs Moduli (GPa) = 59.77840 151.00232 45.96991
#
# Poissons Ratio (x) = 0.54932 0.44441
# Poissons Ratio (y) = 0.21746 -0.04435
# Poissons Ratio (z) = 0.57791 -0.14567
#
# Static dielectric constant tensor:
#      x y z
#    x 2.241680 0.000000 -0.177310 
#    y 0.000000 2.173110 0.000000 
#    z -0.177310 0.000000 2.211590 
# 
# From -- ./inp_files/77507.got.cif
#   From: 2010.05.17/outbox.cif.g08.bks.cpg/sg13_39_cif.got.tgz:77507.got - 2010.06.03 16:44:36.
