data_PCOD9230752
_publ_section_title
;
Structure prediction by ZEFSAII (Michael W. Deem and Ramdas Pophale) SiO2 
 PCOD9230752
Probable space group: P 2/C
;
_chemical_formula_sum "Si O2"
_cell_formula_units_Z 30
_cell_length_a 13.686538
_cell_length_b 19.932728
_cell_length_c 14.023371
_cell_angle_alpha 90.000000
_cell_angle_beta 20.489832
_cell_angle_gamma 90.000000
_cell_volume 1339.158162
_symmetry_space_group_name_H-M "P 2/C"
_symmetry_group_IT_number 13
_symmetry_cell_setting 'monoclinic'
loop_
_space_group_symop_operation_xyz
x,y,z
-x,y,1/2-z
-x,-y,-z
x,-y,1/2+z
loop_
_atom_site_type_symbol
_atom_site_label
_atom_site_fract_x
_atom_site_fract_y
_atom_site_fract_z
Si Si1 0.533587 0.645788 0.604438
Si Si2 0.233990 0.832682 0.228955
Si Si3 0.097632 0.589125 0.770141
Si Si4 0.020077 0.691029 0.453135
Si Si5 0.779856 0.917501 0.729497
Si Si6 0.000000 0.882193 0.250000
Si Si7 0.394185 0.504322 0.238543
Si Si8 0.422297 0.000578 0.414982
O O1 0.500000 0.648775 0.750000
O O2 0.440656 0.570544 0.659946
O O3 0.821340 0.658618 0.284356
O O4 0.303992 0.698686 0.778401
O O5 0.061634 0.836515 0.286034
O O6 0.180526 0.760297 0.321814
O O7 0.079994 0.888656 0.432804
O O8 0.551544 0.857401 0.931151
O O9 0.417502 0.564267 0.476280
O O10 0.000000 0.603797 0.750000
O O11 0.004108 0.646624 0.928896
O O12 0.926157 0.524183 0.962371
O O13 0.677964 0.969741 0.742119
O O14 0.754944 0.955985 0.851252
O O15 0.746970 0.935008 0.470068
O O16 0.500000 0.501462 0.250000
O O17 0.500000 0.960289 0.250000
#
# Coordination Sequence:
#
# PCOD9230752 Si02
#       8
#     4   4   4   4   4   2   4   4
#     4  11  24  40  60  93 127 163 199 266 313 369
#     4  11  24  42  57  92 124 166 199 246 286 372
#     4  10  21  39  62  88 116 164 210 268 305 363
#     4  12  25  40  62  87 126 170 214 239 306 372
#     4  10  23  39  62  85 129 150 196 251 297 341
#     4  10  22  36  66  88 124 158 202 236 304 360
#     4   9  19  37  61  89 123 152 209 265 324 353
#     4  10  20  37  63  95 116 154 196 247 300 359
#
# _framework density 22.402134
#
# number of rings (size 3 to 8) (size 9 to 14) (size 15 to 20)
#    0.000    1.600    1.333    2.800    3.733    6.933 
#    0.000    1.333    0.000    0.000    0.000    0.000 
#    0.000    0.000    0.000    0.000    0.000    0.000 
#
# Total GULP energy -167534.261617 kJ/mol
# GULP energy per Si atom -5584.475387 kJ/mol
# Density = 2.235115 g / cm^3
# Si number density = 22.402134 Si / 1000 Ang^3
#
#
#
# Elastic Constant Matrix: (Units=GPa)
#
#
# Indices 1 2 3 4 5 6 
#
# 1 76.0632 -1.6525 21.8657 0.0000 30.7225 0.0000
# 2 -1.6525 74.5050 7.1020 0.0000 11.3773 0.0000
# 3 21.8657 7.1020 84.5364 0.0000 13.8607 0.0000
# 4 0.0000 0.0000 0.0000 37.4625 0.0000 9.5535
# 5 30.7225 11.3773 13.8607 0.0000 35.2435 0.0000
# 6 0.0000 0.0000 0.0000 9.5535 0.0000 16.6545
#
#
#
# Elastic Compliance Matrix: (Units=1/GPa)
#
#
# Indices 1 2 3 4 5 6 
#
# 1 0.021705 0.003650 -0.002806 0.000000 -0.018996 0.000000
# 2 0.003650 0.014749 -0.000941 0.000000 -0.007573 0.000000
# 3 -0.002806 -0.000941 0.013023 0.000000 -0.002372 0.000000
# 4 0.000000 0.000000 0.000000 0.031267 0.000000 -0.017936
# 5 -0.018996 -0.007573 -0.002372 0.000000 0.048310 0.000000
# 6 0.000000 0.000000 0.000000 -0.017936 0.000000 0.070332
#
#
# Mechanical properties :
#
#
# Convention : Reuss Voigt Hill
#
# Bulk Modulus (GPa) = 20.29166 32.19276 26.24221
# Shear Modulus (GPa) = 23.14704 31.72474 27.43589
#
# Velocity S-wave (km/s) = 3.21791 3.76726 3.50337
# Velocity P-wave (km/s) = 4.78374 5.77274 5.30136
#
# Compressibility (1/GPa) = 0.04928133
#
# Stress axis : x y z
#
# Youngs Moduli (GPa) = 46.07137 67.80132 76.78720
#
# Poissons Ratio (x) = -0.24745 0.21548
# Poissons Ratio (y) = -0.16815 0.07229
# Poissons Ratio (z) = 0.12929 0.06383
#
# Static dielectric constant tensor:
#      x y z
#    x 1.924290 0.000000 -0.002310 
#    y 0.000000 1.823490 0.000000 
#    z -0.002310 0.000000 1.864370 
# 
# From -- ./inp_files/53961.got.cif
#   From: 2010.05.17/outbox.cif.g08.bks.cpg/sg13_27_cif.got.tgz:53961.got - 2010.06.03 16:44:36.
