data_PCOD9230443
_publ_section_title
;
Structure prediction by ZEFSAII (Michael W. Deem and Ramdas Pophale) SiO2 
 PCOD9230443
Probable space group: P 2/C
;
_chemical_formula_sum "Si O2"
_cell_formula_units_Z 22
_cell_length_a 8.020521
_cell_length_b 14.349199
_cell_length_c 8.906942
_cell_angle_alpha 90.000000
_cell_angle_beta 79.425800
_cell_angle_gamma 90.000000
_cell_volume 1007.674734
_symmetry_space_group_name_H-M "P 2/C"
_symmetry_group_IT_number 13
_symmetry_cell_setting 'monoclinic'
loop_
_space_group_symop_operation_xyz
x,y,z
-x,y,1/2-z
-x,-y,-z
x,-y,1/2+z
loop_
_atom_site_type_symbol
_atom_site_label
_atom_site_fract_x
_atom_site_fract_y
_atom_site_fract_z
Si Si1 0.500000 0.302859 0.250000
Si Si2 0.305417 0.629484 0.270681
Si Si3 0.754431 0.447480 0.050820
Si Si4 0.971200 0.109247 0.024564
Si Si5 0.772101 0.798828 0.837162
Si Si6 0.000000 0.234807 0.750000
Si Si7 0.000000 0.624585 0.750000
O O1 0.629453 0.370841 0.145253
O O2 0.419421 0.230810 0.145369
O O3 0.500000 0.666670 0.250000
O O4 0.300104 0.551753 0.401605
O O5 0.150001 0.702292 0.296114
O O6 0.261809 0.573141 0.122683
O O7 0.926624 0.430297 0.119286
O O8 0.919235 0.167200 0.887690
O O9 0.159664 0.144135 0.036270
O O10 0.847022 0.145202 0.179182
O O11 0.000000 0.000000 0.000000
O O12 0.860530 0.697742 0.829022
#
# Coordination Sequence:
#
# PCOD9230443 Si02
#       7
#     2   4   4   4   4   2   2
#     4  10  20  36  64  84 126 162 210 258 314 362
#     4  12  27  42  60  97 135 178 228 263 321 373
#     4  11  23  40  60  89 130 178 218 266 306 372
#     4  10  21  42  67  90 119 158 208 262 336 404
#     4   9  19  36  62  90 115 160 206 255 317 393
#     4  12  25  41  70  96 130 170 208 281 325 380
#     4   8  17  35  60  84 112 156 224 253 297 372
#
# _framework density 21.832440999999999
#
# number of rings (size 3 to 8) (size 9 to 14) (size 15 to 20)
#    0.000    1.818    0.909    5.455    2.545    5.818 
#    0.000    0.909    4.000    0.000    0.000    0.000 
#    0.000    0.000    0.000    0.000    0.000    0.000 
#
# Total GULP energy -122750.598995 kJ/mol
# GULP energy per Si atom -5579.572682 kJ/mol
# Density = 2.178275 g / cm^3
# Si number density = 21.832441 Si / 1000 Ang^3
#
#
#
# Elastic Constant Matrix: (Units=GPa)
#
#
# Indices 1 2 3 4 5 6 
#
# 1 88.2218 39.5201 0.2942 0.0000 19.3434 0.0000
# 2 39.5201 135.7817 36.4966 0.0000 2.3975 0.0000
# 3 0.2942 36.4966 93.3527 0.0000 4.6097 0.0000
# 4 0.0000 0.0000 0.0000 9.8593 0.0000 -7.9128
# 5 19.3434 2.3975 4.6097 0.0000 21.1942 0.0000
# 6 0.0000 0.0000 0.0000 -7.9128 0.0000 7.2126
#
#
#
# Elastic Compliance Matrix: (Units=1/GPa)
#
#
# Indices 1 2 3 4 5 6 
#
# 1 0.017249 -0.005516 0.002880 0.000000 -0.015745 0.000000
# 2 -0.005516 0.009995 -0.004127 0.000000 0.004802 0.000000
# 3 0.002880 -0.004127 0.012558 0.000000 -0.004893 0.000000
# 4 0.000000 0.000000 0.000000 0.848647 0.000000 0.931031
# 5 -0.015745 0.004802 -0.004893 0.000000 0.062074 0.000000
# 6 0.000000 0.000000 0.000000 0.931031 0.000000 1.160057
#
#
# Mechanical properties :
#
#
# Convention : Reuss Voigt Hill
#
# Bulk Modulus (GPa) = 38.06034 52.21978 45.14006
# Shear Modulus (GPa) = 2.34426 23.72292 13.03359
#
# Velocity S-wave (km/s) = 1.03734 3.29992 2.44597
# Velocity P-wave (km/s) = 4.34805 6.20401 5.35702
#
# Compressibility (1/GPa) = 0.02627407
#
# Stress axis : x y z
#
# Youngs Moduli (GPa) = 57.97500 100.05075 79.62949
#
# Poissons Ratio (x) = 0.55192 -0.22931
# Poissons Ratio (y) = 0.31981 0.32865
# Poissons Ratio (z) = -0.16695 0.41294
#
# Static dielectric constant tensor:
#      x y z
#    x 1.817670 0.000000 0.122730 
#    y 0.000000 1.755780 0.000000 
#    z 0.122730 0.000000 1.763930 
# 
# From -- ./inp_files/12274.got.cif
#   From: 2010.05.17/outbox.cif.g08.bks.cpg/sg13_7_cif.got.tgz:12274.got - 2010.06.03 16:44:36.
