data_PCOD9230183
_publ_section_title
;
Structure prediction by ZEFSAII (Michael W. Deem and Ramdas Pophale) SiO2 
 PCOD9230183
Probable space group: P 2/C
;
_chemical_formula_sum "Si O2"
_cell_formula_units_Z 28
_cell_length_a 17.863446
_cell_length_b 6.656709
_cell_length_c 12.014564
_cell_angle_alpha 90.000000
_cell_angle_beta 63.882498
_cell_angle_gamma 90.000000
_cell_volume 1282.795670
_symmetry_space_group_name_H-M "P 2/C"
_symmetry_group_IT_number 13
_symmetry_cell_setting 'monoclinic'
loop_
_space_group_symop_operation_xyz
x,y,z
-x,y,1/2-z
-x,-y,-z
x,-y,1/2+z
loop_
_atom_site_type_symbol
_atom_site_label
_atom_site_fract_x
_atom_site_fract_y
_atom_site_fract_z
Si Si1 0.246339 0.062616 0.926354
Si Si2 0.500000 0.795177 0.750000
Si Si3 0.729699 0.330615 0.372051
Si Si4 0.652013 0.274507 0.015287
Si Si5 0.620419 0.997936 0.836648
Si Si6 0.000000 0.340177 0.750000
Si Si7 0.912467 0.717712 0.708124
Si Si8 0.936642 0.033930 0.422893
O O1 0.307657 0.101505 0.784556
O O2 0.257108 0.225151 0.016691
O O3 0.149729 0.050477 0.954618
O O4 0.281025 0.857423 0.959692
O O5 0.575634 0.668465 0.646762
O O6 0.543243 0.942597 0.810742
O O7 0.700460 0.551687 0.420532
O O8 0.658464 0.211042 0.354962
O O9 0.815139 0.305222 0.245891
O O10 0.608851 0.135140 0.950818
O O11 0.054738 0.493673 0.787653
O O12 0.047089 0.188815 0.635598
O O13 0.915638 0.839429 0.822917
O O14 0.979606 0.846679 0.591449
#
# Coordination Sequence:
#
# PCOD9230183 Si02
#       8
#     4   2   4   4   4   2   4   4
#     4   9  19  36  57  82 115 153 189 229 279 332
#     4  10  22  42  62  86 112 142 186 232 290 350
#     4  10  20  36  56  84 114 148 192 230 280 338
#     4  10  21  38  62  85 113 148 183 235 287 338
#     4  10  22  39  59  83 113 146 182 231 285 344
#     4   8  12  22  44  72 100 142 188 228 272 308
#     4   8  15  26  45  75 110 141 185 237 266 316
#     4   8  14  26  48  76 105 146 191 225 268 323
#
# _framework density 21.827327
#
# number of rings (size 3 to 8) (size 9 to 14) (size 15 to 20)
#    0.000    3.143    0.000    1.286    0.000    4.000 
#    0.000    7.857    0.000    1.714    0.000    0.000 
#    0.000    0.000    0.000    0.000    0.000    0.000 
#
# Total GULP energy -156184.340410 kJ/mol
# GULP energy per Si atom -5578.012158 kJ/mol
# Density = 2.177765 g / cm^3
# Si number density = 21.827327 Si / 1000 Ang^3
#
#
#
# Elastic Constant Matrix: (Units=GPa)
#
#
# Indices 1 2 3 4 5 6 
#
# 1 98.3312 36.9545 26.9532 0.0000 -12.3982 0.0000
# 2 36.9545 93.2740 17.4119 0.0000 -17.6131 0.0000
# 3 26.9532 17.4119 101.9307 0.0000 -27.6517 0.0000
# 4 0.0000 0.0000 0.0000 38.0784 0.0000 8.4410
# 5 -12.3982 -17.6131 -27.6517 0.0000 32.7567 0.0000
# 6 0.0000 0.0000 0.0000 8.4410 0.0000 2.0845
#
#
#
# Elastic Compliance Matrix: (Units=1/GPa)
#
#
# Indices 1 2 3 4 5 6 
#
# 1 0.012562 -0.004465 -0.002491 0.000000 0.000251 0.000000
# 2 -0.004465 0.013531 0.000499 0.000000 0.006007 0.000000
# 3 -0.002491 0.000499 0.013231 0.000000 0.010494 0.000000
# 4 0.000000 0.000000 0.000000 0.256568 0.000000 -1.038937
# 5 0.000251 0.006007 0.010494 0.000000 0.042712 0.000000
# 6 0.000000 0.000000 0.000000 -1.038937 0.000000 4.686766
#
#
# Mechanical properties :
#
#
# Convention : Reuss Voigt Hill
#
# Bulk Modulus (GPa) = 37.86372 50.68614 44.27493
# Shear Modulus (GPa) = 0.99067 28.73169 14.86118
#
# Velocity S-wave (km/s) = 0.67443 3.63204 2.61214
# Velocity P-wave (km/s) = 4.24159 6.39225 5.42457
#
# Compressibility (1/GPa) = 0.02641050
#
# Stress axis : x y z
#
# Youngs Moduli (GPa) = 79.60503 73.90388 75.58033
#
# Poissons Ratio (x) = 0.32995 0.18826
# Poissons Ratio (y) = 0.35540 -0.03769
# Poissons Ratio (z) = 0.19829 -0.03685
#
# Static dielectric constant tensor:
#      x y z
#    x 1.832710 0.000000 -0.010600 
#    y 0.000000 1.754290 0.000000 
#    z -0.010600 0.000000 1.859050 
# 
# From -- ./inp_files/56536.got.cif
#   From: 2010.05.17/outbox.cif.g08.bks.cpg/sg13_29_cif.got.tgz:56536.got - 2010.06.03 16:44:36.
