data_PCOD9230355
_publ_section_title
;
Structure prediction by ZEFSAII (Michael W. Deem and Ramdas Pophale) SiO2 
 PCOD9230355
Probable space group: P 2/C
;
_chemical_formula_sum "Si O2"
_cell_formula_units_Z 26
_cell_length_a 19.337400
_cell_length_b 4.920691
_cell_length_c 21.165537
_cell_angle_alpha 90.000000
_cell_angle_beta 34.521752
_cell_angle_gamma 90.000000
_cell_volume 1141.356440
_symmetry_space_group_name_H-M "P 2/C"
_symmetry_group_IT_number 13
_symmetry_cell_setting 'monoclinic'
loop_
_space_group_symop_operation_xyz
x,y,z
-x,y,1/2-z
-x,-y,-z
x,-y,1/2+z
loop_
_atom_site_type_symbol
_atom_site_label
_atom_site_fract_x
_atom_site_fract_y
_atom_site_fract_z
Si Si1 0.382113 0.485647 0.764285
Si Si2 0.240496 0.008641 0.837197
Si Si3 0.877090 0.921148 0.446297
Si Si4 0.774451 0.352351 0.354546
Si Si5 0.000000 0.698324 0.750000
Si Si6 0.144556 0.815105 0.277437
Si Si7 0.652456 0.551167 0.567462
O O1 0.358585 0.205383 0.746134
O O2 0.512371 0.635754 0.660522
O O3 0.362537 0.410953 0.852989
O O4 0.282072 0.699326 0.815587
O O5 0.163587 0.067344 0.833028
O O6 0.167433 0.070118 0.956685
O O7 0.928047 0.124174 0.355181
O O8 0.762387 0.760992 0.501311
O O9 0.999470 0.763712 0.377058
O O10 0.897342 0.472364 0.293871
O O11 0.767026 0.556611 0.301409
O O12 0.682846 0.378850 0.481734
O O13 0.806212 0.052047 0.307002
#
# Coordination Sequence:
#
# PCOD9230355 Si02
#       7
#     4   4   4   4   2   4   4
#     4  10  24  40  66  88 120 159 207 257 293 357
#     4  11  23  43  60  89 124 166 204 242 296 361
#     4  10  21  39  67  93 124 157 195 258 307 361
#     4  11  22  38  61  89 125 159 197 254 301 359
#     4  10  20  36  60  98 124 152 198 250 318 362
#     4  11  24  40  61  91 126 163 201 240 300 372
#     4  10  21  41  64  94 119 156 205 255 313 345
#
# _framework density 22.779913000000001
#
# number of rings (size 3 to 8) (size 9 to 14) (size 15 to 20)
#    0.000    1.538    0.000    5.077    0.000   12.923 
#    0.000   12.308    0.000    0.000    0.000    0.000 
#    0.000    0.000    0.000    0.000    0.000    0.000 
#
# Total GULP energy -144903.999591 kJ/mol
# GULP energy per Si atom -5573.230753 kJ/mol
# Density = 2.272807 g / cm^3
# Si number density = 22.779913 Si / 1000 Ang^3
#
#
#
# Elastic Constant Matrix: (Units=GPa)
#
#
# Indices 1 2 3 4 5 6 
#
# 1 65.4751 -4.6786 43.4989 0.0000 9.1280 0.0000
# 2 -4.6786 49.6778 13.2692 0.0000 1.8138 0.0000
# 3 43.4989 13.2692 123.7730 0.0000 6.1606 0.0000
# 4 0.0000 0.0000 0.0000 12.2968 0.0000 -1.8404
# 5 9.1280 1.8138 6.1606 0.0000 23.7898 0.0000
# 6 0.0000 0.0000 0.0000 -1.8404 0.0000 23.5126
#
#
#
# Elastic Compliance Matrix: (Units=1/GPa)
#
#
# Indices 1 2 3 4 5 6 
#
# 1 0.021656 0.004351 -0.007747 0.000000 -0.006635 0.000000
# 2 0.004351 0.021622 -0.003730 0.000000 -0.002352 0.000000
# 3 -0.007747 -0.003730 0.011184 0.000000 0.000361 0.000000
# 4 0.000000 0.000000 0.000000 0.082286 0.000000 0.006441
# 5 -0.006635 -0.002352 0.000361 0.000000 0.044666 0.000000
# 6 0.000000 0.000000 0.000000 0.006441 0.000000 0.043034
#
#
# Mechanical properties :
#
#
# Convention : Reuss Voigt Hill
#
# Bulk Modulus (GPa) = 24.86996 38.12277 31.49637
# Shear Modulus (GPa) = 19.83320 24.37561 22.10440
#
# Velocity S-wave (km/s) = 2.95387 3.27471 3.11842
# Velocity P-wave (km/s) = 4.75131 5.57404 5.17904
#
# Compressibility (1/GPa) = 0.04020916
#
# Stress axis : x y z
#
# Youngs Moduli (GPa) = 46.17759 46.24989 89.41508
#
# Poissons Ratio (x) = -0.20123 0.69269
# Poissons Ratio (y) = -0.20092 0.33352
# Poissons Ratio (z) = 0.35773 0.17251
#
# Static dielectric constant tensor:
#      x y z
#    x 1.896520 0.000000 0.000650 
#    y 0.000000 1.881500 0.000000 
#    z 0.000650 0.000000 1.883940 
# 
# From -- ./inp_files/81353.got.cif
#   From: 2010.05.17/outbox.cif.g08.bks.cpg/sg13_41_cif.got.tgz:81353.got - 2010.06.03 16:44:36.
