data_PCOD9230877
_publ_section_title
;
Structure prediction by ZEFSAII (Michael W. Deem and Ramdas Pophale) SiO2 
 PCOD9230877
Probable space group: P 2/C
;
_chemical_formula_sum "Si O2"
_cell_formula_units_Z 30
_cell_length_a 25.096429
_cell_length_b 12.939121
_cell_length_c 13.561517
_cell_angle_alpha 90.000000
_cell_angle_beta 159.985838
_cell_angle_gamma 90.000000
_cell_volume 1507.202059
_symmetry_space_group_name_H-M "P 2/C"
_symmetry_group_IT_number 13
_symmetry_cell_setting 'monoclinic'
loop_
_space_group_symop_operation_xyz
x,y,z
-x,y,1/2-z
-x,-y,-z
x,-y,1/2+z
loop_
_atom_site_type_symbol
_atom_site_label
_atom_site_fract_x
_atom_site_fract_y
_atom_site_fract_z
Si Si1 0.500000 0.972381 0.750000
Si Si2 0.974990 0.711808 0.594093
Si Si3 0.657230 0.383535 0.460901
Si Si4 0.844295 0.432111 0.221469
Si Si5 0.242447 0.241264 0.305890
Si Si6 0.637097 0.167244 0.326194
Si Si7 0.973360 0.883640 0.419805
Si Si8 0.472408 0.160781 0.567504
O O1 0.390288 0.897806 0.621996
O O2 0.434209 0.051842 0.554252
O O3 0.000000 0.742221 0.750000
O O4 0.118147 0.638660 0.807747
O O5 0.974909 0.807544 0.517923
O O6 0.810060 0.651490 0.290785
O O7 0.500000 0.397029 0.250000
O O8 0.703945 0.487165 0.483680
O O9 0.633936 0.287114 0.347713
O O10 0.822031 0.351997 0.272973
O O11 0.000000 0.500000 0.500000
O O12 0.105134 0.158747 0.076330
O O13 0.334109 0.236713 0.362466
O O14 0.371218 0.205150 0.611040
O O15 0.516153 0.147613 0.028611
O O16 0.804640 0.131641 0.579193
O O17 0.000000 0.000000 0.500000
#
# Coordination Sequence:
#
# PCOD9230877 Si02
#       8
#     2   4   4   4   4   4   4   4
#     4  10  20  40  60  84 122 162 196 238 300 366
#     4   9  20  40  59  85 119 160 200 240 298 365
#     4  10  21  37  60  87 120 149 194 254 301 346
#     4   9  19  39  62  81 121 160 191 245 308 351
#     4   9  20  40  60  85 120 155 206 244 290 371
#     4  11  22  40  58  89 125 153 197 254 301 353
#     4  10  20  38  59  85 121 155 198 250 296 356
#     4  10  22  38  62  88 116 163 200 241 305 356
#
# _framework density 19.904433000000001
#
# number of rings (size 3 to 8) (size 9 to 14) (size 15 to 20)
#    0.000    2.400    0.667    2.800    1.867    2.667 
#   12.000    1.333    0.000    0.000    0.000    0.000 
#    0.000    0.000    0.000    0.000    0.000    0.000 
#
# Total GULP energy -167225.505180 kJ/mol
# GULP energy per Si atom -5574.183506 kJ/mol
# Density = 1.985913 g / cm^3
# Si number density = 19.904433 Si / 1000 Ang^3
#
#
#
# Elastic Constant Matrix: (Units=GPa)
#
#
# Indices 1 2 3 4 5 6 
#
# 1 35.3062 9.6594 21.1142 0.0000 6.8989 0.0000
# 2 9.6594 113.0424 9.7516 0.0000 15.3498 0.0000
# 3 21.1142 9.7516 54.7117 0.0000 20.6416 0.0000
# 4 0.0000 0.0000 0.0000 17.0294 0.0000 2.4262
# 5 6.8989 15.3498 20.6416 0.0000 44.4023 0.0000
# 6 0.0000 0.0000 0.0000 2.4262 0.0000 -14.8185
#
#
#
# Elastic Compliance Matrix: (Units=1/GPa)
#
#
# Indices 1 2 3 4 5 6 
#
# 1 0.037362 -0.002166 -0.014704 0.000000 0.001779 0.000000
# 2 -0.002166 0.009421 0.000313 0.000000 -0.003066 0.000000
# 3 -0.014704 0.000313 0.027983 0.000000 -0.010832 0.000000
# 4 0.000000 0.000000 0.000000 0.057383 0.000000 0.009395
# 5 0.001779 -0.003066 -0.010832 0.000000 0.028341 0.000000
# 6 0.000000 0.000000 0.000000 0.009395 0.000000 -0.065945
#
#
# Mechanical properties :
#
#
# Convention : Reuss Voigt Hill
#
# Bulk Modulus (GPa) = 24.00772 31.56786 27.78779
# Shear Modulus (GPa) = 35.32539 20.15831 27.74185
#
# Velocity S-wave (km/s) = 4.21735 3.18583 3.73735
# Velocity P-wave (km/s) = 5.98351 5.42465 5.71092
#
# Compressibility (1/GPa) = 0.04165326
#
# Stress axis : x y z
#
# Youngs Moduli (GPa) = 26.76531 106.15073 35.73588
#
# Poissons Ratio (x) = 0.22989 0.52545
# Poissons Ratio (y) = 0.05797 -0.01120
# Poissons Ratio (z) = 0.39355 -0.03327
#
# Static dielectric constant tensor:
#      x y z
#    x 1.718800 0.000000 0.007980 
#    y 0.000000 1.717930 0.000000 
#    z 0.007980 0.000000 1.753210 
# 
# From -- ./inp_files/59643.got.cif
#   From: 2010.05.17/outbox.cif.g08.bks.cpg/sg13_30_cif.got.tgz:59643.got - 2010.06.03 16:44:36.
