data_PCOD9230663
_publ_section_title
;
Structure prediction by ZEFSAII (Michael W. Deem and Ramdas Pophale) SiO2 
 PCOD9230663
Probable space group: P 2/C
;
_chemical_formula_sum "Si O2"
_cell_formula_units_Z 28
_cell_length_a 12.685293
_cell_length_b 8.212624
_cell_length_c 16.982813
_cell_angle_alpha 90.000000
_cell_angle_beta 125.046673
_cell_angle_gamma 90.000000
_cell_volume 1448.467179
_symmetry_space_group_name_H-M "P 2/C"
_symmetry_group_IT_number 13
_symmetry_cell_setting 'monoclinic'
loop_
_space_group_symop_operation_xyz
x,y,z
-x,y,1/2-z
-x,-y,-z
x,-y,1/2+z
loop_
_atom_site_type_symbol
_atom_site_label
_atom_site_fract_x
_atom_site_fract_y
_atom_site_fract_z
Si Si1 0.807835 0.331977 0.732198
Si Si2 0.142474 0.001192 0.823610
Si Si3 0.282392 0.803825 0.746010
Si Si4 0.349998 0.858053 0.201162
Si Si5 0.039560 0.575842 0.601033
Si Si6 0.624751 0.405077 0.082472
Si Si7 0.782935 0.218864 0.019171
O O1 0.852563 0.188435 0.695310
O O2 0.710198 0.247321 0.753090
O O3 0.921167 0.425267 0.826334
O O4 0.733723 0.464791 0.650011
O O5 0.000000 0.937850 0.750000
O O6 0.222307 0.903270 0.793177
O O7 0.187460 0.955918 0.929484
O O8 0.168614 0.691933 0.659050
O O9 0.386204 0.693925 0.838875
O O10 0.332523 0.948222 0.711445
O O11 0.500000 0.824730 0.250000
O O12 0.270772 0.804393 0.090574
O O13 0.000000 0.500000 0.500000
O O14 0.915139 0.677650 0.575844
O O15 0.678443 0.298920 0.032864
O O16 0.500000 0.500000 0.000000
#
# Coordination Sequence:
#
# PCOD9230663 Si02
#       7
#     4   4   4   4   4   4   4
#     4  10  23  38  63  91 121 160 200 259 308 363
#     4  10  20  37  61  89 119 155 196 244 307 364
#     4   9  22  40  62  86 123 161 194 259 306 357
#     4  11  23  43  61  87 123 167 211 247 304 369
#     4  11  21  40  61  94 125 149 205 257 319 359
#     4  10  22  42  62  89 125 160 205 249 305 363
#     4  11  23  39  65  90 122 168 201 259 302 374
#
# _framework density 19.330781000000002
#
# number of rings (size 3 to 8) (size 9 to 14) (size 15 to 20)
#    0.000    1.714    2.857    0.857    2.000    2.857 
#    2.571    5.714    0.000    0.000    0.000    0.000 
#    0.000    0.000    0.000    0.000    0.000    0.000 
#
# Total GULP energy -156132.526540 kJ/mol
# GULP energy per Si atom -5576.161662 kJ/mol
# Density = 1.928678 g / cm^3
# Si number density = 19.330781 Si / 1000 Ang^3
#
#
#
# Elastic Constant Matrix: (Units=GPa)
#
#
# Indices 1 2 3 4 5 6 
#
# 1 61.0370 12.1043 14.3410 0.0000 6.4763 0.0000
# 2 12.1043 87.3148 24.9637 0.0000 -0.0196 0.0000
# 3 14.3410 24.9637 69.5605 0.0000 9.8687 0.0000
# 4 0.0000 0.0000 0.0000 30.5539 0.0000 -2.6374
# 5 6.4763 -0.0196 9.8687 0.0000 25.9970 0.0000
# 6 0.0000 0.0000 0.0000 -2.6374 0.0000 10.2393
#
#
#
# Elastic Compliance Matrix: (Units=1/GPa)
#
#
# Indices 1 2 3 4 5 6 
#
# 1 0.017688 -0.001727 -0.002538 0.000000 -0.003444 0.000000
# 2 -0.001727 0.013015 -0.004626 0.000000 0.002196 0.000000
# 3 -0.002538 -0.004626 0.017408 0.000000 -0.005979 0.000000
# 4 0.000000 0.000000 0.000000 0.033473 0.000000 0.008622
# 5 -0.003444 0.002196 -0.005979 0.000000 0.041595 0.000000
# 6 0.000000 0.000000 0.000000 0.008622 0.000000 0.099884
#
#
# Mechanical properties :
#
#
# Convention : Reuss Voigt Hill
#
# Bulk Modulus (GPa) = 32.97325 35.63671 34.30498
# Shear Modulus (GPa) = 19.92379 24.45827 22.19103
#
# Velocity S-wave (km/s) = 3.21390 3.56089 3.39184
# Velocity P-wave (km/s) = 5.55577 5.94827 5.75537
#
# Compressibility (1/GPa) = 0.03032761
#
# Stress axis : x y z
#
# Youngs Moduli (GPa) = 56.53609 76.83173 57.44520
#
# Poissons Ratio (x) = 0.13270 0.14581
# Poissons Ratio (y) = 0.09765 0.26577
# Poissons Ratio (z) = 0.14350 0.35546
#
# Static dielectric constant tensor:
#      x y z
#    x 1.328810 0.000000 -0.012980 
#    y 0.000000 1.707230 0.000000 
#    z -0.012980 0.000000 1.675540 
# 
# From -- ./inp_files/50448.got.cif
#   From: 2010.05.17/outbox.cif.g08.bks.cpg/sg13_26_cif.got.tgz:50448.got - 2010.06.03 16:44:36.
