data_PCOD9230578
_publ_section_title
;
Structure prediction by ZEFSAII (Michael W. Deem and Ramdas Pophale) SiO2 
 PCOD9230578
Probable space group: P 2/C
;
_chemical_formula_sum "Si O2"
_cell_formula_units_Z 28
_cell_length_a 21.663829
_cell_length_b 12.003636
_cell_length_c 11.739129
_cell_angle_alpha 90.000000
_cell_angle_beta 150.294354
_cell_angle_gamma 90.000000
_cell_volume 1512.747219
_symmetry_space_group_name_H-M "P 2/C"
_symmetry_group_IT_number 13
_symmetry_cell_setting 'monoclinic'
loop_
_space_group_symop_operation_xyz
x,y,z
-x,y,1/2-z
-x,-y,-z
x,-y,1/2+z
loop_
_atom_site_type_symbol
_atom_site_label
_atom_site_fract_x
_atom_site_fract_y
_atom_site_fract_z
Si Si1 0.308731 0.416000 0.812690
Si Si2 0.789221 0.702154 0.561408
Si Si3 0.630956 0.661439 0.524676
Si Si4 0.380954 0.844425 0.802738
Si Si5 0.025504 0.560219 0.918984
Si Si6 0.634676 0.201047 0.471514
Si Si7 0.323569 0.901788 0.241018
O O1 0.291079 0.373955 0.655491
O O2 0.170982 0.413164 0.646938
O O3 0.362753 0.538818 0.910310
O O4 0.382538 0.321822 0.999581
O O5 0.740597 0.674198 0.608353
O O6 0.931166 0.664871 0.770476
O O7 0.757767 0.828418 0.475761
O O8 0.500000 0.675075 0.250000
O O9 0.644643 0.757364 0.639383
O O10 0.328282 0.796058 0.599647
O O11 0.322976 0.966557 0.725843
O O12 0.531736 0.862352 0.042205
O O13 0.000000 0.506265 0.750000
O O14 0.000000 0.500000 0.000000
O O15 0.500000 0.141446 0.250000
O O16 0.714168 0.133836 0.691138
#
# Coordination Sequence:
#
# PCOD9230578 Si02
#       7
#     4   4   4   4   4   4   4
#     4  10  22  37  56  80 116 153 184 234 288 351
#     4  10  21  38  56  82 113 152 195 235 286 344
#     4  12  23  32  54  87 120 149 188 234 289 344
#     4  10  21  32  57  81 112 150 190 233 285 339
#     4  10  20  37  59  83 108 152 193 237 284 341
#     4   9  19  35  52  78 109 146 182 225 289 346
#     4   9  19  37  54  79 112 149 194 237 277 343
#
# _framework density 18.509371999999999
#
# number of rings (size 3 to 8) (size 9 to 14) (size 15 to 20)
#    0.000    2.000    2.857    0.429    4.000    1.143 
#    0.000    0.000    0.000    0.857    7.429    0.000 
#    0.000    0.000    0.000    0.000    0.000    0.000 
#
# Total GULP energy -156002.792035 kJ/mol
# GULP energy per Si atom -5571.528287 kJ/mol
# Density = 1.846724 g / cm^3
# Si number density = 18.509372 Si / 1000 Ang^3
#
#
#
# Elastic Constant Matrix: (Units=GPa)
#
#
# Indices 1 2 3 4 5 6 
#
# 1 102.1004 35.9402 2.8404 0.0000 -23.9725 0.0000
# 2 35.9402 124.6178 9.2527 0.0000 -23.0596 0.0000
# 3 2.8404 9.2527 28.6661 0.0000 -6.7980 0.0000
# 4 0.0000 0.0000 0.0000 20.8128 0.0000 0.6442
# 5 -23.9725 -23.0596 -6.7980 0.0000 23.9971 0.0000
# 6 0.0000 0.0000 0.0000 0.6442 0.0000 11.5008
#
#
#
# Elastic Compliance Matrix: (Units=1/GPa)
#
#
# Indices 1 2 3 4 5 6 
#
# 1 0.013186 -0.001717 0.002123 0.000000 0.012124 0.000000
# 2 -0.001717 0.010010 -0.001272 0.000000 0.007543 0.000000
# 3 0.002123 -0.001272 0.037840 0.000000 0.011618 0.000000
# 4 0.000000 0.000000 0.000000 0.048131 0.000000 -0.002696
# 5 0.012124 0.007543 0.011618 0.000000 0.064323 0.000000
# 6 0.000000 0.000000 0.000000 -0.002696 0.000000 0.087101
#
#
# Mechanical properties :
#
#
# Convention : Reuss Voigt Hill
#
# Bulk Modulus (GPa) = 16.86241 39.05010 27.95626
# Shear Modulus (GPa) = 17.72474 25.08555 21.40515
#
# Velocity S-wave (km/s) = 3.09788 3.68542 3.40435
# Velocity P-wave (km/s) = 4.68250 6.26522 5.53077
#
# Compressibility (1/GPa) = 0.05930351
#
# Stress axis : x y z
#
# Youngs Moduli (GPa) = 75.83609 99.89987 26.42725
#
# Poissons Ratio (x) = 0.17154 -0.05610
# Poissons Ratio (y) = 0.13022 0.03362
# Poissons Ratio (z) = -0.16099 0.12707
#
# Static dielectric constant tensor:
#      x y z
#    x 1.682540 0.000000 -0.016240 
#    y 0.000000 1.627740 0.000000 
#    z -0.016240 0.000000 1.669220 
# 
# From -- ./inp_files/40816.got.cif
#   From: 2010.05.17/outbox.cif.g08.bks.cpg/sg13_21_cif.got.tgz:40816.got - 2010.06.03 16:44:36.
