data_PCOD9230142
_publ_section_title
;
Structure prediction by ZEFSAII (Michael W. Deem and Ramdas Pophale) SiO2 
 PCOD9230142
Probable space group: P 2/C
;
_chemical_formula_sum "Si O2"
_cell_formula_units_Z 22
_cell_length_a 4.977787
_cell_length_b 5.736354
_cell_length_c 28.397457
_cell_angle_alpha 90.000000
_cell_angle_beta 85.488615
_cell_angle_gamma 90.000000
_cell_volume 808.358578
_symmetry_space_group_name_H-M "P 2/C"
_symmetry_group_IT_number 13
_symmetry_cell_setting 'monoclinic'
loop_
_space_group_symop_operation_xyz
x,y,z
-x,y,1/2-z
-x,-y,-z
x,-y,1/2+z
loop_
_atom_site_type_symbol
_atom_site_label
_atom_site_fract_x
_atom_site_fract_y
_atom_site_fract_z
Si Si1 0.651040 0.521435 0.612004
Si Si2 0.000000 0.872618 0.250000
Si Si3 0.687200 0.695206 0.021857
Si Si4 0.380786 0.238727 0.297107
Si Si5 0.719109 0.084226 0.431852
Si Si6 0.253535 0.135341 0.657689
O O1 0.823484 0.419785 0.566014
O O2 0.768279 0.629288 0.658340
O O3 0.457691 0.713548 0.590379
O O4 0.473522 0.311272 0.634852
O O5 0.881502 0.736888 0.296045
O O6 0.800485 0.042086 0.224348
O O7 0.488512 0.892530 0.045210
O O8 0.500000 0.500000 0.000000
O O9 0.855041 0.808007 0.976658
O O10 0.500000 0.375601 0.250000
O O11 0.614392 0.091004 0.319682
O O12 0.890065 0.964826 0.387466
#
# Coordination Sequence:
#
# PCOD9230142 Si02
#       6
#     4   2   4   4   4   4
#     4   9  16  29  49  73 102 134 170 215 262 311
#     4  10  20  36  54  72 102 142 180 222 270 318
#     4   8  13  23  46  78 104 132 169 208 256 313
#     4   9  19  34  50  71 100 135 176 221 266 315
#     4   8  14  26  46  75 105 132 169 211 256 312
#     4   9  18  33  50  72 102 135 174 217 260 312
#
# _framework density 27.215644999999999
#
# number of rings (size 3 to 8) (size 9 to 14) (size 15 to 20)
#    0.000    3.273    0.000    0.000    0.000    2.182 
#    0.000   14.545    0.000    1.091    0.000  114.545 
#    0.000    0.000    0.000    0.000    0.000    0.364 
#
# Total GULP energy -122754.212791 kJ/mol
# GULP energy per Si atom -5579.736945 kJ/mol
# Density = 2.715370 g / cm^3
# Si number density = 27.215645 Si / 1000 Ang^3
#
#
#
# Elastic Constant Matrix: (Units=GPa)
#
#
# Indices 1 2 3 4 5 6 
#
# 1 36.6362 16.8426 46.3699 0.0000 0.6127 0.0000
# 2 16.8426 78.4280 94.0639 0.0000 -1.1532 0.0000
# 3 46.3699 94.0639 271.7217 0.0000 -8.9266 0.0000
# 4 0.0000 0.0000 0.0000 171.7890 0.0000 -221.4468
# 5 0.6127 -1.1532 -8.9266 0.0000 15.4789 0.0000
# 6 0.0000 0.0000 0.0000 -221.4468 0.0000 573.8595
#
#
#
# Elastic Compliance Matrix: (Units=1/GPa)
#
#
# Indices 1 2 3 4 5 6 
#
# 1 0.035191 -0.000400 -0.006028 0.000000 -0.004899 0.000000
# 2 -0.000400 0.021926 -0.007612 0.000000 -0.002740 0.000000
# 3 -0.006028 -0.007612 0.007475 0.000000 0.003982 0.000000
# 4 0.000000 0.000000 0.000000 0.011583 0.000000 0.004470
# 5 -0.004899 -0.002740 0.003982 0.000000 0.066891 0.000000
# 6 0.000000 0.000000 0.000000 0.004470 0.000000 0.003467
#
#
# Mechanical properties :
#
#
# Convention : Reuss Voigt Hill
#
# Bulk Modulus (GPa) = 27.38822 77.92651 52.65737
# Shear Modulus (GPa) = 26.76924 167.52609 97.14766
#
# Velocity S-wave (km/s) = 3.13964 7.85422 5.98105
# Velocity P-wave (km/s) = 4.81958 10.53313 8.19070
#
# Compressibility (1/GPa) = 0.03651205
#
# Stress axis : x y z
#
# Youngs Moduli (GPa) = 28.41671 45.60863 133.78175
#
# Poissons Ratio (x) = 0.01822 0.80643
# Poissons Ratio (y) = 0.01135 1.01835
# Poissons Ratio (z) = 0.17130 0.34717
#
# Static dielectric constant tensor:
#      x y z
#    x 2.332630 0.000000 -0.076840 
#    y 0.000000 2.153090 0.000000 
#    z -0.076840 0.000000 2.289540 
# 
# From -- ./inp_files/94619.got.cif
#   From: 2010.05.17/outbox.cif.g08.bks.cpg/sg13_48_cif.got.tgz:94619.got - 2010.06.03 16:44:36.
