data_PCOD9230574
_publ_section_title
;
Structure prediction by ZEFSAII (Michael W. Deem and Ramdas Pophale) SiO2 
 PCOD9230574
Probable space group: P 2/C
;
_chemical_formula_sum "Si O2"
_cell_formula_units_Z 28
_cell_length_a 7.762304
_cell_length_b 18.331944
_cell_length_c 17.723328
_cell_angle_alpha 90.000000
_cell_angle_beta 35.788315
_cell_angle_gamma 90.000000
_cell_volume 1474.843895
_symmetry_space_group_name_H-M "P 2/C"
_symmetry_group_IT_number 13
_symmetry_cell_setting 'monoclinic'
loop_
_space_group_symop_operation_xyz
x,y,z
-x,y,1/2-z
-x,-y,-z
x,-y,1/2+z
loop_
_atom_site_type_symbol
_atom_site_label
_atom_site_fract_x
_atom_site_fract_y
_atom_site_fract_z
Si Si1 0.257445 0.936595 0.775719
Si Si2 0.482174 0.676940 0.594908
Si Si3 0.081715 0.315122 0.096768
Si Si4 0.611282 0.838692 0.534626
Si Si5 0.787409 0.566791 0.595839
Si Si6 0.716572 0.842756 0.010951
Si Si7 0.153678 0.098113 0.773117
O O1 0.500000 0.957959 0.750000
O O2 0.402701 0.876136 0.670154
O O3 0.978329 0.900724 0.915144
O O4 0.180331 0.011065 0.761091
O O5 0.345715 0.663500 0.560356
O O6 0.658163 0.752833 0.530737
O O7 0.658638 0.610217 0.568996
O O8 0.204701 0.694103 0.748166
O O9 0.161000 0.239210 0.028327
O O10 0.986795 0.376432 0.071941
O O11 0.437089 0.846962 0.517341
O O12 0.924391 0.878740 0.418622
O O13 0.500000 0.547585 0.750000
O O14 0.000000 0.500000 0.500000
O O15 0.472075 0.864615 0.158814
O O16 0.000000 0.123191 0.750000
#
# Coordination Sequence:
#
# PCOD9230574 Si02
#       7
#     4   4   4   4   4   4   4
#     4  12  24  34  54  80 112 151 198 240 285 342
#     4   9  18  35  62  89 113 151 195 232 275 337
#     4   9  18  35  62  89 113 151 195 232 275 337
#     4  10  20  37  59  81 108 148 197 240 285 338
#     4  10  22  40  62  88 121 149 184 226 281 343
#     4  10  20  37  59  81 108 148 197 240 285 338
#     4  10  22  38  54  78 114 151 188 244 299 336
#
# _framework density 18.985060000000001
#
# number of rings (size 3 to 8) (size 9 to 14) (size 15 to 20)
#    0.000    2.000    1.429    2.143    2.000    5.143 
#    2.571    0.000    0.000    0.000    0.000    0.000 
#    0.000    0.000    0.000    0.000    0.000    0.000 
#
# Total GULP energy -156293.660027 kJ/mol
# GULP energy per Si atom -5581.916430 kJ/mol
# Density = 1.894185 g / cm^3
# Si number density = 18.985060 Si / 1000 Ang^3
#
#
#
# Elastic Constant Matrix: (Units=GPa)
#
#
# Indices 1 2 3 4 5 6 
#
# 1 53.5631 29.0610 19.8984 0.0000 -11.1026 0.0000
# 2 29.0610 87.7209 43.8691 0.0000 -19.7576 0.0000
# 3 19.8984 43.8691 88.0491 0.0000 -26.8257 0.0000
# 4 0.0000 0.0000 0.0000 33.8929 0.0000 -7.7139
# 5 -11.1026 -19.7576 -26.8257 0.0000 15.4828 0.0000
# 6 0.0000 0.0000 0.0000 -7.7139 0.0000 21.5218
#
#
#
# Elastic Compliance Matrix: (Units=1/GPa)
#
#
# Indices 1 2 3 4 5 6 
#
# 1 0.023817 -0.005824 0.000971 0.000000 0.011329 0.000000
# 2 -0.005824 0.018015 -0.004084 0.000000 0.011737 0.000000
# 3 0.000971 -0.004084 0.024987 0.000000 0.038777 0.000000
# 4 0.000000 0.000000 0.000000 0.032125 0.000000 0.011515
# 5 0.011329 0.011737 0.038777 0.000000 0.154876 0.000000
# 6 0.000000 0.000000 0.000000 0.011515 0.000000 0.050592
#
#
# Mechanical properties :
#
#
# Convention : Reuss Voigt Hill
#
# Bulk Modulus (GPa) = 20.43100 46.11001 33.27050
# Shear Modulus (GPa) = 14.76666 23.27981 19.02324
#
# Velocity S-wave (km/s) = 2.79194 3.50554 3.16889
# Velocity P-wave (km/s) = 4.60198 6.38164 5.56343
#
# Compressibility (1/GPa) = 0.04894524
#
# Stress axis : x y z
#
# Youngs Moduli (GPa) = 41.98656 55.50896 40.02132
#
# Poissons Ratio (x) = 0.32330 -0.03886
# Poissons Ratio (y) = 0.24454 0.16343
# Poissons Ratio (z) = -0.04077 0.22667
#
# Static dielectric constant tensor:
#      x y z
#    x 1.694260 0.000000 -0.002720 
#    y 0.000000 1.632660 0.000000 
#    z -0.002720 0.000000 1.660970 
# 
# From -- ./inp_files/76716.got.cif
#   From: 2010.05.17/outbox.cif.g08.bks.cpg/sg13_39_cif.got.tgz:76716.got - 2010.06.03 16:44:36.
