data_PCOD9230938
_publ_section_title
;
Structure prediction by ZEFSAII (Michael W. Deem and Ramdas Pophale) SiO2 
 PCOD9230938
Probable space group: P 2/C
;
_chemical_formula_sum "Si O2"
_cell_formula_units_Z 16
_cell_length_a 12.180846
_cell_length_b 11.092617
_cell_length_c 14.750249
_cell_angle_alpha 90.000000
_cell_angle_beta 161.153306
_cell_angle_gamma 90.000000
_cell_volume 643.818111
_symmetry_space_group_name_H-M "P 2/C"
_symmetry_group_IT_number 13
_symmetry_cell_setting 'monoclinic'
loop_
_space_group_symop_operation_xyz
x,y,z
-x,y,1/2-z
-x,-y,-z
x,-y,1/2+z
loop_
_atom_site_type_symbol
_atom_site_label
_atom_site_fract_x
_atom_site_fract_y
_atom_site_fract_z
Si Si1 0.123488 0.286422 0.442866
Si Si2 0.908179 0.467397 0.826990
Si Si3 0.789715 0.777854 0.873460
Si Si4 0.779269 0.071000 0.657498
O O1 0.000000 0.243847 0.250000
O O2 0.102980 0.432390 0.421928
O O3 0.932312 0.248432 0.384279
O O4 0.500000 0.243876 0.750000
O O5 0.500000 0.500000 0.500000
O O6 0.000000 0.500000 0.000000
O O7 0.083572 0.334981 0.963285
O O8 0.413061 0.822000 0.550537
O O9 0.965004 0.885281 0.064491
O O10 0.000000 0.009717 0.750000
O O11 0.500000 0.000000 0.500000
#
# Coordination Sequence:
#
# PCOD9230938 Si02
#       4
#     4   4   4   4
#     4  11  22  37  63 104 144 186 230 280 349 429
#     4  10  20  38  60  93 141 187 230 282 340 421
#     4  11  24  45  71 102 141 188 243 300 365 443
#     4  12  28  50  75 105 140 187 248 316 382 441
#
# _framework density 24.851738999999998
#
# number of rings (size 3 to 8) (size 9 to 14) (size 15 to 20)
#    0.000    1.000    0.000    9.000    0.000    6.000 
#    0.000    0.000    0.000    0.000    0.000    0.000 
#    0.000    0.000    0.000    0.000    0.000    0.000 
#
# Total GULP energy -89120.195851 kJ/mol
# GULP energy per Si atom -5570.012241 kJ/mol
# Density = 2.479517 g / cm^3
# Si number density = 24.851739 Si / 1000 Ang^3
#
#
#
# Elastic Constant Matrix: (Units=GPa)
#
#
# Indices 1 2 3 4 5 6 
#
# 1 183.5455 58.7221 56.0438 0.0000 -16.5128 0.0000
# 2 58.7221 77.1665 23.3187 0.0000 -5.7736 0.0000
# 3 56.0438 23.3187 179.8416 0.0000 -43.3785 0.0000
# 4 0.0000 0.0000 0.0000 30.1841 0.0000 7.5590
# 5 -16.5128 -5.7736 -43.3785 0.0000 58.3511 0.0000
# 6 0.0000 0.0000 0.0000 7.5590 0.0000 27.6278
#
#
#
# Elastic Compliance Matrix: (Units=1/GPa)
#
#
# Indices 1 2 3 4 5 6 
#
# 1 0.007681 -0.005330 -0.001591 0.000000 0.000464 0.000000
# 2 -0.005330 0.017186 -0.000635 0.000000 -0.000280 0.000000
# 3 -0.001591 -0.000635 0.007329 0.000000 0.004935 0.000000
# 4 0.000000 0.000000 0.000000 0.035567 0.000000 -0.009731
# 5 0.000464 -0.000280 0.004935 0.000000 0.020910 0.000000
# 6 0.000000 0.000000 0.000000 -0.009731 0.000000 0.038858
#
#
# Mechanical properties :
#
#
# Convention : Reuss Voigt Hill
#
# Bulk Modulus (GPa) = 58.53102 79.63585 69.08344
# Shear Modulus (GPa) = 33.70738 43.39720 38.55229
#
# Velocity S-wave (km/s) = 3.68685 4.18334 3.94292
# Velocity P-wave (km/s) = 6.45964 7.44632 6.97046
#
# Compressibility (1/GPa) = 0.01708496
#
# Stress axis : x y z
#
# Youngs Moduli (GPa) = 130.19606 58.18830 136.44607
#
# Poissons Ratio (x) = 0.31011 0.21704
# Poissons Ratio (y) = 0.69388 0.08664
# Poissons Ratio (z) = 0.20710 0.03695
#
# Static dielectric constant tensor:
#      x y z
#    x 1.926740 0.000000 0.115820 
#    y 0.000000 2.151370 0.000000 
#    z 0.115820 0.000000 1.985880 
# 
# From -- ./inp_files/51042.got.cif
#   From: 2010.05.17/outbox.cif.g08.bks.cpg/sg13_26_cif.got.tgz:51042.got - 2010.06.03 16:44:36.
