data_PCOD9230953
_publ_section_title
;
Structure prediction by ZEFSAII (Michael W. Deem and Ramdas Pophale) SiO2 
 PCOD9230953
Probable space group: P 2/C
;
_chemical_formula_sum "Si O2"
_cell_formula_units_Z 20
_cell_length_a 9.924766
_cell_length_b 7.982398
_cell_length_c 30.760467
_cell_angle_alpha 90.000000
_cell_angle_beta 21.152995
_cell_angle_gamma 90.000000
_cell_volume 879.396666
_symmetry_space_group_name_H-M "P 2/C"
_symmetry_group_IT_number 13
_symmetry_cell_setting 'monoclinic'
loop_
_space_group_symop_operation_xyz
x,y,z
-x,y,1/2-z
-x,-y,-z
x,-y,1/2+z
loop_
_atom_site_type_symbol
_atom_site_label
_atom_site_fract_x
_atom_site_fract_y
_atom_site_fract_z
Si Si1 0.448865 0.194629 0.504373
Si Si2 0.611226 0.352588 0.887132
Si Si3 0.854831 0.667051 0.490217
Si Si4 0.184154 0.179603 0.241529
Si Si5 0.637701 0.120322 0.612634
O O1 0.314046 0.295801 0.586480
O O2 0.207528 0.220749 0.533794
O O3 0.861760 0.262242 0.366757
O O4 0.500000 0.000000 0.500000
O O5 0.268856 0.482268 0.986401
O O6 0.490188 0.192806 0.895013
O O7 0.000000 0.420620 0.750000
O O8 0.546393 0.713322 0.620007
O O9 0.247811 0.721650 0.392315
O O10 0.000000 0.139592 0.250000
O O11 0.318099 0.007472 0.223619
O O12 0.000000 0.000000 0.500000
#
# Coordination Sequence:
#
# PCOD9230953 Si02
#       5
#     4   4   4   4   4
#     4  11  21  37  61  87 115 156 202 242 287 355
#     4  12  23  39  62  88 120 160 199 243 297 355
#     4  10  22  39  60  89 121 152 194 250 301 348
#     4   9  18  37  61  87 118 155 199 243 291 354
#     4  10  20  38  61  85 117 155 195 244 296 346
#
# _framework density 22.742864000000001
#
# number of rings (size 3 to 8) (size 9 to 14) (size 15 to 20)
#    0.000    1.600    0.000    8.400    0.000    0.000 
#    0.000   14.000    0.000   12.000    0.000    0.000 
#    0.000    0.000    0.000    0.000    0.000    0.000 
#
# Total GULP energy -111732.116473 kJ/mol
# GULP energy per Si atom -5586.605824 kJ/mol
# Density = 2.269110 g / cm^3
# Si number density = 22.742864 Si / 1000 Ang^3
#
#
#
# Elastic Constant Matrix: (Units=GPa)
#
#
# Indices 1 2 3 4 5 6 
#
# 1 54.1058 -6.8289 27.7043 -0.0005 14.0396 0.0000
# 2 -6.8289 53.2629 -4.8348 -0.0003 8.5134 -0.0001
# 3 27.7043 -4.8348 58.6535 -0.0035 13.1668 -0.0004
# 4 -0.0005 -0.0003 -0.0035 32.2215 -0.0004 -10.5634
# 5 14.0396 8.5134 13.1668 -0.0004 33.5937 0.0000
# 6 0.0000 -0.0001 -0.0004 -10.5634 0.0000 42.9611
#
#
#
# Elastic Compliance Matrix: (Units=1/GPa)
#
#
# Indices 1 2 3 4 5 6 
#
# 1 0.026287 0.003688 -0.010347 -0.000001 -0.007865 0.000000
# 2 0.003688 0.020575 0.001612 0.000000 -0.007387 0.000000
# 3 -0.010347 0.001612 0.023235 0.000003 -0.005191 0.000001
# 4 -0.000001 0.000000 0.000003 0.033756 0.000000 0.008300
# 5 -0.007865 -0.007387 -0.005191 0.000000 0.036961 0.000000
# 6 0.000000 0.000000 0.000001 0.008300 0.000000 0.025318
#
#
# Mechanical properties :
#
#
# Convention : Reuss Voigt Hill
#
# Bulk Modulus (GPa) = 16.66564 22.01150 19.33857
# Shear Modulus (GPa) = 25.48101 31.75403 28.61752
#
# Velocity S-wave (km/s) = 3.35086 3.74066 3.55111
# Velocity P-wave (km/s) = 4.72385 5.32504 5.03343
#
# Compressibility (1/GPa) = 0.06000371
#
# Stress axis : x y z
#
# Youngs Moduli (GPa) = 38.04232 48.60321 43.03931
#
# Poissons Ratio (x) = -0.17926 0.44531
# Poissons Ratio (y) = -0.14031 -0.06939
# Poissons Ratio (z) = 0.39361 -0.07836
#
# Static dielectric constant tensor:
#      x y z
#    x 1.811210 0.000000 -0.021800 
#    y 0.000000 1.890400 0.000000 
#    z -0.021800 0.000000 1.875580 
# 
# From -- ./inp_files/58567.got.cif
#   From: 2010.05.17/outbox.cif.g08.bks.cpg/sg13_30_cif.got.tgz:58567.got - 2010.06.03 16:44:36.
