data_PCOD9230094
_publ_section_title
;
Structure prediction by ZEFSAII (Michael W. Deem and Ramdas Pophale) SiO2 
 PCOD9230094
Probable space group: P 2/C
;
_chemical_formula_sum "Si O2"
_cell_formula_units_Z 24
_cell_length_a 13.468818
_cell_length_b 9.085924
_cell_length_c 14.893733
_cell_angle_alpha 90.000000
_cell_angle_beta 132.175122
_cell_angle_gamma 90.000000
_cell_volume 1350.755450
_symmetry_space_group_name_H-M "P 2/C"
_symmetry_group_IT_number 13
_symmetry_cell_setting 'monoclinic'
loop_
_space_group_symop_operation_xyz
x,y,z
-x,y,1/2-z
-x,-y,-z
x,-y,1/2+z
loop_
_atom_site_type_symbol
_atom_site_label
_atom_site_fract_x
_atom_site_fract_y
_atom_site_fract_z
Si Si1 0.112040 0.674441 0.743324
Si Si2 0.353405 0.846991 0.960500
Si Si3 0.658411 0.142782 0.661614
Si Si4 0.653661 0.994786 0.349695
Si Si5 0.081440 0.671441 0.208341
Si Si6 0.081341 0.152716 0.039511
O O1 0.253472 0.718128 0.873133
O O2 0.100975 0.503218 0.711728
O O3 0.091670 0.771779 0.642531
O O4 0.000000 0.708382 0.750000
O O5 0.328433 0.983904 0.878121
O O6 0.509045 0.803413 0.048479
O O7 0.330390 0.910233 0.046618
O O8 0.668422 0.115252 0.774295
O O9 0.775613 0.248521 0.701482
O O10 0.500000 0.052905 0.250000
O O11 0.770784 0.113776 0.408276
O O12 0.000000 0.700020 0.250000
O O13 0.997966 0.741706 0.076255
O O14 0.000000 0.000000 0.000000
#
# Coordination Sequence:
#
# PCOD9230094 Si02
#       6
#     4   4   4   4   4   4
#     4  11  24  39  58  87 120 159 194 234 295 352
#     4  10  20  37  63  87 118 152 198 243 290 349
#     4  10  20  38  61  89 115 153 199 245 290 342
#     4  10  20  35  61  92 119 148 198 253 295 341
#     4  11  24  40  57  86 123 156 193 239 291 352
#     4  12  21  38  65  89 114 153 199 246 291 343
#
# _framework density 17.767835999999999
#
# number of rings (size 3 to 8) (size 9 to 14) (size 15 to 20)
#    0.000    1.333    3.333    2.500    0.000    2.000 
#    0.000    0.000    0.000    0.000    0.000    0.000 
#    0.000    0.000    0.000    0.000    0.000    0.000 
#
# Total GULP energy -134058.826671 kJ/mol
# GULP energy per Si atom -5585.784445 kJ/mol
# Density = 1.772740 g / cm^3
# Si number density = 17.767836 Si / 1000 Ang^3
#
#
#
# Elastic Constant Matrix: (Units=GPa)
#
#
# Indices 1 2 3 4 5 6 
#
# 1 135.3105 77.2868 71.9520 0.0000 17.3820 0.0000
# 2 77.2868 80.8317 74.9804 0.0000 14.6951 0.0000
# 3 71.9520 74.9804 132.1981 0.0000 6.1950 0.0000
# 4 0.0000 0.0000 0.0000 19.2458 0.0000 -13.5745
# 5 17.3820 14.6951 6.1950 0.0000 35.4096 0.0000
# 6 0.0000 0.0000 0.0000 -13.5745 0.0000 12.0153
#
#
#
# Elastic Compliance Matrix: (Units=1/GPa)
#
#
# Indices 1 2 3 4 5 6 
#
# 1 0.016378 -0.015092 -0.000273 0.000000 -0.001729 0.000000
# 2 -0.015092 0.042689 -0.015643 0.000000 -0.007571 0.000000
# 3 -0.000273 -0.015643 0.016410 0.000000 0.003755 0.000000
# 4 0.000000 0.000000 0.000000 0.255770 0.000000 0.288961
# 5 -0.001729 -0.007571 0.003755 0.000000 0.031574 0.000000
# 6 0.000000 0.000000 0.000000 0.288961 0.000000 0.409687
#
#
# Mechanical properties :
#
#
# Convention : Reuss Voigt Hill
#
# Bulk Modulus (GPa) = 74.29739 88.53096 81.41418
# Shear Modulus (GPa) = 5.95939 21.60889 13.78414
#
# Velocity S-wave (km/s) = 1.83339 3.49116 2.78833
# Velocity P-wave (km/s) = 6.81089 8.13546 7.50246
#
# Compressibility (1/GPa) = 0.01345942
#
# Stress axis : x y z
#
# Youngs Moduli (GPa) = 61.05710 23.42518 60.93942
#
# Poissons Ratio (x) = 0.35354 0.01664
# Poissons Ratio (y) = 0.92149 0.95330
# Poissons Ratio (z) = 0.01668 0.36645
#
# Static dielectric constant tensor:
#      x y z
#    x 1.610740 0.000000 0.011770 
#    y 0.000000 1.564560 0.000000 
#    z 0.011770 0.000000 1.608780 
# 
# From -- ./inp_files/53196.got.cif
#   From: 2010.05.17/outbox.cif.g08.bks.cpg/sg13_27_cif.got.tgz:53196.got - 2010.06.03 16:44:36.
