data_PCOD9230368
_publ_section_title
;
Structure prediction by ZEFSAII (Michael W. Deem and Ramdas Pophale) SiO2 
 PCOD9230368
Probable space group: P 2/C
;
_chemical_formula_sum "Si O2"
_cell_formula_units_Z 30
_cell_length_a 9.719016
_cell_length_b 5.614894
_cell_length_c 27.182525
_cell_angle_alpha 90.000000
_cell_angle_beta 102.488973
_cell_angle_gamma 90.000000
_cell_volume 1448.283856
_symmetry_space_group_name_H-M "P 2/C"
_symmetry_group_IT_number 13
_symmetry_cell_setting 'monoclinic'
loop_
_space_group_symop_operation_xyz
x,y,z
-x,y,1/2-z
-x,-y,-z
x,-y,1/2+z
loop_
_atom_site_type_symbol
_atom_site_label
_atom_site_fract_x
_atom_site_fract_y
_atom_site_fract_z
Si Si1 0.723010 0.509653 0.822570
Si Si2 0.950265 0.012970 0.052619
Si Si3 0.519170 0.145052 0.836718
Si Si4 0.664533 0.527483 0.113299
Si Si5 0.500000 0.196359 0.250000
Si Si6 0.355304 0.859334 0.481957
Si Si7 0.015735 0.494930 0.887140
Si Si8 0.602003 0.766605 0.909192
O O1 0.643417 0.260258 0.814560
O O2 0.639966 0.660605 0.775934
O O3 0.676266 0.614879 0.872504
O O4 0.889471 0.494422 0.837988
O O5 0.000292 0.260721 0.081797
O O6 0.779966 0.020669 0.039272
O O7 0.988891 0.759462 0.082999
O O8 0.000000 0.000000 0.000000
O O9 0.399117 0.321614 0.846265
O O10 0.460652 0.946434 0.796097
O O11 0.598817 0.036706 0.890258
O O12 0.633543 0.674373 0.061177
O O13 0.830676 0.489065 0.126167
O O14 0.563036 0.300928 0.102298
O O15 0.330540 0.733332 0.532661
O O16 0.500000 0.000000 0.500000
#
# Coordination Sequence:
#
# PCOD9230368 Si02
#       8
#     4   4   4   4   2   4   4   4
#     4  10  23  40  66  95 124 167 216 278 334 401
#     4  11  25  40  59  93 140 183 230 267 311 384
#     4  10  21  40  67  94 123 159 215 276 332 392
#     4  10  22  38  60  96 134 176 214 267 323 395
#     4  10  22  42  72  96 118 152 222 286 338 400
#     4  11  20  34  59  91 131 177 225 259 308 369
#     4  11  25  41  64  95 138 180 215 268 341 385
#     4  10  20  36  61  90 129 173 223 266 310 375
#
# _framework density 20.714172000000001
#
# number of rings (size 3 to 8) (size 9 to 14) (size 15 to 20)
#    0.000    1.600    1.333    2.800    7.467    2.133 
#    0.000    0.000    0.000   19.200    0.000    0.000 
#    0.000    0.000    0.000    0.000    0.000    0.000 
#
# Total GULP energy -167400.422416 kJ/mol
# GULP energy per Si atom -5580.014081 kJ/mol
# Density = 2.066703 g / cm^3
# Si number density = 20.714172 Si / 1000 Ang^3
#
#
#
# Elastic Constant Matrix: (Units=GPa)
#
#
# Indices 1 2 3 4 5 6 
#
# 1 75.7216 23.3702 27.8376 0.0000 28.8170 0.0000
# 2 23.3702 81.3731 24.3624 0.0000 15.3156 0.0000
# 3 27.8376 24.3624 86.6968 0.0000 26.1518 0.0000
# 4 0.0000 0.0000 0.0000 27.5687 0.0000 -7.4533
# 5 28.8170 15.3156 26.1518 0.0000 31.8261 0.0000
# 6 0.0000 0.0000 0.0000 -7.4533 0.0000 8.6612
#
#
#
# Elastic Compliance Matrix: (Units=1/GPa)
#
#
# Indices 1 2 3 4 5 6 
#
# 1 0.020705 -0.002521 -0.000865 0.000000 -0.016823 0.000000
# 2 -0.002521 0.014220 -0.002408 0.000000 -0.002582 0.000000
# 3 -0.000865 -0.002408 0.015826 0.000000 -0.011062 0.000000
# 4 0.000000 0.000000 0.000000 0.047271 0.000000 0.040678
# 5 -0.016823 -0.002582 -0.011062 0.000000 0.056986 0.000000
# 6 0.000000 0.000000 0.000000 0.040678 0.000000 0.150463
#
#
# Mechanical properties :
#
#
# Convention : Reuss Voigt Hill
#
# Bulk Modulus (GPa) = 25.53429 43.88132 34.70781
# Shear Modulus (GPa) = 15.14640 24.82594 19.98617
#
# Velocity S-wave (km/s) = 2.70702 3.46569 3.10958
# Velocity P-wave (km/s) = 4.70365 6.10286 5.44836
#
# Compressibility (1/GPa) = 0.03916302
#
# Stress axis : x y z
#
# Youngs Moduli (GPa) = 48.29836 70.32415 63.18858
#
# Poissons Ratio (x) = 0.17729 0.05466
# Poissons Ratio (y) = 0.12176 0.15213
# Poissons Ratio (z) = 0.04178 0.16931
#
# Static dielectric constant tensor:
#      x y z
#    x 1.744040 0.000000 -0.015080 
#    y 0.000000 1.835470 0.000000 
#    z -0.015080 0.000000 1.762800 
# 
# From -- ./inp_files/95539.got.cif
#   From: 2010.05.17/outbox.cif.g08.bks.cpg/sg13_48_cif.got.tgz:95539.got - 2010.06.03 16:44:36.
