data_PCOD9230931
_publ_section_title
;
Structure prediction by ZEFSAII (Michael W. Deem and Ramdas Pophale) SiO2 
 PCOD9230931
Probable space group: P 2/C
;
_chemical_formula_sum "Si O2"
_cell_formula_units_Z 22
_cell_length_a 7.319587
_cell_length_b 12.948209
_cell_length_c 13.992196
_cell_angle_alpha 90.000000
_cell_angle_beta 127.601474
_cell_angle_gamma 90.000000
_cell_volume 1050.648712
_symmetry_space_group_name_H-M "P 2/C"
_symmetry_group_IT_number 13
_symmetry_cell_setting 'monoclinic'
loop_
_space_group_symop_operation_xyz
x,y,z
-x,y,1/2-z
-x,-y,-z
x,-y,1/2+z
loop_
_atom_site_type_symbol
_atom_site_label
_atom_site_fract_x
_atom_site_fract_y
_atom_site_fract_z
Si Si1 0.958083 0.860565 0.464712
Si Si2 0.888314 0.046474 0.308427
Si Si3 0.625471 0.580085 0.970811
Si Si4 0.485060 0.204054 0.135782
Si Si5 0.903907 0.326133 0.818369
Si Si6 0.500000 0.460940 0.750000
O O1 0.944693 0.879970 0.573975
O O2 0.236248 0.848982 0.537650
O O3 0.864358 0.756697 0.389241
O O4 0.845103 0.954826 0.370136
O O5 0.679607 0.115814 0.201951
O O6 0.000000 0.999790 0.250000
O O7 0.503128 0.693524 0.925393
O O8 0.632608 0.531557 0.867736
O O9 0.500000 0.500000 0.000000
O O10 0.885326 0.600267 0.086119
O O11 0.500000 0.243443 0.250000
O O12 0.672343 0.391703 0.741804
O O13 0.000000 0.277663 0.750000
#
# Coordination Sequence:
#
# PCOD9230931 Si02
#       6
#     4   4   4   4   4   2
#     4   9  21  40  60  87 127 160 203 260 317 373
#     4  10  20  38  60  91 119 161 211 254 313 379
#     4  11  22  41  66  92 126 175 213 260 323 377
#     4   9  19  38  61  83 125 165 195 255 317 366
#     4  11  23  43  65  94 129 164 210 267 323 377
#     4  12  24  42  64  94 126 170 214 264 314 388
#
# _framework density 20.939443000000001
#
# number of rings (size 3 to 8) (size 9 to 14) (size 15 to 20)
#    0.000    1.818    2.727    1.091    0.000    2.182 
#   11.455    0.000    0.000    0.000    0.000    0.000 
#    0.000    0.000    0.000    0.000    0.000    0.000 
#
# Total GULP energy -122568.571306 kJ/mol
# GULP energy per Si atom -5571.298696 kJ/mol
# Density = 2.089178 g / cm^3
# Si number density = 20.939443 Si / 1000 Ang^3
#
#
#
# Elastic Constant Matrix: (Units=GPa)
#
#
# Indices 1 2 3 4 5 6 
#
# 1 28.4726 26.0373 18.5275 0.0000 -7.0327 0.0000
# 2 26.0373 93.9173 18.4497 0.0000 14.9317 0.0000
# 3 18.5275 18.4497 66.3945 0.0000 2.6409 0.0000
# 4 0.0000 0.0000 0.0000 40.3525 0.0000 -13.5003
# 5 -7.0327 14.9317 2.6409 0.0000 27.4299 0.0000
# 6 0.0000 0.0000 0.0000 -13.5003 0.0000 13.7404
#
#
#
# Elastic Compliance Matrix: (Units=1/GPa)
#
#
# Indices 1 2 3 4 5 6 
#
# 1 0.074285 -0.022743 -0.015720 0.000000 0.032940 0.000000
# 2 -0.022743 0.019246 0.001653 0.000000 -0.016467 0.000000
# 3 -0.015720 0.001653 0.019258 0.000000 -0.006785 0.000000
# 4 0.000000 0.000000 0.000000 0.036917 0.000000 0.036272
# 5 0.032940 -0.016467 -0.006785 0.000000 0.054519 0.000000
# 6 0.000000 0.000000 0.000000 0.036272 0.000000 0.108416
#
#
# Mechanical properties :
#
#
# Convention : Reuss Voigt Hill
#
# Bulk Modulus (GPa) = 25.52946 34.97925 30.25435
# Shear Modulus (GPa) = 12.52136 24.68921 18.60528
#
# Velocity S-wave (km/s) = 2.44801 3.43749 2.98405
# Velocity P-wave (km/s) = 4.49543 5.70056 5.13348
#
# Compressibility (1/GPa) = 0.03917043
#
# Stress axis : x y z
#
# Youngs Moduli (GPa) = 13.46170 51.95814 51.92520
#
# Poissons Ratio (x) = 1.18171 0.81624
# Poissons Ratio (y) = 0.30617 -0.08585
# Poissons Ratio (z) = 0.21161 -0.08591
#
# Static dielectric constant tensor:
#      x y z
#    x 1.782450 0.000000 -0.037210 
#    y 0.000000 1.774150 0.000000 
#    z -0.037210 0.000000 1.797120 
# 
# From -- ./inp_files/46739.got.cif
#   From: 2010.05.17/outbox.cif.g08.bks.cpg/sg13_24_cif.got.tgz:46739.got - 2010.06.03 16:44:36.
