data_PCOD9230597
_publ_section_title
;
Structure prediction by ZEFSAII (Michael W. Deem and Ramdas Pophale) SiO2 
 PCOD9230597
Probable space group: P 2/C
;
_chemical_formula_sum "Si O2"
_cell_formula_units_Z 26
_cell_length_a 23.913810
_cell_length_b 10.125427
_cell_length_c 17.515575
_cell_angle_alpha 90.000000
_cell_angle_beta 19.958230
_cell_angle_gamma 90.000000
_cell_volume 1447.662535
_symmetry_space_group_name_H-M "P 2/C"
_symmetry_group_IT_number 13
_symmetry_cell_setting 'monoclinic'
loop_
_space_group_symop_operation_xyz
x,y,z
-x,y,1/2-z
-x,-y,-z
x,-y,1/2+z
loop_
_atom_site_type_symbol
_atom_site_label
_atom_site_fract_x
_atom_site_fract_y
_atom_site_fract_z
Si Si1 0.500000 0.120044 0.250000
Si Si2 0.500000 0.422622 0.750000
Si Si3 0.000000 0.759533 0.250000
Si Si4 0.896998 0.135065 0.040347
Si Si5 0.228688 0.114535 0.711633
Si Si6 0.685373 0.643665 0.590509
Si Si7 0.601765 0.359727 0.922561
Si Si8 0.616960 0.346742 0.436960
O O1 0.379053 0.055267 0.467154
O O2 0.376614 0.219450 0.365701
O O3 0.646881 0.523530 0.583653
O O4 0.555312 0.346414 0.603545
O O5 0.925000 0.847140 0.414142
O O6 0.867685 0.664888 0.381513
O O7 0.762727 0.244000 0.236689
O O8 0.827333 0.993528 0.155201
O O9 0.070942 0.148406 0.861518
O O10 0.296159 0.245546 0.666831
O O11 0.568012 0.623589 0.813133
O O12 0.677946 0.505304 0.834983
O O13 0.539697 0.323320 0.917731
#
# Coordination Sequence:
#
# PCOD9230597 Si02
#       8
#     2   2   2   4   4   4   4   4
#     4   9  16  35  60  78 106 156 192 226 276 348
#     4   9  20  37  56  86 122 150 188 238 296 352
#     4  12  20  36  56  86 114 154 198 246 272 344
#     4  11  24  38  58  88 121 150 195 243 288 343
#     4  10  22  40  58  86 119 156 192 235 291 347
#     4   9  17  33  58  82 110 153 195 233 274 341
#     4   9  19  38  61  84 115 149 199 237 282 342
#     4  10  20  37  59  89 116 149 193 244 284 341
#
# _framework density 17.959987000000002
#
# number of rings (size 3 to 8) (size 9 to 14) (size 15 to 20)
#    0.000    2.154    3.077    0.923    0.000    1.846 
#    0.000    3.077    0.000    0.923    0.000    0.000 
#    0.000    0.000    0.000    0.000    0.000    0.000 
#
# Total GULP energy -144863.380898 kJ/mol
# GULP energy per Si atom -5571.668496 kJ/mol
# Density = 1.791911 g / cm^3
# Si number density = 17.959987 Si / 1000 Ang^3
#
#
#
# Elastic Constant Matrix: (Units=GPa)
#
#
# Indices 1 2 3 4 5 6 
#
# 1 104.7101 24.1885 36.9810 0.0000 14.5291 0.0000
# 2 24.1885 60.5700 33.9354 0.0000 2.1212 0.0000
# 3 36.9810 33.9354 70.8620 0.0000 -2.2855 0.0000
# 4 0.0000 0.0000 0.0000 34.0292 0.0000 -6.2180
# 5 14.5291 2.1212 -2.2855 0.0000 38.1011 0.0000
# 6 0.0000 0.0000 0.0000 -6.2180 0.0000 17.0278
#
#
#
# Elastic Compliance Matrix: (Units=1/GPa)
#
#
# Indices 1 2 3 4 5 6 
#
# 1 0.012770 -0.001493 -0.006116 0.000000 -0.005153 0.000000
# 2 -0.001493 0.022878 -0.010219 0.000000 -0.001317 0.000000
# 3 -0.006116 -0.010219 0.022334 0.000000 0.004241 0.000000
# 4 0.000000 0.000000 0.000000 0.031488 0.000000 0.011498
# 5 -0.005153 -0.001317 0.004241 0.000000 0.028539 0.000000
# 6 0.000000 0.000000 0.000000 0.011498 0.000000 0.062926
#
#
# Mechanical properties :
#
#
# Convention : Reuss Voigt Hill
#
# Bulk Modulus (GPa) = 44.79029 47.37246 46.08138
# Shear Modulus (GPa) = 22.31818 27.23410 24.77614
#
# Velocity S-wave (km/s) = 3.52896 3.89829 3.71822
# Velocity P-wave (km/s) = 6.44964 6.83346 6.64432
#
# Compressibility (1/GPa) = 0.02232627
#
# Stress axis : x y z
#
# Youngs Moduli (GPa) = 78.30886 43.71067 44.77416
#
# Poissons Ratio (x) = 0.06525 0.27382
# Poissons Ratio (y) = 0.11690 0.45757
# Poissons Ratio (z) = 0.47891 0.44670
#
# Static dielectric constant tensor:
#      x y z
#    x 1.794170 0.000000 -0.000750 
#    y 0.000000 1.619980 0.000000 
#    z -0.000750 0.000000 1.630460 
# 
# From -- ./inp_files/68421.got.cif
#   From: 2010.05.17/outbox.cif.g08.bks.cpg/sg13_35_cif.got.tgz:68421.got - 2010.06.03 16:44:36.
