data_PCOD9230601
_publ_section_title
;
Structure prediction by ZEFSAII (Michael W. Deem and Ramdas Pophale) SiO2 
 PCOD9230601
Probable space group: P 2/C
;
_chemical_formula_sum "Si O2"
_cell_formula_units_Z 24
_cell_length_a 20.485303
_cell_length_b 10.168435
_cell_length_c 8.821224
_cell_angle_alpha 90.000000
_cell_angle_beta 40.255331
_cell_angle_gamma 90.000000
_cell_volume 1187.377859
_symmetry_space_group_name_H-M "P 2/C"
_symmetry_group_IT_number 13
_symmetry_cell_setting 'monoclinic'
loop_
_space_group_symop_operation_xyz
x,y,z
-x,y,1/2-z
-x,-y,-z
x,-y,1/2+z
loop_
_atom_site_type_symbol
_atom_site_label
_atom_site_fract_x
_atom_site_fract_y
_atom_site_fract_z
Si Si1 0.685959 0.326304 0.236518
Si Si2 0.347337 0.592903 0.364646
Si Si3 0.712922 0.854923 0.150205
Si Si4 0.900366 0.814948 0.366679
Si Si5 0.166605 0.040760 0.791431
Si Si6 0.497235 0.232221 0.435585
O O1 0.683742 0.446734 0.122699
O O2 0.648483 0.381279 0.464373
O O3 0.606914 0.218052 0.314380
O O4 0.796740 0.266305 0.059197
O O5 0.272096 0.704937 0.431850
O O6 0.450319 0.636967 0.097820
O O7 0.760662 0.874825 0.229838
O O8 0.591313 0.871309 0.369254
O O9 0.765304 0.954093 0.942449
O O10 0.904133 0.869872 0.188543
O O11 0.000000 0.742443 0.250000
O O12 0.889680 0.939606 0.498464
O O13 0.500000 0.246741 0.250000
#
# Coordination Sequence:
#
# PCOD9230601 Si02
#       6
#     4   4   4   4   4   4
#     4  12  22  40  62  87 124 159 198 246 294 354
#     4  10  23  37  62  87 125 154 197 235 301 360
#     4   9  21  38  63  90 121 154 199 239 301 355
#     4  11  23  40  65  88 116 157 205 249 297 345
#     4  10  20  42  64  86 120 159 198 247 294 358
#     4  10  20  37  59  94 119 157 197 234 294 356
#
# _framework density 20.212606000000001
#
# number of rings (size 3 to 8) (size 9 to 14) (size 15 to 20)
#    1.000    0.667    1.667    3.500    2.333    0.000 
#    0.000   10.000    0.000    0.000    0.000    0.000 
#    0.000    0.000    0.000    0.000    0.000    0.000 
#
# Total GULP energy -133900.308854 kJ/mol
# GULP energy per Si atom -5579.179536 kJ/mol
# Density = 2.016660 g / cm^3
# Si number density = 20.212606 Si / 1000 Ang^3
#
#
#
# Elastic Constant Matrix: (Units=GPa)
#
#
# Indices 1 2 3 4 5 6 
#
# 1 139.5929 16.2803 46.0405 0.0000 -8.6563 0.0000
# 2 16.2803 30.4144 -2.2960 0.0000 -3.4442 0.0000
# 3 46.0405 -2.2960 51.6181 0.0000 4.6076 0.0000
# 4 0.0000 0.0000 0.0000 15.4235 0.0000 2.8684
# 5 -8.6563 -3.4442 4.6076 0.0000 45.5304 0.0000
# 6 0.0000 0.0000 0.0000 2.8684 0.0000 29.6691
#
#
#
# Elastic Compliance Matrix: (Units=1/GPa)
#
#
# Indices 1 2 3 4 5 6 
#
# 1 0.011787 -0.006823 -0.011071 0.000000 0.002845 0.000000
# 2 -0.006823 0.037195 0.007674 0.000000 0.000740 0.000000
# 3 -0.011071 0.007674 0.029996 0.000000 -0.004560 0.000000
# 4 0.000000 0.000000 0.000000 0.066023 0.000000 -0.006383
# 5 0.002845 0.000740 -0.004560 0.000000 0.023022 0.000000
# 6 0.000000 0.000000 0.000000 -0.006383 0.000000 0.034322
#
#
# Mechanical properties :
#
#
# Convention : Reuss Voigt Hill
#
# Bulk Modulus (GPa) = 17.08286 37.96389 27.52337
# Shear Modulus (GPa) = 20.63570 28.89795 24.76682
#
# Velocity S-wave (km/s) = 3.19867 3.78524 3.50425
# Velocity P-wave (km/s) = 4.70233 6.15850 5.47901
#
# Compressibility (1/GPa) = 0.05853821
#
# Stress axis : x y z
#
# Youngs Moduli (GPa) = 84.83642 26.88565 33.33737
#
# Poissons Ratio (x) = 0.18345 0.36908
# Poissons Ratio (y) = 0.57885 -0.25584
# Poissons Ratio (z) = 0.93924 -0.20633
#
# Static dielectric constant tensor:
#      x y z
#    x 1.732060 0.000000 -0.029770 
#    y 0.000000 1.732230 0.000000 
#    z -0.029770 0.000000 1.745260 
# 
# From -- ./inp_files/24098.got.cif
#   From: 2010.05.17/outbox.cif.g08.bks.cpg/sg13_13_cif.got.tgz:24098.got - 2010.06.03 16:44:36.
