data_PCOD9230964
_publ_section_title
;
Structure prediction by ZEFSAII (Michael W. Deem and Ramdas Pophale) SiO2 
 PCOD9230964
Probable space group: P 2/C
;
_chemical_formula_sum "Si O2"
_cell_formula_units_Z 24
_cell_length_a 16.242353
_cell_length_b 15.416676
_cell_length_c 8.835229
_cell_angle_alpha 90.000000
_cell_angle_beta 146.169491
_cell_angle_gamma 90.000000
_cell_volume 1231.709758
_symmetry_space_group_name_H-M "P 2/C"
_symmetry_group_IT_number 13
_symmetry_cell_setting 'monoclinic'
loop_
_space_group_symop_operation_xyz
x,y,z
-x,y,1/2-z
-x,-y,-z
x,-y,1/2+z
loop_
_atom_site_type_symbol
_atom_site_label
_atom_site_fract_x
_atom_site_fract_y
_atom_site_fract_z
Si Si1 0.824442 0.179192 0.809816
Si Si2 0.570790 0.080438 0.522646
Si Si3 0.472829 0.593696 0.388581
Si Si4 0.145957 0.661047 0.913033
Si Si5 0.089215 0.766642 0.536858
Si Si6 0.368411 0.232425 0.275584
O O1 0.745340 0.095946 0.763536
O O2 0.712399 0.216449 0.509321
O O3 0.980773 0.167833 0.962072
O O4 0.843778 0.252757 0.966199
O O5 0.500000 0.074167 0.250000
O O6 0.508271 0.169027 0.499669
O O7 0.500000 0.000000 0.500000
O O8 0.500000 0.593913 0.250000
O O9 0.500000 0.500000 0.500000
O O10 0.576147 0.669701 0.616350
O O11 0.302228 0.615506 0.161056
O O12 0.116695 0.689688 0.696387
O O13 0.000000 0.612164 0.750000
O O14 0.248500 0.795256 0.719043
O O15 0.000000 0.739555 0.250000
#
# Coordination Sequence:
#
# PCOD9230964 Si02
#       6
#     4   4   4   4   4   4
#     4   9  19  35  61  86 121 157 198 248 305 358
#     4  10  21  35  57  91 123 160 202 248 302 364
#     4  12  26  40  61  92 124 159 209 253 310 365
#     4  10  20  38  61  89 117 156 202 246 310 362
#     4   9  18  35  60  87 113 160 204 244 301 365
#     4  10  20  39  61  85 119 162 202 253 306 359
#
# _framework density 19.485108
#
# number of rings (size 3 to 8) (size 9 to 14) (size 15 to 20)
#    0.000    2.000    3.333    0.000    2.333    2.000 
#    0.000    4.167    0.000    7.000    0.000    0.000 
#    0.000    0.000    0.000    0.000    0.000    0.000 
#
# Total GULP energy -133758.989942 kJ/mol
# GULP energy per Si atom -5573.291248 kJ/mol
# Density = 1.944076 g / cm^3
# Si number density = 19.485108 Si / 1000 Ang^3
#
#
#
# Elastic Constant Matrix: (Units=GPa)
#
#
# Indices 1 2 3 4 5 6 
#
# 1 139.5070 44.1250 47.5667 0.0000 23.7928 0.0000
# 2 44.1250 84.4359 12.4955 0.0000 7.0078 0.0000
# 3 47.5667 12.4955 50.1201 0.0000 22.4703 0.0000
# 4 0.0000 0.0000 0.0000 10.5532 0.0000 4.9930
# 5 23.7928 7.0078 22.4703 0.0000 40.4698 0.0000
# 6 0.0000 0.0000 0.0000 4.9930 0.0000 22.7364
#
#
#
# Elastic Compliance Matrix: (Units=1/GPa)
#
#
# Indices 1 2 3 4 5 6 
#
# 1 0.012279 -0.004859 -0.010096 0.000000 -0.000772 0.000000
# 2 -0.004859 0.014229 0.001182 0.000000 -0.000264 0.000000
# 3 -0.010096 0.001182 0.035509 0.000000 -0.013985 0.000000
# 4 0.000000 0.000000 0.000000 0.105746 0.000000 -0.023222
# 5 -0.000772 -0.000264 -0.013985 0.000000 0.032974 0.000000
# 6 0.000000 0.000000 0.000000 -0.023222 0.000000 0.049082
#
#
# Mechanical properties :
#
#
# Convention : Reuss Voigt Hill
#
# Bulk Modulus (GPa) = 29.00944 53.60414 41.30679
# Shear Modulus (GPa) = 17.30976 26.07695 21.69335
#
# Velocity S-wave (km/s) = 2.98377 3.66225 3.34028
# Velocity P-wave (km/s) = 5.17598 6.74187 6.01014
#
# Compressibility (1/GPa) = 0.03447154
#
# Stress axis : x y z
#
# Youngs Moduli (GPa) = 81.44124 70.27738 28.16210
#
# Poissons Ratio (x) = 0.34145 0.28432
# Poissons Ratio (y) = 0.39569 -0.03328
# Poissons Ratio (z) = 0.82222 -0.08305
#
# Static dielectric constant tensor:
#      x y z
#    x 2.072170 0.000000 -0.049460 
#    y 0.000000 1.662470 0.000000 
#    z -0.049460 0.000000 1.738140 
# 
# From -- ./inp_files/19766.got.cif
#   From: 2010.05.17/outbox.cif.g08.bks.cpg/sg13_10_cif.got.tgz:19766.got - 2010.06.03 16:44:36.
