data_PCOD9230127
_publ_section_title
;
Structure prediction by ZEFSAII (Michael W. Deem and Ramdas Pophale) SiO2 
 PCOD9230127
Probable space group: P 2/C
;
_chemical_formula_sum "Si O2"
_cell_formula_units_Z 20
_cell_length_a 12.703412
_cell_length_b 10.819930
_cell_length_c 8.894163
_cell_angle_alpha 90.000000
_cell_angle_beta 133.246678
_cell_angle_gamma 90.000000
_cell_volume 890.484230
_symmetry_space_group_name_H-M "P 2/C"
_symmetry_group_IT_number 13
_symmetry_cell_setting 'monoclinic'
loop_
_space_group_symop_operation_xyz
x,y,z
-x,y,1/2-z
-x,-y,-z
x,-y,1/2+z
loop_
_atom_site_type_symbol
_atom_site_label
_atom_site_fract_x
_atom_site_fract_y
_atom_site_fract_z
Si Si1 0.422419 0.890300 0.831855
Si Si2 0.048479 0.266949 0.454050
Si Si3 0.744589 0.668671 0.762353
Si Si4 0.109394 0.003408 0.972010
Si Si5 0.162198 0.429585 0.833300
O O1 0.500000 0.865487 0.750000
O O2 0.388626 0.763072 0.888009
O O3 0.264419 0.940392 0.634215
O O4 0.500000 0.000000 0.000000
O O5 0.128221 0.144844 0.470828
O O6 0.142460 0.342086 0.666394
O O7 0.000000 0.329268 0.250000
O O8 0.893514 0.253534 0.384410
O O9 0.766280 0.552952 0.670292
O O10 0.745016 0.620938 0.935595
O O11 0.000000 0.066772 0.750000
O O12 0.000000 0.000000 0.000000
O O13 0.000000 0.433257 0.750000
#
# Coordination Sequence:
#
# PCOD9230127 Si02
#       5
#     4   4   4   4   4
#     4  12  29  49  70 104 152 194 237 302 374 435
#     4  10  20  35  68 105 141 176 239 306 356 419
#     4  11  22  42  68 102 142 184 235 296 365 431
#     4  11  23  41  71 105 133 186 251 298 357 428
#     4  10  21  38  68 109 144 177 239 311 364 412
#
# _framework density 22.459689999999998
#
# number of rings (size 3 to 8) (size 9 to 14) (size 15 to 20)
#    0.000    1.200    2.000    5.400    8.400    0.000 
#    0.000    1.000    0.000    0.000    0.000    0.000 
#    0.000    0.000    0.000    0.000    0.000    0.000 
#
# Total GULP energy -111372.074831 kJ/mol
# GULP energy per Si atom -5568.603742 kJ/mol
# Density = 2.240857 g / cm^3
# Si number density = 22.459690 Si / 1000 Ang^3
#
#
#
# Elastic Constant Matrix: (Units=GPa)
#
#
# Indices 1 2 3 4 5 6 
#
# 1 109.1875 34.0035 48.3062 0.0000 -6.0175 0.0000
# 2 34.0035 89.7063 24.9137 0.0000 5.8711 0.0000
# 3 48.3062 24.9137 91.8640 0.0000 -8.7821 0.0000
# 4 0.0000 0.0000 0.0000 16.2124 0.0000 2.2339
# 5 -6.0175 5.8711 -8.7821 0.0000 37.6819 0.0000
# 6 0.0000 0.0000 0.0000 2.2339 0.0000 42.6561
#
#
#
# Elastic Compliance Matrix: (Units=1/GPa)
#
#
# Indices 1 2 3 4 5 6 
#
# 1 0.012791 -0.003346 -0.005700 0.000000 0.001235 0.000000
# 2 -0.003346 0.013206 -0.002117 0.000000 -0.003085 0.000000
# 3 -0.005700 -0.002117 0.014730 0.000000 0.002852 0.000000
# 4 0.000000 0.000000 0.000000 0.062129 0.000000 -0.003254
# 5 0.001235 -0.003085 0.002852 0.000000 0.027881 0.000000
# 6 0.000000 0.000000 0.000000 -0.003254 0.000000 0.023614
#
#
# Mechanical properties :
#
#
# Convention : Reuss Voigt Hill
#
# Bulk Modulus (GPa) = 54.34855 56.13384 55.24119
# Shear Modulus (GPa) = 27.35087 31.54573 29.44830
#
# Velocity S-wave (km/s) = 3.49345 3.75180 3.62493
# Velocity P-wave (km/s) = 6.36577 6.61932 6.49378
#
# Compressibility (1/GPa) = 0.01839976
#
# Stress axis : x y z
#
# Youngs Moduli (GPa) = 78.18257 75.72525 67.88908
#
# Poissons Ratio (x) = 0.25338 0.38699
# Poissons Ratio (y) = 0.26160 0.14371
# Poissons Ratio (z) = 0.44566 0.16030
#
# Static dielectric constant tensor:
#      x y z
#    x 1.815680 0.000000 -0.048630 
#    y 0.000000 2.257500 0.000000 
#    z -0.048630 0.000000 1.861920 
# 
# From -- ./inp_files/16025.got.cif
#   From: 2010.05.17/outbox.cif.g08.bks.cpg/sg13_9_cif.got.tgz:16025.got - 2010.06.03 16:44:36.
