data_PCOD9230354
_publ_section_title
;
Structure prediction by ZEFSAII (Michael W. Deem and Ramdas Pophale) SiO2 
 PCOD9230354
Probable space group: P 2/C
;
_chemical_formula_sum "Si O2"
_cell_formula_units_Z 28
_cell_length_a 14.099667
_cell_length_b 5.425603
_cell_length_c 18.650662
_cell_angle_alpha 90.000000
_cell_angle_beta 59.504585
_cell_angle_gamma 90.000000
_cell_volume 1229.396516
_symmetry_space_group_name_H-M "P 2/C"
_symmetry_group_IT_number 13
_symmetry_cell_setting 'monoclinic'
loop_
_space_group_symop_operation_xyz
x,y,z
-x,y,1/2-z
-x,-y,-z
x,-y,1/2+z
loop_
_atom_site_type_symbol
_atom_site_label
_atom_site_fract_x
_atom_site_fract_y
_atom_site_fract_z
Si Si1 0.344289 0.478998 0.889748
Si Si2 0.026634 0.809545 0.097422
Si Si3 0.500000 0.827611 0.250000
Si Si4 0.863883 0.174086 0.552327
Si Si5 0.709699 0.844486 0.707963
Si Si6 0.000000 0.064720 0.250000
Si Si7 0.758528 0.781502 0.855797
Si Si8 0.730507 0.709029 0.448462
O O1 0.455821 0.334463 0.833280
O O2 0.240335 0.302789 0.944159
O O3 0.314915 0.593762 0.824236
O O4 0.344555 0.680942 0.951992
O O5 0.142823 0.689853 0.072563
O O6 0.941794 0.673117 0.077057
O O7 0.973149 0.892467 0.192313
O O8 0.064092 0.048120 0.036813
O O9 0.397622 0.989232 0.263941
O O10 0.809708 0.971588 0.626314
O O11 0.731448 0.807556 0.782645
O O12 0.891840 0.218564 0.309955
O O13 0.711379 0.528849 0.906094
O O14 0.720868 0.029321 0.912249
#
# Coordination Sequence:
#
# PCOD9230354 Si02
#       8
#     4   4   2   4   4   2   4   4
#     4  11  23  43  72  98 129 183 228 297 346 417
#     4  10  20  39  61  99 141 187 228 278 331 415
#     4  10  26  44  76  98 132 164 248 298 364 402
#     4  10  21  39  65  97 141 179 239 279 340 403
#     4  11  23  45  70 101 132 181 235 297 347 417
#     4  10  20  36  60  96 142 188 222 266 334 400
#     4  11  26  42  67 100 145 187 229 279 341 418
#     4  11  25  44  66 100 146 184 225 275 351 410
#
# _framework density 22.775400000000001
#
# number of rings (size 3 to 8) (size 9 to 14) (size 15 to 20)
#    0.000    1.429    2.857    2.143    6.000    4.000 
#    0.000    1.429    0.000    0.000    0.000    0.000 
#    0.000    0.000    0.000    0.000    0.000    0.000 
#
# Total GULP energy -156561.676719 kJ/mol
# GULP energy per Si atom -5591.488454 kJ/mol
# Density = 2.272356 g / cm^3
# Si number density = 22.775400 Si / 1000 Ang^3
#
#
#
# Elastic Constant Matrix: (Units=GPa)
#
#
# Indices 1 2 3 4 5 6 
#
# 1 38.3263 13.7095 32.9535 0.0000 8.7121 0.0000
# 2 13.7095 76.7683 30.1884 0.0000 4.0817 0.0000
# 3 32.9535 30.1884 98.6088 0.0000 21.8719 0.0000
# 4 0.0000 0.0000 0.0000 37.7920 0.0000 -3.7858
# 5 8.7121 4.0817 21.8719 0.0000 35.3035 0.0000
# 6 0.0000 0.0000 0.0000 -3.7858 0.0000 3.1457
#
#
#
# Elastic Compliance Matrix: (Units=1/GPa)
#
#
# Indices 1 2 3 4 5 6 
#
# 1 0.036981 -0.002056 -0.011312 0.000000 -0.001880 0.000000
# 2 -0.002056 0.014973 -0.004203 0.000000 0.001380 0.000000
# 3 -0.011312 -0.004203 0.016788 0.000000 -0.007123 0.000000
# 4 0.000000 0.000000 0.000000 0.030088 0.000000 0.036210
# 5 -0.001880 0.001380 -0.007123 0.000000 0.033043 0.000000
# 6 0.000000 0.000000 0.000000 0.036210 0.000000 0.361474
#
#
# Mechanical properties :
#
#
# Convention : Reuss Voigt Hill
#
# Bulk Modulus (GPa) = 29.76181 40.82293 35.29237
# Shear Modulus (GPa) = 9.26460 24.37169 16.81814
#
# Velocity S-wave (km/s) = 2.01907 3.27477 2.72036
# Velocity P-wave (km/s) = 4.30481 5.67995 5.03951
#
# Compressibility (1/GPa) = 0.03360010
#
# Stress axis : x y z
#
# Youngs Moduli (GPa) = 27.04112 66.78821 59.56618
#
# Poissons Ratio (x) = 0.13731 0.67381
# Poissons Ratio (y) = 0.05559 0.25035
# Poissons Ratio (z) = 0.30589 0.28070
#
# Static dielectric constant tensor:
#      x y z
#    x 1.885470 0.000000 0.005530 
#    y 0.000000 1.895690 0.000000 
#    z 0.005530 0.000000 1.868890 
# 
# From -- ./inp_files/67528.got.cif
#   From: 2010.05.17/outbox.cif.g08.bks.cpg/sg13_34_cif.got.tgz:67528.got - 2010.06.03 16:44:36.
