data_PCOD9230176
_publ_section_title
;
Structure prediction by ZEFSAII (Michael W. Deem and Ramdas Pophale) SiO2 
 PCOD9230176
Probable space group: P 2/C
;
_chemical_formula_sum "Si O2"
_cell_formula_units_Z 26
_cell_length_a 13.269239
_cell_length_b 21.067848
_cell_length_c 5.717963
_cell_angle_alpha 90.000000
_cell_angle_beta 60.876602
_cell_angle_gamma 90.000000
_cell_volume 1396.390890
_symmetry_space_group_name_H-M "P 2/C"
_symmetry_group_IT_number 13
_symmetry_cell_setting 'monoclinic'
loop_
_space_group_symop_operation_xyz
x,y,z
-x,y,1/2-z
-x,-y,-z
x,-y,1/2+z
loop_
_atom_site_type_symbol
_atom_site_label
_atom_site_fract_x
_atom_site_fract_y
_atom_site_fract_z
Si Si1 0.158478 0.333701 0.929826
Si Si2 0.374771 0.712523 0.939395
Si Si3 0.000000 0.739303 0.250000
Si Si4 0.866802 0.477357 0.406100
Si Si5 0.381921 0.839293 0.241564
Si Si6 0.785529 0.226736 0.258969
Si Si7 0.632815 0.976615 0.380410
O O1 0.280428 0.334189 0.655274
O O2 0.060918 0.307455 0.866453
O O3 0.133364 0.401658 0.065547
O O4 0.172722 0.279466 0.105916
O O5 0.500000 0.684469 0.750000
O O6 0.316542 0.741492 0.774851
O O7 0.390504 0.773460 0.091161
O O8 0.896710 0.782134 0.469920
O O9 0.816176 0.504024 0.708960
O O10 0.000000 0.501322 0.250000
O O11 0.500000 0.848885 0.250000
O O12 0.272938 0.830859 0.537646
O O13 0.365833 0.900521 0.098955
O O14 0.500000 0.000000 0.500000
O O15 0.682152 0.005812 0.565888
#
# Coordination Sequence:
#
# PCOD9230176 Si02
#       7
#     4   4   2   4   4   4   4
#     4  10  22  36  56  82 116 148 183 240 287 347
#     4  10  21  33  56  81 111 151 188 236 286 339
#     4  10  20  36  56  80 116 146 190 226 300 344
#     4  10  22  35  57  85 113 146 188 235 290 343
#     4  11  20  32  52  79 118 144 192 234 284 343
#     4  10  21  34  55  81 111 152 184 240 287 335
#     4  10  21  32  50  78 112 157 184 231 287 343
#
# _framework density 18.619430000000001
#
# number of rings (size 3 to 8) (size 9 to 14) (size 15 to 20)
#    0.000    1.846    3.077    1.385   11.846    0.000 
#    0.000    0.000    0.000    0.923    0.000    1.077 
#    0.000    0.000    0.000    0.000    0.000    0.000 
#
# Total GULP energy -144950.014259 kJ/mol
# GULP energy per Si atom -5575.000548 kJ/mol
# Density = 1.857705 g / cm^3
# Si number density = 18.619430 Si / 1000 Ang^3
#
#
#
# Elastic Constant Matrix: (Units=GPa)
#
#
# Indices 1 2 3 4 5 6 
#
# 1 69.6664 -4.4406 33.9813 0.0000 -3.0593 0.0000
# 2 -4.4406 52.0039 18.0472 0.0000 -3.6814 0.0000
# 3 33.9813 18.0472 84.1358 0.0000 -0.2557 0.0000
# 4 0.0000 0.0000 0.0000 33.7539 0.0000 9.1705
# 5 -3.0593 -3.6814 -0.2557 0.0000 41.2954 0.0000
# 6 0.0000 0.0000 0.0000 9.1705 0.0000 27.7867
#
#
#
# Elastic Compliance Matrix: (Units=1/GPa)
#
#
# Indices 1 2 3 4 5 6 
#
# 1 0.018967 0.004756 -0.008675 0.000000 0.001775 0.000000
# 2 0.004756 0.022107 -0.006656 0.000000 0.002282 0.000000
# 3 -0.008675 -0.006656 0.016814 0.000000 -0.001132 0.000000
# 4 0.000000 0.000000 0.000000 0.032544 0.000000 -0.010741
# 5 0.001775 0.002282 -0.001132 0.000000 0.024544 0.000000
# 6 0.000000 0.000000 0.000000 -0.010741 0.000000 0.039533
#
#
# Mechanical properties :
#
#
# Convention : Reuss Voigt Hill
#
# Bulk Modulus (GPa) = 27.22066 33.44243 30.33154
# Shear Modulus (GPa) = 26.60932 31.11507 28.86220
#
# Velocity S-wave (km/s) = 3.78447 4.09235 3.94142
# Velocity P-wave (km/s) = 5.80926 6.35058 6.08594
#
# Compressibility (1/GPa) = 0.03673680
#
# Stress axis : x y z
#
# Youngs Moduli (GPa) = 52.72399 45.23506 59.47588
#
# Poissons Ratio (x) = -0.21513 0.51596
# Poissons Ratio (y) = -0.25075 0.39586
# Poissons Ratio (z) = 0.45739 0.30107
#
# Static dielectric constant tensor:
#      x y z
#    x 1.635260 0.000000 0.030700 
#    y 0.000000 1.604790 0.000000 
#    z 0.030700 0.000000 1.764980 
# 
# From -- ./inp_files/4061.got.cif
#   From: 2010.05.17/outbox.cif.g08.bks.cpg/sg13_3_cif.got.tgz:4061.got - 2010.06.03 16:44:36.
