data_PCOD9230371
_publ_section_title
;
Structure prediction by ZEFSAII (Michael W. Deem and Ramdas Pophale) SiO2 
 PCOD9230371
Probable space group: P 2/C
;
_chemical_formula_sum "Si O2"
_cell_formula_units_Z 24
_cell_length_a 8.224403
_cell_length_b 8.210093
_cell_length_c 18.857929
_cell_angle_alpha 90.000000
_cell_angle_beta 58.266758
_cell_angle_gamma 90.000000
_cell_volume 1082.988605
_symmetry_space_group_name_H-M "P 2/C"
_symmetry_group_IT_number 13
_symmetry_cell_setting 'monoclinic'
loop_
_space_group_symop_operation_xyz
x,y,z
-x,y,1/2-z
-x,-y,-z
x,-y,1/2+z
loop_
_atom_site_type_symbol
_atom_site_label
_atom_site_fract_x
_atom_site_fract_y
_atom_site_fract_z
Si Si1 0.651934 0.135820 0.425307
Si Si2 0.558826 0.636491 0.154604
Si Si3 0.048843 0.582707 0.660996
Si Si4 0.353879 0.364156 0.559893
Si Si5 0.659675 0.973127 0.075208
Si Si6 0.310690 0.289931 0.341924
O O1 0.790992 0.276141 0.367133
O O2 0.449690 0.212848 0.498881
O O3 0.568549 0.016946 0.384594
O O4 0.740184 0.064325 0.477689
O O5 0.500000 0.640281 0.250000
O O6 0.388749 0.647979 0.136268
O O7 0.649207 0.456541 0.123019
O O8 0.678917 0.799833 0.110519
O O9 0.143848 0.434017 0.595677
O O10 0.000000 0.522938 0.750000
O O11 0.866935 0.661733 0.666109
O O12 0.500000 0.500000 0.500000
O O13 0.731886 0.129393 0.101928
O O14 0.500000 0.260476 0.250000
#
# Coordination Sequence:
#
# PCOD9230371 Si02
#       6
#     4   4   4   4   4   4
#     4   9  20  39  62  87 119 164 209 252 309 377
#     4  10  20  36  61  91 122 159 204 255 311 363
#     4  11  21  36  62  92 122 161 208 256 312 373
#     4   9  18  37  60  85 119 158 203 249 300 367
#     4  10  20  39  63  86 122 162 199 252 311 368
#     4  11  22  37  60  89 125 162 201 254 309 364
#
# _framework density 22.160896000000001
#
# number of rings (size 3 to 8) (size 9 to 14) (size 15 to 20)
#    0.000    2.000    0.000    5.500    0.000    0.667 
#    0.000   18.333    0.000   18.000    0.000    0.000 
#    0.000    0.000    0.000    0.000    0.000    0.000 
#
# Total GULP energy -133694.480370 kJ/mol
# GULP energy per Si atom -5570.603349 kJ/mol
# Density = 2.211046 g / cm^3
# Si number density = 22.160896 Si / 1000 Ang^3
#
#
#
# Elastic Constant Matrix: (Units=GPa)
#
#
# Indices 1 2 3 4 5 6 
#
# 1 57.3585 2.8228 23.9967 0.0000 -5.0168 0.0000
# 2 2.8228 127.2996 21.4836 0.0000 3.4216 0.0000
# 3 23.9967 21.4836 72.3777 0.0000 2.3808 0.0000
# 4 0.0000 0.0000 0.0000 23.6647 0.0000 10.0239
# 5 -5.0168 3.4216 2.3808 0.0000 30.2103 0.0000
# 6 0.0000 0.0000 0.0000 10.0239 0.0000 30.0968
#
#
#
# Elastic Compliance Matrix: (Units=1/GPa)
#
#
# Indices 1 2 3 4 5 6 
#
# 1 0.020762 0.000650 -0.007206 0.000000 0.003942 0.000000
# 2 0.000650 0.008307 -0.002661 0.000000 -0.000623 0.000000
# 3 -0.007206 -0.002661 0.017069 0.000000 -0.002241 0.000000
# 4 0.000000 0.000000 0.000000 0.049198 0.000000 -0.016386
# 5 0.003942 -0.000623 -0.002241 0.000000 0.034003 0.000000
# 6 0.000000 0.000000 0.000000 -0.016386 0.000000 0.038683
#
#
# Mechanical properties :
#
#
# Convention : Reuss Voigt Hill
#
# Bulk Modulus (GPa) = 36.09611 39.29356 37.69484
# Shear Modulus (GPa) = 25.55060 30.70987 28.13023
#
# Velocity S-wave (km/s) = 3.39921 3.72663 3.56668
# Velocity P-wave (km/s) = 5.63291 6.02383 5.83165
#
# Compressibility (1/GPa) = 0.02770381
#
# Stress axis : x y z
#
# Youngs Moduli (GPa) = 48.16548 120.38265 58.58567
#
# Poissons Ratio (x) = -0.07822 0.42217
# Poissons Ratio (y) = -0.03130 0.15587
# Poissons Ratio (z) = 0.34708 0.32029
#
# Static dielectric constant tensor:
#      x y z
#    x 1.858290 0.000000 0.022910 
#    y 0.000000 1.947110 0.000000 
#    z 0.022910 0.000000 1.832980 
# 
# From -- ./inp_files/75187.got.cif
#   From: 2010.05.17/outbox.cif.g08.bks.cpg/sg13_38_cif.got.tgz:75187.got - 2010.06.03 16:44:36.
