data_PCOD9230117
_publ_section_title
;
Structure prediction by ZEFSAII (Michael W. Deem and Ramdas Pophale) SiO2 
 PCOD9230117
Probable space group: P 2/C
;
_chemical_formula_sum "Si O2"
_cell_formula_units_Z 28
_cell_length_a 12.120430
_cell_length_b 8.345377
_cell_length_c 11.091714
_cell_angle_alpha 90.000000
_cell_angle_beta 113.769274
_cell_angle_gamma 90.000000
_cell_volume 1026.755996
_symmetry_space_group_name_H-M "P 2/C"
_symmetry_group_IT_number 13
_symmetry_cell_setting 'monoclinic'
loop_
_space_group_symop_operation_xyz
x,y,z
-x,y,1/2-z
-x,-y,-z
x,-y,1/2+z
loop_
_atom_site_type_symbol
_atom_site_label
_atom_site_fract_x
_atom_site_fract_y
_atom_site_fract_z
Si Si1 0.689030 0.931589 0.558352
Si Si2 0.590179 0.636789 0.936380
Si Si3 0.865812 0.604567 0.354718
Si Si4 0.416414 0.652255 0.315421
Si Si5 0.817134 0.413297 0.099461
Si Si6 0.678963 0.911812 0.814654
Si Si7 0.108706 0.054027 0.724080
O O1 0.766526 0.766640 0.589054
O O2 0.620866 0.926466 0.656576
O O3 0.644264 0.968774 0.406209
O O4 0.787261 0.072952 0.629196
O O5 0.476154 0.524022 0.861145
O O6 0.699591 0.522609 0.025443
O O7 0.641379 0.742603 0.851894
O O8 0.564833 0.734266 0.047620
O O9 0.720871 0.645019 0.286922
O O10 0.890372 0.566563 0.506088
O O11 0.926568 0.773408 0.344250
O O12 0.875341 0.475783 0.250257
O O13 0.500000 0.721431 0.250000
O O14 0.820064 0.949390 0.844555
O O15 0.000000 0.977206 0.750000
#
# Coordination Sequence:
#
# PCOD9230117 Si02
#       7
#     4   4   4   4   4   4   4
#     4  10  21  39  66  99 132 180 224 281 339 406
#     4  10  21  36  64  99 134 179 230 275 334 418
#     4  11  22  41  67  99 137 177 228 289 334 406
#     4  10  20  35  63  98 130 172 225 270 336 400
#     4  11  20  37  65  97 134 176 220 280 348 393
#     4  10  22  42  67  99 135 185 227 279 344 404
#     4  10  24  45  71  98 136 183 233 280 349 408
#
# _framework density 27.270356
#
# number of rings (size 3 to 8) (size 9 to 14) (size 15 to 20)
#    0.857    0.857    2.857    2.571    2.000    0.571 
#    0.000    1.429    0.000   27.429    0.000    0.000 
#    0.000    0.000    0.000    0.000    0.000    0.000 
#
# Total GULP energy -156554.929996 kJ/mol
# GULP energy per Si atom -5591.247500 kJ/mol
# Density = 2.720829 g / cm^3
# Si number density = 27.270356 Si / 1000 Ang^3
#
#
#
# Elastic Constant Matrix: (Units=GPa)
#
#
# Indices 1 2 3 4 5 6 
#
# 1 108.4949 18.2775 59.6884 0.0000 -32.0454 0.0000
# 2 18.2775 105.8156 67.8999 0.0000 -8.2912 0.0000
# 3 59.6884 67.8999 246.1006 0.0000 -49.9601 0.0000
# 4 0.0000 0.0000 0.0000 56.9634 0.0000 -17.7393
# 5 -32.0454 -8.2912 -49.9601 0.0000 48.9732 0.0000
# 6 0.0000 0.0000 0.0000 -17.7393 0.0000 20.4338
#
#
#
# Elastic Compliance Matrix: (Units=1/GPa)
#
#
# Indices 1 2 3 4 5 6 
#
# 1 0.011970 -0.000642 -0.001461 0.000000 0.006234 0.000000
# 2 -0.000642 0.011621 -0.003451 0.000000 -0.001973 0.000000
# 3 -0.001461 -0.003451 0.006378 0.000000 0.004967 0.000000
# 4 0.000000 0.000000 0.000000 0.024060 0.000000 0.020887
# 5 0.006234 -0.001973 0.004967 0.000000 0.029231 0.000000
# 6 0.000000 0.000000 0.000000 0.020887 0.000000 0.067071
#
#
# Mechanical properties :
#
#
# Convention : Reuss Voigt Hill
#
# Bulk Modulus (GPa) = 53.01702 83.57139 68.29420
# Shear Modulus (GPa) = 29.81058 46.24377 38.02718
#
# Velocity S-wave (km/s) = 3.30987 4.12242 3.73829
# Velocity P-wave (km/s) = 5.83870 7.30556 6.61293
#
# Compressibility (1/GPa) = 0.01886187
#
# Stress axis : x y z
#
# Youngs Moduli (GPa) = 83.54276 86.04909 156.78699
#
# Poissons Ratio (x) = 0.05524 0.22899
# Poissons Ratio (y) = 0.05363 0.54111
# Poissons Ratio (z) = 0.12202 0.29698
#
# Static dielectric constant tensor:
#      x y z
#    x 2.141250 0.000000 -0.036950 
#    y 0.000000 2.125610 0.000000 
#    z -0.036950 0.000000 2.248960 
# 
# From -- ./inp_files/35943.got.cif
#   From: 2010.05.17/outbox.cif.g08.bks.cpg/sg13_18_cif.got.tgz:35943.got - 2010.06.03 16:44:36.
