data_PCOD9230301
_publ_section_title
;
Structure prediction by ZEFSAII (Michael W. Deem and Ramdas Pophale) SiO2 
 PCOD9230301
Probable space group: P 2/C
;
_chemical_formula_sum "Si O2"
_cell_formula_units_Z 24
_cell_length_a 8.270984
_cell_length_b 8.747301
_cell_length_c 18.486068
_cell_angle_alpha 90.000000
_cell_angle_beta 62.266587
_cell_angle_gamma 90.000000
_cell_volume 1183.802158
_symmetry_space_group_name_H-M "P 2/C"
_symmetry_group_IT_number 13
_symmetry_cell_setting 'monoclinic'
loop_
_space_group_symop_operation_xyz
x,y,z
-x,y,1/2-z
-x,-y,-z
x,-y,1/2+z
loop_
_atom_site_type_symbol
_atom_site_label
_atom_site_fract_x
_atom_site_fract_y
_atom_site_fract_z
Si Si1 0.312045 0.993559 0.497296
Si Si2 0.050658 0.953880 0.165240
Si Si3 0.795812 0.220187 0.607187
Si Si4 0.548033 0.503513 0.165429
Si Si5 0.177981 0.338592 0.500974
Si Si6 0.181123 0.619471 0.165893
O O1 0.303023 0.887961 0.429569
O O2 0.500000 0.000000 0.500000
O O3 0.160880 0.941944 0.587145
O O4 0.254888 0.165899 0.490270
O O5 0.171668 0.806216 0.165673
O O6 0.000000 0.034334 0.250000
O O7 0.888247 0.877440 0.152259
O O8 0.657275 0.344109 0.665855
O O9 0.962846 0.309248 0.532128
O O10 0.500000 0.417754 0.250000
O O11 0.363330 0.550940 0.162484
O O12 0.690273 0.419632 0.083064
O O13 0.179713 0.416987 0.580286
O O14 0.000000 0.574733 0.250000
#
# Coordination Sequence:
#
# PCOD9230301 Si02
#       6
#     4   4   4   4   4   4
#     4  10  20  37  58  82 110 149 190 230 285 344
#     4   9  17  33  54  81 110 141 184 236 282 337
#     4  10  20  36  60  82 109 151 190 231 283 343
#     4  12  22  35  56  85 113 148 191 235 283 340
#     4  10  21  37  56  82 116 148 183 237 287 335
#     4   9  18  34  54  78 110 147 186 227 278 341
#
# _framework density 20.273658999999999
#
# number of rings (size 3 to 8) (size 9 to 14) (size 15 to 20)
#    0.000    2.333    0.000    8.000    0.000    0.000 
#    0.000    4.167    0.000    1.000    0.000    1.167 
#    0.000    0.000    0.000    0.000    0.000    0.000 
#
# Total GULP energy -133813.083974 kJ/mol
# GULP energy per Si atom -5575.545166 kJ/mol
# Density = 2.022751 g / cm^3
# Si number density = 20.273659 Si / 1000 Ang^3
#
#
#
# Elastic Constant Matrix: (Units=GPa)
#
#
# Indices 1 2 3 4 5 6 
#
# 1 100.5751 15.3798 25.5767 0.0000 -8.1725 0.0000
# 2 15.3798 13.6386 23.4105 0.0000 -3.5365 0.0000
# 3 25.5767 23.4105 137.9947 0.0000 11.6353 0.0000
# 4 0.0000 0.0000 0.0000 22.1661 0.0000 -1.1241
# 5 -8.1725 -3.5365 11.6353 0.0000 36.4709 0.0000
# 6 0.0000 0.0000 0.0000 -1.1241 0.0000 10.9782
#
#
#
# Elastic Compliance Matrix: (Units=1/GPa)
#
#
# Indices 1 2 3 4 5 6 
#
# 1 0.012089 -0.012947 -0.000171 0.000000 0.001508 0.000000
# 2 -0.012947 0.127354 -0.020555 0.000000 0.016006 0.000000
# 3 -0.000171 -0.020555 0.011239 0.000000 -0.005617 0.000000
# 4 0.000000 0.000000 0.000000 0.045349 0.000000 0.004644
# 5 0.001508 0.016006 -0.005617 0.000000 0.031101 0.000000
# 6 0.000000 0.000000 0.000000 0.004644 0.000000 0.091565
#
#
# Mechanical properties :
#
#
# Convention : Reuss Voigt Hill
#
# Bulk Modulus (GPa) = 11.99973 42.32692 27.16332
# Shear Modulus (GPa) = 12.08243 26.44579 19.26411
#
# Velocity S-wave (km/s) = 2.44389 3.61562 3.08588
# Velocity P-wave (km/s) = 3.72763 6.19301 5.11119
#
# Compressibility (1/GPa) = 0.08333523
#
# Stress axis : x y z
#
# Youngs Moduli (GPa) = 82.72134 7.85210 88.97437
#
# Poissons Ratio (x) = 0.10166 0.01524
# Poissons Ratio (y) = 1.07099 1.82889
# Poissons Ratio (z) = 0.01417 0.16140
#
# Static dielectric constant tensor:
#      x y z
#    x 1.737520 0.000000 -0.005260 
#    y 0.000000 1.722760 0.000000 
#    z -0.005260 0.000000 1.787580 
# 
# From -- ./inp_files/75594.got.cif
#   From: 2010.05.17/outbox.cif.g08.bks.cpg/sg13_38_cif.got.tgz:75594.got - 2010.06.03 16:44:36.
