data_PCOD9230851
_publ_section_title
;
Structure prediction by ZEFSAII (Michael W. Deem and Ramdas Pophale) SiO2 
 PCOD9230851
Probable space group: P 2/C
;
_chemical_formula_sum "Si O2"
_cell_formula_units_Z 22
_cell_length_a 5.277447
_cell_length_b 27.742606
_cell_length_c 9.060646
_cell_angle_alpha 90.000000
_cell_angle_beta 57.459258
_cell_angle_gamma 90.000000
_cell_volume 1118.310997
_symmetry_space_group_name_H-M "P 2/C"
_symmetry_group_IT_number 13
_symmetry_cell_setting 'monoclinic'
loop_
_space_group_symop_operation_xyz
x,y,z
-x,y,1/2-z
-x,-y,-z
x,-y,1/2+z
loop_
_atom_site_type_symbol
_atom_site_label
_atom_site_fract_x
_atom_site_fract_y
_atom_site_fract_z
Si Si1 0.642887 0.243099 0.367968
Si Si2 0.361175 0.044886 0.631697
Si Si3 0.638959 0.669136 0.368694
Si Si4 0.640610 0.132963 0.369066
Si Si5 0.500000 0.491530 0.250000
Si Si6 0.296633 0.432209 0.566960
O O1 0.500000 0.246852 0.250000
O O2 0.498438 0.283699 0.514324
O O3 0.593951 0.188066 0.436444
O O4 0.000000 0.250641 0.250000
O O5 0.500000 0.043010 0.750000
O O6 0.474199 0.093949 0.520428
O O7 0.000000 0.042345 0.750000
O O8 0.500000 0.000000 0.500000
O O9 0.500000 0.662790 0.250000
O O10 0.547288 0.619918 0.485648
O O11 0.000000 0.675971 0.250000
O O12 0.500000 0.129505 0.250000
O O13 0.000000 0.123891 0.250000
O O14 0.275235 0.455691 0.410544
O O15 0.583935 0.527502 0.355897
O O16 0.000000 0.419677 0.750000
#
# Coordination Sequence:
#
# PCOD9230851 Si02
#       6
#     4   4   4   4   2   4
#     4  10  22  40  63  90 119 158 202 245 303 365
#     4  12  24  39  61  90 124 164 208 251 305 361
#     4  11  23  40  60  87 122 154 195 250 302 357
#     4  10  21  40  62  87 122 158 201 254 301 357
#     4  10  20  38  58  82 112 154 200 240 310 360
#     4  10  21  37  57  83 116 151 199 247 304 361
#
# _framework density 19.672525
#
# number of rings (size 3 to 8) (size 9 to 14) (size 15 to 20)
#    0.000    1.455    0.909    4.364    1.273    1.455 
#    0.000    0.909    0.000    0.000    0.000    0.000 
#    0.000    0.000    0.000    0.000    0.000    0.000 
#
# Total GULP energy -122642.554888 kJ/mol
# GULP energy per Si atom -5574.661586 kJ/mol
# Density = 1.962775 g / cm^3
# Si number density = 19.672525 Si / 1000 Ang^3
#
#
#
# Elastic Constant Matrix: (Units=GPa)
#
#
# Indices 1 2 3 4 5 6 
#
# 1 134.0061 55.4512 43.8889 0.0000 -8.6174 0.0000
# 2 55.4512 179.0503 96.6383 0.0000 -9.4541 0.0000
# 3 43.8889 96.6383 89.2841 0.0000 -7.5847 0.0000
# 4 0.0000 0.0000 0.0000 49.0568 0.0000 -13.9425
# 5 -8.6174 -9.4541 -7.5847 0.0000 27.6087 0.0000
# 6 0.0000 0.0000 0.0000 -13.9425 0.0000 149.3269
#
#
#
# Elastic Compliance Matrix: (Units=1/GPa)
#
#
# Indices 1 2 3 4 5 6 
#
# 1 0.009030 -0.000937 -0.003289 0.000000 0.001594 0.000000
# 2 -0.000937 0.013539 -0.014155 0.000000 0.000455 0.000000
# 3 -0.003289 -0.014155 0.028299 0.000000 0.001901 0.000000
# 4 0.000000 0.000000 0.000000 0.020940 0.000000 0.001955
# 5 0.001594 0.000455 0.001901 0.000000 0.037396 0.000000
# 6 0.000000 0.000000 0.000000 0.001955 0.000000 0.006879
#
#
# Mechanical properties :
#
#
# Convention : Reuss Voigt Hill
#
# Bulk Modulus (GPa) = 70.89170 88.25527 79.57348
# Shear Modulus (GPa) = 31.73637 58.95595 45.34616
#
# Velocity S-wave (km/s) = 4.02086 5.48030 4.80630
# Velocity P-wave (km/s) = 7.59412 9.21979 8.44616
#
# Compressibility (1/GPa) = 0.01410602
#
# Stress axis : x y z
#
# Youngs Moduli (GPa) = 110.74396 73.86005 35.33659
#
# Poissons Ratio (x) = 0.06922 0.11622
# Poissons Ratio (y) = 0.10379 0.50019
# Poissons Ratio (z) = 0.36423 1.04549
#
# Static dielectric constant tensor:
#      x y z
#    x 1.694670 0.000000 -0.012940 
#    y 0.000000 1.752180 0.000000 
#    z -0.012940 0.000000 1.697520 
# 
# From -- ./inp_files/10285.got.cif
#   From: 2010.05.17/outbox.cif.g08.bks.cpg/sg13_6_cif.got.tgz:10285.got - 2010.06.03 16:44:36.
