data_PCOD9230050
_publ_section_title
;
Structure prediction by ZEFSAII (Michael W. Deem and Ramdas Pophale) SiO2 
 PCOD9230050
Probable space group: P 2/C
;
_chemical_formula_sum "Si O2"
_cell_formula_units_Z 26
_cell_length_a 7.671048
_cell_length_b 15.356983
_cell_length_c 19.698740
_cell_angle_alpha 90.000000
_cell_angle_beta 144.701168
_cell_angle_gamma 90.000000
_cell_volume 1340.933978
_symmetry_space_group_name_H-M "P 2/C"
_symmetry_group_IT_number 13
_symmetry_cell_setting 'monoclinic'
loop_
_space_group_symop_operation_xyz
x,y,z
-x,y,1/2-z
-x,-y,-z
x,-y,1/2+z
loop_
_atom_site_type_symbol
_atom_site_label
_atom_site_fract_x
_atom_site_fract_y
_atom_site_fract_z
Si Si1 0.753885 0.524578 0.498736
Si Si2 0.192697 0.614934 0.378938
Si Si3 0.325952 0.382511 0.124771
Si Si4 0.500000 0.803204 0.250000
Si Si5 0.241560 0.052022 0.764060
Si Si6 0.711644 0.965180 0.006569
Si Si7 0.844168 0.238442 0.529367
O O1 0.529066 0.584159 0.469141
O O2 0.919751 0.455617 0.601157
O O3 0.563976 0.461627 0.388294
O O4 0.988154 0.584964 0.534264
O O5 0.200114 0.708987 0.415259
O O6 0.000000 0.614399 0.250000
O O7 0.500000 0.375061 0.250000
O O8 0.324297 0.293351 0.082100
O O9 0.631354 0.860707 0.229798
O O10 0.796746 0.755297 0.370739
O O11 0.000000 0.064403 0.750000
O O12 0.045510 0.008597 0.640360
O O13 0.537138 0.002774 0.885880
O O14 0.739427 0.861036 0.004873
O O15 0.500000 0.000000 0.000000
#
# Coordination Sequence:
#
# PCOD9230050 Si02
#       7
#     4   4   4   2   4   4   4
#     4   9  20  37  58  84 114 159 201 233 291 360
#     4  10  20  35  59  88 113 152 199 243 290 356
#     4  10  20  39  57  84 124 159 192 243 299 353
#     4  10  22  40  58  86 124 148 200 262 284 366
#     4   9  19  38  63  83 112 157 199 246 303 363
#     4   9  19  40  60  84 116 155 199 249 298 366
#     4  10  23  37  56  91 121 146 200 247 302 358
#
# _framework density 19.389469999999999
#
# number of rings (size 3 to 8) (size 9 to 14) (size 15 to 20)
#    0.000    2.462    0.000    0.923    2.154    7.385 
#    6.923    3.077    0.000    0.000    0.000    0.000 
#    0.000    0.000    0.000    0.000    0.000    0.000 
#
# Total GULP energy -144778.516818 kJ/mol
# GULP energy per Si atom -5568.404493 kJ/mol
# Density = 1.934534 g / cm^3
# Si number density = 19.389470 Si / 1000 Ang^3
#
#
#
# Elastic Constant Matrix: (Units=GPa)
#
#
# Indices 1 2 3 4 5 6 
#
# 1 55.5781 20.8105 11.0863 0.0000 -7.8127 0.0000
# 2 20.8105 67.5225 40.5929 0.0000 -14.6215 0.0000
# 3 11.0863 40.5929 138.4078 0.0000 -31.3884 0.0000
# 4 0.0000 0.0000 0.0000 19.2922 0.0000 -3.4737
# 5 -7.8127 -14.6215 -31.3884 0.0000 29.6834 0.0000
# 6 0.0000 0.0000 0.0000 -3.4737 0.0000 42.2883
#
#
#
# Elastic Compliance Matrix: (Units=1/GPa)
#
#
# Indices 1 2 3 4 5 6 
#
# 1 0.020592 -0.006175 0.000922 0.000000 0.003353 0.000000
# 2 -0.006175 0.020262 -0.004674 0.000000 0.003413 0.000000
# 3 0.000922 -0.004674 0.010596 0.000000 0.009145 0.000000
# 4 0.000000 0.000000 0.000000 0.052613 0.000000 0.004322
# 5 0.003353 0.003413 0.009145 0.000000 0.045923 0.000000
# 6 0.000000 0.000000 0.000000 0.004322 0.000000 0.024002
#
#
# Mechanical properties :
#
#
# Convention : Reuss Voigt Hill
#
# Bulk Modulus (GPa) = 31.64882 45.16531 38.40706
# Shear Modulus (GPa) = 24.46507 30.85402 27.65955
#
# Velocity S-wave (km/s) = 3.55600 3.99341 3.78103
# Velocity P-wave (km/s) = 5.76353 6.67888 6.23801
#
# Compressibility (1/GPa) = 0.03159675
#
# Stress axis : x y z
#
# Youngs Moduli (GPa) = 48.56201 49.35386 94.37666
#
# Poissons Ratio (x) = 0.30475 -0.08702
# Poissons Ratio (y) = 0.29986 0.44110
# Poissons Ratio (z) = -0.04477 0.23067
#
# Static dielectric constant tensor:
#      x y z
#    x 1.732210 0.000000 -0.010290 
#    y 0.000000 1.666750 0.000000 
#    z -0.010290 0.000000 1.718920 
# 
# From -- ./inp_files/76647.got.cif
#   From: 2010.05.17/outbox.cif.g08.bks.cpg/sg13_39_cif.got.tgz:76647.got - 2010.06.03 16:44:36.
