data_PCOD9230571
_publ_section_title
;
Structure prediction by ZEFSAII (Michael W. Deem and Ramdas Pophale) SiO2 
 PCOD9230571
Probable space group: P 2/C
;
_chemical_formula_sum "Si O2"
_cell_formula_units_Z 30
_cell_length_a 28.501450
_cell_length_b 5.113082
_cell_length_c 20.940610
_cell_angle_alpha 90.000000
_cell_angle_beta 153.557771
_cell_angle_gamma 90.000000
_cell_volume 1358.898702
_symmetry_space_group_name_H-M "P 2/C"
_symmetry_group_IT_number 13
_symmetry_cell_setting 'monoclinic'
loop_
_space_group_symop_operation_xyz
x,y,z
-x,y,1/2-z
-x,-y,-z
x,-y,1/2+z
loop_
_atom_site_type_symbol
_atom_site_label
_atom_site_fract_x
_atom_site_fract_y
_atom_site_fract_z
Si Si1 0.165632 0.307289 0.305879
Si Si2 0.940816 0.179318 0.777411
Si Si3 0.681710 0.400720 0.892679
Si Si4 0.159850 0.770276 0.484349
Si Si5 0.364366 0.795998 0.971951
Si Si6 0.362318 0.031361 0.768025
Si Si7 0.564879 0.294794 0.515105
Si Si8 0.500000 0.435788 0.750000
O O1 0.119471 0.596736 0.256904
O O2 0.243681 0.283061 0.461991
O O3 0.242079 0.257450 0.339424
O O4 0.075062 0.092210 0.205180
O O5 0.887186 0.143184 0.641824
O O6 0.058714 0.273497 0.905174
O O7 0.761228 0.541694 0.941339
O O8 0.623005 0.181094 0.780667
O O9 0.591146 0.572079 0.818169
O O10 0.239587 0.960640 0.617782
O O11 0.430994 0.732087 0.116657
O O12 0.405470 0.585535 0.969975
O O13 0.383244 0.089105 0.971247
O O14 0.391717 0.213412 0.863049
O O15 0.441475 0.784294 0.865593
#
# Coordination Sequence:
#
# PCOD9230571 Si02
#       8
#     4   4   4   4   4   4   4   2
#     4  10  21  38  63  90 129 155 201 258 319 372
#     4  10  21  37  61  97 122 158 199 269 315 367
#     4  10  20  37  58  96 121 166 196 253 310 380
#     4  10  22  35  62  90 130 156 210 251 321 366
#     4  11  23  42  61  92 122 169 204 254 314 368
#     4  11  23  39  62  89 128 166 212 252 302 371
#     4  11  26  40  63  90 129 166 211 252 297 372
#     4  10  20  38  64  88 132 154 206 248 316 374
#
# _framework density 22.076699999999999
#
# number of rings (size 3 to 8) (size 9 to 14) (size 15 to 20)
#    0.000    1.600    2.667    1.600    3.733    2.667 
#    0.000    0.000    0.000    4.800    0.000    0.000 
#    0.000    0.000    0.000    0.000    0.000    0.000 
#
# Total GULP energy -167521.081384 kJ/mol
# GULP energy per Si atom -5584.036046 kJ/mol
# Density = 2.202645 g / cm^3
# Si number density = 22.076700 Si / 1000 Ang^3
#
#
#
# Elastic Constant Matrix: (Units=GPa)
#
#
# Indices 1 2 3 4 5 6 
#
# 1 72.3446 16.5994 31.9801 0.0000 28.2148 0.0000
# 2 16.5994 38.2819 12.1307 0.0000 3.3899 0.0000
# 3 31.9801 12.1307 83.4465 0.0000 27.8607 0.0000
# 4 0.0000 0.0000 0.0000 17.2460 0.0000 8.4737
# 5 28.2148 3.3899 27.8607 0.0000 39.8524 0.0000
# 6 0.0000 0.0000 0.0000 8.4737 0.0000 10.5914
#
#
#
# Elastic Compliance Matrix: (Units=1/GPa)
#
#
# Indices 1 2 3 4 5 6 
#
# 1 0.021807 -0.007365 -0.003054 0.000000 -0.012677 0.000000
# 2 -0.007365 0.029882 -0.003149 0.000000 0.004874 0.000000
# 3 -0.003054 -0.003149 0.016698 0.000000 -0.009244 0.000000
# 4 0.000000 0.000000 0.000000 0.095542 0.000000 -0.076438
# 5 -0.012677 0.004874 -0.009244 0.000000 0.040116 0.000000
# 6 0.000000 0.000000 0.000000 -0.076438 0.000000 0.155570
#
#
# Mechanical properties :
#
#
# Convention : Reuss Voigt Hill
#
# Bulk Modulus (GPa) = 24.24171 35.05481 29.64826
# Shear Modulus (GPa) = 12.48439 22.42883 17.45661
#
# Velocity S-wave (km/s) = 2.38061 3.19086 2.81503
# Velocity P-wave (km/s) = 4.30824 5.43033 4.90150
#
# Compressibility (1/GPa) = 0.04125122
#
# Stress axis : x y z
#
# Youngs Moduli (GPa) = 45.85688 33.46514 59.88733
#
# Poissons Ratio (x) = 0.24648 0.18289
# Poissons Ratio (y) = 0.33775 0.18856
# Poissons Ratio (z) = 0.14004 0.10537
#
# Static dielectric constant tensor:
#      x y z
#    x 1.844850 0.000000 0.023890 
#    y 0.000000 1.848760 0.000000 
#    z 0.023890 0.000000 1.800600 
# 
# From -- ./inp_files/82358.got.cif
#   From: 2010.05.17/outbox.cif.g08.bks.cpg/sg13_42_cif.got.tgz:82358.got - 2010.06.03 16:44:36.
