data_PCOD9230526
_publ_section_title
;
Structure prediction by ZEFSAII (Michael W. Deem and Ramdas Pophale) SiO2 
 PCOD9230526
Probable space group: P 2/C
;
_chemical_formula_sum "Si O2"
_cell_formula_units_Z 28
_cell_length_a 17.976330
_cell_length_b 8.396590
_cell_length_c 8.365097
_cell_angle_alpha 90.000000
_cell_angle_beta 107.420933
_cell_angle_gamma 90.000000
_cell_volume 1204.711266
_symmetry_space_group_name_H-M "P 2/C"
_symmetry_group_IT_number 13
_symmetry_cell_setting 'monoclinic'
loop_
_space_group_symop_operation_xyz
x,y,z
-x,y,1/2-z
-x,-y,-z
x,-y,1/2+z
loop_
_atom_site_type_symbol
_atom_site_label
_atom_site_fract_x
_atom_site_fract_y
_atom_site_fract_z
Si Si1 0.430886 0.665641 0.005123
Si Si2 0.382728 0.058870 0.670160
Si Si3 0.669293 0.532851 0.833577
Si Si4 0.000000 0.103026 0.750000
Si Si5 0.213265 0.049893 0.396294
Si Si6 0.500000 0.227386 0.250000
Si Si7 0.108514 0.093194 0.077559
Si Si8 0.287217 0.743955 0.337248
O O1 0.357888 0.626657 0.841344
O O2 0.498575 0.670683 0.914448
O O3 0.436100 0.837264 0.088872
O O4 0.406515 0.558976 0.142352
O O5 0.360829 0.149623 0.820825
O O6 0.298178 0.068330 0.528328
O O7 0.425181 0.890308 0.714856
O O8 0.724266 0.390147 0.806497
O O9 0.698553 0.649309 0.989495
O O10 0.942872 0.189798 0.585476
O O11 0.051632 0.990402 0.667830
O O12 0.150207 0.039165 0.494409
O O13 0.220738 0.871417 0.328585
O O14 0.180193 0.159797 0.232095
#
# Coordination Sequence:
#
# PCOD9230526 Si02
#       8
#     4   4   4   2   4   2   4   4
#     4  10  22  39  57  76 102 144 193 243 292 344
#     4  11  23  37  56  81 113 145 192 240 297 342
#     4   9  21  40  58  74 102 154 190 256 280 332
#     4   8  16  34  48  84 128 162 178 206 252 374
#     4  11  19  33  54  91 113 156 179 236 286 342
#     4  12  24  38  56  82 108 152 188 252 298 346
#     4   9  18  30  56  83 127 157 178 213 282 336
#     4  10  20  37  56  78 113 144 197 239 282 344
#
# _framework density 23.242083000000001
#
# number of rings (size 3 to 8) (size 9 to 14) (size 15 to 20)
#    0.000    2.000    1.429    2.143    2.000    1.714 
#    0.000    5.000    0.000    0.000    0.000    0.000 
#    0.000   57.143    0.000    0.000    0.000    0.000 
#
# Total GULP energy -155899.459222 kJ/mol
# GULP energy per Si atom -5567.837829 kJ/mol
# Density = 2.318918 g / cm^3
# Si number density = 23.242083 Si / 1000 Ang^3
#
#
#
# Elastic Constant Matrix: (Units=GPa)
#
#
# Indices 1 2 3 4 5 6 
#
# 1 80.9758 7.8263 38.6133 0.0000 -10.0222 0.0000
# 2 7.8263 43.8267 22.9816 0.0000 -7.1162 0.0000
# 3 38.6133 22.9816 143.5374 0.0000 4.1002 0.0000
# 4 0.0000 0.0000 0.0000 67.2743 0.0000 -19.4917
# 5 -10.0222 -7.1162 4.1002 0.0000 56.9812 0.0000
# 6 0.0000 0.0000 0.0000 -19.4917 0.0000 8.6277
#
#
#
# Elastic Compliance Matrix: (Units=1/GPa)
#
#
# Indices 1 2 3 4 5 6 
#
# 1 0.014617 -0.000046 -0.004006 0.000000 0.002854 0.000000
# 2 -0.000046 0.025586 -0.004184 0.000000 0.003488 0.000000
# 3 -0.004006 -0.004184 0.008768 0.000000 -0.001858 0.000000
# 4 0.000000 0.000000 0.000000 0.043031 0.000000 0.097216
# 5 0.002854 0.003488 -0.001858 0.000000 0.018621 0.000000
# 6 0.000000 0.000000 0.000000 0.097216 0.000000 0.335536
#
#
# Mechanical properties :
#
#
# Convention : Reuss Voigt Hill
#
# Bulk Modulus (GPa) = 30.77100 45.24247 38.00673
# Shear Modulus (GPa) = 10.56047 39.83790 25.19919
#
# Velocity S-wave (km/s) = 2.13390 4.14459 3.29630
# Velocity P-wave (km/s) = 4.39767 6.51241 5.55657
#
# Compressibility (1/GPa) = 0.03249813
#
# Stress axis : x y z
#
# Youngs Moduli (GPa) = 68.41138 39.08445 114.05736
#
# Poissons Ratio (x) = 0.00180 0.45696
# Poissons Ratio (y) = 0.00316 0.47718
# Poissons Ratio (z) = 0.27408 0.16352
#
# Static dielectric constant tensor:
#      x y z
#    x 1.945600 0.000000 0.080600 
#    y 0.000000 1.896440 0.000000 
#    z 0.080600 0.000000 2.015750 
# 
# From -- ./inp_files/21226.got.cif
#   From: 2010.05.17/outbox.cif.g08.bks.cpg/sg13_11_cif.got.tgz:21226.got - 2010.06.03 16:44:36.
