data_PCOD9230245
_publ_section_title
;
Structure prediction by ZEFSAII (Michael W. Deem and Ramdas Pophale) SiO2 
 PCOD9230245
Probable space group: P 2/C
;
_chemical_formula_sum "Si O2"
_cell_formula_units_Z 30
_cell_length_a 8.251190
_cell_length_b 6.344334
_cell_length_c 31.113127
_cell_angle_alpha 90.000000
_cell_angle_beta 66.728264
_cell_angle_gamma 90.000000
_cell_volume 1496.209121
_symmetry_space_group_name_H-M "P 2/C"
_symmetry_group_IT_number 13
_symmetry_cell_setting 'monoclinic'
loop_
_space_group_symop_operation_xyz
x,y,z
-x,y,1/2-z
-x,-y,-z
x,-y,1/2+z
loop_
_atom_site_type_symbol
_atom_site_label
_atom_site_fract_x
_atom_site_fract_y
_atom_site_fract_z
Si Si1 0.359587 0.074381 0.225001
Si Si2 0.221719 0.542653 0.683790
Si Si3 0.301932 0.529210 0.534878
Si Si4 0.107854 0.113517 0.551497
Si Si5 0.821139 0.847620 0.883186
Si Si6 0.442794 0.175535 0.631645
Si Si7 0.234637 0.816789 0.468037
Si Si8 0.000000 0.817966 0.250000
O O1 0.500000 0.084382 0.250000
O O2 0.300203 0.305273 0.212936
O O3 0.458172 0.941812 0.176423
O O4 0.166827 0.954602 0.250828
O O5 0.121497 0.699408 0.661701
O O6 0.384134 0.416225 0.645575
O O7 0.093696 0.349342 0.708628
O O8 0.500000 0.500000 0.500000
O O9 0.204893 0.318048 0.559031
O O10 0.291614 0.697965 0.573788
O O11 0.214500 0.613521 0.500303
O O12 0.937549 0.165479 0.542366
O O13 0.051678 0.959438 0.596200
O O14 0.239147 0.001134 0.503610
O O15 0.707080 0.032489 0.874595
O O16 0.603291 0.176017 0.581495
#
# Coordination Sequence:
#
# PCOD9230245 Si02
#       8
#     4   4   4   4   4   4   4   2
#     4  10  23  45  69  97 131 165 215 267 332 396
#     4  10  21  40  67  93 122 161 209 261 317 391
#     4  11  20  33  57  84 112 161 208 249 299 365
#     4  10  21  36  56  83 126 164 205 258 309 367
#     4  10  20  36  58  86 117 156 202 249 302 368
#     4  10  21  40  62  87 123 160 206 262 311 379
#     4  10  21  37  55  83 123 163 205 254 314 364
#     4  10  22  44  72  94 130 170 202 272 334 392
#
# _framework density 20.050674000000001
#
# number of rings (size 3 to 8) (size 9 to 14) (size 15 to 20)
#    0.000    1.867    0.000    4.000    0.000    5.333 
#   12.000    0.000    0.000    0.000    0.000    0.000 
#    0.000    0.000    0.000    0.000    0.000    0.000 
#
# Total GULP energy -167099.817118 kJ/mol
# GULP energy per Si atom -5569.993904 kJ/mol
# Density = 2.000504 g / cm^3
# Si number density = 20.050674 Si / 1000 Ang^3
#
#
#
# Elastic Constant Matrix: (Units=GPa)
#
#
# Indices 1 2 3 4 5 6 
#
# 1 76.8337 50.2321 48.2069 0.0000 22.8693 0.0000
# 2 50.2321 122.2648 41.2157 0.0000 12.7254 0.0000
# 3 48.2069 41.2157 88.3154 0.0000 16.1161 0.0000
# 4 0.0000 0.0000 0.0000 40.8836 0.0000 5.1451
# 5 22.8693 12.7254 16.1161 0.0000 37.6673 0.0000
# 6 0.0000 0.0000 0.0000 5.1451 0.0000 18.8342
#
#
#
# Elastic Compliance Matrix: (Units=1/GPa)
#
#
# Indices 1 2 3 4 5 6 
#
# 1 0.026045 -0.006527 -0.009423 0.000000 -0.009576 0.000000
# 2 -0.006527 0.011416 -0.001935 0.000000 0.000934 0.000000
# 3 -0.009423 -0.001935 0.017579 0.000000 -0.001146 0.000000
# 4 0.000000 0.000000 0.000000 0.025331 0.000000 -0.006920
# 5 -0.009576 0.000934 -0.001146 0.000000 0.032537 0.000000
# 6 0.000000 0.000000 0.000000 -0.006920 0.000000 0.054985
#
#
# Mechanical properties :
#
#
# Convention : Reuss Voigt Hill
#
# Bulk Modulus (GPa) = 51.89734 62.96926 57.43330
# Shear Modulus (GPa) = 23.79975 29.32764 26.56369
#
# Velocity S-wave (km/s) = 3.44900 3.82864 3.64377
# Velocity P-wave (km/s) = 6.46530 7.14268 6.81241
#
# Compressibility (1/GPa) = 0.01926881
#
# Stress axis : x y z
#
# Youngs Moduli (GPa) = 38.39507 87.59781 56.88648
#
# Poissons Ratio (x) = 0.57178 0.53604
# Poissons Ratio (y) = 0.25062 0.11008
# Poissons Ratio (z) = 0.36179 0.16952
#
# Static dielectric constant tensor:
#      x y z
#    x 1.696510 0.000000 -0.001200 
#    y 0.000000 1.756550 0.000000 
#    z -0.001200 0.000000 1.763240 
# 
# From -- ./inp_files/95623.got.cif
#   From: 2010.05.17/outbox.cif.g08.bks.cpg/sg13_48_cif.got.tgz:95623.got - 2010.06.03 16:44:36.
