data_PCOD9230312
_publ_section_title
;
Structure prediction by ZEFSAII (Michael W. Deem and Ramdas Pophale) SiO2 
 PCOD9230312
Probable space group: P 2/C
;
_chemical_formula_sum "Si O2"
_cell_formula_units_Z 22
_cell_length_a 9.522395
_cell_length_b 4.964747
_cell_length_c 21.710685
_cell_angle_alpha 90.000000
_cell_angle_beta 56.723996
_cell_angle_gamma 90.000000
_cell_volume 858.108997
_symmetry_space_group_name_H-M "P 2/C"
_symmetry_group_IT_number 13
_symmetry_cell_setting 'monoclinic'
loop_
_space_group_symop_operation_xyz
x,y,z
-x,y,1/2-z
-x,-y,-z
x,-y,1/2+z
loop_
_atom_site_type_symbol
_atom_site_label
_atom_site_fract_x
_atom_site_fract_y
_atom_site_fract_z
Si Si1 0.387847 0.112717 0.595741
Si Si2 0.228567 0.209047 0.959599
Si Si3 0.299422 0.275388 0.370578
Si Si4 0.208422 0.428274 0.088634
Si Si5 0.314344 0.132396 0.225414
Si Si6 0.000000 0.453777 0.250000
O O1 0.584549 0.157855 0.557569
O O2 0.336708 0.325715 0.556069
O O3 0.305366 0.829635 0.594567
O O4 0.320774 0.142659 0.683349
O O5 0.245063 0.423564 0.900286
O O6 0.190892 0.919299 0.940627
O O7 0.135833 0.335062 0.040860
O O8 0.292892 0.152080 0.303663
O O9 0.501936 0.258090 0.334514
O O10 0.074225 0.563920 0.168112
O O11 0.152500 0.279110 0.238965
#
# Coordination Sequence:
#
# PCOD9230312 Si02
#       6
#     4   4   4   4   4   2
#     4  10  20  36  60  86 116 151 194 244 283 330
#     4  11  20  36  58  87 116 153 191 238 289 340
#     4  10  22  38  62  86 118 151 191 238 287 340
#     4  11  22  36  57  87 118 151 193 239 289 341
#     4   9  21  40  60  88 116 153 194 235 285 343
#     4  10  22  40  60  84 116 154 194 240 286 342
#
# _framework density 25.637767
#
# number of rings (size 3 to 8) (size 9 to 14) (size 15 to 20)
#    0.000    1.818    0.000    5.455    0.000   11.636 
#    0.000    1.818    0.000    0.000    0.000    0.000 
#    0.000    0.000    0.000    0.000    0.000    0.000 
#
# Total GULP energy -122647.161067 kJ/mol
# GULP energy per Si atom -5574.870958 kJ/mol
# Density = 2.557941 g / cm^3
# Si number density = 25.637767 Si / 1000 Ang^3
#
#
#
# Elastic Constant Matrix: (Units=GPa)
#
#
# Indices 1 2 3 4 5 6 
#
# 1 87.0716 13.3978 10.2634 0.0000 16.9253 0.0000
# 2 13.3978 111.0854 -1.8129 0.0000 10.9427 0.0000
# 3 10.2634 -1.8129 119.9448 0.0000 27.8448 0.0000
# 4 0.0000 0.0000 0.0000 22.9674 0.0000 12.2665
# 5 16.9253 10.9427 27.8448 0.0000 30.8490 0.0000
# 6 0.0000 0.0000 0.0000 12.2665 0.0000 17.4841
#
#
#
# Elastic Compliance Matrix: (Units=1/GPa)
#
#
# Indices 1 2 3 4 5 6 
#
# 1 0.012972 -0.000831 0.000583 0.000000 -0.007349 0.000000
# 2 -0.000831 0.009508 0.001128 0.000000 -0.003935 0.000000
# 3 0.000583 0.001128 0.010717 0.000000 -0.010394 0.000000
# 4 0.000000 0.000000 0.000000 0.069630 0.000000 -0.048851
# 5 -0.007349 -0.003935 -0.010394 0.000000 0.047226 0.000000
# 6 0.000000 0.000000 0.000000 -0.048851 0.000000 0.091467
#
#
# Mechanical properties :
#
#
# Convention : Reuss Voigt Hill
#
# Bulk Modulus (GPa) = 28.60444 40.19984 34.40214
# Shear Modulus (GPa) = 19.88758 34.01034 26.94896
#
# Velocity S-wave (km/s) = 2.78819 3.64616 3.24565
# Velocity P-wave (km/s) = 4.64184 5.78273 5.24341
#
# Compressibility (1/GPa) = 0.03495961
#
# Stress axis : x y z
#
# Youngs Moduli (GPa) = 77.08636 105.17021 93.30794
#
# Poissons Ratio (x) = 0.08741 -0.05444
# Poissons Ratio (y) = 0.06407 -0.10529
# Poissons Ratio (z) = -0.04498 -0.11867
#
# Static dielectric constant tensor:
#      x y z
#    x 2.119320 0.000000 -0.054390 
#    y 0.000000 2.017720 0.000000 
#    z -0.054390 0.000000 2.295930 
# 
# From -- ./inp_files/85518.got.cif
#   From: 2010.05.17/outbox.cif.g08.bks.cpg/sg13_43_cif.got.tgz:85518.got - 2010.06.03 16:44:36.
