data_PCOD9230604
_publ_section_title
;
Structure prediction by ZEFSAII (Michael W. Deem and Ramdas Pophale) SiO2 
 PCOD9230604
Probable space group: P 2/C
;
_chemical_formula_sum "Si O2"
_cell_formula_units_Z 26
_cell_length_a 11.587200
_cell_length_b 12.985928
_cell_length_c 15.020105
_cell_angle_alpha 90.000000
_cell_angle_beta 30.117091
_cell_angle_gamma 90.000000
_cell_volume 1134.039293
_symmetry_space_group_name_H-M "P 2/C"
_symmetry_group_IT_number 13
_symmetry_cell_setting 'monoclinic'
loop_
_space_group_symop_operation_xyz
x,y,z
-x,y,1/2-z
-x,-y,-z
x,-y,1/2+z
loop_
_atom_site_type_symbol
_atom_site_label
_atom_site_fract_x
_atom_site_fract_y
_atom_site_fract_z
Si Si1 0.632320 0.391214 0.343571
Si Si2 0.079449 0.024307 0.565837
Si Si3 0.304861 0.045499 0.070040
Si Si4 0.109904 0.662833 0.462219
Si Si5 0.827054 0.397530 0.782837
Si Si6 0.292549 0.871736 0.289562
Si Si7 0.500000 0.494371 0.750000
O O1 0.415701 0.339792 0.536590
O O2 0.739961 0.484235 0.330647
O O3 0.529324 0.438963 0.320185
O O4 0.855790 0.325994 0.170848
O O5 0.234901 0.043968 0.547057
O O6 0.233751 0.974321 0.386280
O O7 0.910641 0.936001 0.721461
O O8 0.910607 0.114530 0.648456
O O9 0.447514 0.128726 0.919280
O O10 0.500000 0.000000 0.000000
O O11 0.084126 0.631013 0.374780
O O12 0.240558 0.769868 0.377190
O O13 0.271106 0.577220 0.401769
O O14 0.000000 0.384704 0.750000
#
# Coordination Sequence:
#
# PCOD9230604 Si02
#       7
#     4   4   4   4   4   4   2
#     4  10  20  37  62  83 116 156 198 236 295 358
#     4   9  19  37  60  81 114 161 190 229 294 355
#     4   9  18  35  60  83 110 155 194 230 282 352
#     4  11  23  36  58  92 118 150 196 256 290 340
#     4  10  20  37  60  83 114 158 195 233 296 359
#     4  10  21  36  59  86 119 149 196 240 292 342
#     4  10  20  38  62  80 116 160 194 236 296 350
#
# _framework density 22.926894999999998
#
# number of rings (size 3 to 8) (size 9 to 14) (size 15 to 20)
#    0.000    2.154    0.000    4.154    2.154    1.231 
#    5.538    0.000   23.692    0.000    0.000    0.000 
#    0.000    0.000    0.000    0.000    0.000    0.000 
#
# Total GULP energy -144942.058594 kJ/mol
# GULP energy per Si atom -5574.694561 kJ/mol
# Density = 2.287471 g / cm^3
# Si number density = 22.926895 Si / 1000 Ang^3
#
#
#
# Elastic Constant Matrix: (Units=GPa)
#
#
# Indices 1 2 3 4 5 6 
#
# 1 122.5704 -9.5725 -9.8019 0.0000 -13.4154 0.0000
# 2 -9.5725 26.2823 -1.0935 0.0000 -2.4056 0.0000
# 3 -9.8019 -1.0935 132.5170 0.0000 -11.0371 0.0000
# 4 0.0000 0.0000 0.0000 19.8945 0.0000 -3.4720
# 5 -13.4154 -2.4056 -11.0371 0.0000 23.4465 0.0000
# 6 0.0000 0.0000 0.0000 -3.4720 0.0000 7.7786
#
#
#
# Elastic Compliance Matrix: (Units=1/GPa)
#
#
# Indices 1 2 3 4 5 6 
#
# 1 0.009259 0.004000 0.001242 0.000000 0.006293 0.000000
# 2 0.004000 0.040195 0.001209 0.000000 0.006982 0.000000
# 3 0.001242 0.001209 0.008032 0.000000 0.004616 0.000000
# 4 0.000000 0.000000 0.000000 0.054511 0.000000 0.024331
# 5 0.006293 0.006982 0.004616 0.000000 0.049140 0.000000
# 6 0.000000 0.000000 0.000000 0.024331 0.000000 0.139417
#
#
# Mechanical properties :
#
#
# Convention : Reuss Voigt Hill
#
# Bulk Modulus (GPa) = 14.20694 26.71486 20.46090
# Shear Modulus (GPa) = 16.07119 30.34644 23.20882
#
# Velocity S-wave (km/s) = 2.65047 3.64210 3.18511
# Velocity P-wave (km/s) = 3.94673 5.41886 4.74029
#
# Compressibility (1/GPa) = 0.07038815
#
# Stress axis : x y z
#
# Youngs Moduli (GPa) = 108.00260 24.87895 124.49437
#
# Poissons Ratio (x) = -0.09952 -0.15462
# Poissons Ratio (y) = -0.43201 -0.15052
# Poissons Ratio (z) = -0.13414 -0.03008
#
# Static dielectric constant tensor:
#      x y z
#    x 1.931680 0.000000 0.019120 
#    y 0.000000 1.840630 0.000000 
#    z 0.019120 0.000000 2.011440 
# 
# From -- ./inp_files/51435.got.cif
#   From: 2010.05.17/outbox.cif.g08.bks.cpg/sg13_26_cif.got.tgz:51435.got - 2010.06.03 16:44:36.
