data_PCOD9230387
_publ_section_title
;
Structure prediction by ZEFSAII (Michael W. Deem and Ramdas Pophale) SiO2 
 PCOD9230387
Probable space group: P 2/C
;
_chemical_formula_sum "Si O2"
_cell_formula_units_Z 24
_cell_length_a 16.859053
_cell_length_b 7.146907
_cell_length_c 8.789257
_cell_angle_alpha 90.000000
_cell_angle_beta 71.168477
_cell_angle_gamma 90.000000
_cell_volume 1002.330983
_symmetry_space_group_name_H-M "P 2/C"
_symmetry_group_IT_number 13
_symmetry_cell_setting 'monoclinic'
loop_
_space_group_symop_operation_xyz
x,y,z
-x,y,1/2-z
-x,-y,-z
x,-y,1/2+z
loop_
_atom_site_type_symbol
_atom_site_label
_atom_site_fract_x
_atom_site_fract_y
_atom_site_fract_z
Si Si1 0.500000 0.123598 0.750000
Si Si2 0.725426 0.140822 0.138668
Si Si3 0.000000 0.085169 0.750000
Si Si4 0.613593 0.899471 0.435925
Si Si5 0.830265 0.233722 0.554936
Si Si6 0.031012 0.760352 0.931498
Si Si7 0.821691 0.545852 0.764573
O O1 0.434650 0.216095 0.668877
O O2 0.552044 0.999703 0.596538
O O3 0.774744 0.311505 0.181102
O O4 0.663104 0.056035 0.306841
O O5 0.786933 0.965750 0.063910
O O6 0.675731 0.197558 0.017142
O O7 0.048786 0.208117 0.597769
O O8 0.943960 0.944811 0.681956
O O9 0.807258 0.333545 0.727150
O O10 0.801184 0.376416 0.442063
O O11 0.930982 0.237407 0.478843
O O12 0.079887 0.588056 0.832523
#
# Coordination Sequence:
#
# PCOD9230387 Si02
#       7
#     2   4   2   4   4   4   4
#     4   8  16  34  64 104 130 156 212 242 304 378
#     4  11  22  40  64  95 134 166 214 257 326 378
#     4  10  20  36  62  86 104 152 206 284 336 376
#     4   9  18  35  64 100 132 162 202 259 300 389
#     4  12  27  42  62  91 126 175 224 273 324 374
#     4  11  23  40  61  85 122 167 233 277 322 368
#     4  12  27  42  62  91 126 175 224 273 324 374
#
# _framework density 23.944188
#
# number of rings (size 3 to 8) (size 9 to 14) (size 15 to 20)
#    0.000    1.333    3.333    2.500    4.667    0.000 
#    0.000    0.000    0.000    0.000    0.000   81.667 
#    0.000    0.000    0.000    0.000    0.000    0.000 
#
# Total GULP energy -134015.217546 kJ/mol
# GULP energy per Si atom -5583.967398 kJ/mol
# Density = 2.388969 g / cm^3
# Si number density = 23.944188 Si / 1000 Ang^3
#
#
#
# Elastic Constant Matrix: (Units=GPa)
#
#
# Indices 1 2 3 4 5 6 
#
# 1 109.4723 8.9132 40.5665 0.0000 27.0329 0.0000
# 2 8.9132 37.5096 6.1516 0.0000 3.3936 0.0000
# 3 40.5665 6.1516 150.9117 0.0000 10.3277 0.0000
# 4 0.0000 0.0000 0.0000 31.3176 0.0000 7.4032
# 5 27.0329 3.3936 10.3277 0.0000 55.2981 0.0000
# 6 0.0000 0.0000 0.0000 7.4032 0.0000 5.2969
#
#
#
# Elastic Compliance Matrix: (Units=1/GPa)
#
#
# Indices 1 2 3 4 5 6 
#
# 1 0.011516 -0.001844 -0.002677 0.000000 -0.005016 0.000000
# 2 -0.001844 0.027252 -0.000570 0.000000 -0.000665 0.000000
# 3 -0.002677 -0.000570 0.007371 0.000000 -0.000033 0.000000
# 4 0.000000 0.000000 0.000000 0.047686 0.000000 -0.066649
# 5 -0.005016 -0.000665 -0.000033 0.000000 0.020583 0.000000
# 6 0.000000 0.000000 0.000000 -0.066649 0.000000 0.281944
#
#
# Mechanical properties :
#
#
# Convention : Reuss Voigt Hill
#
# Bulk Modulus (GPa) = 27.81032 45.46180 36.63606
# Shear Modulus (GPa) = 11.94688 34.53332 23.24010
#
# Velocity S-wave (km/s) = 2.23614 3.80181 3.11882
# Velocity P-wave (km/s) = 4.27866 6.18865 5.32007
#
# Compressibility (1/GPa) = 0.03595787
#
# Stress axis : x y z
#
# Youngs Moduli (GPa) = 86.83885 36.69519 135.65765
#
# Poissons Ratio (x) = 0.06765 0.36316
# Poissons Ratio (y) = 0.16009 0.07730
# Poissons Ratio (z) = 0.23247 0.02091
#
# Static dielectric constant tensor:
#      x y z
#    x 2.060730 0.000000 0.024060 
#    y 0.000000 1.900940 0.000000 
#    z 0.024060 0.000000 1.979400 
# 
# From -- ./inp_files/20892.got.cif
#   From: 2010.05.17/outbox.cif.g08.bks.cpg/sg13_11_cif.got.tgz:20892.got - 2010.06.03 16:44:36.
