data_PCOD9230969
_publ_section_title
;
Structure prediction by ZEFSAII (Michael W. Deem and Ramdas Pophale) SiO2 
 PCOD9230969
Probable space group: P 2/C
;
_chemical_formula_sum "Si O2"
_cell_formula_units_Z 18
_cell_length_a 6.797512
_cell_length_b 11.740598
_cell_length_c 10.093860
_cell_angle_alpha 90.000000
_cell_angle_beta 82.565387
_cell_angle_gamma 90.000000
_cell_volume 798.787034
_symmetry_space_group_name_H-M "P 2/C"
_symmetry_group_IT_number 13
_symmetry_cell_setting 'monoclinic'
loop_
_space_group_symop_operation_xyz
x,y,z
-x,y,1/2-z
-x,-y,-z
x,-y,1/2+z
loop_
_atom_site_type_symbol
_atom_site_label
_atom_site_fract_x
_atom_site_fract_y
_atom_site_fract_z
Si Si1 0.864626 0.872055 0.135795
Si Si2 0.710527 0.537955 0.923917
Si Si3 0.850893 0.126444 0.135991
Si Si4 0.268270 0.376363 0.798551
Si Si5 0.500000 0.284581 0.250000
O O1 0.746341 0.759200 0.183793
O O2 0.000000 0.892338 0.250000
O O3 0.770122 0.996599 0.123490
O O4 0.006165 0.847500 0.999362
O O5 0.812171 0.439877 0.826348
O O6 0.643597 0.639914 0.831461
O O7 0.500000 0.500000 0.000000
O O8 0.808709 0.575833 0.053700
O O9 0.659685 0.207232 0.159287
O O10 0.000000 0.137045 0.250000
O O11 0.500000 0.400709 0.750000
#
# Coordination Sequence:
#
# PCOD9230969 Si02
#       5
#     4   4   4   4   2
#     4  10  23  43  63  95 134 162 213 277 315 382
#     4  10  20  38  61  93 125 163 215 265 302 385
#     4  10  24  45  64  98 134 166 216 271 318 384
#     4  10  21  38  66  87 130 167 209 265 322 374
#     4  12  22  40  76  88 130 180 210 256 342 374
#
# _framework density 22.534167
#
# number of rings (size 3 to 8) (size 9 to 14) (size 15 to 20)
#    0.000    1.778    3.333    1.333    7.778    0.000 
#    0.000   10.000    0.000    0.000    0.000    0.000 
#    0.000    0.000    0.000    0.000    0.000    0.000 
#
# Total GULP energy -100286.870257 kJ/mol
# GULP energy per Si atom -5571.492792 kJ/mol
# Density = 2.248288 g / cm^3
# Si number density = 22.534167 Si / 1000 Ang^3
#
#
#
# Elastic Constant Matrix: (Units=GPa)
#
#
# Indices 1 2 3 4 5 6 
#
# 1 46.8720 19.2735 21.3392 0.0000 0.7428 0.0000
# 2 19.2735 121.5118 60.2720 0.0000 -18.9403 0.0000
# 3 21.3392 60.2720 159.6040 0.0000 -2.4879 0.0000
# 4 0.0000 0.0000 0.0000 52.1154 0.0000 -115.3843
# 5 0.7428 -18.9403 -2.4879 0.0000 28.6247 0.0000
# 6 0.0000 0.0000 0.0000 -115.3843 0.0000 438.5834
#
#
#
# Elastic Compliance Matrix: (Units=1/GPa)
#
#
# Indices 1 2 3 4 5 6 
#
# 1 0.023607 -0.003212 -0.001989 0.000000 -0.002910 0.000000
# 2 -0.003212 0.011876 -0.003937 0.000000 0.007600 0.000000
# 3 -0.001989 -0.003937 0.007989 0.000000 -0.001859 0.000000
# 4 0.000000 0.000000 0.000000 0.045957 0.000000 0.012090
# 5 -0.002910 0.007600 -0.001859 0.000000 0.039877 0.000000
# 6 0.000000 0.000000 0.000000 0.012090 0.000000 0.005461
#
#
# Mechanical properties :
#
#
# Convention : Reuss Voigt Hill
#
# Bulk Modulus (GPa) = 39.68642 58.86191 49.27417
# Shear Modulus (GPa) = 30.97095 119.00491 74.98793
#
# Velocity S-wave (km/s) = 3.71131 7.27499 5.77492
# Velocity P-wave (km/s) = 6.00125 9.83592 8.14740
#
# Compressibility (1/GPa) = 0.02519754
#
# Stress axis : x y z
#
# Youngs Moduli (GPa) = 42.36065 84.19990 125.16852
#
# Poissons Ratio (x) = 0.27041 0.24894
# Poissons Ratio (y) = 0.13604 0.49280
# Poissons Ratio (z) = 0.08425 0.33151
#
# Static dielectric constant tensor:
#      x y z
#    x 1.848540 0.000000 0.064020 
#    y 0.000000 2.007200 0.000000 
#    z 0.064020 0.000000 1.764540 
# 
# From -- ./inp_files/11262.got.cif
#   From: 2010.05.17/outbox.cif.g08.bks.cpg/sg13_6_cif.got.tgz:11262.got - 2010.06.03 16:44:36.
