data_PCOD9230587
_publ_section_title
;
Structure prediction by ZEFSAII (Michael W. Deem and Ramdas Pophale) SiO2 
 PCOD9230587
Probable space group: P 2/C
;
_chemical_formula_sum "Si O2"
_cell_formula_units_Z 20
_cell_length_a 8.636369
_cell_length_b 16.253066
_cell_length_c 7.778463
_cell_angle_alpha 90.000000
_cell_angle_beta 51.605731
_cell_angle_gamma 90.000000
_cell_volume 855.738215
_symmetry_space_group_name_H-M "P 2/C"
_symmetry_group_IT_number 13
_symmetry_cell_setting 'monoclinic'
loop_
_space_group_symop_operation_xyz
x,y,z
-x,y,1/2-z
-x,-y,-z
x,-y,1/2+z
loop_
_atom_site_type_symbol
_atom_site_label
_atom_site_fract_x
_atom_site_fract_y
_atom_site_fract_z
Si Si1 0.224356 0.060623 0.535798
Si Si2 0.774327 0.114929 0.360018
Si Si3 0.447643 0.782889 0.987774
Si Si4 0.160443 0.459271 0.263682
Si Si5 0.553890 0.608717 0.415749
O O1 0.235426 0.089773 0.333330
O O2 0.322600 0.132901 0.578609
O O3 0.000000 0.053762 0.750000
O O4 0.301669 0.967697 0.495072
O O5 0.639542 0.194685 0.467908
O O6 0.000000 0.131340 0.250000
O O7 0.500000 0.770484 0.750000
O O8 0.357536 0.698903 0.119096
O O9 0.293149 0.539935 0.121755
O O10 0.000000 0.417431 0.250000
O O11 0.000000 0.500000 0.500000
O O12 0.344929 0.398023 0.163427
O O13 0.500000 0.594321 0.250000
#
# Coordination Sequence:
#
# PCOD9230587 Si02
#       5
#     4   4   4   4   4
#     4  10  20  37  59  85 117 160 210 248 303 364
#     4  10  20  37  59  86 117 163 206 252 302 362
#     4  10  24  40  57  87 128 160 198 259 310 358
#     4  11  24  45  70  95 125 166 206 254 313 374
#     4  11  25  42  65  99 127 161 213 254 308 383
#
# _framework density 23.371635999999999
#
# number of rings (size 3 to 8) (size 9 to 14) (size 15 to 20)
#    0.000    1.600    2.000    3.000    2.800    4.800 
#    3.600    0.000    0.000    0.000    0.000    0.000 
#    0.000    0.000    0.000    0.000    0.000    0.000 
#
# Total GULP energy -111560.096583 kJ/mol
# GULP energy per Si atom -5578.004829 kJ/mol
# Density = 2.331844 g / cm^3
# Si number density = 23.371636 Si / 1000 Ang^3
#
#
#
# Elastic Constant Matrix: (Units=GPa)
#
#
# Indices 1 2 3 4 5 6 
#
# 1 92.5942 34.0869 1.6582 0.0000 -25.7085 0.0000
# 2 34.0869 101.0544 -12.5083 0.0000 -9.4681 0.0000
# 3 1.6582 -12.5083 75.9482 0.0000 -19.2346 0.0000
# 4 0.0000 0.0000 0.0000 20.3250 0.0000 1.4643
# 5 -25.7085 -9.4681 -19.2346 0.0000 33.8761 0.0000
# 6 0.0000 0.0000 0.0000 1.4643 0.0000 27.9347
#
#
#
# Elastic Compliance Matrix: (Units=1/GPa)
#
#
# Indices 1 2 3 4 5 6 
#
# 1 0.015460 -0.003860 0.002015 0.000000 0.011798 0.000000
# 2 -0.003860 0.011660 0.002439 0.000000 0.001714 0.000000
# 3 0.002015 0.002439 0.016450 0.000000 0.011551 0.000000
# 4 0.000000 0.000000 0.000000 0.049387 0.000000 -0.002589
# 5 0.011798 0.001714 0.011551 0.000000 0.045510 0.000000
# 6 0.000000 0.000000 0.000000 -0.002589 0.000000 0.035933
#
#
# Mechanical properties :
#
#
# Convention : Reuss Voigt Hill
#
# Bulk Modulus (GPa) = 22.34295 35.11893 28.73094
# Shear Modulus (GPa) = 26.57682 32.85116 29.71399
#
# Velocity S-wave (km/s) = 3.37581 3.75320 3.56950
# Velocity P-wave (km/s) = 4.97749 5.81730 5.41370
#
# Compressibility (1/GPa) = 0.04475685
#
# Stress axis : x y z
#
# Youngs Moduli (GPa) = 64.68109 85.76149 60.79084
#
# Poissons Ratio (x) = 0.33106 -0.12247
# Poissons Ratio (y) = 0.24969 -0.14826
# Poissons Ratio (z) = -0.13031 -0.20915
#
# Static dielectric constant tensor:
#      x y z
#    x 1.902070 0.000000 0.038520 
#    y 0.000000 1.873000 0.000000 
#    z 0.038520 0.000000 1.951410 
# 
# From -- ./inp_files/13029.got.cif
#   From: 2010.05.17/outbox.cif.g08.bks.cpg/sg13_7_cif.got.tgz:13029.got - 2010.06.03 16:44:36.
