data_PCOD9230119
_publ_section_title
;
Structure prediction by ZEFSAII (Michael W. Deem and Ramdas Pophale) SiO2 
 PCOD9230119
Probable space group: P 2/C
;
_chemical_formula_sum "Si O2"
_cell_formula_units_Z 28
_cell_length_a 18.069112
_cell_length_b 9.238157
_cell_length_c 13.191402
_cell_angle_alpha 90.000000
_cell_angle_beta 36.256590
_cell_angle_gamma 90.000000
_cell_volume 1302.255458
_symmetry_space_group_name_H-M "P 2/C"
_symmetry_group_IT_number 13
_symmetry_cell_setting 'monoclinic'
loop_
_space_group_symop_operation_xyz
x,y,z
-x,y,1/2-z
-x,-y,-z
x,-y,1/2+z
loop_
_atom_site_type_symbol
_atom_site_label
_atom_site_fract_x
_atom_site_fract_y
_atom_site_fract_z
Si Si1 0.140218 0.439728 0.848190
Si Si2 0.500000 0.107843 0.250000
Si Si3 0.719014 0.111939 0.531127
Si Si4 0.256638 0.719701 0.700974
Si Si5 0.337030 0.601092 0.280271
Si Si6 0.000000 0.129967 0.250000
Si Si7 0.482219 0.666061 0.603478
Si Si8 0.996028 0.827722 0.988255
O O1 0.225020 0.556972 0.694454
O O2 0.200532 0.449012 0.893908
O O3 0.119949 0.269755 0.844169
O O4 0.000000 0.500000 0.000000
O O5 0.469340 0.211510 0.376820
O O6 0.383447 0.010702 0.345952
O O7 0.715657 0.171083 0.420169
O O8 0.678995 0.252035 0.640942
O O9 0.860354 0.060893 0.402197
O O10 0.368020 0.716569 0.657439
O O11 0.125481 0.771634 0.892730
O O12 0.422042 0.471424 0.229290
O O13 0.408081 0.628557 0.095449
O O14 0.000705 0.203946 0.360972
O O15 0.000000 0.000000 0.000000
#
# Coordination Sequence:
#
# PCOD9230119 Si02
#       8
#     4   2   4   4   4   2   4   4
#     4   9  18  37  61  90 121 165 215 265 325 384
#     4  12  28  42  66  94 142 174 226 280 340 404
#     4  11  23  41  67  98 130 179 216 277 334 408
#     4   9  21  39  62  89 124 159 222 264 326 392
#     4  10  21  41  70  89 129 173 220 275 335 392
#     4  10  22  40  60  98 134 166 226 254 332 398
#     4  10  24  42  63  96 127 169 222 283 327 401
#     4  10  20  35  64  88 129 173 205 268 321 394
#
# _framework density 21.501158
#
# number of rings (size 3 to 8) (size 9 to 14) (size 15 to 20)
#    0.000    2.000    1.429    0.857    2.000    8.571 
#    0.000    0.000    0.000    0.000    0.000    0.000 
#    0.000    0.000    0.000    0.000    0.000    0.000 
#
# Total GULP energy -155925.618855 kJ/mol
# GULP energy per Si atom -5568.772102 kJ/mol
# Density = 2.145222 g / cm^3
# Si number density = 21.501158 Si / 1000 Ang^3
#
#
#
# Elastic Constant Matrix: (Units=GPa)
#
#
# Indices 1 2 3 4 5 6 
#
# 1 79.1937 9.4103 12.4134 0.0000 -19.5907 0.0000
# 2 9.4103 94.4961 5.1423 0.0000 -6.9638 0.0000
# 3 12.4134 5.1423 36.7252 0.0000 -20.0104 0.0000
# 4 0.0000 0.0000 0.0000 21.6704 0.0000 8.8712
# 5 -19.5907 -6.9638 -20.0104 0.0000 26.6189 0.0000
# 6 0.0000 0.0000 0.0000 8.8712 0.0000 62.1462
#
#
#
# Elastic Compliance Matrix: (Units=1/GPa)
#
#
# Indices 1 2 3 4 5 6 
#
# 1 0.015545 -0.000717 0.001656 0.000000 0.012497 0.000000
# 2 -0.000717 0.010824 -0.000030 0.000000 0.002281 0.000000
# 3 0.001656 -0.000030 0.046296 0.000000 0.036013 0.000000
# 4 0.000000 0.000000 0.000000 0.049010 0.000000 -0.006996
# 5 0.012497 0.002281 0.036013 0.000000 0.074434 0.000000
# 6 0.000000 0.000000 0.000000 -0.006996 0.000000 0.017090
#
#
# Mechanical properties :
#
#
# Convention : Reuss Voigt Hill
#
# Bulk Modulus (GPa) = 13.42626 29.37188 21.39907
# Shear Modulus (GPa) = 21.16772 34.31704 27.74238
#
# Velocity S-wave (km/s) = 3.14107 3.99940 3.59594
# Velocity P-wave (km/s) = 4.40602 5.91753 5.21681
#
# Compressibility (1/GPa) = 0.07448090
#
# Stress axis : x y z
#
# Youngs Moduli (GPa) = 64.33138 92.39062 21.59995
#
# Poissons Ratio (x) = 0.06625 -0.03576
# Poissons Ratio (y) = 0.04613 0.00065
# Poissons Ratio (z) = -0.10651 0.00280
#
# Static dielectric constant tensor:
#      x y z
#    x 1.784700 0.000000 -0.023640 
#    y 0.000000 1.822640 0.000000 
#    z -0.023640 0.000000 1.822720 
# 
# From -- ./inp_files/57222.got.cif
#   From: 2010.05.17/outbox.cif.g08.bks.cpg/sg13_29_cif.got.tgz:57222.got - 2010.06.03 16:44:36.
