data_PCOD9230640
_publ_section_title
;
Structure prediction by ZEFSAII (Michael W. Deem and Ramdas Pophale) SiO2 
 PCOD9230640
Probable space group: P 2/C
;
_chemical_formula_sum "Si O2"
_cell_formula_units_Z 32
_cell_length_a 8.656884
_cell_length_b 5.183746
_cell_length_c 29.274152
_cell_angle_alpha 90.000000
_cell_angle_beta 110.850702
_cell_angle_gamma 90.000000
_cell_volume 1227.648635
_symmetry_space_group_name_H-M "P 2/C"
_symmetry_group_IT_number 13
_symmetry_cell_setting 'monoclinic'
loop_
_space_group_symop_operation_xyz
x,y,z
-x,y,1/2-z
-x,-y,-z
x,-y,1/2+z
loop_
_atom_site_type_symbol
_atom_site_label
_atom_site_fract_x
_atom_site_fract_y
_atom_site_fract_z
Si Si1 0.607782 0.388043 0.216670
Si Si2 0.452045 0.964955 0.102977
Si Si3 0.704770 0.407976 0.855799
Si Si4 0.350062 0.646028 0.006581
Si Si5 0.893896 0.107375 0.079624
Si Si6 0.027399 0.610971 0.351911
Si Si7 0.168240 0.319949 0.047489
Si Si8 0.755066 0.893296 0.195356
O O1 0.500000 0.332095 0.250000
O O2 0.457160 0.413434 0.163582
O O3 0.674491 0.678792 0.219739
O O4 0.743869 0.169235 0.219944
O O5 0.356925 0.876295 0.139286
O O6 0.423295 0.747871 0.061703
O O7 0.638874 0.960725 0.139058
O O8 0.347582 0.187027 0.068987
O O9 0.822151 0.480612 0.910008
O O10 0.829546 0.426811 0.827206
O O11 0.185829 0.472989 0.002028
O O12 0.500000 0.500000 0.000000
O O13 0.280395 0.860785 0.964563
O O14 0.906451 0.341115 0.118992
O O15 0.028176 0.130866 0.051891
O O16 0.929842 0.841224 0.108442
O O17 0.095917 0.732440 0.311932
#
# Coordination Sequence:
#
# PCOD9230640 Si02
#       8
#     4   4   4   4   4   4   4   4
#     4  11  23  42  70  99 130 163 204 256 319 393
#     4  10  20  37  61  80 118 169 214 255 316 382
#     4   9  20  40  62  91 119 164 210 250 312 400
#     4  11  25  36  53  84 124 165 216 281 328 361
#     4  11  24  40  58  90 121 167 220 270 319 377
#     4  11  23  40  66  90 126 167 214 264 317 376
#     4  10  20  38  58  81 114 168 210 257 316 381
#     4  11  23  41  66  97 129 164 211 262 314 390
#
# _framework density 26.066089000000002
#
# number of rings (size 3 to 8) (size 9 to 14) (size 15 to 20)
#    0.000    1.500    2.500    2.250    3.500    1.000 
#    0.000    0.625    0.000    1.500    0.000    0.000 
#    0.000    0.000    0.000    0.000    0.000    0.000 
#
# Total GULP energy -178538.353159 kJ/mol
# GULP energy per Si atom -5579.323536 kJ/mol
# Density = 2.600676 g / cm^3
# Si number density = 26.066089 Si / 1000 Ang^3
#
#
#
# Elastic Constant Matrix: (Units=GPa)
#
#
# Indices 1 2 3 4 5 6 
#
# 1 70.6079 0.7955 -4.5293 0.0000 -17.6339 0.0000
# 2 0.7955 134.9018 10.3201 0.0000 -8.7440 0.0000
# 3 -4.5293 10.3201 69.6181 0.0000 -9.3219 0.0000
# 4 0.0000 0.0000 0.0000 22.6572 0.0000 -11.0850
# 5 -17.6339 -8.7440 -9.3219 0.0000 31.4710 0.0000
# 6 0.0000 0.0000 0.0000 -11.0850 0.0000 32.5368
#
#
#
# Elastic Compliance Matrix: (Units=1/GPa)
#
#
# Indices 1 2 3 4 5 6 
#
# 1 0.016881 0.000382 0.002418 0.000000 0.010281 0.000000
# 2 0.000382 0.007609 -0.000824 0.000000 0.002084 0.000000
# 3 0.002418 -0.000824 0.015405 0.000000 0.005689 0.000000
# 4 0.000000 0.000000 0.000000 0.052964 0.000000 0.018045
# 5 0.010281 0.002084 0.005689 0.000000 0.039800 0.000000
# 6 0.000000 0.000000 0.000000 0.018045 0.000000 0.036882
#
#
# Mechanical properties :
#
#
# Convention : Reuss Voigt Hill
#
# Bulk Modulus (GPa) = 22.80624 32.03339 27.41982
# Shear Modulus (GPa) = 27.74610 35.23577 31.49093
#
# Velocity S-wave (km/s) = 3.26613 3.68065 3.47957
# Velocity P-wave (km/s) = 4.79499 5.51171 5.16579
#
# Compressibility (1/GPa) = 0.04384764
#
# Stress axis : x y z
#
# Youngs Moduli (GPa) = 59.23728 131.42922 64.91250
#
# Poissons Ratio (x) = -0.05019 -0.15698
# Poissons Ratio (y) = -0.02262 0.05349
# Poissons Ratio (z) = -0.14326 0.10830
#
# Static dielectric constant tensor:
#      x y z
#    x 2.218050 0.000000 -0.039710 
#    y 0.000000 2.090400 0.000000 
#    z -0.039710 0.000000 2.094260 
# 
# From -- ./inp_files/95669.got.cif
#   From: 2010.05.17/outbox.cif.g08.bks.cpg/sg13_48_cif.got.tgz:95669.got - 2010.06.03 16:44:36.
