data_PCOD9230530
_publ_section_title
;
Structure prediction by ZEFSAII (Michael W. Deem and Ramdas Pophale) SiO2 
 PCOD9230530
Probable space group: P 2/C
;
_chemical_formula_sum "Si O2"
_cell_formula_units_Z 24
_cell_length_a 9.678508
_cell_length_b 18.244978
_cell_length_c 10.051216
_cell_angle_alpha 90.000000
_cell_angle_beta 41.472969
_cell_angle_gamma 90.000000
_cell_volume 1175.447502
_symmetry_space_group_name_H-M "P 2/C"
_symmetry_group_IT_number 13
_symmetry_cell_setting 'monoclinic'
loop_
_space_group_symop_operation_xyz
x,y,z
-x,y,1/2-z
-x,-y,-z
x,-y,1/2+z
loop_
_atom_site_type_symbol
_atom_site_label
_atom_site_fract_x
_atom_site_fract_y
_atom_site_fract_z
Si Si1 0.354108 0.480865 0.732543
Si Si2 0.105186 0.099422 0.533023
Si Si3 0.180268 0.056674 0.008455
Si Si4 0.863153 0.756962 0.636453
Si Si5 0.961936 0.605385 0.434547
Si Si6 0.697893 0.214152 0.530675
O O1 0.500000 0.461918 0.750000
O O2 0.500000 0.500000 0.500000
O O3 0.187341 0.416541 0.829899
O O4 0.210204 0.549661 0.881892
O O5 0.201395 0.172520 0.402582
O O6 0.000000 0.115946 0.750000
O O7 0.923718 0.077491 0.557837
O O8 0.250250 0.027515 0.443431
O O9 0.315732 0.124786 0.963112
O O10 0.000000 0.052543 0.250000
O O11 0.715602 0.752579 0.871376
O O12 0.886039 0.685490 0.531200
O O13 0.090234 0.770881 0.540551
O O14 0.000000 0.597378 0.250000
O O15 0.500000 0.243484 0.750000
#
# Coordination Sequence:
#
# PCOD9230530 Si02
#       6
#     4   4   4   4   4   4
#     4  11  24  45  70  99 134 172 213 262 316 385
#     4   9  16  28  57  81 108 158 196 246 312 364
#     4   9  15  31  55  77 109 154 205 249 304 360
#     4  10  21  38  59  87 125 160 208 258 322 378
#     4  11  24  42  69  99 132 173 216 262 323 392
#     4  10  20  37  56  85 118 164 211 267 309 378
#
# _framework density 20.417755
#
# number of rings (size 3 to 8) (size 9 to 14) (size 15 to 20)
#    0.000    2.000    5.000    0.500    0.000    4.667 
#    0.000    0.833    0.000    0.000    0.000    0.000 
#    0.000    0.000    0.000    0.000    0.000    0.000 
#
# Total GULP energy -133843.887894 kJ/mol
# GULP energy per Si atom -5576.828662 kJ/mol
# Density = 2.037128 g / cm^3
# Si number density = 20.417755 Si / 1000 Ang^3
#
#
#
# Elastic Constant Matrix: (Units=GPa)
#
#
# Indices 1 2 3 4 5 6 
#
# 1 67.2972 1.8314 42.5705 0.0000 13.2560 0.0000
# 2 1.8314 67.9074 23.8424 0.0000 -2.9046 0.0000
# 3 42.5705 23.8424 170.0871 0.0000 13.0392 0.0000
# 4 0.0000 0.0000 0.0000 -2.3256 0.0000 27.6960
# 5 13.2560 -2.9046 13.0392 0.0000 31.9076 0.0000
# 6 0.0000 0.0000 0.0000 27.6960 0.0000 1.7061
#
#
#
# Elastic Compliance Matrix: (Units=1/GPa)
#
#
# Indices 1 2 3 4 5 6 
#
# 1 0.018760 0.000766 -0.004347 0.000000 -0.005948 0.000000
# 2 0.000766 0.015695 -0.002557 0.000000 0.002156 0.000000
# 3 -0.004347 -0.002557 0.007438 0.000000 -0.001467 0.000000
# 4 0.000000 0.000000 0.000000 -0.002213 0.000000 0.035921
# 5 -0.005948 0.002156 -0.001467 0.000000 0.034607 0.000000
# 6 0.000000 0.000000 0.000000 0.035921 0.000000 0.003016
#
#
# Mechanical properties :
#
#
# Convention : Reuss Voigt Hill
#
# Bulk Modulus (GPa) = 33.76405 49.08669 41.42537
# Shear Modulus (GPa) = 50.27553 22.06079 36.16816
#
# Velocity S-wave (km/s) = 4.96758 3.29062 4.21337
# Velocity P-wave (km/s) = 7.03385 6.20733 6.63347
#
# Compressibility (1/GPa) = 0.02961730
#
# Stress axis : x y z
#
# Youngs Moduli (GPa) = 53.30545 63.71345 134.44239
#
# Poissons Ratio (x) = -0.04879 0.58438
# Poissons Ratio (y) = -0.04082 0.34377
# Poissons Ratio (z) = 0.23170 0.16292
#
# Static dielectric constant tensor:
#      x y z
#    x 1.696880 0.000000 -0.027980 
#    y 0.000000 1.773100 0.000000 
#    z -0.027980 0.000000 1.714120 
# 
# From -- ./inp_files/13456.got.cif
#   From: 2010.05.17/outbox.cif.g08.bks.cpg/sg13_7_cif.got.tgz:13456.got - 2010.06.03 16:44:36.
