data_PCOD9230233
_publ_section_title
;
Structure prediction by ZEFSAII (Michael W. Deem and Ramdas Pophale) SiO2 
 PCOD9230233
Probable space group: P 2/C
;
_chemical_formula_sum "Si O2"
_cell_formula_units_Z 20
_cell_length_a 8.549502
_cell_length_b 23.834160
_cell_length_c 9.339755
_cell_angle_alpha 90.000000
_cell_angle_beta 31.892340
_cell_angle_gamma 90.000000
_cell_volume 1005.488653
_symmetry_space_group_name_H-M "P 2/C"
_symmetry_group_IT_number 13
_symmetry_cell_setting 'monoclinic'
loop_
_space_group_symop_operation_xyz
x,y,z
-x,y,1/2-z
-x,-y,-z
x,-y,1/2+z
loop_
_atom_site_type_symbol
_atom_site_label
_atom_site_fract_x
_atom_site_fract_y
_atom_site_fract_z
Si Si1 0.389121 0.842274 0.183906
Si Si2 0.846348 0.546629 0.521994
Si Si3 0.161148 0.329788 0.472011
Si Si4 0.811129 0.962198 0.041766
Si Si5 0.774258 0.209140 0.147589
O O1 0.500000 0.818110 0.250000
O O2 0.296407 0.906014 0.292368
O O3 0.090314 0.814930 0.355290
O O4 0.655360 0.829285 0.869211
O O5 0.500000 0.538182 0.750000
O O6 0.916896 0.609177 0.528882
O O7 0.000000 0.500000 0.500000
O O8 0.000000 0.546052 0.250000
O O9 0.500000 0.336871 0.250000
O O10 0.152573 0.274691 0.380132
O O11 0.000000 0.318553 0.750000
O O12 0.500000 0.992551 0.250000
O O13 0.000000 0.950513 0.750000
O O14 0.000000 0.000000 0.000000
O O15 0.500000 0.208716 0.250000
#
# Coordination Sequence:
#
# PCOD9230233 Si02
#       5
#     4   4   4   4   4
#     4  11  23  40  58  85 123 154 179 235 307 344
#     4  10  20  36  58  83 117 155 195 243 297 350
#     4   9  18  34  56  83 115 153 193 242 294 340
#     4  11  24  43  64  89 121 157 195 238 290 350
#     4  11  21  37  61  86 110 151 205 240 271 344
#
# _framework density 19.890825
#
# number of rings (size 3 to 8) (size 9 to 14) (size 15 to 20)
#    0.000    1.600    0.000    7.200    0.000    2.400 
#    0.000    3.000    0.000    0.000    0.000    0.000 
#    0.000    0.000    0.000    0.000    0.000    0.000 
#
# Total GULP energy -111429.082281 kJ/mol
# GULP energy per Si atom -5571.454114 kJ/mol
# Density = 1.984555 g / cm^3
# Si number density = 19.890825 Si / 1000 Ang^3
#
#
#
# Elastic Constant Matrix: (Units=GPa)
#
#
# Indices 1 2 3 4 5 6 
#
# 1 73.0379 41.5999 12.9427 0.0000 -17.2984 0.0000
# 2 41.5999 124.7077 25.9583 0.0000 4.7109 0.0000
# 3 12.9427 25.9583 126.6283 0.0000 -11.1767 0.0000
# 4 0.0000 0.0000 0.0000 22.6692 0.0000 -5.4283
# 5 -17.2984 4.7109 -11.1767 0.0000 36.0507 0.0000
# 6 0.0000 0.0000 0.0000 -5.4283 0.0000 24.7686
#
#
#
# Elastic Compliance Matrix: (Units=1/GPa)
#
#
# Indices 1 2 3 4 5 6 
#
# 1 0.020326 -0.007265 0.000366 0.000000 0.010816 0.000000
# 2 -0.007265 0.011072 -0.002018 0.000000 -0.005559 0.000000
# 3 0.000366 -0.002018 0.008546 0.000000 0.003089 0.000000
# 4 0.000000 0.000000 0.000000 0.046556 0.000000 0.010203
# 5 0.010816 -0.005559 0.003089 0.000000 0.034613 0.000000
# 6 0.000000 0.000000 0.000000 0.010203 0.000000 0.042610
#
#
# Mechanical properties :
#
#
# Convention : Reuss Voigt Hill
#
# Bulk Modulus (GPa) = 45.22560 53.93062 49.57811
# Shear Modulus (GPa) = 26.46523 32.95590 29.71056
#
# Velocity S-wave (km/s) = 3.65159 4.07484 3.86901
# Velocity P-wave (km/s) = 6.36907 7.02220 6.70360
#
# Compressibility (1/GPa) = 0.02211137
#
# Stress axis : x y z
#
# Youngs Moduli (GPa) = 49.19698 90.31528 117.01435
#
# Poissons Ratio (x) = 0.65617 -0.04289
# Poissons Ratio (y) = 0.35743 0.23611
# Poissons Ratio (z) = -0.01803 0.18224
#
# Static dielectric constant tensor:
#      x y z
#    x 1.700410 0.000000 0.003160 
#    y 0.000000 1.795500 0.000000 
#    z 0.003160 0.000000 1.675390 
# 
# From -- ./inp_files/13792.got.cif
#   From: 2010.05.17/outbox.cif.g08.bks.cpg/sg13_7_cif.got.tgz:13792.got - 2010.06.03 16:44:36.
