data_PCOD9230056
_publ_section_title
;
Structure prediction by ZEFSAII (Michael W. Deem and Ramdas Pophale) SiO2 
 PCOD9230056
Probable space group: P 2/C
;
_chemical_formula_sum "Si O2"
_cell_formula_units_Z 32
_cell_length_a 9.019810
_cell_length_b 24.439555
_cell_length_c 15.728680
_cell_angle_alpha 90.000000
_cell_angle_beta 29.320508
_cell_angle_gamma 90.000000
_cell_volume 1697.884882
_symmetry_space_group_name_H-M "P 2/C"
_symmetry_group_IT_number 13
_symmetry_cell_setting 'monoclinic'
loop_
_space_group_symop_operation_xyz
x,y,z
-x,y,1/2-z
-x,-y,-z
x,-y,1/2+z
loop_
_atom_site_type_symbol
_atom_site_label
_atom_site_fract_x
_atom_site_fract_y
_atom_site_fract_z
Si Si1 0.854961 0.442291 0.969760
Si Si2 0.854964 0.442292 0.175277
Si Si3 0.135222 0.060091 0.591296
Si Si4 0.862550 0.670712 0.907522
Si Si5 0.864982 0.256633 0.567508
Si Si6 0.863767 0.136190 0.068118
Si Si7 0.862555 0.670713 0.229925
Si Si8 0.864768 0.060089 0.226523
O O1 0.000002 0.499999 0.871078
O O2 0.020518 0.390438 0.847022
O O3 0.885007 0.438298 0.057496
O O4 0.499997 0.441178 0.126128
O O5 0.020528 0.390439 0.132454
O O6 0.052305 0.101582 0.557618
O O7 0.499995 0.056331 0.414339
O O8 0.000000 0.077251 0.750000
O O9 0.999992 0.000001 0.640501
O O10 0.000000 0.689956 0.750000
O O11 0.959593 0.709419 0.936843
O O12 0.499998 0.670299 0.084681
O O13 0.500000 0.254497 0.750000
O O14 0.959594 0.290579 0.603563
O O15 0.992602 0.195835 0.503697
O O16 0.500000 0.141468 0.250000
O O17 0.947688 0.101580 0.109927
O O18 0.000000 0.689958 0.250000
O O19 0.000000 0.077249 0.250000
#
# Coordination Sequence:
#
# PCOD9230056 Si02
#       8
#     4   4   4   4   4   4   4   4
#     4  10  20  35  59  89 119 153 189 234 292 351
#     4  10  20  35  59  89 119 153 189 234 292 351
#     4  10  20  36  58  88 121 156 192 236 286 340
#     4  11  23  41  62  87 116 151 195 243 293 351
#     4  10  24  43  62  83 115 154 196 244 293 342
#     4  10  23  39  59  85 117 154 197 240 286 342
#     4  11  23  41  62  87 116 151 195 243 293 351
#     4  10  20  36  58  88 121 156 192 236 286 340
#
# _framework density 18.846978
#
# number of rings (size 3 to 8) (size 9 to 14) (size 15 to 20)
#    0.000    1.750    1.250    3.375    0.000    6.500 
#    0.000    7.500    0.000    0.000    0.000    0.000 
#    0.000    0.000    0.000    0.000    0.000    0.000 
#
# Total GULP energy -178874.283785 kJ/mol
# GULP energy per Si atom -5589.821368 kJ/mol
# Density = 1.880408 g / cm^3
# Si number density = 18.846978 Si / 1000 Ang^3
#
#
#
# Elastic Constant Matrix: (Units=GPa)
#
#
# Indices 1 2 3 4 5 6 
#
# 1 137.8567 95.3712 59.7977 0.0000 19.7654 0.0000
# 2 95.3712 146.3752 65.1215 0.0000 30.8364 0.0000
# 3 59.7977 65.1215 96.9971 0.0000 21.8902 0.0000
# 4 0.0000 0.0000 0.0000 24.8633 0.0000 -21.7198
# 5 19.7654 30.8364 21.8902 0.0000 27.1718 0.0000
# 6 0.0000 0.0000 0.0000 -21.7198 0.0000 3.5484
#
#
#
# Elastic Compliance Matrix: (Units=1/GPa)
#
#
# Indices 1 2 3 4 5 6 
#
# 1 0.014087 -0.007850 -0.003804 0.000000 0.001726 0.000000
# 2 -0.007850 0.015371 -0.003462 0.000000 -0.008945 0.000000
# 3 -0.003804 -0.003462 0.016460 0.000000 -0.006565 0.000000
# 4 0.000000 0.000000 0.000000 -0.009252 0.000000 -0.056632
# 5 0.001726 -0.008945 -0.006565 0.000000 0.050988 0.000000
# 6 0.000000 0.000000 0.000000 -0.056632 0.000000 -0.064829
#
#
# Mechanical properties :
#
#
# Convention : Reuss Voigt Hill
#
# Bulk Modulus (GPa) = 63.74374 91.31219 77.52797
# Shear Modulus (GPa) = 85.78586 21.84592 53.81589
#
# Velocity S-wave (km/s) = 6.75395 3.40828 5.34940
# Velocity P-wave (km/s) = 9.73223 8.00268 8.90952
#
# Compressibility (1/GPa) = 0.01568782
#
# Stress axis : x y z
#
# Youngs Moduli (GPa) = 70.98770 65.05911 60.75220
#
# Poissons Ratio (x) = 0.51069 0.23109
# Poissons Ratio (y) = 0.55722 0.21030
# Poissons Ratio (z) = 0.27003 0.22521
#
# Static dielectric constant tensor:
#      x y z
#    x 1.657600 0.000000 0.016540 
#    y 0.000000 1.605550 0.000000 
#    z 0.016540 0.000000 1.641360 
# 
# From -- ./inp_files/48298.got.cif
#   From: 2010.05.17/outbox.cif.g08.bks.cpg/sg13_25_cif.got.tgz:48298.got - 2010.06.03 16:44:36.
