data_PCOD9230390
_publ_section_title
;
Structure prediction by ZEFSAII (Michael W. Deem and Ramdas Pophale) SiO2 
 PCOD9230390
Probable space group: P 2/C
;
_chemical_formula_sum "Si O2"
_cell_formula_units_Z 20
_cell_length_a 5.546990
_cell_length_b 11.533120
_cell_length_c 14.463537
_cell_angle_alpha 90.000000
_cell_angle_beta 77.266900
_cell_angle_gamma 90.000000
_cell_volume 902.536428
_symmetry_space_group_name_H-M "P 2/C"
_symmetry_group_IT_number 13
_symmetry_cell_setting 'monoclinic'
loop_
_space_group_symop_operation_xyz
x,y,z
-x,y,1/2-z
-x,-y,-z
x,-y,1/2+z
loop_
_atom_site_type_symbol
_atom_site_label
_atom_site_fract_x
_atom_site_fract_y
_atom_site_fract_z
Si Si1 0.653129 0.962447 0.578319
Si Si2 0.167030 0.601537 0.028154
Si Si3 0.278968 0.509638 0.700655
Si Si4 0.884077 0.816576 0.040285
Si Si5 0.575982 0.737416 0.887594
O O1 0.493549 0.864794 0.643155
O O2 0.893886 0.890691 0.524894
O O3 0.500000 0.000000 0.500000
O O4 0.735997 0.086538 0.611228
O O5 0.325488 0.547131 0.096839
O O6 0.999997 0.706807 0.081167
O O7 0.333642 0.663217 0.936538
O O8 0.000000 0.500000 0.000000
O O9 0.500000 0.476422 0.750000
O O10 0.280864 0.649578 0.689798
O O11 0.000000 0.476178 0.750000
O O12 0.722109 0.762904 0.970578
#
# Coordination Sequence:
#
# PCOD9230390 Si02
#       5
#     4   4   4   4   4
#     4   8  16  31  54  95 112 143 194 273 305 355
#     4  11  21  37  62  90 122 164 211 256 309 380
#     4  12  27  40  57  93 133 169 205 256 326 386
#     4   9  17  31  60  90 115 146 206 261 304 353
#     4  10  20  36  62  87 119 158 212 262 312 367
#
# _framework density 22.159770999999999
#
# number of rings (size 3 to 8) (size 9 to 14) (size 15 to 20)
#    0.000    2.000    2.000    1.800    5.600    0.000 
#    0.000    0.000    0.000    0.000   31.200    0.000 
#    0.000    0.000    0.000    0.000    0.000    0.000 
#
# Total GULP energy -111540.373456 kJ/mol
# GULP energy per Si atom -5577.018673 kJ/mol
# Density = 2.210933 g / cm^3
# Si number density = 22.159771 Si / 1000 Ang^3
#
#
#
# Elastic Constant Matrix: (Units=GPa)
#
#
# Indices 1 2 3 4 5 6 
#
# 1 97.0886 42.6926 23.8446 0.0000 14.5465 0.0000
# 2 42.6926 147.5142 20.1381 0.0000 18.9139 0.0000
# 3 23.8446 20.1381 53.5626 0.0000 15.3314 0.0000
# 4 0.0000 0.0000 0.0000 13.3827 0.0000 1.2752
# 5 14.5465 18.9139 15.3314 0.0000 28.7821 0.0000
# 6 0.0000 0.0000 0.0000 1.2752 0.0000 62.7332
#
#
#
# Elastic Compliance Matrix: (Units=1/GPa)
#
#
# Indices 1 2 3 4 5 6 
#
# 1 0.012912 -0.002873 -0.003941 0.000000 -0.002538 0.000000
# 2 -0.002873 0.008166 -0.000792 0.000000 -0.003493 0.000000
# 3 -0.003941 -0.000792 0.023601 0.000000 -0.010060 0.000000
# 4 0.000000 0.000000 0.000000 0.074868 0.000000 -0.001522
# 5 -0.002538 -0.003493 -0.010060 0.000000 0.043680 0.000000
# 6 0.000000 0.000000 0.000000 -0.001522 0.000000 0.015971
#
#
# Mechanical properties :
#
#
# Convention : Reuss Voigt Hill
#
# Bulk Modulus (GPa) = 33.93588 52.39064 43.16326
# Shear Modulus (GPa) = 24.48175 35.07894 29.78035
#
# Velocity S-wave (km/s) = 3.32743 3.98301 3.66989
# Velocity P-wave (km/s) = 5.48724 6.69672 6.12192
#
# Compressibility (1/GPa) = 0.02946734
#
# Stress axis : x y z
#
# Youngs Moduli (GPa) = 77.45009 122.45189 42.37069
#
# Poissons Ratio (x) = 0.35184 0.16699
# Poissons Ratio (y) = 0.22254 0.03354
# Poissons Ratio (z) = 0.30524 0.09692
#
# Static dielectric constant tensor:
#      x y z
#    x 1.911290 0.000000 -0.064750 
#    y 0.000000 1.855780 0.000000 
#    z -0.064750 0.000000 1.851270 
# 
# From -- ./inp_files/43478.got.cif
#   From: 2010.05.17/outbox.cif.g08.bks.cpg/sg13_22_cif.got.tgz:43478.got - 2010.06.03 16:44:36.
