data_PCOD9230044
_publ_section_title
;
Structure prediction by ZEFSAII (Michael W. Deem and Ramdas Pophale) SiO2 
 PCOD9230044
Probable space group: P 2/C
;
_chemical_formula_sum "Si O2"
_cell_formula_units_Z 28
_cell_length_a 20.687457
_cell_length_b 9.878776
_cell_length_c 13.899327
_cell_angle_alpha 90.000000
_cell_angle_beta 151.844148
_cell_angle_gamma 90.000000
_cell_volume 1340.379626
_symmetry_space_group_name_H-M "P 2/C"
_symmetry_group_IT_number 13
_symmetry_cell_setting 'monoclinic'
loop_
_space_group_symop_operation_xyz
x,y,z
-x,y,1/2-z
-x,-y,-z
x,-y,1/2+z
loop_
_atom_site_type_symbol
_atom_site_label
_atom_site_fract_x
_atom_site_fract_y
_atom_site_fract_z
Si Si1 0.230349 0.803855 0.082732
Si Si2 0.358319 0.381257 0.215495
Si Si3 0.137204 0.544384 0.273276
Si Si4 0.665671 0.429865 0.647262
Si Si5 0.768384 0.096907 0.455780
Si Si6 0.000230 0.173112 0.607773
Si Si7 0.950163 0.242540 0.331080
O O1 0.318027 0.691317 0.253214
O O2 0.292246 0.953668 0.155884
O O3 0.180920 0.776245 0.909203
O O4 0.086644 0.801481 0.953272
O O5 0.515567 0.418908 0.404391
O O6 0.325371 0.431930 0.280193
O O7 0.334136 0.221867 0.169809
O O8 0.252535 0.457918 0.007480
O O9 0.220438 0.576894 0.285238
O O10 0.040494 0.669344 0.173817
O O11 0.055891 0.404490 0.159787
O O12 0.864290 0.092906 0.677808
O O13 0.877552 0.135038 0.516504
O O14 0.956167 0.164248 0.439457
#
# Coordination Sequence:
#
# PCOD9230044 Si02
#       7
#     4   4   4   4   4   4   4
#     4  11  24  37  58  90 125 156 199 238 299 360
#     4  10  23  41  64  83 119 158 201 253 292 350
#     4  11  21  36  62  95 115 151 200 253 300 354
#     4  11  22  42  62  88 114 159 204 249 299 342
#     4  10  23  39  56  92 120 160 197 237 296 362
#     4  10  20  35  59  85 124 151 189 237 301 353
#     4  11  21  35  60  92 122 156 190 250 300 355
#
# _framework density 20.889605
#
# number of rings (size 3 to 8) (size 9 to 14) (size 15 to 20)
#    0.000    1.429    2.857    3.429    2.000    4.000 
#    0.000    0.000    0.000    0.000    3.714    0.000 
#    0.000    0.000    0.000    0.000    0.000    0.000 
#
# Total GULP energy -156420.278901 kJ/mol
# GULP energy per Si atom -5586.438532 kJ/mol
# Density = 2.084206 g / cm^3
# Si number density = 20.889605 Si / 1000 Ang^3
#
#
#
# Elastic Constant Matrix: (Units=GPa)
#
#
# Indices 1 2 3 4 5 6 
#
# 1 46.5249 7.7755 13.0427 0.0000 -23.6987 0.0000
# 2 7.7755 94.7213 2.5407 0.0000 -4.8744 0.0000
# 3 13.0427 2.5407 83.1565 0.0000 -17.4718 0.0000
# 4 0.0000 0.0000 0.0000 20.7921 0.0000 -3.9105
# 5 -23.6987 -4.8744 -17.4718 0.0000 27.1072 0.0000
# 6 0.0000 0.0000 0.0000 -3.9105 0.0000 54.5596
#
#
#
# Elastic Compliance Matrix: (Units=1/GPa)
#
#
# Indices 1 2 3 4 5 6 
#
# 1 0.039052 -0.001455 0.001200 0.000000 0.034654 0.000000
# 2 -0.001455 0.010711 0.000044 0.000000 0.000683 0.000000
# 3 0.001200 0.000044 0.013947 0.000000 0.010047 0.000000
# 4 0.000000 0.000000 0.000000 0.048753 0.000000 0.003494
# 5 0.034654 0.000683 0.010047 0.000000 0.073785 0.000000
# 6 0.000000 0.000000 0.000000 0.003494 0.000000 0.018579
#
#
# Mechanical properties :
#
#
# Convention : Reuss Voigt Hill
#
# Bulk Modulus (GPa) = 15.80031 30.12451 22.96241
# Shear Modulus (GPa) = 22.09035 33.89468 27.99251
#
# Velocity S-wave (km/s) = 3.25542 4.03247 3.66460
# Velocity P-wave (km/s) = 4.65945 6.01109 5.37791
#
# Compressibility (1/GPa) = 0.06328990
#
# Stress axis : x y z
#
# Youngs Moduli (GPa) = 25.60666 93.36508 71.70114
#
# Poissons Ratio (x) = 0.13581 -0.08606
# Poissons Ratio (y) = 0.03725 -0.00318
# Poissons Ratio (z) = -0.03074 -0.00414
#
# Static dielectric constant tensor:
#      x y z
#    x 1.742850 0.000000 -0.045760 
#    y 0.000000 1.790970 0.000000 
#    z -0.045760 0.000000 1.760330 
# 
# From -- ./inp_files/50465.got.cif
#   From: 2010.05.17/outbox.cif.g08.bks.cpg/sg13_26_cif.got.tgz:50465.got - 2010.06.03 16:44:36.
