data_PCOD9230129
_publ_section_title
;
Structure prediction by ZEFSAII (Michael W. Deem and Ramdas Pophale) SiO2 
 PCOD9230129
Probable space group: P 2/C
;
_chemical_formula_sum "Si O2"
_cell_formula_units_Z 32
_cell_length_a 21.914430
_cell_length_b 14.220034
_cell_length_c 8.926351
_cell_angle_alpha 90.000000
_cell_angle_beta 144.266269
_cell_angle_gamma 90.000000
_cell_volume 1624.545566
_symmetry_space_group_name_H-M "P 2/C"
_symmetry_group_IT_number 13
_symmetry_cell_setting 'monoclinic'
loop_
_space_group_symop_operation_xyz
x,y,z
-x,y,1/2-z
-x,-y,-z
x,-y,1/2+z
loop_
_atom_site_type_symbol
_atom_site_label
_atom_site_fract_x
_atom_site_fract_y
_atom_site_fract_z
Si Si1 0.897345 0.385168 0.334833
Si Si2 0.045858 0.146323 0.688228
Si Si3 0.863026 0.423179 0.613852
Si Si4 0.772974 0.259058 0.599094
Si Si5 0.379698 0.103021 0.691941
Si Si6 0.903925 0.946740 0.670609
Si Si7 0.770878 0.774544 0.424943
Si Si8 0.628794 0.902872 0.679613
O O1 0.862695 0.405791 0.435849
O O2 0.855358 0.468013 0.143872
O O3 0.022957 0.393094 0.592711
O O4 0.853456 0.286815 0.184903
O O5 0.113626 0.212108 0.716561
O O6 0.000000 0.190320 0.750000
O O7 0.948966 0.093310 0.416581
O O8 0.120022 0.056737 0.873785
O O9 0.777332 0.356674 0.518561
O O10 0.752330 0.278273 0.732311
O O11 0.690277 0.183238 0.375564
O O12 0.323276 0.191216 0.658195
O O13 0.355174 0.098382 0.467081
O O14 0.343908 0.004337 0.694870
O O15 0.504430 0.109378 0.959265
O O16 0.815985 0.873860 0.454022
O O17 0.000000 0.935693 0.750000
#
# Coordination Sequence:
#
# PCOD9230129 Si02
#       8
#     4   4   4   4   4   4   4   4
#     4  10  22  39  60  84 117 154 193 242 288 346
#     4  10  22  32  50  73 112 151 187 226 273 331
#     4  10  22  39  59  85 116 154 195 239 291 342
#     4  12  23  35  57  85 113 151 195 237 285 346
#     4  10  22  40  61  86 117 153 196 244 294 342
#     4  10  20  36  46  73 112 151 185 225 271 332
#     4  12  23  35  58  83 114 153 194 237 286 344
#     4  10  22  40  61  86 117 153 196 245 291 346
#
# _framework density 19.697816
#
# number of rings (size 3 to 8) (size 9 to 14) (size 15 to 20)
#    0.000    1.500    1.250    3.750    5.250    2.500 
#    0.000    0.000    0.000    0.750    0.000    0.000 
#    0.000    0.000    0.000    0.000    0.000    0.000 
#
# Total GULP energy -178715.759959 kJ/mol
# GULP energy per Si atom -5584.867499 kJ/mol
# Density = 1.965298 g / cm^3
# Si number density = 19.697816 Si / 1000 Ang^3
#
#
#
# Elastic Constant Matrix: (Units=GPa)
#
#
# Indices 1 2 3 4 5 6 
#
# 1 104.9123 34.0943 19.8944 0.0000 -13.7840 0.0000
# 2 34.0943 101.8225 18.0895 0.0000 -2.0411 0.0000
# 3 19.8944 18.0895 46.7002 0.0000 -10.7992 0.0000
# 4 0.0000 0.0000 0.0000 32.9003 0.0000 -0.9030
# 5 -13.7840 -2.0411 -10.7992 0.0000 23.6919 0.0000
# 6 0.0000 0.0000 0.0000 -0.9030 0.0000 29.5733
#
#
#
# Elastic Compliance Matrix: (Units=1/GPa)
#
#
# Indices 1 2 3 4 5 6 
#
# 1 0.011824 -0.003414 -0.002450 0.000000 0.005469 0.000000
# 2 -0.003414 0.011557 -0.003634 0.000000 -0.002647 0.000000
# 3 -0.002450 -0.003634 0.026227 0.000000 0.010216 0.000000
# 4 0.000000 0.000000 0.000000 0.030420 0.000000 0.000929
# 5 0.005469 -0.002647 0.010216 0.000000 0.049819 0.000000
# 6 0.000000 0.000000 0.000000 0.000929 0.000000 0.033843
#
#
# Mechanical properties :
#
#
# Convention : Reuss Voigt Hill
#
# Bulk Modulus (GPa) = 32.66805 44.17679 38.42242
# Shear Modulus (GPa) = 25.92133 29.32355 27.62244
#
# Velocity S-wave (km/s) = 3.63154 3.86251 3.74881
# Velocity P-wave (km/s) = 5.84848 6.50907 6.18759
#
# Compressibility (1/GPa) = 0.03061095
#
# Stress axis : x y z
#
# Youngs Moduli (GPa) = 84.57031 86.52858 38.12850
#
# Poissons Ratio (x) = 0.29544 0.09342
# Poissons Ratio (y) = 0.28876 0.13857
# Poissons Ratio (z) = 0.20721 0.31447
#
# Static dielectric constant tensor:
#      x y z
#    x 1.711360 0.000000 -0.011670 
#    y 0.000000 1.729240 0.000000 
#    z -0.011670 0.000000 1.727230 
# 
# From -- ./inp_files/23579.got.cif
#   From: 2010.05.17/outbox.cif.g08.bks.cpg/sg13_12_cif.got.tgz:23579.got - 2010.06.03 16:44:36.
