data_PCOD9230226
_publ_section_title
;
Structure prediction by ZEFSAII (Michael W. Deem and Ramdas Pophale) SiO2 
 PCOD9230226
Probable space group: P 2/C
;
_chemical_formula_sum "Si O2"
_cell_formula_units_Z 16
_cell_length_a 11.241359
_cell_length_b 12.346344
_cell_length_c 8.118358
_cell_angle_alpha 90.000000
_cell_angle_beta 43.764683
_cell_angle_gamma 90.000000
_cell_volume 779.366984
_symmetry_space_group_name_H-M "P 2/C"
_symmetry_group_IT_number 13
_symmetry_cell_setting 'monoclinic'
loop_
_space_group_symop_operation_xyz
x,y,z
-x,y,1/2-z
-x,-y,-z
x,-y,1/2+z
loop_
_atom_site_type_symbol
_atom_site_label
_atom_site_fract_x
_atom_site_fract_y
_atom_site_fract_z
Si Si1 0.697076 0.864165 0.613480
Si Si2 0.872347 0.937052 0.749821
Si Si3 0.302924 0.364166 0.507633
Si Si4 0.872347 0.437052 0.505484
O O1 0.500000 0.863492 0.750000
O O2 0.739032 0.873727 0.766204
O O3 0.774533 0.750000 0.475466
O O4 0.775768 0.969255 0.447278
O O5 0.000000 0.877111 0.750000
O O6 0.000000 0.000000 0.500000
O O7 0.260970 0.373729 0.744267
O O8 0.224230 0.469256 0.498819
O O9 0.500000 0.363492 0.250000
O O10 0.000000 0.500000 0.500000
O O11 0.000000 0.377110 0.250000
#
# Coordination Sequence:
#
# PCOD9230226 Si02
#       4
#     4   4   4   4
#     4  10  20  36  58  82 112 150 189 237 290 344
#     4   9  19  35  55  81 111 145 186 235 286 341
#     4  10  20  36  58  82 112 150 189 237 290 344
#     4   9  19  35  55  81 111 145 186 235 286 341
#
# _framework density 20.52948
#
# number of rings (size 3 to 8) (size 9 to 14) (size 15 to 20)
#    0.000    2.500    0.000    1.500    0.000    9.000 
#    0.000   17.500    0.000   27.000    0.000    0.000 
#    0.000    0.000    0.000    0.000    0.000    0.000 
#
# Total GULP energy -89068.399699 kJ/mol
# GULP energy per Si atom -5566.774981 kJ/mol
# Density = 2.048275 g / cm^3
# Si number density = 20.529480 Si / 1000 Ang^3
#
#
#
# Elastic Constant Matrix: (Units=GPa)
#
#
# Indices 1 2 3 4 5 6 
#
# 1 140.2156 37.6297 44.8072 0.0000 10.8219 0.0000
# 2 37.6297 103.7293 33.3994 0.0000 13.9077 0.0000
# 3 44.8072 33.3994 132.7668 0.0000 13.6604 0.0000
# 4 0.0000 0.0000 0.0000 -32.3424 0.0000 37.6334
# 5 10.8219 13.9077 13.6604 0.0000 36.7295 0.0000
# 6 0.0000 0.0000 0.0000 37.6334 0.0000 -20.8945
#
#
#
# Elastic Compliance Matrix: (Units=1/GPa)
#
#
# Indices 1 2 3 4 5 6 
#
# 1 0.008512 -0.002263 -0.002218 0.000000 -0.000826 0.000000
# 2 -0.002263 0.011445 -0.001807 0.000000 -0.002995 0.000000
# 3 -0.002218 -0.001807 0.008940 0.000000 -0.001987 0.000000
# 4 0.000000 0.000000 0.000000 0.028217 0.000000 0.050822
# 5 -0.000826 -0.002995 -0.001987 0.000000 0.029342 0.000000
# 6 0.000000 0.000000 0.000000 0.050822 0.000000 0.043676
#
#
# Mechanical properties :
#
#
# Convention : Reuss Voigt Hill
#
# Bulk Modulus (GPa) = 61.27682 67.59826 64.43754
# Shear Modulus (GPa) = 33.74986 14.09023 23.92005
#
# Velocity S-wave (km/s) = 4.05899 2.62265 3.41714
# Velocity P-wave (km/s) = 7.20279 6.49384 6.85748
#
# Compressibility (1/GPa) = 0.01631938
#
# Stress axis : x y z
#
# Youngs Moduli (GPa) = 117.48402 87.37597 111.85961
#
# Poissons Ratio (x) = 0.19771 0.24815
# Poissons Ratio (y) = 0.26584 0.20217
# Poissons Ratio (z) = 0.26063 0.15792
#
# Static dielectric constant tensor:
#      x y z
#    x 1.749210 0.000000 -0.051030 
#    y 0.000000 2.240120 0.000000 
#    z -0.051030 0.000000 1.764720 
# 
# From -- ./inp_files/11293.got.cif
#   From: 2010.05.17/outbox.cif.g08.bks.cpg/sg13_6_cif.got.tgz:11293.got - 2010.06.03 16:44:36.
