data_PCOD9230346
_publ_section_title
;
Structure prediction by ZEFSAII (Michael W. Deem and Ramdas Pophale) SiO2 
 PCOD9230346
Probable space group: P 2/C
;
_chemical_formula_sum "Si O2"
_cell_formula_units_Z 16
_cell_length_a 12.615417
_cell_length_b 6.905872
_cell_length_c 7.039940
_cell_angle_alpha 90.000000
_cell_angle_beta 93.373542
_cell_angle_gamma 90.000000
_cell_volume 612.259954
_symmetry_space_group_name_H-M "P 2/C"
_symmetry_group_IT_number 13
_symmetry_cell_setting 'monoclinic'
loop_
_space_group_symop_operation_xyz
x,y,z
-x,y,1/2-z
-x,-y,-z
x,-y,1/2+z
loop_
_atom_site_type_symbol
_atom_site_label
_atom_site_fract_x
_atom_site_fract_y
_atom_site_fract_z
Si Si1 0.865329 0.804398 0.568513
Si Si2 0.094519 0.745861 0.491036
Si Si3 0.721208 0.653268 0.241686
Si Si4 0.425366 0.663280 0.589162
O O1 0.870380 0.744658 0.787097
O O2 0.761992 0.765088 0.431427
O O3 0.968521 0.712378 0.474233
O O4 0.886755 0.034563 0.577091
O O5 0.174340 0.619587 0.375662
O O6 0.661570 0.461065 0.303866
O O7 0.638495 0.761320 0.090569
O O8 0.500000 0.771157 0.750000
O O9 0.500000 0.500000 0.500000
#
# Coordination Sequence:
#
# PCOD9230346 Si02
#       4
#     4   4   4   4
#     4  10  20  36  60  93 129 161 195 234 293 368
#     4  10  20  36  60  93 129 161 193 236 293 368
#     4  11  21  38  66  86 116 161 209 242 304 368
#     4   9  22  42  63  80 109 157 207 264 306 344
#
# _framework density 26.132691000000001
#
# number of rings (size 3 to 8) (size 9 to 14) (size 15 to 20)
#    0.000    2.000    2.500    0.750    7.000    0.000 
#    0.000    5.000    0.000   19.500    0.000    0.000 
#    0.000    0.000    0.000    0.000    0.000    0.000 
#
# Total GULP energy -89584.647835 kJ/mol
# GULP energy per Si atom -5599.040490 kJ/mol
# Density = 2.607321 g / cm^3
# Si number density = 26.132691 Si / 1000 Ang^3
#
#
#
# Elastic Constant Matrix: (Units=GPa)
#
#
# Indices 1 2 3 4 5 6 
#
# 1 141.5198 25.7325 67.6434 0.0000 2.7359 0.0000
# 2 25.7325 53.3155 17.3271 0.0000 2.9485 0.0000
# 3 67.6434 17.3271 188.3642 0.0000 48.9175 0.0000
# 4 0.0000 0.0000 0.0000 25.2178 0.0000 8.2355
# 5 2.7359 2.9485 48.9175 0.0000 89.1999 0.0000
# 6 0.0000 0.0000 0.0000 8.2355 0.0000 12.0043
#
#
#
# Elastic Compliance Matrix: (Units=1/GPa)
#
#
# Indices 1 2 3 4 5 6 
#
# 1 0.009327 -0.003466 -0.003482 0.000000 0.001738 0.000000
# 2 -0.003466 0.020634 -0.000587 0.000000 -0.000254 0.000000
# 3 -0.003482 -0.000587 0.007673 0.000000 -0.004082 0.000000
# 4 0.000000 0.000000 0.000000 0.051104 0.000000 -0.035060
# 5 0.001738 -0.000254 -0.004082 0.000000 0.013404 0.000000
# 6 0.000000 0.000000 0.000000 -0.035060 0.000000 0.107356
#
#
# Mechanical properties :
#
#
# Convention : Reuss Voigt Hill
#
# Bulk Modulus (GPa) = 44.31968 67.17838 55.74903
# Shear Modulus (GPa) = 21.54324 43.45083 32.49704
#
# Velocity S-wave (km/s) = 2.87431 4.08205 3.53021
# Velocity P-wave (km/s) = 5.29262 6.92675 6.16408
#
# Compressibility (1/GPa) = 0.02256334
#
# Stress axis : x y z
#
# Youngs Moduli (GPa) = 107.21439 48.46336 130.32092
#
# Poissons Ratio (x) = 0.16798 0.45377
# Poissons Ratio (y) = 0.37163 0.07656
# Poissons Ratio (z) = 0.37332 0.02847
#
# Static dielectric constant tensor:
#      x y z
#    x 2.070430 0.000000 0.010000 
#    y 0.000000 2.110060 0.000000 
#    z 0.010000 0.000000 2.084620 
# 
# From -- ./inp_files/14579.got.cif
#   From: 2010.05.17/outbox.cif.g08.bks.cpg/sg13_8_cif.got.tgz:14579.got - 2010.06.03 16:44:36.
