data_PCOD9230177
_publ_section_title
;
Structure prediction by ZEFSAII (Michael W. Deem and Ramdas Pophale) SiO2 
 PCOD9230177
Probable space group: P 2/C
;
_chemical_formula_sum "Si O2"
_cell_formula_units_Z 26
_cell_length_a 12.752762
_cell_length_b 21.159698
_cell_length_c 5.691481
_cell_angle_alpha 90.000000
_cell_angle_beta 114.828612
_cell_angle_gamma 90.000000
_cell_volume 1393.856735
_symmetry_space_group_name_H-M "P 2/C"
_symmetry_group_IT_number 13
_symmetry_cell_setting 'monoclinic'
loop_
_space_group_symop_operation_xyz
x,y,z
-x,y,1/2-z
-x,-y,-z
x,-y,1/2+z
loop_
_atom_site_type_symbol
_atom_site_label
_atom_site_fract_x
_atom_site_fract_y
_atom_site_fract_z
Si Si1 0.883483 0.341160 0.499887
Si Si2 0.339570 0.830280 0.765712
Si Si3 0.709896 0.273322 0.658964
Si Si4 0.133221 0.476599 0.155525
Si Si5 0.120498 0.216133 0.300463
Si Si6 0.631000 0.023233 0.163995
Si Si7 0.500000 0.745441 0.250000
O O1 0.771268 0.325126 0.552716
O O2 0.861770 0.400959 0.314196
O O3 0.907971 0.276055 0.389979
O O4 0.000000 0.357495 0.750000
O O5 0.332520 0.787811 0.526983
O O6 0.211801 0.827601 0.756336
O O7 0.373043 0.902672 0.779122
O O8 0.425598 0.791285 0.013359
O O9 0.597291 0.293633 0.700403
O O10 0.811149 0.246914 0.919128
O O11 0.182631 0.506792 0.441837
O O12 0.000000 0.500000 0.000000
O O13 0.000000 0.184598 0.250000
O O14 0.682345 0.989516 0.448223
O O15 0.500000 0.000000 0.000000
#
# Coordination Sequence:
#
# PCOD9230177 Si02
#       7
#     4   4   4   4   4   4   2
#     4  11  20  33  54  81 123 151 206 241 297 364
#     4  10  22  36  57  86 119 148 192 248 299 357
#     4  10  22  34  56  83 116 159 190 251 296 353
#     4  10  21  32  51  83 116 164 191 252 303 348
#     4  10  21  34  57  82 115 160 193 244 295 353
#     4  10  22  35  58  86 111 149 186 238 298 353
#     4  10  20  36  56  80 118 150 194 238 312 352
#
# _framework density 18.653279999999999
#
# number of rings (size 3 to 8) (size 9 to 14) (size 15 to 20)
#    0.000    1.846    3.077    1.385   12.923    0.000 
#    0.000    0.000    0.000    0.923    0.000    1.077 
#    0.000    0.000    0.000    0.000    0.000    0.000 
#
# Total GULP energy -144872.189509 kJ/mol
# GULP energy per Si atom -5572.007289 kJ/mol
# Density = 1.861082 g / cm^3
# Si number density = 18.653280 Si / 1000 Ang^3
#
#
#
# Elastic Constant Matrix: (Units=GPa)
#
#
# Indices 1 2 3 4 5 6 
#
# 1 120.1953 17.7721 16.3354 0.0000 5.3788 0.0000
# 2 17.7721 62.6220 -16.1417 0.0000 0.5948 0.0000
# 3 16.3354 -16.1417 61.6806 0.0000 -14.4735 0.0000
# 4 0.0000 0.0000 0.0000 -3.2777 0.0000 4.8467
# 5 5.3788 0.5948 -14.4735 0.0000 24.2426 0.0000
# 6 0.0000 0.0000 0.0000 4.8467 0.0000 18.3180
#
#
#
# Elastic Compliance Matrix: (Units=1/GPa)
#
#
# Indices 1 2 3 4 5 6 
#
# 1 0.009776 -0.003960 -0.004781 0.000000 -0.004926 0.000000
# 2 -0.003960 0.018873 0.007077 0.000000 0.004640 0.000000
# 3 -0.004781 0.007077 0.022722 0.000000 0.014453 0.000000
# 4 0.000000 0.000000 0.000000 -0.219293 0.000000 0.058022
# 5 -0.004926 0.004640 0.014453 0.000000 0.050858 0.000000
# 6 0.000000 0.000000 0.000000 0.058022 0.000000 0.039239
#
#
# Mechanical properties :
#
#
# Convention : Reuss Voigt Hill
#
# Bulk Modulus (GPa) = 20.81545 31.15884 25.98715
# Shear Modulus (GPa) = -85.49403 22.95874 -31.26764
#
# Velocity S-wave (km/s) = -6.77737 3.51210 -4.09865
# Velocity P-wave (km/s) = 7.07533 5.76081 2.90459
#
# Compressibility (1/GPa) = 0.04804123
#
# Stress axis : x y z
#
# Youngs Moduli (GPa) = 102.29590 52.98671 44.00992
#
# Poissons Ratio (x) = 0.20982 0.21042
# Poissons Ratio (y) = 0.40509 -0.31144
# Poissons Ratio (z) = 0.48910 -0.37497
#
# Static dielectric constant tensor:
#      x y z
#    x 1.924200 0.000000 -0.457840 
#    y 0.000000 1.595550 0.000000 
#    z -0.457840 0.000000 2.199030 
# 
# From -- ./inp_files/4201.got.cif
#   From: 2010.05.17/outbox.cif.g08.bks.cpg/sg13_3_cif.got.tgz:4201.got - 2010.06.03 16:44:36.
