data_PCOD9230250
_publ_section_title
;
Structure prediction by ZEFSAII (Michael W. Deem and Ramdas Pophale) SiO2 
 PCOD9230250
Probable space group: P 2/C
;
_chemical_formula_sum "Si O2"
_cell_formula_units_Z 32
_cell_length_a 11.894292
_cell_length_b 15.461317
_cell_length_c 9.003782
_cell_angle_alpha 90.000000
_cell_angle_beta 85.789883
_cell_angle_gamma 90.000000
_cell_volume 1651.340138
_symmetry_space_group_name_H-M "P 2/C"
_symmetry_group_IT_number 13
_symmetry_cell_setting 'monoclinic'
loop_
_space_group_symop_operation_xyz
x,y,z
-x,y,1/2-z
-x,-y,-z
x,-y,1/2+z
loop_
_atom_site_type_symbol
_atom_site_label
_atom_site_fract_x
_atom_site_fract_y
_atom_site_fract_z
Si Si1 0.575240 0.884337 0.092417
Si Si2 0.877745 0.950539 0.320122
Si Si3 0.758478 0.485674 0.449418
Si Si4 0.238806 0.781472 0.259344
Si Si5 0.374075 0.401443 0.293841
Si Si6 0.123754 0.396944 0.805887
Si Si7 0.382103 0.214757 0.446487
Si Si8 0.268583 0.040009 0.394741
O O1 0.500000 0.895282 0.250000
O O2 0.680626 0.824350 0.126668
O O3 0.631353 0.977764 0.052939
O O4 0.499830 0.831882 0.981172
O O5 0.854681 0.851422 0.278240
O O6 0.844420 0.961349 0.493914
O O7 0.000000 0.977018 0.250000
O O8 0.774974 0.001350 0.253237
O O9 0.694543 0.414750 0.353504
O O10 0.679986 0.538264 0.572565
O O11 0.858283 0.445852 0.540072
O O12 0.805892 0.552266 0.325284
O O13 0.179582 0.695989 0.319170
O O14 0.317232 0.764982 0.107531
O O15 0.500000 0.432852 0.250000
O O16 0.382985 0.302537 0.351756
O O17 0.000000 0.390384 0.750000
O O18 0.312625 0.137033 0.378376
#
# Coordination Sequence:
#
# PCOD9230250 Si02
#       8
#     4   4   4   4   4   4   4   4
#     4   9  19  35  58  89 120 158 192 237 297 354
#     4  10  20  37  58  83 114 159 197 242 289 342
#     4  10  24  42  60  89 124 149 203 241 298 361
#     4   9  19  36  59  85 116 149 201 240 286 354
#     4  11  23  40  61  88 123 162 191 240 299 355
#     4  11  21  40  67  88 114 155 198 250 300 344
#     4  10  20  36  58  86 123 153 192 242 294 347
#     4  10  21  36  59  84 121 153 200 241 289 349
#
# _framework density 19.378201000000001
#
# number of rings (size 3 to 8) (size 9 to 14) (size 15 to 20)
#    0.000    2.000    1.250    2.625    1.750    1.500 
#    2.250    0.000    0.000    0.000    0.000    0.000 
#    0.000    0.000    0.000    0.000    0.000    0.000 
#
# Total GULP energy -178474.440583 kJ/mol
# GULP energy per Si atom -5577.326268 kJ/mol
# Density = 1.933410 g / cm^3
# Si number density = 19.378201 Si / 1000 Ang^3
#
#
#
# Elastic Constant Matrix: (Units=GPa)
#
#
# Indices 1 2 3 4 5 6 
#
# 1 83.8025 15.6465 15.0030 0.0000 2.7031 0.0000
# 2 15.6465 90.6429 27.4912 0.0000 3.8551 0.0000
# 3 15.0030 27.4912 59.9196 0.0000 6.7529 0.0000
# 4 0.0000 0.0000 0.0000 -3.2022 0.0000 10.0996
# 5 2.7031 3.8551 6.7529 0.0000 20.0767 0.0000
# 6 0.0000 0.0000 0.0000 10.0996 0.0000 5.5150
#
#
#
# Elastic Compliance Matrix: (Units=1/GPa)
#
#
# Indices 1 2 3 4 5 6 
#
# 1 0.012655 -0.001415 -0.002451 0.000000 -0.000608 0.000000
# 2 -0.001415 0.012979 -0.005551 0.000000 -0.000434 0.000000
# 3 -0.002451 -0.005551 0.020468 0.000000 -0.005489 0.000000
# 4 0.000000 0.000000 0.000000 -0.046088 0.000000 0.084401
# 5 -0.000608 -0.000434 -0.005489 0.000000 0.051820 0.000000
# 6 0.000000 0.000000 0.000000 0.084401 0.000000 0.026760
#
#
# Mechanical properties :
#
#
# Convention : Reuss Voigt Hill
#
# Bulk Modulus (GPa) = 36.67397 38.96071 37.81734
# Shear Modulus (GPa) = 46.93987 16.22618 31.58303
#
# Velocity S-wave (km/s) = 4.92703 2.89683 4.04149
# Velocity P-wave (km/s) = 7.16477 5.59802 6.42930
#
# Compressibility (1/GPa) = 0.02726729
#
# Stress axis : x y z
#
# Youngs Moduli (GPa) = 79.01732 77.04894 48.85619
#
# Poissons Ratio (x) = 0.10905 0.11974
# Poissons Ratio (y) = 0.11184 0.27122
# Poissons Ratio (z) = 0.19366 0.42772
#
# Static dielectric constant tensor:
#      x y z
#    x 1.673150 0.000000 0.009100 
#    y 0.000000 1.662000 0.000000 
#    z 0.009100 0.000000 1.688280 
# 
# From -- ./inp_files/16768.got.cif
#   From: 2010.05.17/outbox.cif.g08.bks.cpg/sg13_9_cif.got.tgz:16768.got - 2010.06.03 16:44:36.
