data_PCOD9230967
_publ_section_title
;
Structure prediction by ZEFSAII (Michael W. Deem and Ramdas Pophale) SiO2 
 PCOD9230967
Probable space group: P 2/C
;
_chemical_formula_sum "Si O2"
_cell_formula_units_Z 30
_cell_length_a 5.313577
_cell_length_b 9.785299
_cell_length_c 26.375444
_cell_angle_alpha 90.000000
_cell_angle_beta 111.953865
_cell_angle_gamma 90.000000
_cell_volume 1271.943563
_symmetry_space_group_name_H-M "P 2/C"
_symmetry_group_IT_number 13
_symmetry_cell_setting 'monoclinic'
loop_
_space_group_symop_operation_xyz
x,y,z
-x,y,1/2-z
-x,-y,-z
x,-y,1/2+z
loop_
_atom_site_type_symbol
_atom_site_label
_atom_site_fract_x
_atom_site_fract_y
_atom_site_fract_z
Si Si1 0.726546 0.017431 0.589442
Si Si2 0.671657 0.536064 0.604660
Si Si3 0.706301 0.898537 0.200633
Si Si4 0.112316 0.606779 0.563397
Si Si5 0.193352 0.129932 0.008849
Si Si6 0.500000 0.135469 0.250000
Si Si7 0.323611 0.595643 0.284257
Si Si8 0.062542 0.773104 0.649926
O O1 0.475006 0.917606 0.556358
O O2 0.980505 0.916044 0.618176
O O3 0.705810 0.093896 0.640649
O O4 0.752459 0.128581 0.547083
O O5 0.368241 0.529713 0.560221
O O6 0.657107 0.453808 0.656072
O O7 0.791065 0.683177 0.632339
O O8 0.878900 0.516392 0.572394
O O9 0.584674 0.753820 0.206414
O O10 0.000000 0.905630 0.250000
O O11 0.554600 0.033291 0.207899
O O12 0.056999 0.733986 0.521633
O O13 0.229899 0.685429 0.622046
O O14 0.000000 0.000000 0.000000
O O15 0.769366 0.214579 0.286170
O O16 0.500000 0.534751 0.250000
O O17 0.000000 0.586726 0.250000
#
# Coordination Sequence:
#
# PCOD9230967 Si02
#       8
#     4   4   4   4   4   2   4   4
#     4  11  22  38  59  96 131 170 218 265 342 399
#     4  10  22  40  61  90 125 171 212 279 314 391
#     4  11  24  41  63  90 132 177 220 276 324 403
#     4  10  20  38  61  91 127 162 214 267 331 384
#     4  11  20  36  63  91 131 171 213 274 332 418
#     4  12  22  36  58  94 136 174 208 270 338 410
#     4  11  24  45  66  90 125 177 240 270 321 392
#     4  10  22  35  59  95 130 168 208 259 333 392
#
# _framework density 23.585954000000001
#
# number of rings (size 3 to 8) (size 9 to 14) (size 15 to 20)
#    0.800    0.533    4.667    1.600    1.867    1.067 
#    0.000    0.000    0.000    1.600    0.000    0.000 
#    0.000    0.000    0.000    0.000    0.000    0.000 
#
# Total GULP energy -167164.504443 kJ/mol
# GULP energy per Si atom -5572.150148 kJ/mol
# Density = 2.353227 g / cm^3
# Si number density = 23.585954 Si / 1000 Ang^3
#
#
#
# Elastic Constant Matrix: (Units=GPa)
#
#
# Indices 1 2 3 4 5 6 
#
# 1 113.2170 3.8597 37.9239 0.0000 -19.2071 0.0000
# 2 3.8597 33.7574 22.2190 0.0000 -12.5906 0.0000
# 3 37.9239 22.2190 145.1672 0.0000 -22.7099 0.0000
# 4 0.0000 0.0000 0.0000 1.6096 0.0000 14.4786
# 5 -19.2071 -12.5906 -22.7099 0.0000 34.8826 0.0000
# 6 0.0000 0.0000 0.0000 14.4786 0.0000 -5.3047
#
#
#
# Elastic Compliance Matrix: (Units=1/GPa)
#
#
# Indices 1 2 3 4 5 6 
#
# 1 0.010366 0.002173 -0.002255 0.000000 0.005024 0.000000
# 2 0.002173 0.036550 -0.004354 0.000000 0.011554 0.000000
# 3 -0.002255 -0.004354 0.008578 0.000000 0.002771 0.000000
# 4 0.000000 0.000000 0.000000 0.024315 0.000000 0.066364
# 5 0.005024 0.011554 0.002771 0.000000 0.037409 0.000000
# 6 0.000000 0.000000 0.000000 0.066364 0.000000 -0.007378
#
#
# Mechanical properties :
#
#
# Convention : Reuss Voigt Hill
#
# Bulk Modulus (GPa) = 21.44952 46.68297 34.06624
# Shear Modulus (GPa) = 37.24330 21.44676 29.34503
#
# Velocity S-wave (km/s) = 3.97803 3.01873 3.53111
# Velocity P-wave (km/s) = 5.49669 5.65562 5.57672
#
# Compressibility (1/GPa) = 0.04662109
#
# Stress axis : x y z
#
# Youngs Moduli (GPa) = 96.46830 27.35971 116.58255
#
# Poissons Ratio (x) = -0.05944 0.26285
# Poissons Ratio (y) = -0.20959 0.50764
# Poissons Ratio (z) = 0.21750 0.11913
#
# Static dielectric constant tensor:
#      x y z
#    x 2.046890 0.000000 -0.054930 
#    y 0.000000 1.922110 0.000000 
#    z -0.054930 0.000000 1.872530 
# 
# From -- ./inp_files/83737.got.cif
#   From: 2010.05.17/outbox.cif.g08.bks.cpg/sg13_42_cif.got.tgz:83737.got - 2010.06.03 16:44:36.
