data_PCOD9230427
_publ_section_title
;
Structure prediction by ZEFSAII (Michael W. Deem and Ramdas Pophale) SiO2 
 PCOD9230427
Probable space group: P 2/C
;
_chemical_formula_sum "Si O2"
_cell_formula_units_Z 32
_cell_length_a 14.525892
_cell_length_b 13.775766
_cell_length_c 18.385784
_cell_angle_alpha 90.000000
_cell_angle_beta 152.473322
_cell_angle_gamma 90.000000
_cell_volume 1700.335231
_symmetry_space_group_name_H-M "P 2/C"
_symmetry_group_IT_number 13
_symmetry_cell_setting 'monoclinic'
loop_
_space_group_symop_operation_xyz
x,y,z
-x,y,1/2-z
-x,-y,-z
x,-y,1/2+z
loop_
_atom_site_type_symbol
_atom_site_label
_atom_site_fract_x
_atom_site_fract_y
_atom_site_fract_z
Si Si1 0.546225 0.050897 0.200451
Si Si2 0.878004 0.217347 0.450689
Si Si3 0.683385 0.329480 0.435576
Si Si4 0.695115 0.865044 0.221462
Si Si5 0.046879 0.396344 0.498100
Si Si6 0.524353 0.688371 0.180041
Si Si7 0.829021 0.544542 0.571595
Si Si8 0.764162 0.172250 0.599582
O O1 0.500000 0.015164 0.250000
O O2 0.700549 0.141298 0.314435
O O3 0.633840 0.969798 0.208534
O O4 0.342412 0.091414 0.024405
O O5 0.853027 0.269951 0.511107
O O6 0.086179 0.160941 0.594181
O O7 0.893070 0.310125 0.408085
O O8 0.500000 0.323062 0.250000
O O9 0.735927 0.440818 0.484998
O O10 0.670883 0.273255 0.503391
O O11 0.540871 0.787690 0.147453
O O12 0.711305 0.850619 0.146132
O O13 0.262037 0.363521 0.679234
O O14 0.070649 0.410765 0.429536
O O15 0.000000 0.500000 0.500000
O O16 0.500000 0.705480 0.250000
O O17 0.348045 0.617790 0.031235
O O18 0.000000 0.530773 0.750000
O O19 0.000000 0.171945 0.750000
#
# Coordination Sequence:
#
# PCOD9230427 Si02
#       8
#     4   4   4   4   4   4   4   4
#     4  12  23  42  64  93 123 168 217 257 319 381
#     4  11  21  39  66  93 120 162 215 260 307 377
#     4  12  21  40  66  89 122 166 207 254 313 377
#     4  11  24  40  65  91 128 161 212 269 318 368
#     4  10  20  36  63  89 123 162 211 252 310 377
#     4   9  21  42  59  85 123 170 208 251 307 378
#     4  11  24  39  61  94 129 167 208 256 316 372
#     4  12  23  40  61  94 128 159 204 270 322 368
#
# _framework density 18.819818999999999
#
# number of rings (size 3 to 8) (size 9 to 14) (size 15 to 20)
#    0.000    1.000    5.000    2.625    0.000    1.000 
#    0.000    1.875    0.000    0.000    0.000    0.000 
#    0.000    0.000    0.000    0.000    0.000    0.000 
#
# Total GULP energy -178631.053204 kJ/mol
# GULP energy per Si atom -5582.220413 kJ/mol
# Density = 1.877698 g / cm^3
# Si number density = 18.819819 Si / 1000 Ang^3
#
#
#
# Elastic Constant Matrix: (Units=GPa)
#
#
# Indices 1 2 3 4 5 6 
#
# 1 84.1568 52.4305 31.4045 0.0000 -4.7658 0.0000
# 2 52.4305 106.5657 40.9679 0.0000 -7.8912 0.0000
# 3 31.4045 40.9679 94.1318 0.0000 -1.9892 0.0000
# 4 0.0000 0.0000 0.0000 19.3274 0.0000 5.6339
# 5 -4.7658 -7.8912 -1.9892 0.0000 24.0580 0.0000
# 6 0.0000 0.0000 0.0000 5.6339 0.0000 45.7177
#
#
#
# Elastic Compliance Matrix: (Units=1/GPa)
#
#
# Indices 1 2 3 4 5 6 
#
# 1 0.017636 -0.007643 -0.002541 0.000000 0.000777 0.000000
# 2 -0.007643 0.014849 -0.003848 0.000000 0.003038 0.000000
# 3 -0.002541 -0.003848 0.013132 0.000000 -0.000680 0.000000
# 4 0.000000 0.000000 0.000000 0.053668 0.000000 -0.006614
# 5 0.000777 0.003038 -0.000680 0.000000 0.042660 0.000000
# 6 0.000000 0.000000 0.000000 -0.006614 0.000000 0.022688
#
#
# Mechanical properties :
#
#
# Convention : Reuss Voigt Hill
#
# Bulk Modulus (GPa) = 56.97344 59.38447 58.17895
# Shear Modulus (GPa) = 25.18277 28.49072 26.83675
#
# Velocity S-wave (km/s) = 3.66197 3.89507 3.78032
# Velocity P-wave (km/s) = 6.94398 7.20079 7.07355
#
# Compressibility (1/GPa) = 0.01755204
#
# Stress axis : x y z
#
# Youngs Moduli (GPa) = 56.70125 67.34684 76.15136
#
# Poissons Ratio (x) = 0.51471 0.19352
# Poissons Ratio (y) = 0.43335 0.29306
# Poissons Ratio (z) = 0.14409 0.25918
#
# Static dielectric constant tensor:
#      x y z
#    x 1.677170 0.000000 0.002080 
#    y 0.000000 1.642980 0.000000 
#    z 0.002080 0.000000 1.668410 
# 
# From -- ./inp_files/68681.got.cif
#   From: 2010.05.17/outbox.cif.g08.bks.cpg/sg13_35_cif.got.tgz:68681.got - 2010.06.03 16:44:36.
