data_PCOD9230654
_publ_section_title
;
Structure prediction by ZEFSAII (Michael W. Deem and Ramdas Pophale) SiO2 
 PCOD9230654
Probable space group: P 2/C
;
_chemical_formula_sum "Si O2"
_cell_formula_units_Z 28
_cell_length_a 13.768306
_cell_length_b 9.479999
_cell_length_c 18.694201
_cell_angle_alpha 90.000000
_cell_angle_beta 34.449123
_cell_angle_gamma 90.000000
_cell_volume 1380.263777
_symmetry_space_group_name_H-M "P 2/C"
_symmetry_group_IT_number 13
_symmetry_cell_setting 'monoclinic'
loop_
_space_group_symop_operation_xyz
x,y,z
-x,y,1/2-z
-x,-y,-z
x,-y,1/2+z
loop_
_atom_site_type_symbol
_atom_site_label
_atom_site_fract_x
_atom_site_fract_y
_atom_site_fract_z
Si Si1 0.578058 0.799753 0.859500
Si Si2 0.194719 0.953167 0.891648
Si Si3 0.672758 0.285556 0.098010
Si Si4 0.271458 0.486030 0.187324
Si Si5 0.330378 0.777458 0.389295
Si Si6 0.441935 0.293199 0.976895
Si Si7 0.920088 0.532771 0.970555
O O1 0.392843 0.783231 0.935521
O O2 0.660401 0.641365 0.803071
O O3 0.700105 0.908417 0.743703
O O4 0.438231 0.185107 0.045532
O O5 0.299496 0.073489 0.870014
O O6 0.197360 0.816393 0.940137
O O7 0.000000 0.000000 0.000000
O O8 0.500000 0.289012 0.250000
O O9 0.761036 0.435706 0.043984
O O10 0.373618 0.629520 0.141719
O O11 0.071517 0.493279 0.322377
O O12 0.324077 0.424331 0.077542
O O13 0.500000 0.710890 0.250000
O O14 0.373557 0.776253 0.446912
O O15 0.157930 0.688602 0.481884
O O16 0.000000 0.500000 0.000000
#
# Coordination Sequence:
#
# PCOD9230654 Si02
#       7
#     4   4   4   4   4   4   4
#     4   9  18  40  63  85 122 178 206 256 336 398
#     4  11  23  41  61  90 128 170 220 269 314 388
#     4  10  20  37  61  87 126 173 209 252 331 397
#     4   9  19  38  63  96 135 162 212 270 340 387
#     4  12  24  40  64  96 127 170 228 273 321 398
#     4   9  21  40  65  94 130 171 215 269 337 397
#     4  12  22  34  61 101 133 163 212 274 325 379
#
# _framework density 20.285979000000001
#
# number of rings (size 3 to 8) (size 9 to 14) (size 15 to 20)
#    0.857    0.857    0.000    6.857    0.000    0.571 
#    0.000    2.857    0.000    1.714    0.000    0.000 
#    0.000    0.000    0.000    0.000    0.000    0.000 
#
# Total GULP energy -156206.579048 kJ/mol
# GULP energy per Si atom -5578.806395 kJ/mol
# Density = 2.023981 g / cm^3
# Si number density = 20.285979 Si / 1000 Ang^3
#
#
#
# Elastic Constant Matrix: (Units=GPa)
#
#
# Indices 1 2 3 4 5 6 
#
# 1 124.1639 20.7087 38.4699 0.0000 22.1087 0.0000
# 2 20.7087 69.6791 23.0353 0.0000 7.7357 0.0000
# 3 38.4699 23.0353 60.9229 0.0000 3.9920 0.0000
# 4 0.0000 0.0000 0.0000 33.5829 0.0000 -4.0335
# 5 22.1087 7.7357 3.9920 0.0000 25.5904 0.0000
# 6 0.0000 0.0000 0.0000 -4.0335 0.0000 40.4311
#
#
#
# Elastic Compliance Matrix: (Units=1/GPa)
#
#
# Indices 1 2 3 4 5 6 
#
# 1 0.011807 -0.000268 -0.006760 0.000000 -0.009065 0.000000
# 2 -0.000268 0.016830 -0.005937 0.000000 -0.003930 0.000000
# 3 -0.006760 -0.005937 0.022659 0.000000 0.004101 0.000000
# 4 0.000000 0.000000 0.000000 0.030138 0.000000 0.003007
# 5 -0.009065 -0.003930 0.004101 0.000000 0.047457 0.000000
# 6 0.000000 0.000000 0.000000 0.003007 0.000000 0.025033
#
#
# Mechanical properties :
#
#
# Convention : Reuss Voigt Hill
#
# Bulk Modulus (GPa) = 39.42253 46.57708 42.99981
# Shear Modulus (GPa) = 26.55177 31.42434 28.98806
#
# Velocity S-wave (km/s) = 3.62176 3.94009 3.78427
# Velocity P-wave (km/s) = 6.07989 6.61129 6.35115
#
# Compressibility (1/GPa) = 0.02536621
#
# Stress axis : x y z
#
# Youngs Moduli (GPa) = 84.69329 59.41737 44.13220
#
# Poissons Ratio (x) = 0.01591 0.29836
# Poissons Ratio (y) = 0.02268 0.26201
# Poissons Ratio (z) = 0.57257 0.35276
#
# Static dielectric constant tensor:
#      x y z
#    x 1.755890 0.000000 0.019880 
#    y 0.000000 1.805340 0.000000 
#    z 0.019880 0.000000 1.731860 
# 
# From -- ./inp_files/79955.got.cif
#   From: 2010.05.17/outbox.cif.g08.bks.cpg/sg13_40_cif.got.tgz:79955.got - 2010.06.03 16:44:36.
