data_PCOD9230106
_publ_section_title
;
Structure prediction by ZEFSAII (Michael W. Deem and Ramdas Pophale) SiO2 
 PCOD9230106
Probable space group: P 2/C
;
_chemical_formula_sum "Si O2"
_cell_formula_units_Z 30
_cell_length_a 22.217636
_cell_length_b 9.126601
_cell_length_c 14.589553
_cell_angle_alpha 90.000000
_cell_angle_beta 31.847417
_cell_angle_gamma 90.000000
_cell_volume 1560.997560
_symmetry_space_group_name_H-M "P 2/C"
_symmetry_group_IT_number 13
_symmetry_cell_setting 'monoclinic'
loop_
_space_group_symop_operation_xyz
x,y,z
-x,y,1/2-z
-x,-y,-z
x,-y,1/2+z
loop_
_atom_site_type_symbol
_atom_site_label
_atom_site_fract_x
_atom_site_fract_y
_atom_site_fract_z
Si Si1 0.788758 0.648704 0.240240
Si Si2 0.629632 0.835912 0.578517
Si Si3 0.403279 0.892063 0.508975
Si Si4 0.659093 0.002461 0.715376
Si Si5 0.000000 0.776293 0.750000
Si Si6 0.750612 0.663377 0.875490
Si Si7 0.760815 0.306545 0.568107
Si Si8 0.984992 0.847003 0.571693
O O1 0.708171 0.737817 0.413773
O O2 0.791287 0.485375 0.275780
O O3 0.734134 0.648149 0.207439
O O4 0.911814 0.731364 0.081914
O O5 0.500000 0.778394 0.750000
O O6 0.624116 0.994214 0.536332
O O7 0.669513 0.871414 0.629545
O O8 0.537241 0.914678 0.356461
O O9 0.356773 0.736292 0.537273
O O10 0.340409 0.943315 0.682581
O O11 0.748262 0.130387 0.584014
O O12 0.105843 0.667030 0.613493
O O13 0.998920 0.873620 0.661604
O O14 0.858927 0.774891 0.725707
O O15 0.714526 0.640718 0.029456
O O16 0.000000 0.000000 0.500000
#
# Coordination Sequence:
#
# PCOD9230106 Si02
#       8
#     4   4   4   4   2   4   4   4
#     4  11  23  40  59  88 128 157 192 246 311 361
#     4  10  20  37  58  85 115 156 201 247 284 338
#     4  10  20  37  59  87 111 158 207 250 290 344
#     4  10  20  35  63  83 118 153 211 256 286 336
#     4   8  20  34  56  88 112 142 190 250 292 344
#     4  11  23  39  60  90 123 158 197 241 307 374
#     4  10  20  38  60  83 118 160 191 246 303 349
#     4  10  21  39  64  88 115 156 203 246 293 350
#
# _framework density 19.218481000000001
#
# number of rings (size 3 to 8) (size 9 to 14) (size 15 to 20)
#    0.000    1.867    2.667    1.200    3.733    1.067 
#    2.400    2.000    0.000    0.000    0.000    0.000 
#    0.000    0.000    0.000    0.000    0.000    0.000 
#
# Total GULP energy -167149.266670 kJ/mol
# GULP energy per Si atom -5571.642222 kJ/mol
# Density = 1.917474 g / cm^3
# Si number density = 19.218481 Si / 1000 Ang^3
#
#
#
# Elastic Constant Matrix: (Units=GPa)
#
#
# Indices 1 2 3 4 5 6 
#
# 1 74.3512 28.0081 24.5642 0.0000 29.3278 0.0000
# 2 28.0081 69.6331 19.3543 0.0000 9.6273 0.0000
# 3 24.5642 19.3543 84.2975 0.0000 20.1342 0.0000
# 4 0.0000 0.0000 0.0000 18.1246 0.0000 -3.1996
# 5 29.3278 9.6273 20.1342 0.0000 34.5580 0.0000
# 6 0.0000 0.0000 0.0000 -3.1996 0.0000 11.1386
#
#
#
# Elastic Compliance Matrix: (Units=1/GPa)
#
#
# Indices 1 2 3 4 5 6 
#
# 1 0.023032 -0.006594 -0.001124 0.000000 -0.017054 0.000000
# 2 -0.006594 0.017428 -0.002622 0.000000 0.002268 0.000000
# 3 -0.001124 -0.002622 0.014393 0.000000 -0.006701 0.000000
# 4 0.000000 0.000000 0.000000 0.058121 0.000000 0.016696
# 5 -0.017054 0.002268 -0.006701 0.000000 0.046682 0.000000
# 6 0.000000 0.000000 0.000000 0.016696 0.000000 0.094574
#
#
# Mechanical properties :
#
#
# Convention : Reuss Voigt Hill
#
# Bulk Modulus (GPa) = 29.26225 41.34835 35.30530
# Shear Modulus (GPa) = 17.46414 23.18793 20.32604
#
# Velocity S-wave (km/s) = 3.01776 3.47730 3.25565
# Velocity P-wave (km/s) = 5.23466 6.13871 5.70462
#
# Compressibility (1/GPa) = 0.03417372
#
# Stress axis : x y z
#
# Youngs Moduli (GPa) = 43.41789 57.37804 69.47906
#
# Poissons Ratio (x) = 0.37833 0.07811
# Poissons Ratio (y) = 0.28628 0.18216
# Poissons Ratio (z) = 0.04881 0.15043
#
# Static dielectric constant tensor:
#      x y z
#    x 1.730000 0.000000 -0.034340 
#    y 0.000000 1.640340 0.000000 
#    z -0.034340 0.000000 1.732150 
# 
# From -- ./inp_files/58676.got.cif
#   From: 2010.05.17/outbox.cif.g08.bks.cpg/sg13_30_cif.got.tgz:58676.got - 2010.06.03 16:44:36.
