data_PCOD9230078
_publ_section_title
;
Structure prediction by ZEFSAII (Michael W. Deem and Ramdas Pophale) SiO2 
 PCOD9230078
Probable space group: P 2/C
;
_chemical_formula_sum "Si O2"
_cell_formula_units_Z 32
_cell_length_a 11.377111
_cell_length_b 10.016261
_cell_length_c 14.455211
_cell_angle_alpha 90.000000
_cell_angle_beta 47.264374
_cell_angle_gamma 90.000000
_cell_volume 1209.900327
_symmetry_space_group_name_H-M "P 2/C"
_symmetry_group_IT_number 13
_symmetry_cell_setting 'monoclinic'
loop_
_space_group_symop_operation_xyz
x,y,z
-x,y,1/2-z
-x,-y,-z
x,-y,1/2+z
loop_
_atom_site_type_symbol
_atom_site_label
_atom_site_fract_x
_atom_site_fract_y
_atom_site_fract_z
Si Si1 0.162654 0.897314 0.999500
Si Si2 0.983009 0.163997 0.404620
Si Si3 0.187524 0.406057 0.541553
Si Si4 0.338042 0.669765 0.458812
Si Si5 0.290874 0.332819 0.201973
Si Si6 0.371450 0.843341 0.158089
Si Si7 0.506984 0.889871 0.619217
Si Si8 0.836338 0.599519 0.224214
O O1 0.200801 0.750796 0.018957
O O2 0.061130 0.866591 0.962531
O O3 0.347260 0.945399 0.898144
O O4 0.068861 0.015908 0.103236
O O5 0.121589 0.253830 0.284835
O O6 0.820562 0.250990 0.488915
O O7 0.314066 0.516111 0.441767
O O8 0.171710 0.420605 0.660667
O O9 0.011868 0.434053 0.595309
O O10 0.345624 0.660162 0.566781
O O11 0.494317 0.758042 0.359108
O O12 0.415461 0.245012 0.192758
O O13 0.274583 0.480250 0.251361
O O14 0.216243 0.752635 0.257943
O O15 0.371450 0.996032 0.187598
O O16 0.422878 0.862713 0.022476
#
# Coordination Sequence:
#
# PCOD9230078 Si02
#       8
#     4   4   4   4   4   4   4   4
#     4  11  24  40  60  84 122 160 206 237 293 365
#     4  11  23  42  59  84 119 164 200 241 292 359
#     4  10  21  36  60  90 121 149 197 247 295 350
#     4  10  20  39  63  88 118 153 192 248 302 353
#     4  10  22  37  64  88 119 148 197 250 303 347
#     4  10  20  35  60  91 123 148 191 245 306 353
#     4  10  21  37  57  91 118 155 192 244 299 355
#     4  10  20  36  59  94 120 147 191 253 300 346
#
# _framework density 26.448461000000002
#
# number of rings (size 3 to 8) (size 9 to 14) (size 15 to 20)
#    0.000    1.750    3.750    0.375    3.500    2.500 
#    2.250    0.000    0.000    0.750    0.000    0.000 
#    0.000    0.000    0.000    0.000    0.000    0.000 
#
# Total GULP energy -178770.380945 kJ/mol
# GULP energy per Si atom -5586.574405 kJ/mol
# Density = 2.638826 g / cm^3
# Si number density = 26.448461 Si / 1000 Ang^3
#
#
#
# Elastic Constant Matrix: (Units=GPa)
#
#
# Indices 1 2 3 4 5 6 
#
# 1 100.1517 20.7824 21.3578 0.0000 -3.6606 0.0000
# 2 20.7824 180.5198 12.0810 0.0000 4.2707 0.0000
# 3 21.3578 12.0810 28.5627 0.0000 5.1317 0.0000
# 4 0.0000 0.0000 0.0000 7.4645 0.0000 -16.6563
# 5 -3.6606 4.2707 5.1317 0.0000 29.2051 0.0000
# 6 0.0000 0.0000 0.0000 -16.6563 0.0000 39.8085
#
#
#
# Elastic Compliance Matrix: (Units=1/GPa)
#
#
# Indices 1 2 3 4 5 6 
#
# 1 0.012296 -0.000863 -0.009426 0.000000 0.003324 0.000000
# 2 -0.000863 0.005767 -0.001675 0.000000 -0.000657 0.000000
# 3 -0.009426 -0.001675 0.044336 0.000000 -0.008727 0.000000
# 4 0.000000 0.000000 0.000000 2.018850 0.000000 0.844707
# 5 0.003324 -0.000657 -0.008727 0.000000 0.036287 0.000000
# 6 0.000000 0.000000 0.000000 0.844707 0.000000 0.378554
#
#
# Mechanical properties :
#
#
# Convention : Reuss Voigt Hill
#
# Bulk Modulus (GPa) = 25.99557 46.40851 36.20204
# Shear Modulus (GPa) = 1.97407 32.29647 17.13527
#
# Velocity S-wave (km/s) = 0.86487 3.49823 2.54810
# Velocity P-wave (km/s) = 3.29355 5.82251 4.73018
#
# Compressibility (1/GPa) = 0.03846810
#
# Stress axis : x y z
#
# Youngs Moduli (GPa) = 81.32966 173.41169 22.55527
#
# Poissons Ratio (x) = 0.14971 0.21261
# Poissons Ratio (y) = 0.07022 0.03779
# Poissons Ratio (z) = 0.76662 0.29054
#
# Static dielectric constant tensor:
#      x y z
#    x 2.091180 0.000000 -0.009090 
#    y 0.000000 2.113890 0.000000 
#    z -0.009090 0.000000 2.155820 
# 
# From -- ./inp_files/78269.got.cif
#   From: 2010.05.17/outbox.cif.g08.bks.cpg/sg13_40_cif.got.tgz:78269.got - 2010.06.03 16:44:36.
