data_PCOD9230389
_publ_section_title
;
Structure prediction by ZEFSAII (Michael W. Deem and Ramdas Pophale) SiO2 
 PCOD9230389
Probable space group: P 2/C
;
_chemical_formula_sum "Si O2"
_cell_formula_units_Z 26
_cell_length_a 11.252796
_cell_length_b 8.871317
_cell_length_c 23.498387
_cell_angle_alpha 90.000000
_cell_angle_beta 146.574173
_cell_angle_gamma 90.000000
_cell_volume 1292.187313
_symmetry_space_group_name_H-M "P 2/C"
_symmetry_group_IT_number 13
_symmetry_cell_setting 'monoclinic'
loop_
_space_group_symop_operation_xyz
x,y,z
-x,y,1/2-z
-x,-y,-z
x,-y,1/2+z
loop_
_atom_site_type_symbol
_atom_site_label
_atom_site_fract_x
_atom_site_fract_y
_atom_site_fract_z
Si Si1 0.688130 0.613785 0.009266
Si Si2 0.630488 0.115303 0.091225
Si Si3 0.000000 0.311355 0.250000
Si Si4 0.961429 0.822485 0.050580
Si Si5 0.285979 0.430780 0.845482
Si Si6 0.240225 0.121542 0.766293
Si Si7 0.651233 0.052455 0.861830
O O1 0.871554 0.662392 0.037738
O O2 0.741208 0.584943 0.096978
O O3 0.539707 0.764242 0.953257
O O4 0.532987 0.474924 0.931111
O O5 0.828396 0.213416 0.145781
O O6 0.743131 0.017588 0.184883
O O7 0.500000 0.000000 0.000000
O O8 0.853373 0.424234 0.228321
O O9 0.053350 0.898128 0.145217
O O10 0.169887 0.833790 0.092565
O O11 0.779181 0.922070 0.946589
O O12 0.210738 0.277178 0.787596
O O13 0.475386 0.130680 0.831305
O O14 0.500000 0.990658 0.750000
#
# Coordination Sequence:
#
# PCOD9230389 Si02
#       7
#     4   4   2   4   4   4   4
#     4  10  20  37  58  86 127 163 194 235 307 360
#     4  11  22  36  56  89 124 153 203 250 287 365
#     4  10  24  36  52  84 124 162 198 230 298 366
#     4  10  20  36  62  87 117 154 199 248 306 354
#     4  10  21  38  57  87 129 165 188 244 298 375
#     4  11  21  36  62  89 117 157 203 251 300 349
#     4   9  20  38  60  91 119 148 202 264 306 347
#
# _framework density 20.120923999999999
#
# number of rings (size 3 to 8) (size 9 to 14) (size 15 to 20)
#    0.000    1.846    3.077    0.923    2.154    0.615 
#    0.000    0.769    0.000    2.769    0.000    0.000 
#    0.000    0.000    0.000    0.000    0.000    0.000 
#
# Total GULP energy -144893.261521 kJ/mol
# GULP energy per Si atom -5572.817751 kJ/mol
# Density = 2.007513 g / cm^3
# Si number density = 20.120924 Si / 1000 Ang^3
#
#
#
# Elastic Constant Matrix: (Units=GPa)
#
#
# Indices 1 2 3 4 5 6 
#
# 1 70.4815 23.7408 37.8435 0.0000 9.0859 0.0000
# 2 23.7408 72.8154 36.5345 0.0000 -0.5910 0.0000
# 3 37.8435 36.5345 108.7351 0.0000 10.4784 0.0000
# 4 0.0000 0.0000 0.0000 17.1427 0.0000 8.1655
# 5 9.0859 -0.5910 10.4784 0.0000 23.1087 0.0000
# 6 0.0000 0.0000 0.0000 8.1655 0.0000 33.3487
#
#
#
# Elastic Compliance Matrix: (Units=1/GPa)
#
#
# Indices 1 2 3 4 5 6 
#
# 1 0.018675 -0.003761 -0.004726 0.000000 -0.005296 0.000000
# 2 -0.003761 0.017487 -0.004969 0.000000 0.004179 0.000000
# 3 -0.004726 -0.004969 0.012908 0.000000 -0.004122 0.000000
# 4 0.000000 0.000000 0.000000 0.066036 0.000000 -0.016169
# 5 -0.005296 0.004179 -0.004122 0.000000 0.047332 0.000000
# 6 0.000000 0.000000 0.000000 -0.016169 0.000000 0.033945
#
#
# Mechanical properties :
#
#
# Convention : Reuss Voigt Hill
#
# Bulk Modulus (GPa) = 45.12922 49.80775 47.46848
# Shear Modulus (GPa) = 21.67505 24.98090 23.32798
#
# Velocity S-wave (km/s) = 3.28569 3.52737 3.40867
# Velocity P-wave (km/s) = 6.07224 6.43411 6.25579
#
# Compressibility (1/GPa) = 0.02215859
#
# Stress axis : x y z
#
# Youngs Moduli (GPa) = 53.54783 57.18611 77.47004
#
# Poissons Ratio (x) = 0.21506 0.36609
# Poissons Ratio (y) = 0.20138 0.38497
# Poissons Ratio (z) = 0.25304 0.28418
#
# Static dielectric constant tensor:
#      x y z
#    x 1.761360 0.000000 0.036610 
#    y 0.000000 1.715320 0.000000 
#    z 0.036610 0.000000 1.774930 
# 
# From -- ./inp_files/86444.got.cif
#   From: 2010.05.17/outbox.cif.g08.bks.cpg/sg13_44_cif.got.tgz:86444.got - 2010.06.03 16:44:36.
