data_PCOD9230204
_publ_section_title
;
Structure prediction by ZEFSAII (Michael W. Deem and Ramdas Pophale) SiO2 
 PCOD9230204
Probable space group: P 2/C
;
_chemical_formula_sum "Si O2"
_cell_formula_units_Z 20
_cell_length_a 8.426224
_cell_length_b 13.642112
_cell_length_c 11.096067
_cell_angle_alpha 90.000000
_cell_angle_beta 49.333408
_cell_angle_gamma 90.000000
_cell_volume 967.492328
_symmetry_space_group_name_H-M "P 2/C"
_symmetry_group_IT_number 13
_symmetry_cell_setting 'monoclinic'
loop_
_space_group_symop_operation_xyz
x,y,z
-x,y,1/2-z
-x,-y,-z
x,-y,1/2+z
loop_
_atom_site_type_symbol
_atom_site_label
_atom_site_fract_x
_atom_site_fract_y
_atom_site_fract_z
Si Si1 0.217804 0.420966 0.072460
Si Si2 0.407610 0.375097 0.429104
Si Si3 0.727741 0.822016 0.571183
Si Si4 0.626636 0.974268 0.060454
Si Si5 0.899281 0.778688 0.931336
O O1 0.404696 0.392656 0.070959
O O2 0.201042 0.327747 0.991774
O O3 0.000000 0.430506 0.250000
O O4 0.266707 0.527987 0.997290
O O5 0.500000 0.367495 0.250000
O O6 0.296836 0.270381 0.506294
O O7 0.500000 0.830662 0.750000
O O8 0.911675 0.797774 0.571819
O O9 0.773163 0.929618 0.497430
O O10 0.500000 0.969541 0.250000
O O11 0.744207 0.870636 0.997655
O O12 0.500000 0.000000 0.000000
O O13 0.000000 0.769095 0.750000
#
# Coordination Sequence:
#
# PCOD9230204 Si02
#       5
#     4   4   4   4   4
#     4  10  21  36  56  83 114 150 192 239 292 348
#     4  10  20  36  57  80 111 150 193 239 289 347
#     4  10  20  36  58  84 114 151 192 241 296 350
#     4  11  23  41  63  89 123 157 198 248 298 352
#     4  11  21  37  61  86 116 155 198 240 297 359
#
# _framework density 20.671999
#
# number of rings (size 3 to 8) (size 9 to 14) (size 15 to 20)
#    0.000    1.600    0.000    9.000    0.000    4.000 
#    0.000    5.000    0.000    0.000    0.000    0.000 
#    0.000    0.000    0.000    0.000    0.000    0.000 
#
# Total GULP energy -111527.735460 kJ/mol
# GULP energy per Si atom -5576.386773 kJ/mol
# Density = 2.062495 g / cm^3
# Si number density = 20.671999 Si / 1000 Ang^3
#
#
#
# Elastic Constant Matrix: (Units=GPa)
#
#
# Indices 1 2 3 4 5 6 
#
# 1 67.9648 -1.8810 2.1176 0.0000 -12.8969 0.0000
# 2 -1.8810 157.6432 22.0114 0.0000 -29.8442 0.0000
# 3 2.1176 22.0114 32.0912 0.0000 -2.1127 0.0000
# 4 0.0000 0.0000 0.0000 127.9146 0.0000 -109.4097
# 5 -12.8969 -29.8442 -2.1127 0.0000 20.5801 0.0000
# 6 0.0000 0.0000 0.0000 -109.4097 0.0000 178.0494
#
#
#
# Elastic Compliance Matrix: (Units=1/GPa)
#
#
# Indices 1 2 3 4 5 6 
#
# 1 0.017998 0.003675 -0.002633 0.000000 0.016338 0.000000
# 2 0.003675 0.010450 -0.006303 0.000000 0.016810 0.000000
# 3 -0.002633 -0.006303 0.035186 0.000000 -0.007179 0.000000
# 4 0.000000 0.000000 0.000000 0.016479 0.000000 0.010126
# 5 0.016338 0.016810 -0.007179 0.000000 0.082469 0.000000
# 6 0.000000 0.000000 0.000000 0.010126 0.000000 0.011839
#
#
# Mechanical properties :
#
#
# Convention : Reuss Voigt Hill
#
# Bulk Modulus (GPa) = 18.82842 33.57727 26.20285
# Shear Modulus (GPa) = 24.67356 81.00556 52.83956
#
# Velocity S-wave (km/s) = 3.45856 6.26667 5.06127
# Velocity P-wave (km/s) = 5.00768 8.28491 6.84531
#
# Compressibility (1/GPa) = 0.05311119
#
# Stress axis : x y z
#
# Youngs Moduli (GPa) = 55.56314 95.69548 28.42056
#
# Poissons Ratio (x) = -0.35172 0.07483
# Poissons Ratio (y) = -0.20422 0.17915
# Poissons Ratio (z) = 0.14630 0.60321
#
# Static dielectric constant tensor:
#      x y z
#    x 2.030170 0.000000 -0.206850 
#    y 0.000000 1.840370 0.000000 
#    z -0.206850 0.000000 1.913720 
# 
# From -- ./inp_files/29807.got.cif
#   From: 2010.05.17/outbox.cif.g08.bks.cpg/sg13_15_cif.got.tgz:29807.got - 2010.06.03 16:44:36.
