data_PCOD9230376
_publ_section_title
;
Structure prediction by ZEFSAII (Michael W. Deem and Ramdas Pophale) SiO2 
 PCOD9230376
Probable space group: P 2/C
;
_chemical_formula_sum "Si O2"
_cell_formula_units_Z 12
_cell_length_a 4.893606
_cell_length_b 10.114661
_cell_length_c 11.703107
_cell_angle_alpha 90.000000
_cell_angle_beta 56.325108
_cell_angle_gamma 90.000000
_cell_volume 482.067385
_symmetry_space_group_name_H-M "P 2/C"
_symmetry_group_IT_number 13
_symmetry_cell_setting 'monoclinic'
loop_
_space_group_symop_operation_xyz
x,y,z
-x,y,1/2-z
-x,-y,-z
x,-y,1/2+z
loop_
_atom_site_type_symbol
_atom_site_label
_atom_site_fract_x
_atom_site_fract_y
_atom_site_fract_z
Si Si1 0.108731 0.548969 0.346721
Si Si2 0.965154 0.121602 0.384795
Si Si3 0.763571 0.174269 0.952803
O O1 0.500000 0.552941 0.250000
O O2 0.000000 0.482083 0.250000
O O3 0.000000 0.500000 0.500000
O O4 0.946699 0.693881 0.378367
O O5 0.602293 0.164431 0.511510
O O6 0.000000 0.172522 0.250000
O O7 0.237393 0.169338 0.409048
O O8 0.954372 0.961879 0.382402
#
# Coordination Sequence:
#
# PCOD9230376 Si02
#       3
#     4   4   4
#     4  12  27  48  72 100 139 187 239 291 346 411
#     4  10  20  36  61  94 129 167 216 274 339 408
#     4  10  22  38  61  93 128 171 218 273 341 407
#
# _framework density 24.892783999999999
#
# number of rings (size 3 to 8) (size 9 to 14) (size 15 to 20)
#    0.000    1.333    0.000    5.000    0.000    9.333 
#    0.000    0.000    0.000    0.000    0.000    0.000 
#    0.000    0.000    0.000    0.000    0.000    0.000 
#
# Total GULP energy -67095.179312 kJ/mol
# GULP energy per Si atom -5591.264943 kJ/mol
# Density = 2.483613 g / cm^3
# Si number density = 24.892784 Si / 1000 Ang^3
#
#
#
# Elastic Constant Matrix: (Units=GPa)
#
#
# Indices 1 2 3 4 5 6 
#
# 1 128.5444 34.3214 37.2822 0.0000 9.3838 0.0000
# 2 34.3214 125.9318 53.4140 0.0000 -8.8739 0.0000
# 3 37.2822 53.4140 161.3706 0.0000 30.7619 0.0000
# 4 0.0000 0.0000 0.0000 -23.0224 0.0000 -15.7980
# 5 9.3838 -8.8739 30.7619 0.0000 49.7295 0.0000
# 6 0.0000 0.0000 0.0000 -15.7980 0.0000 7.0227
#
#
#
# Elastic Compliance Matrix: (Units=1/GPa)
#
#
# Indices 1 2 3 4 5 6 
#
# 1 0.008731 -0.002006 -0.001101 0.000000 -0.001325 0.000000
# 2 -0.002006 0.010464 -0.003886 0.000000 0.004650 0.000000
# 3 -0.001101 -0.003886 0.008877 0.000000 -0.005977 0.000000
# 4 0.000000 0.000000 0.000000 -0.017076 0.000000 -0.038414
# 5 -0.001325 0.004650 -0.005977 0.000000 0.024886 0.000000
# 6 0.000000 0.000000 0.000000 -0.038414 0.000000 0.055981
#
#
# Mechanical properties :
#
#
# Convention : Reuss Voigt Hill
#
# Bulk Modulus (GPa) = 70.99541 73.98687 72.49114
# Shear Modulus (GPa) = 45.23126 26.13458 35.68292
#
# Velocity S-wave (km/s) = 4.26730 3.24371 3.79022
# Velocity P-wave (km/s) = 7.27064 6.61934 6.95262
#
# Compressibility (1/GPa) = 0.01408542
#
# Stress axis : x y z
#
# Youngs Moduli (GPa) = 114.53518 95.56955 112.65082
#
# Poissons Ratio (x) = 0.19172 0.12399
# Poissons Ratio (y) = 0.22976 0.43780
# Poissons Ratio (z) = 0.12606 0.37142
#
# Static dielectric constant tensor:
#      x y z
#    x 1.904940 0.000000 0.083030 
#    y 0.000000 1.965500 0.000000 
#    z 0.083030 0.000000 2.103760 
# 
# From -- ./inp_files/11429.got.cif
#   From: 2010.05.17/outbox.cif.g08.bks.cpg/sg13_6_cif.got.tgz:11429.got - 2010.06.03 16:44:36.
