data_PCOD9230553
_publ_section_title
;
Structure prediction by ZEFSAII (Michael W. Deem and Ramdas Pophale) SiO2 
 PCOD9230553
Probable space group: P 2/C
;
_chemical_formula_sum "Si O2"
_cell_formula_units_Z 20
_cell_length_a 5.264358
_cell_length_b 10.494147
_cell_length_c 17.403143
_cell_angle_alpha 90.000000
_cell_angle_beta 104.078958
_cell_angle_gamma 90.000000
_cell_volume 932.555542
_symmetry_space_group_name_H-M "P 2/C"
_symmetry_group_IT_number 13
_symmetry_cell_setting 'monoclinic'
loop_
_space_group_symop_operation_xyz
x,y,z
-x,y,1/2-z
-x,-y,-z
x,-y,1/2+z
loop_
_atom_site_type_symbol
_atom_site_label
_atom_site_fract_x
_atom_site_fract_y
_atom_site_fract_z
Si Si1 0.289390 0.193109 0.803753
Si Si2 0.958093 0.644320 0.470045
Si Si3 0.522147 0.700849 0.561535
Si Si4 0.704115 0.913710 0.694424
Si Si5 0.532297 0.444674 0.841576
O O1 0.500000 0.192388 0.750000
O O2 0.340133 0.328005 0.846881
O O3 0.000000 0.192043 0.750000
O O4 0.317647 0.054985 0.845018
O O5 0.733521 0.698585 0.509343
O O6 0.814914 0.620199 0.378374
O O7 0.000000 0.500000 0.500000
O O8 0.228954 0.716589 0.506052
O O9 0.615324 0.806903 0.628323
O O10 0.517469 0.565082 0.607063
O O11 0.500000 0.909035 0.750000
O O12 0.000000 0.895773 0.750000
O O13 0.500000 0.481921 0.750000
#
# Coordination Sequence:
#
# PCOD9230553 Si02
#       5
#     4   4   4   4   4
#     4   9  20  35  54  81 115 144 179 233 282 316
#     4  10  22  39  55  82 120 148 174 233 292 322
#     4  11  22  38  59  84 114 148 184 229 282 331
#     4  10  20  37  58  84 114 148 188 233 275 323
#     4  10  21  37  60  85 108 146 193 228 268 336
#
# _framework density 21.446445000000001
#
# number of rings (size 3 to 8) (size 9 to 14) (size 15 to 20)
#    0.000    2.000    0.000    4.200    0.000   12.000 
#    0.000    2.000    0.000    0.000    0.000    0.000 
#    0.000    0.000    0.000    0.000    0.000    0.000 
#
# Total GULP energy -111580.514528 kJ/mol
# GULP energy per Si atom -5579.025726 kJ/mol
# Density = 2.139763 g / cm^3
# Si number density = 21.446445 Si / 1000 Ang^3
#
#
#
# Elastic Constant Matrix: (Units=GPa)
#
#
# Indices 1 2 3 4 5 6 
#
# 1 159.2516 13.7568 37.8729 0.0000 22.1581 0.0000
# 2 13.7568 111.8959 15.7663 0.0000 13.7459 0.0000
# 3 37.8729 15.7663 92.3949 0.0000 9.4172 0.0000
# 4 0.0000 0.0000 0.0000 -6.6221 0.0000 12.9061
# 5 22.1581 13.7459 9.4172 0.0000 34.9504 0.0000
# 6 0.0000 0.0000 0.0000 12.9061 0.0000 27.5874
#
#
#
# Elastic Compliance Matrix: (Units=1/GPa)
#
#
# Indices 1 2 3 4 5 6 
#
# 1 0.007470 -0.000054 -0.002645 0.000000 -0.004002 0.000000
# 2 -0.000054 0.009536 -0.001261 0.000000 -0.003376 0.000000
# 3 -0.002645 -0.001261 0.012237 0.000000 -0.001125 0.000000
# 4 0.000000 0.000000 0.000000 -0.078989 0.000000 0.036953
# 5 -0.004002 -0.003376 -0.001125 0.000000 0.032780 0.000000
# 6 0.000000 0.000000 0.000000 0.036953 0.000000 0.018961
#
#
# Mechanical properties :
#
#
# Convention : Reuss Voigt Hill
#
# Bulk Modulus (GPa) = 46.89725 55.37050 51.13387
# Shear Modulus (GPa) = 293.73771 30.92621 162.33196
#
# Velocity S-wave (km/s) = 11.71583 3.80151 8.70954
# Velocity P-wave (km/s) = 14.31534 6.71884 11.18194
#
# Compressibility (1/GPa) = 0.02132321
#
# Stress axis : x y z
#
# Youngs Moduli (GPa) = 133.87165 104.86610 81.71939
#
# Poissons Ratio (x) = 0.00567 0.21613
# Poissons Ratio (y) = 0.00724 0.10304
# Poissons Ratio (z) = 0.35406 0.13223
#
# Static dielectric constant tensor:
#      x y z
#    x 1.812430 0.000000 0.008680 
#    y 0.000000 1.793320 0.000000 
#    z 0.008680 0.000000 1.834990 
# 
# From -- ./inp_files/43575.got.cif
#   From: 2010.05.17/outbox.cif.g08.bks.cpg/sg13_22_cif.got.tgz:43575.got - 2010.06.03 16:44:36.
