data_PCOD9230375
_publ_section_title
;
Structure prediction by ZEFSAII (Michael W. Deem and Ramdas Pophale) SiO2 
 PCOD9230375
Probable space group: P 2/C
;
_chemical_formula_sum "Si O2"
_cell_formula_units_Z 28
_cell_length_a 23.183683
_cell_length_b 9.552257
_cell_length_c 8.634670
_cell_angle_alpha 90.000000
_cell_angle_beta 42.641844
_cell_angle_gamma 90.000000
_cell_volume 1295.352412
_symmetry_space_group_name_H-M "P 2/C"
_symmetry_group_IT_number 13
_symmetry_cell_setting 'monoclinic'
loop_
_space_group_symop_operation_xyz
x,y,z
-x,y,1/2-z
-x,-y,-z
x,-y,1/2+z
loop_
_atom_site_type_symbol
_atom_site_label
_atom_site_fract_x
_atom_site_fract_y
_atom_site_fract_z
Si Si1 0.945161 0.896049 0.710520
Si Si2 0.786971 0.913718 0.500608
Si Si3 0.556530 0.682569 0.391725
Si Si4 0.300109 0.152941 0.017474
Si Si5 0.808233 0.641813 0.280242
Si Si6 0.392135 0.392316 0.357542
Si Si7 0.159663 0.348988 0.147929
O O1 0.915641 0.760771 0.672659
O O2 0.000000 0.854591 0.750000
O O3 0.000000 0.000000 0.500000
O O4 0.859837 0.983226 0.924000
O O5 0.724986 0.855898 0.754816
O O6 0.829333 0.783693 0.328790
O O7 0.732698 0.009299 0.492288
O O8 0.576502 0.550085 0.241573
O O9 0.594598 0.646666 0.488137
O O10 0.456527 0.697800 0.624136
O O11 0.604357 0.812249 0.220462
O O12 0.243438 0.278946 0.057303
O O13 0.705783 0.624154 0.492998
O O14 0.850361 0.504570 0.269996
O O15 0.830124 0.650034 0.056885
#
# Coordination Sequence:
#
# PCOD9230375 Si02
#       7
#     4   4   4   4   4   4   4
#     4  11  23  46  68  92 126 167 207 264 329 402
#     4  11  25  39  68  92 127 171 218 263 331 391
#     4  10  21  36  60  92 130 169 225 264 325 373
#     4  11  21  41  59  93 125 174 223 265 313 396
#     4  12  21  40  63 100 130 169 214 271 316 380
#     4  10  20  36  61  93 129 170 209 277 322 360
#     4  11  23  38  67  97 127 165 216 263 320 388
#
# _framework density 21.615741
#
# number of rings (size 3 to 8) (size 9 to 14) (size 15 to 20)
#    0.000    1.143    2.857    5.143    2.000    0.000 
#    0.000    4.286    0.000    0.000    0.000    0.000 
#    0.000    0.000    0.000    0.000    0.000    0.000 
#
# Total GULP energy -156633.705862 kJ/mol
# GULP energy per Si atom -5594.060924 kJ/mol
# Density = 2.156654 g / cm^3
# Si number density = 21.615741 Si / 1000 Ang^3
#
#
#
# Elastic Constant Matrix: (Units=GPa)
#
#
# Indices 1 2 3 4 5 6 
#
# 1 38.8383 14.1628 4.8565 0.0000 -4.2117 0.0000
# 2 14.1628 123.7599 24.8780 0.0000 5.4032 0.0000
# 3 4.8565 24.8780 86.8257 0.0000 8.5922 0.0000
# 4 0.0000 0.0000 0.0000 37.1003 0.0000 1.0134
# 5 -4.2117 5.4032 8.5922 0.0000 38.9002 0.0000
# 6 0.0000 0.0000 0.0000 1.0134 0.0000 32.8619
#
#
#
# Elastic Compliance Matrix: (Units=1/GPa)
#
#
# Indices 1 2 3 4 5 6 
#
# 1 0.027393 -0.003091 -0.001005 0.000000 0.003617 0.000000
# 2 -0.003091 0.008939 -0.002282 0.000000 -0.001072 0.000000
# 3 -0.001005 -0.002282 0.012480 0.000000 -0.002548 0.000000
# 4 0.000000 0.000000 0.000000 0.026977 0.000000 -0.000832
# 5 0.003617 -0.001072 -0.002548 0.000000 0.026810 0.000000
# 6 0.000000 0.000000 0.000000 -0.000832 0.000000 0.030456
#
#
# Mechanical properties :
#
#
# Convention : Reuss Voigt Hill
#
# Bulk Modulus (GPa) = 27.73431 37.46873 32.60152
# Shear Modulus (GPa) = 31.67988 35.47427 33.57707
#
# Velocity S-wave (km/s) = 3.83246 4.05548 3.94555
# Velocity P-wave (km/s) = 5.69580 6.26904 5.98928
#
# Compressibility (1/GPa) = 0.03605642
#
# Stress axis : x y z
#
# Youngs Moduli (GPa) = 36.50611 111.86334 80.13040
#
# Poissons Ratio (x) = 0.34574 0.08049
# Poissons Ratio (y) = 0.11283 0.18289
# Poissons Ratio (z) = 0.03667 0.25532
#
# Static dielectric constant tensor:
#      x y z
#    x 1.803370 0.000000 -0.035030 
#    y 0.000000 1.784920 0.000000 
#    z -0.035030 0.000000 1.797480 
# 
# From -- ./inp_files/24522.got.cif
#   From: 2010.05.17/outbox.cif.g08.bks.cpg/sg13_13_cif.got.tgz:24522.got - 2010.06.03 16:44:36.
