data_PCOD9230602
_publ_section_title
;
Structure prediction by ZEFSAII (Michael W. Deem and Ramdas Pophale) SiO2 
 PCOD9230602
Probable space group: P 2/C
;
_chemical_formula_sum "Si O2"
_cell_formula_units_Z 32
_cell_length_a 15.120945
_cell_length_b 16.576452
_cell_length_c 21.713479
_cell_angle_alpha 90.000000
_cell_angle_beta 19.663637
_cell_angle_gamma 90.000000
_cell_volume 1831.394918
_symmetry_space_group_name_H-M "P 2/C"
_symmetry_group_IT_number 13
_symmetry_cell_setting 'monoclinic'
loop_
_space_group_symop_operation_xyz
x,y,z
-x,y,1/2-z
-x,-y,-z
x,-y,1/2+z
loop_
_atom_site_type_symbol
_atom_site_label
_atom_site_fract_x
_atom_site_fract_y
_atom_site_fract_z
Si Si1 0.870297 0.910440 0.018602
Si Si2 0.249913 0.206956 0.796660
Si Si3 0.859394 0.391043 0.648185
Si Si4 0.423286 0.959607 0.702974
Si Si5 0.400644 0.536467 0.747490
Si Si6 0.882703 0.354146 0.894231
Si Si7 0.737797 0.190435 0.051265
Si Si8 0.739051 0.895740 0.960866
O O1 0.810721 0.899565 0.986348
O O2 0.178954 0.921989 0.827182
O O3 0.780543 0.833585 0.116805
O O4 0.717679 0.985884 0.151097
O O5 0.236678 0.302784 0.807924
O O6 0.523769 0.173696 0.590490
O O7 0.998150 0.176566 0.921776
O O8 0.668115 0.461669 0.751254
O O9 0.137107 0.412255 0.433561
O O10 0.920590 0.384560 0.680837
O O11 0.616279 0.890742 0.602205
O O12 0.584716 0.020042 0.553689
O O13 0.500000 0.508573 0.750000
O O14 0.621286 0.593196 0.574019
O O15 0.000000 0.362537 0.750000
O O16 0.813796 0.260862 0.954214
O O17 0.500000 0.223187 0.250000
O O18 0.000000 0.888268 0.750000
#
# Coordination Sequence:
#
# PCOD9230602 Si02
#       8
#     4   4   4   4   4   4   4   4
#     4  10  21  37  59  83 105 143 193 240 281 331
#     4  10  20  37  60  83 109 147 186 238 277 328
#     4   9  19  37  60  86 108 142 190 236 276 324
#     4  10  21  36  62  83 104 143 194 239 284 325
#     4   9  18  35  60  86 111 141 186 235 276 323
#     4  10  21  35  53  85 122 148 176 221 281 346
#     4  11  19  36  62  87 109 140 192 242 282 323
#     4  11  25  40  51  77 121 152 184 232 278 344
#
# _framework density 17.473020000000002
#
# number of rings (size 3 to 8) (size 9 to 14) (size 15 to 20)
#    0.000    2.000    1.250    4.125    3.500    2.500 
#    4.500    0.625    0.000    0.000    0.000    0.000 
#    0.000    0.000    0.000    0.000    0.000    0.000 
#
# Total GULP energy -178549.822131 kJ/mol
# GULP energy per Si atom -5579.681942 kJ/mol
# Density = 1.743325 g / cm^3
# Si number density = 17.473020 Si / 1000 Ang^3
#
#
#
# Elastic Constant Matrix: (Units=GPa)
#
#
# Indices 1 2 3 4 5 6 
#
# 1 72.4852 49.0053 50.4674 0.0000 3.8362 0.0000
# 2 49.0053 111.8303 41.1855 0.0000 2.0646 0.0000
# 3 50.4674 41.1855 108.5369 0.0000 -0.2748 0.0000
# 4 0.0000 0.0000 0.0000 11.3195 0.0000 -7.4389
# 5 3.8362 2.0646 -0.2748 0.0000 22.2636 0.0000
# 6 0.0000 0.0000 0.0000 -7.4389 0.0000 28.1202
#
#
#
# Elastic Compliance Matrix: (Units=1/GPa)
#
#
# Indices 1 2 3 4 5 6 
#
# 1 0.025467 -0.007818 -0.008884 0.000000 -0.003773 0.000000
# 2 -0.007818 0.012818 -0.001228 0.000000 0.000143 0.000000
# 3 -0.008884 -0.001228 0.013815 0.000000 0.001815 0.000000
# 4 0.000000 0.000000 0.000000 0.106933 0.000000 0.028288
# 5 -0.003773 0.000143 0.001815 0.000000 0.045576 0.000000
# 6 0.000000 0.000000 0.000000 0.028288 0.000000 0.043045
#
#
# Mechanical properties :
#
#
# Convention : Reuss Voigt Hill
#
# Bulk Modulus (GPa) = 61.58295 63.79653 62.68974
# Shear Modulus (GPa) = 17.30530 22.48693 19.89612
#
# Velocity S-wave (km/s) = 3.15048 3.59130 3.37809
# Velocity P-wave (km/s) = 6.96815 7.33398 7.15341
#
# Compressibility (1/GPa) = 0.01623826
#
# Stress axis : x y z
#
# Youngs Moduli (GPa) = 39.26635 78.01625 72.38404
#
# Poissons Ratio (x) = 0.60995 0.64310
# Poissons Ratio (y) = 0.30699 0.08890
# Poissons Ratio (z) = 0.34886 0.09582
#
# Static dielectric constant tensor:
#      x y z
#    x 1.608020 0.000000 -0.024910 
#    y 0.000000 1.592890 0.000000 
#    z -0.024910 0.000000 1.587680 
# 
# From -- ./inp_files/80421.got.cif
#   From: 2010.05.17/outbox.cif.g08.bks.cpg/sg13_41_cif.got.tgz:80421.got - 2010.06.03 16:44:36.
