data_PCOD9230188
_publ_section_title
;
Structure prediction by ZEFSAII (Michael W. Deem and Ramdas Pophale) SiO2 
 PCOD9230188
Probable space group: P 2/C
;
_chemical_formula_sum "Si O2"
_cell_formula_units_Z 28
_cell_length_a 17.629757
_cell_length_b 11.346712
_cell_length_c 9.645679
_cell_angle_alpha 90.000000
_cell_angle_beta 32.259939
_cell_angle_gamma 90.000000
_cell_volume 1029.902651
_symmetry_space_group_name_H-M "P 2/C"
_symmetry_group_IT_number 13
_symmetry_cell_setting 'monoclinic'
loop_
_space_group_symop_operation_xyz
x,y,z
-x,y,1/2-z
-x,-y,-z
x,-y,1/2+z
loop_
_atom_site_type_symbol
_atom_site_label
_atom_site_fract_x
_atom_site_fract_y
_atom_site_fract_z
Si Si1 0.345708 0.547221 0.785725
Si Si2 0.879889 0.881369 0.655709
Si Si3 0.545628 0.228376 0.451525
Si Si4 0.730431 0.992077 0.640750
Si Si5 0.894858 0.545775 0.040816
Si Si6 0.697435 0.681140 0.997083
Si Si7 0.125167 0.813576 0.436490
O O1 0.500000 0.500000 0.500000
O O2 0.381089 0.681605 0.768597
O O3 0.300202 0.457596 0.976313
O O4 0.227077 0.532108 0.849786
O O5 0.044972 0.883470 0.437628
O O6 0.842447 0.911083 0.555418
O O7 0.774981 0.950985 0.924998
O O8 0.846330 0.744339 0.746564
O O9 0.386145 0.265088 0.740716
O O10 0.617741 0.271595 0.484803
O O11 0.595305 0.095857 0.344891
O O12 0.741677 0.106023 0.724687
O O13 0.840512 0.679233 0.152044
O O14 0.000000 0.563412 0.750000
O O15 0.000000 0.500000 0.000000
O O16 0.000000 0.822754 0.750000
#
# Coordination Sequence:
#
# PCOD9230188 Si02
#       7
#     4   4   4   4   4   4   4
#     4  10  21  39  64  93 124 169 222 272 323 396
#     4  10  20  36  61  81 121 161 209 258 316 391
#     4   9  20  35  60  90 121 159 219 271 319 394
#     4  10  20  36  56  87 118 160 208 254 320 374
#     4  11  25  43  65  98 133 172 220 275 336 393
#     4   9  18  37  62  85 118 170 212 261 332 391
#     4   9  19  38  62  84 119 168 209 255 321 395
#
# _framework density 27.187035999999999
#
# number of rings (size 3 to 8) (size 9 to 14) (size 15 to 20)
#    0.000    2.286    0.000    3.000    6.000    0.571 
#    2.571    2.143    0.000    1.714    0.000    0.000 
#    0.000    0.000    0.000    0.000    0.000    0.000 
#
# Total GULP energy -156224.145623 kJ/mol
# GULP energy per Si atom -5579.433772 kJ/mol
# Density = 2.712516 g / cm^3
# Si number density = 27.187036 Si / 1000 Ang^3
#
#
#
# Elastic Constant Matrix: (Units=GPa)
#
#
# Indices 1 2 3 4 5 6 
#
# 1 63.1519 6.3006 -7.5462 0.0000 12.3500 0.0000
# 2 6.3006 199.1859 22.9144 0.0000 -3.4938 0.0000
# 3 -7.5462 22.9144 41.5244 0.0000 13.0022 0.0000
# 4 0.0000 0.0000 0.0000 38.8412 0.0000 -9.7856
# 5 12.3500 -3.4938 13.0022 0.0000 40.0432 0.0000
# 6 0.0000 0.0000 0.0000 -9.7856 0.0000 36.3798
#
#
#
# Elastic Compliance Matrix: (Units=1/GPa)
#
#
# Indices 1 2 3 4 5 6 
#
# 1 0.018327 -0.001482 0.006633 0.000000 -0.007936 0.000000
# 2 -0.001482 0.005573 -0.004052 0.000000 0.002259 0.000000
# 3 0.006633 -0.004052 0.031475 0.000000 -0.012619 0.000000
# 4 0.000000 0.000000 0.000000 0.027617 0.000000 0.007429
# 5 -0.007936 0.002259 -0.012619 0.000000 0.031715 0.000000
# 6 0.000000 0.000000 0.000000 0.007429 0.000000 0.029486
#
#
# Mechanical properties :
#
#
# Convention : Reuss Voigt Hill
#
# Bulk Modulus (GPa) = 17.36903 38.57777 27.97340
# Shear Modulus (GPa) = 31.01984 41.86572 36.44278
#
# Velocity S-wave (km/s) = 3.38150 3.92843 3.66518
# Velocity P-wave (km/s) = 4.65281 5.89893 5.31253
#
# Compressibility (1/GPa) = 0.05757373
#
# Stress axis : x y z
#
# Youngs Moduli (GPa) = 54.56368 179.43358 31.77106
#
# Poissons Ratio (x) = 0.26592 -0.21074
# Poissons Ratio (y) = 0.08086 0.12874
# Poissons Ratio (z) = -0.36193 0.72708
#
# Static dielectric constant tensor:
#      x y z
#    x 2.285640 0.000000 -0.018480 
#    y 0.000000 2.293400 0.000000 
#    z -0.018480 0.000000 2.219730 
# 
# From -- ./inp_files/40764.got.cif
#   From: 2010.05.17/outbox.cif.g08.bks.cpg/sg13_21_cif.got.tgz:40764.got - 2010.06.03 16:44:36.
