data_PCOD9230178
_publ_section_title
;
Structure prediction by ZEFSAII (Michael W. Deem and Ramdas Pophale) SiO2 
 PCOD9230178
Probable space group: P 2/C
;
_chemical_formula_sum "Si O2"
_cell_formula_units_Z 26
_cell_length_a 11.816179
_cell_length_b 21.011830
_cell_length_c 9.402837
_cell_angle_alpha 90.000000
_cell_angle_beta 38.594058
_cell_angle_gamma 90.000000
_cell_volume 1456.277716
_symmetry_space_group_name_H-M "P 2/C"
_symmetry_group_IT_number 13
_symmetry_cell_setting 'monoclinic'
loop_
_space_group_symop_operation_xyz
x,y,z
-x,y,1/2-z
-x,-y,-z
x,-y,1/2+z
loop_
_atom_site_type_symbol
_atom_site_label
_atom_site_fract_x
_atom_site_fract_y
_atom_site_fract_z
Si Si1 0.525641 0.757649 0.393378
Si Si2 0.484370 0.434571 0.432550
Si Si3 0.227961 0.972807 0.784569
Si Si4 0.568215 0.906207 0.345005
Si Si5 0.764808 0.320714 0.151540
Si Si6 0.000000 0.990037 0.250000
Si Si7 0.193880 0.331058 0.727082
O O1 0.500000 0.746897 0.250000
O O2 0.577472 0.831580 0.362039
O O3 0.345192 0.735061 0.657699
O O4 0.692399 0.716612 0.287506
O O5 0.500000 0.447633 0.250000
O O6 0.500000 0.500000 0.500000
O O7 0.645475 0.383599 0.305758
O O8 0.292756 0.399184 0.649474
O O9 0.264137 0.047411 0.786064
O O10 0.126243 0.970360 0.734136
O O11 0.412612 0.935487 0.596134
O O12 0.115033 0.948371 0.028321
O O13 0.500000 0.915725 0.250000
O O14 0.764546 0.313264 0.979579
O O15 0.979638 0.328578 0.971420
#
# Coordination Sequence:
#
# PCOD9230178 Si02
#       7
#     4   4   4   4   4   2   4
#     4  10  21  37  55  80 109 143 180 224 276 325
#     4   9  18  32  54  82 113 144 177 219 267 315
#     4  10  20  38  56  76 110 136 174 220 276 322
#     4  10  20  38  55  75 104 147 171 215 275 332
#     4   9  19  39  58  77 109 148 184 223 266 314
#     4  10  20  36  56  82 104 136 172 222 270 324
#     4   9  19  39  58  77 109 148 184 223 266 314
#
# _framework density 17.853738
#
# number of rings (size 3 to 8) (size 9 to 14) (size 15 to 20)
#    0.000    2.462    1.538    1.385    0.000    3.692 
#   11.077    0.000    0.000    0.000    0.000    0.000 
#    0.000    0.000    0.000    0.000    0.000    0.000 
#
# Total GULP energy -144749.507800 kJ/mol
# GULP energy per Si atom -5567.288762 kJ/mol
# Density = 1.781310 g / cm^3
# Si number density = 17.853738 Si / 1000 Ang^3
#
#
#
# Elastic Constant Matrix: (Units=GPa)
#
#
# Indices 1 2 3 4 5 6 
#
# 1 100.7129 54.7228 35.5492 0.0000 -8.2993 0.0000
# 2 54.7228 101.4137 29.6687 0.0000 5.1735 0.0000
# 3 35.5492 29.6687 89.3542 0.0000 -7.2107 0.0000
# 4 0.0000 0.0000 0.0000 11.0591 0.0000 7.2749
# 5 -8.2993 5.1735 -7.2107 0.0000 26.1984 0.0000
# 6 0.0000 0.0000 0.0000 7.2749 0.0000 19.6743
#
#
#
# Elastic Compliance Matrix: (Units=1/GPa)
#
#
# Indices 1 2 3 4 5 6 
#
# 1 0.015816 -0.007883 -0.003216 0.000000 0.005682 0.000000
# 2 -0.007883 0.015124 -0.002381 0.000000 -0.006139 0.000000
# 3 -0.003216 -0.002381 0.013517 0.000000 0.003172 0.000000
# 4 0.000000 0.000000 0.000000 0.119488 0.000000 -0.044183
# 5 0.005682 -0.006139 0.003172 0.000000 0.042055 0.000000
# 6 0.000000 0.000000 0.000000 -0.044183 0.000000 0.067165
#
#
# Mechanical properties :
#
#
# Convention : Reuss Voigt Hill
#
# Bulk Modulus (GPa) = 57.15320 59.04024 58.09672
# Shear Modulus (GPa) = 16.34203 22.82237 19.58220
#
# Velocity S-wave (km/s) = 3.02872 3.57921 3.31541
# Velocity P-wave (km/s) = 6.65675 7.08672 6.87509
#
# Compressibility (1/GPa) = 0.01749683
#
# Stress axis : x y z
#
# Youngs Moduli (GPa) = 63.22663 66.11964 73.97829
#
# Poissons Ratio (x) = 0.52124 0.23794
# Poissons Ratio (y) = 0.49843 0.17613
# Poissons Ratio (z) = 0.20336 0.15742
#
# Static dielectric constant tensor:
#      x y z
#    x 1.628120 0.000000 -0.032920 
#    y 0.000000 1.598870 0.000000 
#    z -0.032920 0.000000 1.707870 
# 
# From -- ./inp_files/17252.got.cif
#   From: 2010.05.17/outbox.cif.g08.bks.cpg/sg13_9_cif.got.tgz:17252.got - 2010.06.03 16:44:36.
