data_PCOD9230373
_publ_section_title
;
Structure prediction by ZEFSAII (Michael W. Deem and Ramdas Pophale) SiO2 
 PCOD9230373
Probable space group: P 2/C
;
_chemical_formula_sum "Si O2"
_cell_formula_units_Z 20
_cell_length_a 13.586812
_cell_length_b 7.362785
_cell_length_c 18.240181
_cell_angle_alpha 90.000000
_cell_angle_beta 156.122412
_cell_angle_gamma 90.000000
_cell_volume 738.604747
_symmetry_space_group_name_H-M "P 2/C"
_symmetry_group_IT_number 13
_symmetry_cell_setting 'monoclinic'
loop_
_space_group_symop_operation_xyz
x,y,z
-x,y,1/2-z
-x,-y,-z
x,-y,1/2+z
loop_
_atom_site_type_symbol
_atom_site_label
_atom_site_fract_x
_atom_site_fract_y
_atom_site_fract_z
Si Si1 0.833041 0.640130 0.839602
Si Si2 0.174373 0.146221 0.805528
Si Si3 0.332969 0.751531 0.927879
Si Si4 0.637147 0.524852 0.412658
Si Si5 0.224228 0.848210 0.569964
O O1 0.829254 0.673063 0.750258
O O2 0.562714 0.579781 0.675514
O O3 0.853724 0.824855 0.899662
O O4 0.000000 0.500000 0.000000
O O5 0.000000 0.229962 0.750000
O O6 0.984148 0.063177 0.618433
O O7 0.305886 0.966653 0.924999
O O8 0.382700 0.263943 0.906717
O O9 0.269864 0.657749 0.961636
O O10 0.500000 0.620493 0.250000
O O11 0.773702 0.357655 0.465760
O O12 0.500000 0.915087 0.750000
#
# Coordination Sequence:
#
# PCOD9230373 Si02
#       5
#     4   4   4   4   4
#     4  10  20  36  61  93 125 166 221 277 329 388
#     4  11  24  43  65  95 139 182 226 283 346 409
#     4  11  24  42  67 100 136 182 230 276 344 420
#     4   9  20  40  67  98 128 165 223 286 339 399
#     4   9  20  39  64  92 127 172 221 280 341 395
#
# _framework density 27.078081000000001
#
# number of rings (size 3 to 8) (size 9 to 14) (size 15 to 20)
#    0.000    2.400    0.000    4.200    0.000    5.600 
#    0.000    7.000    0.000    0.000    0.000    0.000 
#    0.000    0.000    0.000    0.000    0.000    0.000 
#
# Total GULP energy -111597.776238 kJ/mol
# GULP energy per Si atom -5579.888812 kJ/mol
# Density = 2.701645 g / cm^3
# Si number density = 27.078081 Si / 1000 Ang^3
#
#
#
# Elastic Constant Matrix: (Units=GPa)
#
#
# Indices 1 2 3 4 5 6 
#
# 1 216.3044 36.1534 56.0088 0.0000 -15.3569 0.0000
# 2 36.1534 72.2255 5.5597 0.0000 -0.9872 0.0000
# 3 56.0088 5.5597 104.9063 0.0000 -23.1945 0.0000
# 4 0.0000 0.0000 0.0000 17.9290 0.0000 -11.5604
# 5 -15.3569 -0.9872 -23.1945 0.0000 62.6966 0.0000
# 6 0.0000 0.0000 0.0000 -11.5604 0.0000 30.5043
#
#
#
# Elastic Compliance Matrix: (Units=1/GPa)
#
#
# Indices 1 2 3 4 5 6 
#
# 1 0.005850 -0.002700 -0.002911 0.000000 0.000314 0.000000
# 2 -0.002700 0.015149 0.000594 0.000000 -0.000203 0.000000
# 3 -0.002911 0.000594 0.011870 0.000000 0.003688 0.000000
# 4 0.000000 0.000000 0.000000 0.073812 0.000000 0.027973
# 5 0.000314 -0.000203 0.003688 0.000000 0.017388 0.000000
# 6 0.000000 0.000000 0.000000 0.027973 0.000000 0.043383
#
#
# Mechanical properties :
#
#
# Convention : Reuss Voigt Hill
#
# Bulk Modulus (GPa) = 43.79301 65.43114 54.61208
# Shear Modulus (GPa) = 27.01256 41.94027 34.47641
#
# Velocity S-wave (km/s) = 3.16188 3.93983 3.57209
# Velocity P-wave (km/s) = 5.43488 6.70169 6.10125
#
# Compressibility (1/GPa) = 0.02283469
#
# Stress axis : x y z
#
# Youngs Moduli (GPa) = 170.92642 66.01256 84.24304
#
# Poissons Ratio (x) = 0.17824 0.24524
# Poissons Ratio (y) = 0.46153 -0.05003
# Poissons Ratio (z) = 0.49759 -0.03920
#
# Static dielectric constant tensor:
#      x y z
#    x 2.075100 0.000000 0.044080 
#    y 0.000000 1.746220 0.000000 
#    z 0.044080 0.000000 2.206960 
# 
# From -- ./inp_files/50988.got.cif
#   From: 2010.05.17/outbox.cif.g08.bks.cpg/sg13_26_cif.got.tgz:50988.got - 2010.06.03 16:44:36.
