data_PCOD9230406
_publ_section_title
;
Structure prediction by ZEFSAII (Michael W. Deem and Ramdas Pophale) SiO2 
 PCOD9230406
Probable space group: P 2/C
;
_chemical_formula_sum "Si O2"
_cell_formula_units_Z 24
_cell_length_a 14.045639
_cell_length_b 7.430408
_cell_length_c 13.974735
_cell_angle_alpha 90.000000
_cell_angle_beta 41.444833
_cell_angle_gamma 90.000000
_cell_volume 965.359812
_symmetry_space_group_name_H-M "P 2/C"
_symmetry_group_IT_number 13
_symmetry_cell_setting 'monoclinic'
loop_
_space_group_symop_operation_xyz
x,y,z
-x,y,1/2-z
-x,-y,-z
x,-y,1/2+z
loop_
_atom_site_type_symbol
_atom_site_label
_atom_site_fract_x
_atom_site_fract_y
_atom_site_fract_z
Si Si1 0.849884 0.010809 0.869513
Si Si2 0.895467 0.646930 0.954869
Si Si3 0.406117 0.607331 0.399695
Si Si4 0.325634 0.809337 0.650413
Si Si5 0.604096 0.761212 0.527116
Si Si6 0.176236 0.447215 0.781802
O O1 0.890410 0.841416 0.906515
O O2 0.790122 0.943294 0.810475
O O3 0.000000 0.115425 0.750000
O O4 0.714931 0.125710 0.007152
O O5 0.035416 0.523892 0.832909
O O6 0.751663 0.563122 0.019878
O O7 0.873475 0.657122 0.085864
O O8 0.500000 0.704630 0.250000
O O9 0.394339 0.719652 0.503819
O O10 0.470127 0.414470 0.374092
O O11 0.464498 0.877012 0.602678
O O12 0.245548 0.640464 0.758842
O O13 0.709447 0.670182 0.365602
#
# Coordination Sequence:
#
# PCOD9230406 Si02
#       6
#     4   4   4   4   4   4
#     4  11  23  40  58  88 128 162 196 244 313 370
#     4  10  21  38  63  89 120 159 202 256 296 358
#     4  10  20  36  62  91 123 154 212 250 296 346
#     4  10  20  39  64  89 122 161 204 249 305 354
#     4  11  23  36  63  90 124 160 201 247 306 369
#     4  10  20  39  65  92 117 157 211 254 302 348
#
# _framework density 24.861197000000001
#
# number of rings (size 3 to 8) (size 9 to 14) (size 15 to 20)
#    0.000    1.667    1.667    4.500    2.333    0.000 
#    0.000    9.167    0.000    0.000    0.000    0.000 
#    0.000    0.000    0.000    0.000    0.000    0.000 
#
# Total GULP energy -133936.813816 kJ/mol
# GULP energy per Si atom -5580.700576 kJ/mol
# Density = 2.480461 g / cm^3
# Si number density = 24.861197 Si / 1000 Ang^3
#
#
#
# Elastic Constant Matrix: (Units=GPa)
#
#
# Indices 1 2 3 4 5 6 
#
# 1 114.0787 10.1650 29.9790 0.0000 -43.9985 0.0000
# 2 10.1650 63.4386 -10.4238 0.0000 -4.1519 0.0000
# 3 29.9790 -10.4238 80.8619 0.0000 -9.3273 0.0000
# 4 0.0000 0.0000 0.0000 6.1454 0.0000 -6.1750
# 5 -43.9985 -4.1519 -9.3273 0.0000 47.8787 0.0000
# 6 0.0000 0.0000 0.0000 -6.1750 0.0000 22.7166
#
#
#
# Elastic Compliance Matrix: (Units=1/GPa)
#
#
# Indices 1 2 3 4 5 6 
#
# 1 0.015057 -0.002300 -0.004405 0.000000 0.012779 0.000000
# 2 -0.002300 0.016616 0.002984 0.000000 -0.000091 0.000000
# 3 -0.004405 0.002984 0.014268 0.000000 -0.001009 0.000000
# 4 0.000000 0.000000 0.000000 0.223872 0.000000 0.060855
# 5 0.012779 -0.000091 -0.001009 0.000000 0.032425 0.000000
# 6 0.000000 0.000000 0.000000 0.060855 0.000000 0.060563
#
#
# Mechanical properties :
#
#
# Convention : Reuss Voigt Hill
#
# Bulk Modulus (GPa) = 25.97397 35.31327 30.64362
# Shear Modulus (GPa) = 13.05225 30.59206 21.82215
#
# Velocity S-wave (km/s) = 2.29378 3.51167 2.96591
# Velocity P-wave (km/s) = 4.18157 5.53873 4.90729
#
# Compressibility (1/GPa) = 0.03850009
#
# Stress axis : x y z
#
# Youngs Moduli (GPa) = 66.41351 60.18229 70.08667
#
# Poissons Ratio (x) = 0.13842 0.30872
# Poissons Ratio (y) = 0.15275 -0.20915
# Poissons Ratio (z) = 0.29254 -0.17959
#
# Static dielectric constant tensor:
#      x y z
#    x 2.052330 0.000000 0.006780 
#    y 0.000000 2.017200 0.000000 
#    z 0.006780 0.000000 2.011400 
# 
# From -- ./inp_files/52865.got.cif
#   From: 2010.05.17/outbox.cif.g08.bks.cpg/sg13_27_cif.got.tgz:52865.got - 2010.06.03 16:44:36.
