data_PCOD9230154
_publ_section_title
;
Structure prediction by ZEFSAII (Michael W. Deem and Ramdas Pophale) SiO2 
 PCOD9230154
Probable space group: P 2/C
;
_chemical_formula_sum "Si O2"
_cell_formula_units_Z 26
_cell_length_a 6.077449
_cell_length_b 4.862679
_cell_length_c 33.600308
_cell_angle_alpha 90.000000
_cell_angle_beta 104.674489
_cell_angle_gamma 90.000000
_cell_volume 960.588927
_symmetry_space_group_name_H-M "P 2/C"
_symmetry_group_IT_number 13
_symmetry_cell_setting 'monoclinic'
loop_
_space_group_symop_operation_xyz
x,y,z
-x,y,1/2-z
-x,-y,-z
x,-y,1/2+z
loop_
_atom_site_type_symbol
_atom_site_label
_atom_site_fract_x
_atom_site_fract_y
_atom_site_fract_z
Si Si1 0.215971 0.303022 0.514448
Si Si2 0.358792 0.644647 0.937652
Si Si3 0.670945 0.305241 0.287316
Si Si4 0.685388 0.962722 0.402849
Si Si5 0.011025 0.682881 0.862105
Si Si6 0.345139 0.073069 0.826555
Si Si7 0.000000 0.082195 0.750000
O O1 0.459598 0.430233 0.537779
O O2 0.262401 0.196565 0.471963
O O3 0.172181 0.140982 0.552940
O O4 0.000000 0.500000 0.500000
O O5 0.158975 0.519962 0.901223
O O6 0.508700 0.836878 0.916648
O O7 0.500000 0.462347 0.250000
O O8 0.510670 0.111652 0.306855
O O9 0.834827 0.112341 0.268495
O O10 0.836884 0.469096 0.324515
O O11 0.515964 0.784012 0.366299
O O12 0.856461 0.119151 0.381864
O O13 0.179755 0.867607 0.843298
O O14 0.172561 0.232068 0.788788
#
# Coordination Sequence:
#
# PCOD9230154 Si02
#       7
#     4   4   4   4   4   4   2
#     4  11  24  38  54  77 104 139 180 224 274 322
#     4  10  22  38  55  77 105 138 178 223 269 318
#     4   8  13  23  42  73 110 138 168 210 254 306
#     4  10  20  36  55  77 106 139 176 219 265 315
#     4   9  17  30  51  76 105 139 174 216 262 309
#     4   8  15  26  45  74 105 136 170 211 257 306
#     4   8  12  22  42  72 106 136 170 208 248 306
#
# _framework density 27.066728999999999
#
# number of rings (size 3 to 8) (size 9 to 14) (size 15 to 20)
#    0.000    2.769    0.000    1.385    0.000    7.385 
#    0.000    0.000    0.000    0.000    0.000   18.308 
#    0.000  182.154    0.000    0.000    0.000    0.000 
#
# Total GULP energy -145206.227047 kJ/mol
# GULP energy per Si atom -5584.854886 kJ/mol
# Density = 2.700512 g / cm^3
# Si number density = 27.066729 Si / 1000 Ang^3
#
#
#
# Elastic Constant Matrix: (Units=GPa)
#
#
# Indices 1 2 3 4 5 6 
#
# 1 182.9160 38.9021 108.1097 0.0000 -16.3388 0.0000
# 2 38.9021 28.6037 23.7855 0.0000 -6.4638 0.0000
# 3 108.1097 23.7855 128.5298 0.0000 -7.9231 0.0000
# 4 0.0000 0.0000 0.0000 106.2081 0.0000 72.0331
# 5 -16.3388 -6.4638 -7.9231 0.0000 65.1603 0.0000
# 6 0.0000 0.0000 0.0000 72.0331 0.0000 140.3292
#
#
#
# Elastic Compliance Matrix: (Units=1/GPa)
#
#
# Indices 1 2 3 4 5 6 
#
# 1 0.013037 -0.009934 -0.009054 0.000000 0.001183 0.000000
# 2 -0.009934 0.049559 -0.000671 0.000000 0.002344 0.000000
# 3 -0.009054 -0.000671 0.015492 0.000000 -0.000453 0.000000
# 4 0.000000 0.000000 0.000000 0.014444 0.000000 -0.007414
# 5 0.001183 0.002344 -0.000453 0.000000 0.015821 0.000000
# 6 0.000000 0.000000 0.000000 -0.007414 0.000000 0.010932
#
#
# Mechanical properties :
#
#
# Convention : Reuss Voigt Hill
#
# Bulk Modulus (GPa) = 25.79368 75.73822 50.76595
# Shear Modulus (GPa) = 29.15003 73.62300 51.38651
#
# Velocity S-wave (km/s) = 3.28528 5.22107 4.36192
# Velocity P-wave (km/s) = 4.89297 8.02427 6.64568
#
# Compressibility (1/GPa) = 0.03876918
#
# Stress axis : x y z
#
# Youngs Moduli (GPa) = 76.70610 20.17805 64.54816
#
# Poissons Ratio (x) = 0.20045 0.58444
# Poissons Ratio (y) = 0.76201 0.04331
# Poissons Ratio (z) = 0.69452 0.01354
#
# Static dielectric constant tensor:
#      x y z
#    x 0.723790 0.000000 -0.266490 
#    y 0.000000 2.191140 0.000000 
#    z -0.266490 0.000000 2.231790 
# 
# From -- ./inp_files/94791.got.cif
#   From: 2010.05.17/outbox.cif.g08.bks.cpg/sg13_48_cif.got.tgz:94791.got - 2010.06.03 16:44:36.
