data_PCOD9230599
_publ_section_title
;
Structure prediction by ZEFSAII (Michael W. Deem and Ramdas Pophale) SiO2 
 PCOD9230599
Probable space group: P 2/C
;
_chemical_formula_sum "Si O2"
_cell_formula_units_Z 30
_cell_length_a 12.348307
_cell_length_b 20.922262
_cell_length_c 5.580204
_cell_angle_alpha 90.000000
_cell_angle_beta 82.918431
_cell_angle_gamma 90.000000
_cell_volume 1430.673319
_symmetry_space_group_name_H-M "P 2/C"
_symmetry_group_IT_number 13
_symmetry_cell_setting 'monoclinic'
loop_
_space_group_symop_operation_xyz
x,y,z
-x,y,1/2-z
-x,-y,-z
x,-y,1/2+z
loop_
_atom_site_type_symbol
_atom_site_label
_atom_site_fract_x
_atom_site_fract_y
_atom_site_fract_z
Si Si1 0.206188 0.263845 0.408521
Si Si2 0.041627 0.427801 0.484877
Si Si3 0.126054 0.025153 0.976441
Si Si4 0.000000 0.255549 0.750000
Si Si5 0.620606 0.394269 0.748962
Si Si6 0.625079 0.758149 0.247155
Si Si7 0.837583 0.825158 0.968327
Si Si8 0.272355 0.601202 0.765132
O O1 0.104821 0.288607 0.596541
O O2 0.318461 0.244323 0.507042
O O3 0.234571 0.324814 0.241393
O O4 0.160076 0.200205 0.301704
O O5 0.169134 0.433235 0.407109
O O6 0.000000 0.394916 0.250000
O O7 0.000000 0.500000 0.500000
O O8 0.000000 0.401180 0.750000
O O9 0.138978 0.100769 0.004682
O O10 0.174339 0.005831 0.705201
O O11 0.000000 0.000000 0.000000
O O12 0.068293 0.212677 0.917868
O O13 0.500000 0.420474 0.750000
O O14 0.620815 0.317808 0.691166
O O15 0.691566 0.422389 0.507715
O O16 0.648206 0.399744 0.024254
O O17 0.500000 0.781255 0.250000
O O18 0.717152 0.799829 0.084050
#
# Coordination Sequence:
#
# PCOD9230599 Si02
#       8
#     4   4   4   2   4   4   4   4
#     4  10  22  33  55  86 122 160 196 241 315 360
#     4  10  22  39  60  87 120 170 216 254 299 354
#     4  10  23  37  57  80 108 150 198 244 300 355
#     4  10  22  32  50  80 122 158 182 242 300 374
#     4  10  20  37  59  91 127 161 200 254 316 374
#     4   9  20  37  57  84 119 158 202 244 305 375
#     4  11  21  37  57  82 116 154 201 243 306 372
#     4  11  21  37  58  90 125 163 206 249 304 372
#
# _framework density 20.969147
#
# number of rings (size 3 to 8) (size 9 to 14) (size 15 to 20)
#    0.000    1.867    1.333    2.400    8.400    1.600 
#    0.000    0.000    0.000    0.800    0.000   37.333 
#    0.000    0.000    0.000    0.000    0.000    0.000 
#
# Total GULP energy -167015.037733 kJ/mol
# GULP energy per Si atom -5567.167924 kJ/mol
# Density = 2.092142 g / cm^3
# Si number density = 20.969147 Si / 1000 Ang^3
#
#
#
# Elastic Constant Matrix: (Units=GPa)
#
#
# Indices 1 2 3 4 5 6 
#
# 1 117.5589 8.9882 16.2523 0.0000 -2.1020 0.0000
# 2 8.9882 29.1658 0.2441 0.0000 4.5373 0.0000
# 3 16.2523 0.2441 103.3149 0.0000 11.4130 0.0000
# 4 0.0000 0.0000 0.0000 5.5136 0.0000 -10.1151
# 5 -2.1020 4.5373 11.4130 0.0000 16.5332 0.0000
# 6 0.0000 0.0000 0.0000 -10.1151 0.0000 9.9985
#
#
#
# Elastic Compliance Matrix: (Units=1/GPa)
#
#
# Indices 1 2 3 4 5 6 
#
# 1 0.009063 -0.003289 -0.001781 0.000000 0.003284 0.000000
# 2 -0.003289 0.037122 0.001733 0.000000 -0.011802 0.000000
# 3 -0.001781 0.001733 0.010861 0.000000 -0.008200 0.000000
# 4 0.000000 0.000000 0.000000 -0.211891 0.000000 -0.214361
# 5 0.003284 -0.011802 -0.008200 0.000000 0.069801 0.000000
# 6 0.000000 0.000000 0.000000 -0.214361 0.000000 -0.116845
#
#
# Mechanical properties :
#
#
# Convention : Reuss Voigt Hill
#
# Bulk Modulus (GPa) = 19.85174 33.44541 26.64858
# Shear Modulus (GPa) = -28.02270 21.37941 -3.32165
#
# Velocity S-wave (km/s) = -3.65962 3.19653 -1.25996
# Velocity P-wave (km/s) = 2.89299 5.44134 3.25874
#
# Compressibility (1/GPa) = 0.05037341
#
# Stress axis : x y z
#
# Youngs Moduli (GPa) = 110.34215 26.93827 92.07299
#
# Poissons Ratio (x) = 0.08860 0.16395
# Poissons Ratio (y) = 0.36290 -0.15961
# Poissons Ratio (z) = 0.19648 -0.04670
#
# Static dielectric constant tensor:
#      x y z
#    x 1.886980 0.000000 0.096090 
#    y 0.000000 1.757090 0.000000 
#    z 0.096090 0.000000 1.935690 
# 
# From -- ./inp_files/4344.got.cif
#   From: 2010.05.17/outbox.cif.g08.bks.cpg/sg13_3_cif.got.tgz:4344.got - 2010.06.03 16:44:36.
