data_PCOD9230816
_publ_section_title
;
Structure prediction by ZEFSAII (Michael W. Deem and Ramdas Pophale) SiO2 
 PCOD9230816
Probable space group: P 2/C
;
_chemical_formula_sum "Si O2"
_cell_formula_units_Z 18
_cell_length_a 11.216896
_cell_length_b 11.818366
_cell_length_c 11.270786
_cell_angle_alpha 90.000000
_cell_angle_beta 151.045913
_cell_angle_gamma 90.000000
_cell_volume 723.314436
_symmetry_space_group_name_H-M "P 2/C"
_symmetry_group_IT_number 13
_symmetry_cell_setting 'monoclinic'
loop_
_space_group_symop_operation_xyz
x,y,z
-x,y,1/2-z
-x,-y,-z
x,-y,1/2+z
loop_
_atom_site_type_symbol
_atom_site_label
_atom_site_fract_x
_atom_site_fract_y
_atom_site_fract_z
Si Si1 0.000000 0.821398 0.750000
Si Si2 0.347056 0.183412 0.361133
Si Si3 0.356017 0.380201 0.876312
Si Si4 0.500000 0.411449 0.750000
Si Si5 0.682588 0.984117 0.311023
Si Si6 0.000000 0.549403 0.250000
O O1 0.171592 0.758790 0.806552
O O2 0.846346 0.904500 0.533714
O O3 0.491533 0.283293 0.423429
O O4 0.538197 0.099750 0.595653
O O5 0.204483 0.093058 0.155510
O O6 0.381940 0.345413 0.759932
O O7 0.090901 0.388970 0.707753
O O8 0.500000 0.500000 0.000000
O O9 0.255454 0.484201 0.502578
O O10 0.500000 0.036456 0.250000
#
# Coordination Sequence:
#
# PCOD9230816 Si02
#       6
#     2   4   4   2   4   2
#     4  10  20  37  69  98 128 178 229 293 348 414
#     4  10  21  40  63  95 130 177 226 282 346 416
#     4  10  23  43  67  98 139 183 230 286 347 420
#     4  10  22  42  74  96 140 188 238 286 340 418
#     4   9  20  40  64  90 132 169 229 283 350 412
#     4  10  22  47  67 100 142 188 229 291 348 410
#
# _framework density 24.885441
#
# number of rings (size 3 to 8) (size 9 to 14) (size 15 to 20)
#    0.000    2.222    0.000    1.333    4.667    3.556 
#   16.000   10.000    0.000    0.000    0.000    0.000 
#    0.000    0.000    0.000    0.000    0.000    0.000 
#
# Total GULP energy -100329.671101 kJ/mol
# GULP energy per Si atom -5573.870617 kJ/mol
# Density = 2.482880 g / cm^3
# Si number density = 24.885441 Si / 1000 Ang^3
#
#
#
# Elastic Constant Matrix: (Units=GPa)
#
#
# Indices 1 2 3 4 5 6 
#
# 1 168.4480 24.2086 4.0350 0.0000 42.2285 0.0000
# 2 24.2086 98.0634 10.3091 0.0000 12.0628 0.0000
# 3 4.0350 10.3091 78.7110 0.0000 12.3378 0.0000
# 4 0.0000 0.0000 0.0000 -7.8682 0.0000 32.1610
# 5 42.2285 12.0628 12.3378 0.0000 38.5175 0.0000
# 6 0.0000 0.0000 0.0000 32.1610 0.0000 8.8702
#
#
#
# Elastic Compliance Matrix: (Units=1/GPa)
#
#
# Indices 1 2 3 4 5 6 
#
# 1 0.008371 -0.001054 0.001154 0.000000 -0.009217 0.000000
# 2 -0.001054 0.010802 -0.001065 0.000000 -0.001886 0.000000
# 3 0.001154 -0.001065 0.013615 0.000000 -0.005292 0.000000
# 4 0.000000 0.000000 0.000000 -0.008034 0.000000 0.029128
# 5 -0.009217 -0.001886 -0.005292 0.000000 0.038353 0.000000
# 6 0.000000 0.000000 0.000000 0.029128 0.000000 0.007126
#
#
# Mechanical properties :
#
#
# Convention : Reuss Voigt Hill
#
# Bulk Modulus (GPa) = 32.40816 46.92533 39.66674
# Shear Modulus (GPa) = 60.64343 28.34856 44.49599
#
# Velocity S-wave (km/s) = 4.94186 3.37881 4.23310
# Velocity P-wave (km/s) = 6.75380 5.84117 6.31400
#
# Compressibility (1/GPa) = 0.03085643
#
# Stress axis : x y z
#
# Youngs Moduli (GPa) = 119.45988 92.57836 73.45055
#
# Poissons Ratio (x) = 0.09758 -0.08474
# Poissons Ratio (y) = 0.12591 0.07823
# Poissons Ratio (z) = -0.13782 0.09860
#
# Static dielectric constant tensor:
#      x y z
#    x 2.163430 0.000000 0.024900 
#    y 0.000000 1.960660 0.000000 
#    z 0.024900 0.000000 2.193660 
# 
# From -- ./inp_files/33565.got.cif
#   From: 2010.05.17/outbox.cif.g08.bks.cpg/sg13_17_cif.got.tgz:33565.got - 2010.06.03 16:44:36.
