data_PCOD9230214
_publ_section_title
;
Structure prediction by ZEFSAII (Michael W. Deem and Ramdas Pophale) SiO2 
 PCOD9230214
Probable space group: P 2/C
;
_chemical_formula_sum "Si O2"
_cell_formula_units_Z 26
_cell_length_a 19.343392
_cell_length_b 14.565137
_cell_length_c 7.510721
_cell_angle_alpha 90.000000
_cell_angle_beta 144.311536
_cell_angle_gamma 90.000000
_cell_volume 1234.464644
_symmetry_space_group_name_H-M "P 2/C"
_symmetry_group_IT_number 13
_symmetry_cell_setting 'monoclinic'
loop_
_space_group_symop_operation_xyz
x,y,z
-x,y,1/2-z
-x,-y,-z
x,-y,1/2+z
loop_
_atom_site_type_symbol
_atom_site_label
_atom_site_fract_x
_atom_site_fract_y
_atom_site_fract_z
Si Si1 0.165670 0.189725 0.896294
Si Si2 0.695193 0.129393 0.968713
Si Si3 0.368142 0.457227 0.550430
Si Si4 0.279720 0.360565 0.021272
Si Si5 0.765123 0.953214 0.245443
Si Si6 0.000000 0.923048 0.250000
Si Si7 0.524758 0.288348 0.588133
O O1 0.233625 0.119284 0.910242
O O2 0.038011 0.144729 0.669027
O O3 0.230688 0.186961 0.226452
O O4 0.173825 0.288139 0.817687
O O5 0.667643 0.032892 0.009980
O O6 0.758645 0.096610 0.920579
O O7 0.591337 0.195438 0.686662
O O8 0.500000 0.481026 0.750000
O O9 0.299043 0.400380 0.258784
O O10 0.292212 0.546625 0.435791
O O11 0.398370 0.382340 0.767718
O O12 0.399514 0.302785 0.231638
O O13 0.887418 0.011566 0.488957
O O14 0.500000 0.282537 0.750000
#
# Coordination Sequence:
#
# PCOD9230214 Si02
#       7
#     4   4   4   4   4   2   4
#     4  11  22  38  59  88 114 149 194 243 290 342
#     4  11  20  37  57  84 122 150 192 238 284 333
#     4   9  17  32  56  82 109 154 188 230 270 330
#     4  10  20  36  57  85 119 148 197 230 287 335
#     4  11  23  36  61  87 111 151 197 241 285 346
#     4  10  22  40  64  82 114 142 198 250 284 338
#     4   9  17  34  56  79 121 158 187 233 273 334
#
# _framework density 21.061761000000001
#
# number of rings (size 3 to 8) (size 9 to 14) (size 15 to 20)
#    0.000    2.154    6.154    2.308    2.154    2.462 
#    0.000    3.077    0.000    0.923    0.000    0.000 
#    0.000    0.000    0.000    0.000    0.000    0.000 
#
# Total GULP energy -144814.208945 kJ/mol
# GULP energy per Si atom -5569.777267 kJ/mol
# Density = 2.101382 g / cm^3
# Si number density = 21.061761 Si / 1000 Ang^3
#
#
#
# Elastic Constant Matrix: (Units=GPa)
#
#
# Indices 1 2 3 4 5 6 
#
# 1 70.3519 58.8272 16.6682 0.0000 -6.0484 0.0000
# 2 58.8272 153.0283 23.8837 0.0000 15.1243 0.0000
# 3 16.6682 23.8837 27.1166 0.0000 -2.5156 0.0000
# 4 0.0000 0.0000 0.0000 32.6109 0.0000 12.1464
# 5 -6.0484 15.1243 -2.5156 0.0000 16.8071 0.0000
# 6 0.0000 0.0000 0.0000 12.1464 0.0000 54.5385
#
#
#
# Elastic Compliance Matrix: (Units=1/GPa)
#
#
# Indices 1 2 3 4 5 6 
#
# 1 0.026373 -0.011317 -0.004480 0.000000 0.019005 0.000000
# 2 -0.011317 0.013640 -0.006666 0.000000 -0.017345 0.000000
# 3 -0.004480 -0.006666 0.046557 0.000000 0.011355 0.000000
# 4 0.000000 0.000000 0.000000 0.033438 0.000000 -0.007447
# 5 0.019005 -0.017345 0.011355 0.000000 0.083646 0.000000
# 6 0.000000 0.000000 0.000000 -0.007447 0.000000 0.019994
#
#
# Mechanical properties :
#
#
# Convention : Reuss Voigt Hill
#
# Bulk Modulus (GPa) = 24.01408 49.91724 36.96566
# Shear Modulus (GPa) = 17.70187 30.86582 24.28385
#
# Velocity S-wave (km/s) = 2.90224 3.83233 3.39924
# Velocity P-wave (km/s) = 4.75995 6.58287 5.74418
#
# Compressibility (1/GPa) = 0.04164224
#
# Stress axis : x y z
#
# Youngs Moduli (GPa) = 37.91762 73.31343 21.47924
#
# Poissons Ratio (x) = 0.82972 0.09623
# Poissons Ratio (y) = 0.42913 0.14319
# Poissons Ratio (z) = 0.16987 0.48873
#
# Static dielectric constant tensor:
#      x y z
#    x 1.834080 0.000000 -0.005310 
#    y 0.000000 1.814930 0.000000 
#    z -0.005310 0.000000 1.821100 
# 
# From -- ./inp_files/23405.got.cif
#   From: 2010.05.17/outbox.cif.g08.bks.cpg/sg13_12_cif.got.tgz:23405.got - 2010.06.03 16:44:36.
