data_PCOD9230992
_publ_section_title
;
Structure prediction by ZEFSAII (Michael W. Deem and Ramdas Pophale) SiO2 
 PCOD9230992
Probable space group: P 2/C
;
_chemical_formula_sum "Si O2"
_cell_formula_units_Z 24
_cell_length_a 8.317960
_cell_length_b 9.370397
_cell_length_c 28.550772
_cell_angle_alpha 90.000000
_cell_angle_beta 33.303179
_cell_angle_gamma 90.000000
_cell_volume 1221.855225
_symmetry_space_group_name_H-M "P 2/C"
_symmetry_group_IT_number 13
_symmetry_cell_setting 'monoclinic'
loop_
_space_group_symop_operation_xyz
x,y,z
-x,y,1/2-z
-x,-y,-z
x,-y,1/2+z
loop_
_atom_site_type_symbol
_atom_site_label
_atom_site_fract_x
_atom_site_fract_y
_atom_site_fract_z
Si Si1 0.843487 0.150548 0.839831
Si Si2 0.674317 0.930474 0.755841
Si Si3 0.714538 0.905344 0.075702
Si Si4 0.183269 0.564446 0.090730
Si Si5 0.678924 0.393001 0.255688
Si Si6 0.819171 0.583802 0.083032
O O1 0.510345 0.102112 0.912572
O O2 0.827630 0.289905 0.876411
O O3 0.000000 0.178444 0.750000
O O4 0.028495 0.022156 0.817971
O O5 0.500000 0.923743 0.750000
O O6 0.706162 0.769001 0.766407
O O7 0.468645 0.018943 0.839659
O O8 0.776853 0.743908 0.075647
O O9 0.000000 0.000000 0.000000
O O10 0.998162 0.452723 0.166663
O O11 0.999907 0.585830 0.087480
O O12 0.500000 0.500000 0.000000
O O13 0.500000 0.388753 0.250000
O O14 0.487161 0.500618 0.333815
O O15 0.000000 0.500000 0.000000
#
# Coordination Sequence:
#
# PCOD9230992 Si02
#       6
#     4   4   4   4   4   4
#     4  10  22  40  60  86 121 161 203 252 306 366
#     4  10  20  38  62  87 116 155 196 245 307 368
#     4  11  23  39  59  86 120 158 201 250 302 364
#     4  11  23  39  61  91 121 157 205 256 307 363
#     4   9  20  38  61  87 118 153 196 245 299 363
#     4  11  22  40  64  89 120 162 203 248 305 368
#
# _framework density 19.642261999999999
#
# number of rings (size 3 to 8) (size 9 to 14) (size 15 to 20)
#    0.000    1.667    0.000    5.000    0.000    5.333 
#    0.000   11.667    0.000    0.000    0.000    0.000 
#    0.000    0.000    0.000    0.000    0.000    0.000 
#
# Total GULP energy -133987.652793 kJ/mol
# GULP energy per Si atom -5582.818866 kJ/mol
# Density = 1.959755 g / cm^3
# Si number density = 19.642262 Si / 1000 Ang^3
#
#
#
# Elastic Constant Matrix: (Units=GPa)
#
#
# Indices 1 2 3 4 5 6 
#
# 1 87.3600 54.6896 40.7863 0.0000 -17.7197 0.0000
# 2 54.6896 210.3265 95.3192 0.0000 -21.1237 0.0000
# 3 40.7863 95.3192 137.4431 0.0000 -27.6240 0.0000
# 4 0.0000 0.0000 0.0000 54.5247 0.0000 -31.5418
# 5 -17.7197 -21.1237 -27.6240 0.0000 34.0578 0.0000
# 6 0.0000 0.0000 0.0000 -31.5418 0.0000 81.0558
#
#
#
# Elastic Compliance Matrix: (Units=1/GPa)
#
#
# Indices 1 2 3 4 5 6 
#
# 1 0.014820 -0.002648 -0.001603 0.000000 0.004768 0.000000
# 2 -0.002648 0.007414 -0.004431 0.000000 -0.000373 0.000000
# 3 -0.001603 -0.004431 0.012072 0.000000 0.006210 0.000000
# 4 0.000000 0.000000 0.000000 0.023668 0.000000 0.009210
# 5 0.004768 -0.000373 0.006210 0.000000 0.036648 0.000000
# 6 0.000000 0.000000 0.000000 0.009210 0.000000 0.015921
#
#
# Mechanical properties :
#
#
# Convention : Reuss Voigt Hill
#
# Bulk Modulus (GPa) = 59.02395 90.74665 74.88530
# Shear Modulus (GPa) = 37.43797 50.21663 43.82730
#
# Velocity S-wave (km/s) = 4.37050 5.06173 4.72876
# Velocity P-wave (km/s) = 7.45541 8.97003 8.24756
#
# Compressibility (1/GPa) = 0.01694228
#
# Stress axis : x y z
#
# Youngs Moduli (GPa) = 67.47502 134.88810 82.83521
#
# Poissons Ratio (x) = 0.35722 0.13279
# Poissons Ratio (y) = 0.17869 0.36701
# Poissons Ratio (z) = 0.10816 0.59763
#
# Static dielectric constant tensor:
#      x y z
#    x 1.723500 0.000000 -0.025370 
#    y 0.000000 1.893750 0.000000 
#    z -0.025370 0.000000 1.684320 
# 
# From -- ./inp_files/95896.got.cif
#   From: 2010.05.17/outbox.cif.g08.bks.cpg/sg13_48_cif.got.tgz:95896.got - 2010.06.03 16:44:36.
