data_PCOD9230886
_publ_section_title
;
Structure prediction by ZEFSAII (Michael W. Deem and Ramdas Pophale) SiO2 
 PCOD9230886
Probable space group: P 2/C
;
_chemical_formula_sum "Si O2"
_cell_formula_units_Z 24
_cell_length_a 5.570952
_cell_length_b 11.868121
_cell_length_c 18.646919
_cell_angle_alpha 90.000000
_cell_angle_beta 112.923534
_cell_angle_gamma 90.000000
_cell_volume 1135.507793
_symmetry_space_group_name_H-M "P 2/C"
_symmetry_group_IT_number 13
_symmetry_cell_setting 'monoclinic'
loop_
_space_group_symop_operation_xyz
x,y,z
-x,y,1/2-z
-x,-y,-z
x,-y,1/2+z
loop_
_atom_site_type_symbol
_atom_site_label
_atom_site_fract_x
_atom_site_fract_y
_atom_site_fract_z
Si Si1 0.775597 0.019216 0.068837
Si Si2 0.126703 0.394980 0.941070
Si Si3 0.097123 0.834690 0.521690
Si Si4 0.413892 0.107107 0.319244
Si Si5 0.589969 0.458808 0.915433
Si Si6 0.701624 0.364735 0.208760
O O1 0.761668 0.024859 0.152642
O O2 0.940832 0.919937 0.050422
O O3 0.862713 0.140805 0.048808
O O4 0.500000 0.000000 0.000000
O O5 0.123779 0.288988 0.994158
O O6 0.350689 0.375673 0.907106
O O7 0.820981 0.417469 0.888993
O O8 0.242610 0.504840 0.995342
O O9 0.338365 0.869533 0.600340
O O10 0.500000 0.068881 0.250000
O O11 0.287786 0.230086 0.297235
O O12 0.441492 0.569881 0.871311
O O13 0.500000 0.385951 0.250000
O O14 0.000000 0.405583 0.250000
#
# Coordination Sequence:
#
# PCOD9230886 Si02
#       6
#     4   4   4   4   4   4
#     4   9  21  36  58  85 123 155 200 253 310 363
#     4  10  21  34  61  84 124 152 202 253 297 356
#     4  10  20  38  59  90 120 159 202 258 309 363
#     4  10  22  35  57  91 122 160 192 249 317 376
#     4  10  21  37  54  91 116 161 197 249 299 360
#     4  11  23  37  59  89 126 162 196 249 311 379
#
# _framework density 21.135916000000002
#
# number of rings (size 3 to 8) (size 9 to 14) (size 15 to 20)
#    0.000    2.000    1.667    1.000    9.333    1.333 
#    0.000    0.000    0.000    1.000   21.667    0.000 
#    0.000    0.000    0.000    0.000    0.000    0.000 
#
# Total GULP energy -133604.844149 kJ/mol
# GULP energy per Si atom -5566.868506 kJ/mol
# Density = 2.108781 g / cm^3
# Si number density = 21.135916 Si / 1000 Ang^3
#
#
#
# Elastic Constant Matrix: (Units=GPa)
#
#
# Indices 1 2 3 4 5 6 
#
# 1 168.0830 30.9185 47.0614 0.0000 1.6674 0.0000
# 2 30.9185 44.8678 18.5644 0.0000 -15.7656 0.0000
# 3 47.0614 18.5644 63.8568 0.0000 -20.5760 0.0000
# 4 0.0000 0.0000 0.0000 10.6266 0.0000 15.2134
# 5 1.6674 -15.7656 -20.5760 0.0000 41.4070 0.0000
# 6 0.0000 0.0000 0.0000 15.2134 0.0000 6.7152
#
#
#
# Elastic Compliance Matrix: (Units=1/GPa)
#
#
# Indices 1 2 3 4 5 6 
#
# 1 0.008920 -0.005338 -0.006897 0.000000 -0.005819 0.000000
# 2 -0.005338 0.030428 -0.001322 0.000000 0.011144 0.000000
# 3 -0.006897 -0.001322 0.025069 0.000000 0.012232 0.000000
# 4 0.000000 0.000000 0.000000 -0.041947 0.000000 0.095032
# 5 -0.005819 0.011144 0.012232 0.000000 0.034706 0.000000
# 6 0.000000 0.000000 0.000000 0.095032 0.000000 -0.066380
#
#
# Mechanical properties :
#
#
# Convention : Reuss Voigt Hill
#
# Bulk Modulus (GPa) = 26.80656 52.21068 39.50862
# Shear Modulus (GPa) = 164.78010 23.76733 94.27371
#
# Velocity S-wave (km/s) = 8.83920 3.35699 6.68584
# Velocity P-wave (km/s) = 10.81137 6.30729 8.85064
#
# Compressibility (1/GPa) = 0.03730431
#
# Stress axis : x y z
#
# Youngs Moduli (GPa) = 112.10531 32.86394 39.89049
#
# Poissons Ratio (x) = 0.17542 0.27513
# Poissons Ratio (y) = 0.59840 0.05272
# Poissons Ratio (z) = 0.77321 0.04343
#
# Static dielectric constant tensor:
#      x y z
#    x 1.881610 0.000000 -0.023940 
#    y 0.000000 1.764940 0.000000 
#    z -0.023940 0.000000 1.764240 
# 
# From -- ./inp_files/73486.got.cif
#   From: 2010.05.17/outbox.cif.g08.bks.cpg/sg13_37_cif.got.tgz:73486.got - 2010.06.03 16:44:36.
