data_PCOD9230494
_publ_section_title
;
Structure prediction by ZEFSAII (Michael W. Deem and Ramdas Pophale) SiO2 
 PCOD9230494
Probable space group: P 2/C
;
_chemical_formula_sum "Si O2"
_cell_formula_units_Z 24
_cell_length_a 18.267057
_cell_length_b 8.927075
_cell_length_c 14.751206
_cell_angle_alpha 90.000000
_cell_angle_beta 23.087691
_cell_angle_gamma 90.000000
_cell_volume 943.291424
_symmetry_space_group_name_H-M "P 2/C"
_symmetry_group_IT_number 13
_symmetry_cell_setting 'monoclinic'
loop_
_space_group_symop_operation_xyz
x,y,z
-x,y,1/2-z
-x,-y,-z
x,-y,1/2+z
loop_
_atom_site_type_symbol
_atom_site_label
_atom_site_fract_x
_atom_site_fract_y
_atom_site_fract_z
Si Si1 0.224684 0.754813 0.491808
Si Si2 0.166909 0.392076 0.781814
Si Si3 0.808893 0.921088 0.138138
Si Si4 0.196148 0.774257 0.064935
Si Si5 0.248674 0.045712 0.120781
Si Si6 0.563165 0.540636 0.783113
O O1 0.273483 0.888375 0.366529
O O2 0.310097 0.604754 0.354631
O O3 0.000000 0.740895 0.750000
O O4 0.289926 0.803809 0.518002
O O5 0.169827 0.238959 0.835449
O O6 0.144764 0.347358 0.701350
O O7 0.373445 0.461980 0.555862
O O8 0.000000 0.500000 0.000000
O O9 0.702554 0.028685 0.329434
O O10 0.022430 0.970602 0.880697
O O11 0.302937 0.903185 0.998394
O O12 0.000000 0.829581 0.250000
O O13 0.316032 0.692961 0.850291
O O14 0.500000 0.542206 0.750000
#
# Coordination Sequence:
#
# PCOD9230494 Si02
#       6
#     4   4   4   4   4   4
#     4  10  20  36  67  95 126 171 215 265 319 382
#     4  10  23  39  60  87 129 165 205 271 325 366
#     4   9  19  36  63  93 125 163 215 257 317 379
#     4  10  20  38  63  88 120 167 214 255 318 390
#     4   9  19  37  65  93 127 169 209 262 320 385
#     4  10  23  38  59  92 126 167 215 263 321 383
#
# _framework density 25.442824999999999
#
# number of rings (size 3 to 8) (size 9 to 14) (size 15 to 20)
#    0.000    2.333    0.000    2.000   11.667    0.667 
#    0.000    4.167    0.000    3.000    0.000    0.000 
#    0.000    0.000    0.000    0.000    0.000    0.000 
#
# Total GULP energy -134263.279383 kJ/mol
# GULP energy per Si atom -5594.303308 kJ/mol
# Density = 2.538492 g / cm^3
# Si number density = 25.442825 Si / 1000 Ang^3
#
#
#
# Elastic Constant Matrix: (Units=GPa)
#
#
# Indices 1 2 3 4 5 6 
#
# 1 61.3240 -0.4703 22.0106 0.0000 16.7464 0.0000
# 2 -0.4703 79.4830 65.9604 0.0000 14.0728 0.0000
# 3 22.0106 65.9604 179.9759 0.0000 5.2944 0.0000
# 4 0.0000 0.0000 0.0000 12.4395 0.0000 10.1720
# 5 16.7464 14.0728 5.2944 0.0000 23.6830 0.0000
# 6 0.0000 0.0000 0.0000 10.1720 0.0000 36.3627
#
#
#
# Elastic Compliance Matrix: (Units=1/GPa)
#
#
# Indices 1 2 3 4 5 6 
#
# 1 0.023903 0.008206 -0.005325 0.000000 -0.020587 0.000000
# 2 0.008206 0.023203 -0.008990 0.000000 -0.017580 0.000000
# 3 -0.005325 -0.008990 0.009296 0.000000 0.007029 0.000000
# 4 0.000000 0.000000 0.000000 0.104232 0.000000 -0.029157
# 5 -0.020587 -0.017580 0.007029 0.000000 0.065657 0.000000
# 6 0.000000 0.000000 0.000000 -0.029157 0.000000 0.035657
#
#
# Mechanical properties :
#
#
# Convention : Reuss Voigt Hill
#
# Bulk Modulus (GPa) = 22.63333 55.08714 38.86023
# Shear Modulus (GPa) = 17.30736 30.04917 23.67826
#
# Velocity S-wave (km/s) = 2.61098 3.44036 3.05396
# Velocity P-wave (km/s) = 4.24319 6.12208 5.26709
#
# Compressibility (1/GPa) = 0.04418263
#
# Stress axis : x y z
#
# Youngs Moduli (GPa) = 41.83569 43.09745 107.57747
#
# Poissons Ratio (x) = -0.35364 0.57284
# Poissons Ratio (y) = -0.34329 0.96715
# Poissons Ratio (z) = 0.22277 0.38746
#
# Static dielectric constant tensor:
#      x y z
#    x 2.054780 0.000000 0.024330 
#    y 0.000000 2.061800 0.000000 
#    z 0.024330 0.000000 2.021150 
# 
# From -- ./inp_files/71244.got.cif
#   From: 2010.05.17/outbox.cif.g08.bks.cpg/sg13_36_cif.got.tgz:71244.got - 2010.06.03 16:44:36.
