data_PCOD9230462
_publ_section_title
;
Structure prediction by ZEFSAII (Michael W. Deem and Ramdas Pophale) SiO2 
 PCOD9230462
Probable space group: P 2/C
;
_chemical_formula_sum "Si O2"
_cell_formula_units_Z 26
_cell_length_a 18.902660
_cell_length_b 8.183378
_cell_length_c 9.208051
_cell_angle_alpha 90.000000
_cell_angle_beta 53.316310
_cell_angle_gamma 90.000000
_cell_volume 1142.268584
_symmetry_space_group_name_H-M "P 2/C"
_symmetry_group_IT_number 13
_symmetry_cell_setting 'monoclinic'
loop_
_space_group_symop_operation_xyz
x,y,z
-x,y,1/2-z
-x,-y,-z
x,-y,1/2+z
loop_
_atom_site_type_symbol
_atom_site_label
_atom_site_fract_x
_atom_site_fract_y
_atom_site_fract_z
Si Si1 0.311309 0.042005 0.150831
Si Si2 0.000000 0.975717 0.250000
Si Si3 0.926908 0.705949 0.744180
Si Si4 0.719191 0.433501 0.983561
Si Si5 0.404502 0.862344 0.798217
Si Si6 0.849132 0.735311 0.548701
Si Si7 0.749069 0.700303 0.140181
O O1 0.394105 0.109584 0.140343
O O2 0.229478 0.162107 0.276909
O O3 0.283854 0.868627 0.253539
O O4 0.340930 0.995305 0.953961
O O5 0.918841 0.861388 0.393821
O O6 0.033401 0.110671 0.326706
O O7 0.898287 0.644240 0.621823
O O8 0.000000 0.611990 0.750000
O O9 0.844837 0.724884 0.953242
O O10 0.638806 0.311818 0.112438
O O11 0.802434 0.366811 0.977200
O O12 0.697315 0.611181 0.073345
O O13 0.742650 0.421611 0.786159
O O14 0.500000 0.874692 0.750000
#
# Coordination Sequence:
#
# PCOD9230462 Si02
#       7
#     4   2   4   4   4   4   4
#     4  10  20  36  65  86 120 156 191 241 300 353
#     4  10  22  32  60  90 120 148 204 248 296 334
#     4  10  22  34  59  84 119 150 200 250 291 337
#     4  10  25  39  63  81 121 162 198 241 301 358
#     4  10  21  39  62  95 120 147 193 247 296 356
#     4  11  21  38  59  91 118 159 197 247 299 352
#     4  11  21  42  56  84 116 162 203 238 297 355
#
# _framework density 22.761721999999999
#
# number of rings (size 3 to 8) (size 9 to 14) (size 15 to 20)
#    0.462    1.231    1.538    2.769    6.462    1.231 
#    1.385    5.385    0.000    0.000    0.000    0.000 
#    0.000    0.000    0.000    0.000    0.000    0.000 
#
# Total GULP energy -145221.560286 kJ/mol
# GULP energy per Si atom -5585.444626 kJ/mol
# Density = 2.270992 g / cm^3
# Si number density = 22.761722 Si / 1000 Ang^3
#
#
#
# Elastic Constant Matrix: (Units=GPa)
#
#
# Indices 1 2 3 4 5 6 
#
# 1 75.9895 -3.3806 14.2905 0.0000 3.0986 0.0000
# 2 -3.3806 45.0762 6.8335 0.0000 0.0880 0.0000
# 3 14.2905 6.8335 51.9748 0.0000 17.9601 0.0000
# 4 0.0000 0.0000 0.0000 26.9897 0.0000 15.4346
# 5 3.0986 0.0880 17.9601 0.0000 31.2684 0.0000
# 6 0.0000 0.0000 0.0000 15.4346 0.0000 24.3337
#
#
#
# Elastic Compliance Matrix: (Units=1/GPa)
#
#
# Indices 1 2 3 4 5 6 
#
# 1 0.014034 0.001732 -0.004497 0.000000 0.001187 0.000000
# 2 0.001732 0.022956 -0.004258 0.000000 0.002209 0.000000
# 3 -0.004497 -0.004258 0.026048 0.000000 -0.014504 0.000000
# 4 0.000000 0.000000 0.000000 0.058141 0.000000 -0.036878
# 5 0.001187 0.002209 -0.014504 0.000000 0.040188 0.000000
# 6 0.000000 0.000000 0.000000 -0.036878 0.000000 0.064487
#
#
# Mechanical properties :
#
#
# Convention : Reuss Voigt Hill
#
# Bulk Modulus (GPa) = 20.41115 23.16972 21.79043
# Shear Modulus (GPa) = 19.51378 26.87151 23.19264
#
# Velocity S-wave (km/s) = 2.93116 3.43965 3.19553
# Velocity P-wave (km/s) = 4.52132 5.09669 4.81760
#
# Compressibility (1/GPa) = 0.04899283
#
# Stress axis : x y z
#
# Youngs Moduli (GPa) = 71.25567 43.56222 38.39041
#
# Poissons Ratio (x) = -0.07544 0.17263
# Poissons Ratio (y) = -0.12340 0.16346
# Poissons Ratio (z) = 0.32041 0.18548
#
# Static dielectric constant tensor:
#      x y z
#    x 1.874110 0.000000 0.020950 
#    y 0.000000 1.883460 0.000000 
#    z 0.020950 0.000000 1.810010 
# 
# From -- ./inp_files/22941.got.cif
#   From: 2010.05.17/outbox.cif.g08.bks.cpg/sg13_12_cif.got.tgz:22941.got - 2010.06.03 16:44:36.
