data_PCOD9230069
_publ_section_title
;
Structure prediction by ZEFSAII (Michael W. Deem and Ramdas Pophale) SiO2 
 PCOD9230069
Probable space group: P 2/C
;
_chemical_formula_sum "Si O2"
_cell_formula_units_Z 16
_cell_length_a 5.472925
_cell_length_b 14.300042
_cell_length_c 8.561518
_cell_angle_alpha 90.000000
_cell_angle_beta 92.699091
_cell_angle_gamma 90.000000
_cell_volume 669.307235
_symmetry_space_group_name_H-M "P 2/C"
_symmetry_group_IT_number 13
_symmetry_cell_setting 'monoclinic'
loop_
_space_group_symop_operation_xyz
x,y,z
-x,y,1/2-z
-x,-y,-z
x,-y,1/2+z
loop_
_atom_site_type_symbol
_atom_site_label
_atom_site_fract_x
_atom_site_fract_y
_atom_site_fract_z
Si Si1 0.495384 0.806226 0.071604
Si Si2 0.674339 0.460142 0.369121
Si Si3 0.007097 0.894538 0.440014
Si Si4 0.200812 0.367711 0.855661
O O1 0.500000 0.843042 0.250000
O O2 0.734473 0.849896 0.999128
O O3 0.567674 0.696899 0.094253
O O4 0.228622 0.835712 0.005745
O O5 0.500000 0.400485 0.250000
O O6 0.500000 0.500000 0.500000
O O7 0.876012 0.405611 0.475253
O O8 0.242920 0.546113 0.236764
O O9 0.000000 0.896625 0.250000
O O10 0.000000 0.000000 0.500000
O O11 0.000000 0.310353 0.750000
#
# Coordination Sequence:
#
# PCOD9230069 Si02
#       4
#     4   4   4   4
#     4  10  20  35  60  88 118 156 201 248 301 376
#     4   9  19  33  52  77 113 161 208 258 306 355
#     4  10  21  39  62  88 116 152 194 247 314 378
#     4  11  20  35  57  85 120 165 216 259 304 363
#
# _framework density 23.905313
#
# number of rings (size 3 to 8) (size 9 to 14) (size 15 to 20)
#    0.000    2.000    0.000    6.000    0.000    0.000 
#    0.000    2.500    0.000    0.000    0.000    0.000 
#    0.000    0.000    0.000    0.000    0.000    0.000 
#
# Total GULP energy -89120.662394 kJ/mol
# GULP energy per Si atom -5570.041400 kJ/mol
# Density = 2.385090 g / cm^3
# Si number density = 23.905313 Si / 1000 Ang^3
#
#
#
# Elastic Constant Matrix: (Units=GPa)
#
#
# Indices 1 2 3 4 5 6 
#
# 1 151.3498 63.3777 32.5580 0.0000 28.1101 0.0000
# 2 63.3777 135.1956 42.0655 0.0000 8.4135 0.0000
# 3 32.5580 42.0655 124.8411 0.0000 15.5294 0.0000
# 4 0.0000 0.0000 0.0000 29.0872 0.0000 -1.0335
# 5 28.1101 8.4135 15.5294 0.0000 26.2415 0.0000
# 6 0.0000 0.0000 0.0000 -1.0335 0.0000 41.7195
#
#
#
# Elastic Compliance Matrix: (Units=1/GPa)
#
#
# Indices 1 2 3 4 5 6 
#
# 1 0.010108 -0.004129 -0.000068 0.000000 -0.009464 0.000000
# 2 -0.004129 0.009978 -0.002631 0.000000 0.002781 0.000000
# 3 -0.000068 -0.002631 0.009500 0.000000 -0.004706 0.000000
# 4 0.000000 0.000000 0.000000 0.034410 0.000000 0.000852
# 5 -0.009464 0.002781 -0.004706 0.000000 0.050139 0.000000
# 6 0.000000 0.000000 0.000000 0.000852 0.000000 0.023991
#
#
# Mechanical properties :
#
#
# Convention : Reuss Voigt Hill
#
# Bulk Modulus (GPa) = 62.77136 76.37653 69.57394
# Shear Modulus (GPa) = 31.82866 37.63533 34.73199
#
# Velocity S-wave (km/s) = 3.65286 3.97211 3.81583
# Velocity P-wave (km/s) = 6.64127 7.28395 6.97002
#
# Compressibility (1/GPa) = 0.01593083
#
# Stress axis : x y z
#
# Youngs Moduli (GPa) = 98.92686 100.22282 105.26536
#
# Poissons Ratio (x) = 0.41378 0.00714
# Poissons Ratio (y) = 0.40843 0.27697
# Poissons Ratio (z) = 0.00671 0.26371
#
# Static dielectric constant tensor:
#      x y z
#    x 2.278820 0.000000 0.179180 
#    y 0.000000 2.016740 0.000000 
#    z 0.179180 0.000000 2.046710 
# 
# From -- ./inp_files/25926.got.cif
#   From: 2010.05.17/outbox.cif.g08.bks.cpg/sg13_13_cif.got.tgz:25926.got - 2010.06.03 16:44:36.
