data_PCOD9230849
_publ_section_title
;
Structure prediction by ZEFSAII (Michael W. Deem and Ramdas Pophale) SiO2 
 PCOD9230849
Probable space group: P 2/C
;
_chemical_formula_sum "Si O2"
_cell_formula_units_Z 22
_cell_length_a 5.678972
_cell_length_b 15.194646
_cell_length_c 11.096368
_cell_angle_alpha 90.000000
_cell_angle_beta 75.826823
_cell_angle_gamma 90.000000
_cell_volume 928.358874
_symmetry_space_group_name_H-M "P 2/C"
_symmetry_group_IT_number 13
_symmetry_cell_setting 'monoclinic'
loop_
_space_group_symop_operation_xyz
x,y,z
-x,y,1/2-z
-x,-y,-z
x,-y,1/2+z
loop_
_atom_site_type_symbol
_atom_site_label
_atom_site_fract_x
_atom_site_fract_y
_atom_site_fract_z
Si Si1 0.928096 0.101548 0.008703
Si Si2 0.423187 0.838159 0.526158
Si Si3 0.572497 0.360828 0.426550
Si Si4 0.000000 0.561897 0.750000
Si Si5 0.500000 0.783694 0.250000
Si Si6 0.000000 0.210470 0.750000
Si Si7 0.701757 0.471242 0.619831
O O1 0.634806 0.105868 0.064368
O O2 0.132660 0.144232 0.072956
O O3 0.958888 0.150547 0.874527
O O4 0.000000 0.000000 0.000000
O O5 0.493352 0.739625 0.558307
O O6 0.456149 0.840784 0.376168
O O7 0.701646 0.387681 0.534867
O O8 0.377160 0.437657 0.435837
O O9 0.767748 0.378099 0.297851
O O10 0.955823 0.496095 0.646332
O O11 0.753395 0.736533 0.251956
O O12 0.500000 0.458480 0.750000
#
# Coordination Sequence:
#
# PCOD9230849 Si02
#       7
#     4   4   4   2   2   2   4
#     4  10  20  38  60  84 118 154 194 245 306 363
#     4  10  21  35  60  89 116 154 198 248 303 359
#     4  10  21  36  59  83 123 157 206 252 304 367
#     4  10  20  38  58  80 122 168 200 250 310 360
#     4   8  16  32  50  82 112 136 180 244 298 336
#     4   8  16  32  54  76 108 142 176 236 296 338
#     4   9  20  38  58  86 116 161 201 253 306 363
#
# _framework density 23.697732999999999
#
# number of rings (size 3 to 8) (size 9 to 14) (size 15 to 20)
#    0.000    2.545    0.000    1.091    3.818    0.000 
#    0.000    1.818    0.000    0.000    0.000    0.000 
#    0.000    0.000    0.000    0.000    0.000    0.000 
#
# Total GULP energy -122579.692185 kJ/mol
# GULP energy per Si atom -5571.804190 kJ/mol
# Density = 2.364380 g / cm^3
# Si number density = 23.697733 Si / 1000 Ang^3
#
#
#
# Elastic Constant Matrix: (Units=GPa)
#
#
# Indices 1 2 3 4 5 6 
#
# 1 186.2106 23.4627 3.7271 0.0000 19.2097 0.0000
# 2 23.4627 86.7831 6.5813 0.0000 14.2570 0.0000
# 3 3.7271 6.5813 34.4087 0.0000 -2.8144 0.0000
# 4 0.0000 0.0000 0.0000 13.6814 0.0000 3.4391
# 5 19.2097 14.2570 -2.8144 0.0000 27.7228 0.0000
# 6 0.0000 0.0000 0.0000 3.4391 0.0000 29.2263
#
#
#
# Elastic Compliance Matrix: (Units=1/GPa)
#
#
# Indices 1 2 3 4 5 6 
#
# 1 0.005882 -0.000929 -0.000760 0.000000 -0.003675 0.000000
# 2 -0.000929 0.013040 -0.002914 0.000000 -0.006358 0.000000
# 3 -0.000760 -0.002914 0.030118 0.000000 0.005083 0.000000
# 4 0.000000 0.000000 0.000000 0.075320 0.000000 -0.008863
# 5 -0.003675 -0.006358 0.005083 0.000000 0.042404 0.000000
# 6 0.000000 0.000000 0.000000 -0.008863 0.000000 0.035259
#
#
# Mechanical properties :
#
#
# Convention : Reuss Voigt Hill
#
# Bulk Modulus (GPa) = 25.10402 41.66053 33.38228
# Shear Modulus (GPa) = 22.27131 32.36819 27.31975
#
# Velocity S-wave (km/s) = 3.06895 3.69979 3.39904
# Velocity P-wave (km/s) = 4.81398 5.98910 5.43340
#
# Compressibility (1/GPa) = 0.03983425
#
# Stress axis : x y z
#
# Youngs Moduli (GPa) = 170.02117 76.68977 33.20304
#
# Poissons Ratio (x) = 0.07123 0.02524
# Poissons Ratio (y) = 0.15791 0.09674
# Poissons Ratio (z) = 0.12922 0.22344
#
# Static dielectric constant tensor:
#      x y z
#    x 2.051780 0.000000 -0.025770 
#    y 0.000000 1.815410 0.000000 
#    z -0.025770 0.000000 2.050060 
# 
# From -- ./inp_files/26225.got.cif
#   From: 2010.05.17/outbox.cif.g08.bks.cpg/sg13_14_cif.got.tgz:26225.got - 2010.06.03 16:44:36.
