data_PCOD9230292
_publ_section_title
;
Structure prediction by ZEFSAII (Michael W. Deem and Ramdas Pophale) SiO2 
 PCOD9230292
Probable space group: P 2/C
;
_chemical_formula_sum "Si O2"
_cell_formula_units_Z 24
_cell_length_a 11.135362
_cell_length_b 9.357951
_cell_length_c 18.127739
_cell_angle_alpha 90.000000
_cell_angle_beta 44.477743
_cell_angle_gamma 90.000000
_cell_volume 1323.484333
_symmetry_space_group_name_H-M "P 2/C"
_symmetry_group_IT_number 13
_symmetry_cell_setting 'monoclinic'
loop_
_space_group_symop_operation_xyz
x,y,z
-x,y,1/2-z
-x,-y,-z
x,-y,1/2+z
loop_
_atom_site_type_symbol
_atom_site_label
_atom_site_fract_x
_atom_site_fract_y
_atom_site_fract_z
Si Si1 0.751424 0.100750 0.519712
Si Si2 0.068351 0.364230 0.871802
Si Si3 0.042757 0.687183 0.910479
Si Si4 0.362571 0.816172 0.178615
Si Si5 0.304593 0.933956 0.809784
Si Si6 0.844969 0.152235 0.870386
O O1 0.566091 0.176194 0.599368
O O2 0.895713 0.216033 0.439460
O O3 0.779265 0.028629 0.588000
O O4 0.769403 0.970435 0.455113
O O5 0.064841 0.534295 0.862780
O O6 0.256096 0.300398 0.771686
O O7 0.933628 0.277398 0.879785
O O8 0.017292 0.337277 0.978776
O O9 0.210897 0.785121 0.839469
O O10 0.302458 0.797738 0.121042
O O11 0.300796 0.968990 0.238483
O O12 0.500000 0.913459 0.750000
O O13 0.000000 0.098396 0.750000
#
# Coordination Sequence:
#
# PCOD9230292 Si02
#       6
#     4   4   4   4   4   4
#     4  11  20  36  63  87 113 148 197 246 282 340
#     4  10  21  36  54  81 117 156 186 233 286 350
#     4  11  20  36  57  83 113 151 195 231 288 341
#     4  10  21  38  57  88 116 152 190 240 294 338
#     4  10  20  36  59  90 114 146 194 250 285 336
#     4  10  20  37  59  83 117 157 191 235 292 339
#
# _framework density 18.133952000000001
#
# number of rings (size 3 to 8) (size 9 to 14) (size 15 to 20)
#    0.000    1.667    3.333    3.000    0.000    0.000 
#    6.000    8.333    0.000    0.000    0.000    0.000 
#    0.000    0.000    0.000    0.000    0.000    0.000 
#
# Total GULP energy -133914.503641 kJ/mol
# GULP energy per Si atom -5579.770985 kJ/mol
# Density = 1.809268 g / cm^3
# Si number density = 18.133952 Si / 1000 Ang^3
#
#
#
# Elastic Constant Matrix: (Units=GPa)
#
#
# Indices 1 2 3 4 5 6 
#
# 1 70.9816 37.9959 22.7336 0.0000 -8.0908 0.0000
# 2 37.9959 138.5327 51.0587 0.0000 -20.6923 0.0000
# 3 22.7336 51.0587 53.8593 0.0000 -10.7019 0.0000
# 4 0.0000 0.0000 0.0000 14.3539 0.0000 11.9047
# 5 -8.0908 -20.6923 -10.7019 0.0000 26.7594 0.0000
# 6 0.0000 0.0000 0.0000 11.9047 0.0000 3.6753
#
#
#
# Elastic Compliance Matrix: (Units=1/GPa)
#
#
# Indices 1 2 3 4 5 6 
#
# 1 0.017162 -0.002990 -0.004169 0.000000 0.001210 0.000000
# 2 -0.002990 0.012201 -0.009353 0.000000 0.004790 0.000000
# 3 -0.004169 -0.009353 0.029880 0.000000 0.003457 0.000000
# 4 0.000000 0.000000 0.000000 -0.041311 0.000000 0.133810
# 5 0.001210 0.004790 0.003457 0.000000 0.042823 0.000000
# 6 0.000000 0.000000 0.000000 0.133810 0.000000 -0.161339
#
#
# Mechanical properties :
#
#
# Convention : Reuss Voigt Hill
#
# Bulk Modulus (GPa) = 38.13981 54.10557 46.12269
# Shear Modulus (GPa) = -85.00387 19.06341 -32.97023
#
# Velocity S-wave (km/s) = -6.85400 3.24582 -4.26860
# Velocity P-wave (km/s) = 6.44659 6.62937 1.09318
#
# Compressibility (1/GPa) = 0.02621932
#
# Stress axis : x y z
#
# Youngs Moduli (GPa) = 58.26928 81.95883 33.46691
#
# Poissons Ratio (x) = 0.24503 0.13953
# Poissons Ratio (y) = 0.17421 0.31302
# Poissons Ratio (z) = 0.24294 0.76656
#
# Static dielectric constant tensor:
#      x y z
#    x 1.642400 0.000000 0.001670 
#    y 0.000000 1.597400 0.000000 
#    z 0.001670 0.000000 1.634790 
# 
# From -- ./inp_files/77951.got.cif
#   From: 2010.05.17/outbox.cif.g08.bks.cpg/sg13_39_cif.got.tgz:77951.got - 2010.06.03 16:44:36.
