data_PCOD9230727
_publ_section_title
;
Structure prediction by ZEFSAII (Michael W. Deem and Ramdas Pophale) SiO2 
 PCOD9230727
Probable space group: P 2/C
;
_chemical_formula_sum "Si O2"
_cell_formula_units_Z 18
_cell_length_a 10.579092
_cell_length_b 12.360514
_cell_length_c 13.815402
_cell_angle_alpha 90.000000
_cell_angle_beta 30.890778
_cell_angle_gamma 90.000000
_cell_volume 927.485158
_symmetry_space_group_name_H-M "P 2/C"
_symmetry_group_IT_number 13
_symmetry_cell_setting 'monoclinic'
loop_
_space_group_symop_operation_xyz
x,y,z
-x,y,1/2-z
-x,-y,-z
x,-y,1/2+z
loop_
_atom_site_type_symbol
_atom_site_label
_atom_site_fract_x
_atom_site_fract_y
_atom_site_fract_z
Si Si1 0.500000 0.404323 0.750000
Si Si2 0.285594 0.272563 0.735229
Si Si3 0.894637 0.115803 0.038589
Si Si4 0.616426 0.795393 0.543105
Si Si5 0.870830 0.428009 0.931928
O O1 0.495453 0.328820 0.658762
O O2 0.733060 0.482920 0.584425
O O3 0.353733 0.210053 0.591981
O O4 0.095763 0.367688 0.834259
O O5 0.124709 0.193395 0.906032
O O6 0.652093 0.159538 0.253164
O O7 0.808065 0.133605 0.982398
O O8 0.000000 0.000000 0.000000
O O9 0.679766 0.670731 0.532279
O O10 0.000000 0.472992 0.750000
#
# Coordination Sequence:
#
# PCOD9230727 Si02
#       5
#     2   4   4   4   4
#     4  12  22  32  56  90 120 150 194 238 274 334
#     4  10  22  38  55  83 119 151 189 235 285 341
#     4  10  20  37  63  84 104 144 193 238 289 344
#     4   9  20  40  60  81 115 151 185 231 290 347
#     4   9  19  36  58  81 114 159 192 225 285 343
#
# _framework density 19.407318
#
# number of rings (size 3 to 8) (size 9 to 14) (size 15 to 20)
#    0.000    2.222    0.000    5.333    0.000    8.000 
#    0.000    2.222    0.000    0.000    0.000    0.000 
#    0.000    0.000    0.000    0.000    0.000    0.000 
#
# Total GULP energy -100206.261870 kJ/mol
# GULP energy per Si atom -5567.014548 kJ/mol
# Density = 1.936315 g / cm^3
# Si number density = 19.407318 Si / 1000 Ang^3
#
#
#
# Elastic Constant Matrix: (Units=GPa)
#
#
# Indices 1 2 3 4 5 6 
#
# 1 46.5157 45.4448 39.7958 0.0000 10.8749 0.0000
# 2 45.4448 56.4225 36.6572 0.0000 9.5335 0.0000
# 3 39.7958 36.6572 97.7822 0.0000 12.1432 0.0000
# 4 0.0000 0.0000 0.0000 -6.5741 0.0000 1.5739
# 5 10.8749 9.5335 12.1432 0.0000 15.2434 0.0000
# 6 0.0000 0.0000 0.0000 1.5739 0.0000 12.7618
#
#
#
# Elastic Compliance Matrix: (Units=1/GPa)
#
#
# Indices 1 2 3 4 5 6 
#
# 1 0.124078 -0.086134 -0.015431 0.000000 -0.022357 0.000000
# 2 -0.086134 0.084259 0.002642 0.000000 0.006648 0.000000
# 3 -0.015431 0.002642 0.015931 0.000000 -0.003334 0.000000
# 4 0.000000 0.000000 0.000000 -0.147749 0.000000 0.018221
# 5 -0.022357 0.006648 -0.003334 0.000000 0.080051 0.000000
# 6 0.000000 0.000000 0.000000 0.018221 0.000000 0.076112
#
#
# Mechanical properties :
#
#
# Convention : Reuss Voigt Hill
#
# Bulk Modulus (GPa) = 37.84734 49.39066 43.61900
# Shear Modulus (GPa) = 11.38087 9.54106 10.46097
#
# Velocity S-wave (km/s) = 2.42424 2.21966 2.32420
# Velocity P-wave (km/s) = 5.23258 5.66339 5.45224
#
# Compressibility (1/GPa) = 0.02642194
#
# Stress axis : x y z
#
# Youngs Moduli (GPa) = 8.05947 11.86811 62.77266
#
# Poissons Ratio (x) = 1.02225 0.96862
# Poissons Ratio (y) = 0.69420 -0.16584
# Poissons Ratio (z) = 0.12436 -0.03135
#
# Static dielectric constant tensor:
#      x y z
#    x 1.737710 0.000000 0.023440 
#    y 0.000000 1.703820 0.000000 
#    z 0.023440 0.000000 1.698150 
# 
# From -- ./inp_files/50526.got.cif
#   From: 2010.05.17/outbox.cif.g08.bks.cpg/sg13_26_cif.got.tgz:50526.got - 2010.06.03 16:44:36.
