data_PCOD9230089
_publ_section_title
;
Structure prediction by ZEFSAII (Michael W. Deem and Ramdas Pophale) SiO2 
 PCOD9230089
Probable space group: P 2/C
;
_chemical_formula_sum "Si O2"
_cell_formula_units_Z 24
_cell_length_a 19.873144
_cell_length_b 8.771470
_cell_length_c 21.191817
_cell_angle_alpha 90.000000
_cell_angle_beta 159.631070
_cell_angle_gamma 90.000000
_cell_volume 1285.777821
_symmetry_space_group_name_H-M "P 2/C"
_symmetry_group_IT_number 13
_symmetry_cell_setting 'monoclinic'
loop_
_space_group_symop_operation_xyz
x,y,z
-x,y,1/2-z
-x,-y,-z
x,-y,1/2+z
loop_
_atom_site_type_symbol
_atom_site_label
_atom_site_fract_x
_atom_site_fract_y
_atom_site_fract_z
Si Si1 0.214375 0.859208 0.758123
Si Si2 0.331743 0.618708 0.512488
Si Si3 0.768152 0.416208 0.436739
Si Si4 0.976692 0.669470 0.451985
Si Si5 0.352535 0.802117 0.405588
Si Si6 0.059636 0.661171 0.734227
O O1 0.157890 0.778378 0.773689
O O2 0.054547 0.797598 0.568280
O O3 0.245605 0.037807 0.798166
O O4 0.422415 0.807955 0.913874
O O5 0.245361 0.657918 0.505485
O O6 0.552793 0.570701 0.720209
O O7 0.328622 0.747675 0.456495
O O8 0.207369 0.477428 0.377549
O O9 0.896275 0.323288 0.500039
O O10 0.872895 0.579066 0.538917
O O11 0.756460 0.687854 0.237241
O O12 0.000000 0.500000 0.500000
O O13 0.000000 0.725669 0.750000
#
# Coordination Sequence:
#
# PCOD9230089 Si02
#       6
#     4   4   4   4   4   4
#     4  11  24  40  57  85 126 152 194 238 292 356
#     4  10  20  37  61  85 117 149 197 243 287 345
#     4  10  20  35  61  89 113 144 198 247 284 336
#     4  12  22  37  63  88 113 153 198 244 291 335
#     4  11  24  39  59  86 119 162 190 237 292 351
#     4  10  21  39  60  87 113 151 195 245 291 341
#
# _framework density 18.665744
#
# number of rings (size 3 to 8) (size 9 to 14) (size 15 to 20)
#    0.000    1.333    5.000    0.500    2.333    1.333 
#    3.000    0.000    0.000    2.000    0.000    0.000 
#    0.000    0.000    0.000    0.000    0.000    0.000 
#
# Total GULP energy -133954.082654 kJ/mol
# GULP energy per Si atom -5581.420111 kJ/mol
# Density = 1.862326 g / cm^3
# Si number density = 18.665744 Si / 1000 Ang^3
#
#
#
# Elastic Constant Matrix: (Units=GPa)
#
#
# Indices 1 2 3 4 5 6 
#
# 1 118.6393 38.8666 11.9850 0.0000 -12.1084 0.0000
# 2 38.8666 52.4922 23.1603 0.0000 -11.8426 0.0000
# 3 11.9850 23.1603 88.6727 0.0000 -16.9862 0.0000
# 4 0.0000 0.0000 0.0000 17.4914 0.0000 6.4441
# 5 -12.1084 -11.8426 -16.9862 0.0000 22.4118 0.0000
# 6 0.0000 0.0000 0.0000 6.4441 0.0000 21.8406
#
#
#
# Elastic Compliance Matrix: (Units=1/GPa)
#
#
# Indices 1 2 3 4 5 6 
#
# 1 0.011289 -0.008275 0.001130 0.000000 0.002583 0.000000
# 2 -0.008275 0.029011 -0.005123 0.000000 0.006977 0.000000
# 3 0.001130 -0.005123 0.014110 0.000000 0.008598 0.000000
# 4 0.000000 0.000000 0.000000 0.064143 0.000000 -0.018925
# 5 0.002583 0.006977 0.008598 0.000000 0.056218 0.000000
# 6 0.000000 0.000000 0.000000 -0.018925 0.000000 0.051370
#
#
# Mechanical properties :
#
#
# Convention : Reuss Voigt Hill
#
# Bulk Modulus (GPa) = 33.47130 45.31424 39.39277
# Shear Modulus (GPa) = 19.18395 24.73491 21.95943
#
# Velocity S-wave (km/s) = 3.20935 3.64421 3.43367
# Velocity P-wave (km/s) = 5.63064 6.48355 6.07209
#
# Compressibility (1/GPa) = 0.02987634
#
# Stress axis : x y z
#
# Youngs Moduli (GPa) = 88.58005 34.46913 70.87369
#
# Poissons Ratio (x) = 0.28522 -0.08011
# Poissons Ratio (y) = 0.73297 0.36306
# Poissons Ratio (z) = -0.10012 0.17657
#
# Static dielectric constant tensor:
#      x y z
#    x 1.658100 0.000000 -0.001550 
#    y 0.000000 1.624800 0.000000 
#    z -0.001550 0.000000 1.664960 
# 
# From -- ./inp_files/81727.got.cif
#   From: 2010.05.17/outbox.cif.g08.bks.cpg/sg13_41_cif.got.tgz:81727.got - 2010.06.03 16:44:36.
