data_PCOD9230140
_publ_section_title
;
Structure prediction by ZEFSAII (Michael W. Deem and Ramdas Pophale) SiO2 
 PCOD9230140
Probable space group: P 2/C
;
_chemical_formula_sum "Si O2"
_cell_formula_units_Z 14
_cell_length_a 11.331456
_cell_length_b 13.086273
_cell_length_c 5.302452
_cell_angle_alpha 90.000000
_cell_angle_beta 116.212214
_cell_angle_gamma 90.000000
_cell_volume 705.424257
_symmetry_space_group_name_H-M "P 2/C"
_symmetry_group_IT_number 13
_symmetry_cell_setting 'monoclinic'
loop_
_space_group_symop_operation_xyz
x,y,z
-x,y,1/2-z
-x,-y,-z
x,-y,1/2+z
loop_
_atom_site_type_symbol
_atom_site_label
_atom_site_fract_x
_atom_site_fract_y
_atom_site_fract_z
Si Si1 0.866225 0.284632 0.787450
Si Si2 0.346833 0.567457 0.617426
Si Si3 0.000000 0.571600 0.750000
Si Si4 0.849371 0.955490 0.354352
O O1 0.749850 0.338385 0.523854
O O2 0.849312 0.165852 0.830222
O O3 0.000000 0.293404 0.750000
O O4 0.885735 0.349055 0.063678
O O5 0.500000 0.597839 0.750000
O O6 0.324297 0.488981 0.362491
O O7 0.000000 0.500000 0.500000
O O8 0.786086 0.993426 0.551323
O O9 0.000000 0.000000 0.500000
#
# Coordination Sequence:
#
# PCOD9230140 Si02
#       4
#     4   4   2   4
#     4  12  24  36  64  90 117 157 203 243 296 353
#     4  10  24  43  59  82 121 162 196 237 293 356
#     4  12  24  34  48  86 124 140 180 248 294 330
#     4  10  20  36  53  82 119 151 185 239 302 349
#
# _framework density 19.846211
#
# number of rings (size 3 to 8) (size 9 to 14) (size 15 to 20)
#    0.000    1.143    4.286    3.429    4.000    0.000 
#    0.000    0.000    0.000    1.714    0.000    0.000 
#    0.000    0.000    0.000    0.000    0.000    0.000 
#
# Total GULP energy -78146.259584 kJ/mol
# GULP energy per Si atom -5581.875685 kJ/mol
# Density = 1.980104 g / cm^3
# Si number density = 19.846211 Si / 1000 Ang^3
#
#
#
# Elastic Constant Matrix: (Units=GPa)
#
#
# Indices 1 2 3 4 5 6 
#
# 1 66.6329 56.4790 55.5251 0.0000 -1.6654 0.0000
# 2 56.4790 205.0972 89.3891 0.0000 3.8577 0.0000
# 3 55.5251 89.3891 164.9487 0.0000 -23.6696 0.0000
# 4 0.0000 0.0000 0.0000 19.8162 0.0000 -4.9780
# 5 -1.6654 3.8577 -23.6696 0.0000 46.2675 0.0000
# 6 0.0000 0.0000 0.0000 -4.9780 0.0000 19.1115
#
#
#
# Elastic Compliance Matrix: (Units=1/GPa)
#
#
# Indices 1 2 3 4 5 6 
#
# 1 0.023148 -0.003690 -0.006075 0.000000 -0.001967 0.000000
# 2 -0.003690 0.007248 -0.003012 0.000000 -0.002278 0.000000
# 3 -0.006075 -0.003012 0.010517 0.000000 0.005413 0.000000
# 4 0.000000 0.000000 0.000000 0.053997 0.000000 0.014065
# 5 -0.001967 -0.002278 0.005413 0.000000 0.024502 0.000000
# 6 0.000000 0.000000 0.000000 0.014065 0.000000 0.055988
#
#
# Mechanical properties :
#
#
# Convention : Reuss Voigt Hill
#
# Bulk Modulus (GPa) = 65.11196 93.27392 79.19294
# Shear Modulus (GPa) = 24.26331 32.72474 28.49403
#
# Velocity S-wave (km/s) = 3.50032 4.06509 3.79323
# Velocity P-wave (km/s) = 7.01539 8.31467 7.69251
#
# Compressibility (1/GPa) = 0.01535816
#
# Stress axis : x y z
#
# Youngs Moduli (GPa) = 43.20006 137.97589 95.08776
#
# Poissons Ratio (x) = 0.50911 0.57764
# Poissons Ratio (y) = 0.15940 0.28645
# Poissons Ratio (z) = 0.26243 0.41565
#
# Static dielectric constant tensor:
#      x y z
#    x 1.764600 0.000000 -0.057740 
#    y 0.000000 1.692380 0.000000 
#    z -0.057740 0.000000 1.602570 
# 
# From -- ./inp_files/4661.got.cif
#   From: 2010.05.17/outbox.cif.g08.bks.cpg/sg13_3_cif.got.tgz:4661.got - 2010.06.03 16:44:36.
