data_PCOD9230927
_publ_section_title
;
Structure prediction by ZEFSAII (Michael W. Deem and Ramdas Pophale) SiO2 
 PCOD9230927
Probable space group: P 2/C
;
_chemical_formula_sum "Si O2"
_cell_formula_units_Z 28
_cell_length_a 9.138449
_cell_length_b 15.526511
_cell_length_c 13.903244
_cell_angle_alpha 90.000000
_cell_angle_beta 44.226427
_cell_angle_gamma 90.000000
_cell_volume 1375.954408
_symmetry_space_group_name_H-M "P 2/C"
_symmetry_group_IT_number 13
_symmetry_cell_setting 'monoclinic'
loop_
_space_group_symop_operation_xyz
x,y,z
-x,y,1/2-z
-x,-y,-z
x,-y,1/2+z
loop_
_atom_site_type_symbol
_atom_site_label
_atom_site_fract_x
_atom_site_fract_y
_atom_site_fract_z
Si Si1 0.843626 0.607976 0.107371
Si Si2 0.251261 0.366844 0.642414
Si Si3 0.682103 0.452248 0.088324
Si Si4 0.143971 0.795424 0.468932
Si Si5 0.488261 0.186150 0.547604
Si Si6 0.171201 0.128863 0.254289
Si Si7 0.299764 0.947973 0.274076
O O1 0.740236 0.584598 0.258855
O O2 0.727167 0.554300 0.079740
O O3 0.825504 0.709779 0.105548
O O4 0.090801 0.586756 0.988063
O O5 0.343930 0.419515 0.508461
O O6 0.356903 0.272953 0.596290
O O7 0.000000 0.355281 0.750000
O O8 0.500000 0.428073 0.250000
O O9 0.335087 0.797491 0.454248
O O10 0.155732 0.880576 0.398972
O O11 0.928639 0.800024 0.628841
O O12 0.612244 0.159609 0.393756
O O13 0.363665 0.104069 0.647681
O O14 0.000000 0.116460 0.250000
O O15 0.201645 0.038640 0.293341
O O16 0.500000 0.961267 0.250000
#
# Coordination Sequence:
#
# PCOD9230927 Si02
#       7
#     4   4   4   4   4   4   4
#     4  10  22  44  63  91 127 164 207 256 313 380
#     4  10  22  42  62  93 125 161 211 253 319 379
#     4  10  24  41  65  94 127 157 206 267 311 374
#     4  10  21  39  64  87 122 171 210 250 312 378
#     4  10  21  38  62  88 123 166 208 258 305 379
#     4  10  22  39  57  92 130 162 215 265 313 367
#     4  10  20  38  60  90 123 171 215 258 314 376
#
# _framework density 20.349513000000002
#
# number of rings (size 3 to 8) (size 9 to 14) (size 15 to 20)
#    0.000    2.000    1.429    0.857    4.000    1.143 
#    5.143    5.000    0.000    0.000    0.000    0.000 
#    0.000    0.000    0.000    0.000    0.000    0.000 
#
# Total GULP energy -156308.113482 kJ/mol
# GULP energy per Si atom -5582.432624 kJ/mol
# Density = 2.030320 g / cm^3
# Si number density = 20.349513 Si / 1000 Ang^3
#
#
#
# Elastic Constant Matrix: (Units=GPa)
#
#
# Indices 1 2 3 4 5 6 
#
# 1 33.7300 30.2902 38.3882 0.0000 10.6523 0.0000
# 2 30.2902 80.6394 45.7846 0.0000 15.1220 0.0000
# 3 38.3882 45.7846 143.5579 0.0000 20.2540 0.0000
# 4 0.0000 0.0000 0.0000 24.4197 0.0000 4.0476
# 5 10.6523 15.1220 20.2540 0.0000 23.9277 0.0000
# 6 0.0000 0.0000 0.0000 4.0476 0.0000 35.5420
#
#
#
# Elastic Compliance Matrix: (Units=1/GPa)
#
#
# Indices 1 2 3 4 5 6 
#
# 1 0.055188 -0.014040 -0.009159 0.000000 -0.007943 0.000000
# 2 -0.014040 0.019578 -0.001846 0.000000 -0.004560 0.000000
# 3 -0.009159 -0.001846 0.010520 0.000000 -0.003661 0.000000
# 4 0.000000 0.000000 0.000000 0.041738 0.000000 -0.004753
# 5 -0.007943 -0.004560 -0.003661 0.000000 0.051309 0.000000
# 6 0.000000 0.000000 0.000000 -0.004753 0.000000 0.028677
#
#
# Mechanical properties :
#
#
# Convention : Reuss Voigt Hill
#
# Bulk Modulus (GPa) = 28.41288 54.09482 41.25385
# Shear Modulus (GPa) = 18.59881 26.34217 22.47049
#
# Velocity S-wave (km/s) = 3.02647 3.60180 3.32660
# Velocity P-wave (km/s) = 5.11913 6.62856 5.92213
#
# Compressibility (1/GPa) = 0.03519531
#
# Stress axis : x y z
#
# Youngs Moduli (GPa) = 18.11980 51.07757 95.05383
#
# Poissons Ratio (x) = 0.71714 0.87062
# Poissons Ratio (y) = 0.25441 0.17549
# Poissons Ratio (z) = 0.16596 0.09430
#
# Static dielectric constant tensor:
#      x y z
#    x 1.743630 0.000000 0.011690 
#    y 0.000000 1.683530 0.000000 
#    z 0.011690 0.000000 1.746590 
# 
# From -- ./inp_files/47874.got.cif
#   From: 2010.05.17/outbox.cif.g08.bks.cpg/sg13_24_cif.got.tgz:47874.got - 2010.06.03 16:44:36.
