data_PCOD9230411
_publ_section_title
;
Structure prediction by ZEFSAII (Michael W. Deem and Ramdas Pophale) SiO2 
 PCOD9230411
Probable space group: P 2/C
;
_chemical_formula_sum "Si O2"
_cell_formula_units_Z 26
_cell_length_a 9.197456
_cell_length_b 8.797043
_cell_length_c 22.922514
_cell_angle_alpha 90.000000
_cell_angle_beta 41.615823
_cell_angle_gamma 90.000000
_cell_volume 1231.747092
_symmetry_space_group_name_H-M "P 2/C"
_symmetry_group_IT_number 13
_symmetry_cell_setting 'monoclinic'
loop_
_space_group_symop_operation_xyz
x,y,z
-x,y,1/2-z
-x,-y,-z
x,-y,1/2+z
loop_
_atom_site_type_symbol
_atom_site_label
_atom_site_fract_x
_atom_site_fract_y
_atom_site_fract_z
Si Si1 0.500000 0.326047 0.750000
Si Si2 0.580504 0.409321 0.891642
Si Si3 0.280945 0.030237 0.525161
Si Si4 0.741604 0.381566 0.966380
Si Si5 0.514183 0.887149 0.145659
Si Si6 0.838615 0.462840 0.217682
Si Si7 0.892718 0.888303 0.717205
O O1 0.389786 0.206565 0.828312
O O2 0.345187 0.440487 0.761454
O O3 0.578231 0.368877 0.960228
O O4 0.603634 0.248596 0.853916
O O5 0.773009 0.507416 0.805061
O O6 0.363678 0.513903 0.951734
O O7 0.231594 0.206675 0.526132
O O8 0.500000 0.000000 0.500000
O O9 0.318449 0.952943 0.451305
O O10 0.076228 0.963049 0.621350
O O11 0.944968 0.464207 0.875099
O O12 0.329673 0.011775 0.216017
O O13 0.843195 0.282004 0.210319
O O14 0.000000 0.882934 0.750000
#
# Coordination Sequence:
#
# PCOD9230411 Si02
#       7
#     2   4   4   4   4   4   4
#     4  10  26  48  64  86 132 194 232 262 306 402
#     4  10  20  36  62  93 129 169 210 272 343 398
#     4  12  22  37  63 100 138 163 213 280 346 398
#     4  11  21  36  62  97 131 166 213 274 345 396
#     4  11  23  43  64  94 134 172 224 273 329 395
#     4  11  24  41  62  89 130 176 228 264 323 397
#     4  12  23  39  69 105 132 165 213 285 356 396
#
# _framework density 21.108229000000001
#
# number of rings (size 3 to 8) (size 9 to 14) (size 15 to 20)
#    0.000    0.923    3.077    5.077    2.154    0.615 
#    0.000   10.000    0.000    0.000    0.000    0.000 
#    0.000    0.000    0.000    0.000    0.000    0.000 
#
# Total GULP energy -144907.543922 kJ/mol
# GULP energy per Si atom -5573.367074 kJ/mol
# Density = 2.106019 g / cm^3
# Si number density = 21.108229 Si / 1000 Ang^3
#
#
#
# Elastic Constant Matrix: (Units=GPa)
#
#
# Indices 1 2 3 4 5 6 
#
# 1 30.0193 11.9599 2.4471 0.0000 9.6610 0.0000
# 2 11.9599 169.7275 44.3870 0.0000 -7.1478 0.0000
# 3 2.4471 44.3870 126.0429 0.0000 -3.8908 0.0000
# 4 0.0000 0.0000 0.0000 41.5291 0.0000 3.8793
# 5 9.6610 -7.1478 -3.8908 0.0000 15.6736 0.0000
# 6 0.0000 0.0000 0.0000 3.8793 0.0000 23.3767
#
#
#
# Elastic Compliance Matrix: (Units=1/GPa)
#
#
# Indices 1 2 3 4 5 6 
#
# 1 0.044540 -0.004313 -0.000256 0.000000 -0.029485 0.000000
# 2 -0.004313 0.006999 -0.002217 0.000000 0.005300 0.000000
# 3 -0.000256 -0.002217 0.008760 0.000000 0.001321 0.000000
# 4 0.000000 0.000000 0.000000 0.024459 0.000000 -0.004059
# 5 -0.029485 0.005300 0.001321 0.000000 0.084720 0.000000
# 6 0.000000 0.000000 0.000000 -0.004059 0.000000 0.043451
#
#
# Mechanical properties :
#
#
# Convention : Reuss Voigt Hill
#
# Bulk Modulus (GPa) = 21.40128 49.26420 35.33274
# Shear Modulus (GPa) = 20.65449 33.91558 27.28504
#
# Velocity S-wave (km/s) = 3.13150 4.01277 3.59921
# Velocity P-wave (km/s) = 4.82036 6.69771 5.83503
#
# Compressibility (1/GPa) = 0.04672618
#
# Stress axis : x y z
#
# Youngs Moduli (GPa) = 22.45167 142.88143 114.14984
#
# Poissons Ratio (x) = 0.61629 0.02922
# Poissons Ratio (y) = 0.09684 0.25311
# Poissons Ratio (z) = 0.00575 0.31682
#
# Static dielectric constant tensor:
#      x y z
#    x 1.799990 0.000000 -0.040580 
#    y 0.000000 1.789210 0.000000 
#    z -0.040580 0.000000 1.746130 
# 
# From -- ./inp_files/92219.got.cif
#   From: 2010.05.17/outbox.cif.g08.bks.cpg/sg13_47_cif.got.tgz:92219.got - 2010.06.03 16:44:36.
