data_PCOD9230096
_publ_section_title
;
Structure prediction by ZEFSAII (Michael W. Deem and Ramdas Pophale) SiO2 
 PCOD9230096
Probable space group: P 2/C
;
_chemical_formula_sum "Si O2"
_cell_formula_units_Z 30
_cell_length_a 5.285414
_cell_length_b 15.935348
_cell_length_c 18.875119
_cell_angle_alpha 90.000000
_cell_angle_beta 115.503494
_cell_angle_gamma 90.000000
_cell_volume 1434.847933
_symmetry_space_group_name_H-M "P 2/C"
_symmetry_group_IT_number 13
_symmetry_cell_setting 'monoclinic'
loop_
_space_group_symop_operation_xyz
x,y,z
-x,y,1/2-z
-x,-y,-z
x,-y,1/2+z
loop_
_atom_site_type_symbol
_atom_site_label
_atom_site_fract_x
_atom_site_fract_y
_atom_site_fract_z
Si Si1 0.332020 0.660520 0.593908
Si Si2 0.462806 0.718483 0.399207
Si Si3 0.235514 0.440837 0.949961
Si Si4 0.041831 0.196889 0.481399
Si Si5 0.500000 0.232289 0.750000
Si Si6 0.826509 0.022796 0.050448
Si Si7 0.041234 0.411782 0.337217
Si Si8 0.980690 0.862325 0.135480
O O1 0.163948 0.602686 0.515964
O O2 0.655656 0.635066 0.623775
O O3 0.250173 0.756434 0.566871
O O4 0.202246 0.642305 0.655252
O O5 0.302907 0.637670 0.407592
O O6 0.719595 0.732489 0.483655
O O7 0.528179 0.711745 0.323849
O O8 0.287720 0.804956 0.381791
O O9 0.038753 0.502519 0.882467
O O10 0.500000 0.500000 0.000000
O O11 0.120997 0.122283 0.437675
O O12 0.050689 0.160950 0.562337
O O13 0.769696 0.171491 0.785855
O O14 0.928089 0.961641 0.125804
O O15 0.500000 0.000000 0.000000
O O16 0.000000 0.000000 0.000000
O O17 0.000000 0.430072 0.250000
#
# Coordination Sequence:
#
# PCOD9230096 Si02
#       8
#     4   4   4   4   2   4   4   4
#     4  11  22  42  68  93 128 169 220 274 331 384
#     4  11  20  39  59  91 131 166 220 262 333 393
#     4  10  22  41  64  94 125 169 224 278 328 390
#     4  10  20  35  64  95 119 160 213 274 316 373
#     4  10  24  36  58  88 130 188 194 260 328 410
#     4  10  20  35  61  94 121 150 202 261 312 368
#     4  11  25  43  64  91 130 176 218 274 335 396
#     4  10  20  37  59  87 130 162 211 256 323 386
#
# _framework density 20.908138000000001
#
# number of rings (size 3 to 8) (size 9 to 14) (size 15 to 20)
#    0.000    1.600    2.667    2.800    0.000    2.133 
#    4.800    0.000    2.933    0.000    0.000    0.000 
#    0.000    0.000    0.000    0.000    0.000    0.000 
#
# Total GULP energy -167325.760192 kJ/mol
# GULP energy per Si atom -5577.525340 kJ/mol
# Density = 2.086055 g / cm^3
# Si number density = 20.908138 Si / 1000 Ang^3
#
#
#
# Elastic Constant Matrix: (Units=GPa)
#
#
# Indices 1 2 3 4 5 6 
#
# 1 86.8993 19.6835 9.3767 0.0000 -5.3554 0.0000
# 2 19.6835 95.6468 22.5908 0.0000 -8.8904 0.0000
# 3 9.3767 22.5908 68.4572 0.0000 -16.4878 0.0000
# 4 0.0000 0.0000 0.0000 17.5430 0.0000 -3.6370
# 5 -5.3554 -8.8904 -16.4878 0.0000 24.8333 0.0000
# 6 0.0000 0.0000 0.0000 -3.6370 0.0000 33.0935
#
#
#
# Elastic Compliance Matrix: (Units=1/GPa)
#
#
# Indices 1 2 3 4 5 6 
#
# 1 0.012165 -0.002232 -0.000584 0.000000 0.001437 0.000000
# 2 -0.002232 0.011822 -0.003205 0.000000 0.001623 0.000000
# 3 -0.000584 -0.003205 0.018377 0.000000 0.010928 0.000000
# 4 0.000000 0.000000 0.000000 0.058332 0.000000 0.006411
# 5 0.001437 0.001623 0.010928 0.000000 0.048415 0.000000
# 6 0.000000 0.000000 0.000000 0.006411 0.000000 0.030922
#
#
# Mechanical properties :
#
#
# Convention : Reuss Voigt Hill
#
# Bulk Modulus (GPa) = 32.97759 39.36726 36.17243
# Shear Modulus (GPa) = 24.73024 28.38410 26.55717
#
# Velocity S-wave (km/s) = 3.44292 3.68851 3.56783
# Velocity P-wave (km/s) = 5.62244 6.08356 5.85754
#
# Compressibility (1/GPa) = 0.03032362
#
# Stress axis : x y z
#
# Youngs Moduli (GPa) = 82.20532 84.58618 54.41533
#
# Poissons Ratio (x) = 0.18880 0.03176
# Poissons Ratio (y) = 0.18348 0.17438
# Poissons Ratio (z) = 0.04797 0.27107
#
# Static dielectric constant tensor:
#      x y z
#    x 1.802310 0.000000 0.018650 
#    y 0.000000 1.783270 0.000000 
#    z 0.018650 0.000000 1.753470 
# 
# From -- ./inp_files/73935.got.cif
#   From: 2010.05.17/outbox.cif.g08.bks.cpg/sg13_37_cif.got.tgz:73935.got - 2010.06.03 16:44:36.
