data_PCOD9230721
_publ_section_title
;
Structure prediction by ZEFSAII (Michael W. Deem and Ramdas Pophale) SiO2 
 PCOD9230721
Probable space group: P 2/C
;
_chemical_formula_sum "Si O2"
_cell_formula_units_Z 18
_cell_length_a 10.923970
_cell_length_b 8.733062
_cell_length_c 7.163847
_cell_angle_alpha 90.000000
_cell_angle_beta 85.251098
_cell_angle_gamma 90.000000
_cell_volume 681.082756
_symmetry_space_group_name_H-M "P 2/C"
_symmetry_group_IT_number 13
_symmetry_cell_setting 'monoclinic'
loop_
_space_group_symop_operation_xyz
x,y,z
-x,y,1/2-z
-x,-y,-z
x,-y,1/2+z
loop_
_atom_site_type_symbol
_atom_site_label
_atom_site_fract_x
_atom_site_fract_y
_atom_site_fract_z
Si Si1 0.262389 0.874995 0.110302
Si Si2 0.239529 0.622353 0.795811
Si Si3 0.000000 0.500000 0.500000
Si Si4 0.350588 0.207392 0.979113
Si Si5 0.500000 0.378777 0.250000
Si Si6 0.000000 0.793129 0.250000
O O1 0.344143 0.798200 0.260263
O O2 0.125693 0.889994 0.218411
O O3 0.321232 0.034916 0.046622
O O4 0.252016 0.763463 0.935089
O O5 0.244556 0.686933 0.585982
O O6 0.371521 0.536674 0.803039
O O7 0.116283 0.530792 0.837622
O O8 0.005948 0.320413 0.571249
O O9 0.466902 0.272294 0.077401
#
# Coordination Sequence:
#
# PCOD9230721 Si02
#       6
#     4   4   2   4   2   2
#     4  11  21  39  60  96 139 170 223 280 349 396
#     4   9  21  40  60  98 127 184 219 281 327 406
#     4  10  22  44  64  86 136 170 238 278 326 386
#     4  10  20  37  62  95 138 173 216 281 342 413
#     4   8  20  38  64 100 130 178 228 260 358 394
#     4  10  26  40  64  94 122 184 226 284 336 404
#
# _framework density 26.428505999999999
#
# number of rings (size 3 to 8) (size 9 to 14) (size 15 to 20)
#    1.333    0.889    2.222    0.000    3.111    5.333 
#    0.000    0.000    0.000   13.333    0.000    0.000 
#    0.000    0.000    0.000    0.000    0.000    0.000 
#
# Total GULP energy -100299.903327 kJ/mol
# GULP energy per Si atom -5572.216852 kJ/mol
# Density = 2.636835 g / cm^3
# Si number density = 26.428506 Si / 1000 Ang^3
#
#
#
# Elastic Constant Matrix: (Units=GPa)
#
#
# Indices 1 2 3 4 5 6 
#
# 1 150.6903 36.6511 22.5226 0.0000 -9.2479 0.0000
# 2 36.6511 91.2708 28.1565 0.0000 -4.2077 0.0000
# 3 22.5226 28.1565 114.3646 0.0000 0.5022 0.0000
# 4 0.0000 0.0000 0.0000 35.2957 0.0000 0.6205
# 5 -9.2479 -4.2077 0.5022 0.0000 52.1614 0.0000
# 6 0.0000 0.0000 0.0000 0.6205 0.0000 27.7648
#
#
#
# Elastic Compliance Matrix: (Units=1/GPa)
#
#
# Indices 1 2 3 4 5 6 
#
# 1 0.007484 -0.002703 -0.000813 0.000000 0.001117 0.000000
# 2 -0.002703 0.012884 -0.002642 0.000000 0.000586 0.000000
# 3 -0.000813 -0.002642 0.009557 0.000000 -0.000449 0.000000
# 4 0.000000 0.000000 0.000000 0.028343 0.000000 -0.000633
# 5 0.001117 0.000586 -0.000449 0.000000 0.019421 0.000000
# 6 0.000000 0.000000 0.000000 -0.000633 0.000000 0.036031
#
#
# Mechanical properties :
#
#
# Convention : Reuss Voigt Hill
#
# Bulk Modulus (GPa) = 56.79432 58.99846 57.89639
# Shear Modulus (GPa) = 37.90609 40.97741 39.44175
#
# Velocity S-wave (km/s) = 3.79131 3.94191 3.86734
# Velocity P-wave (km/s) = 6.37980 6.56433 6.47272
#
# Compressibility (1/GPa) = 0.01760739
#
# Stress axis : x y z
#
# Youngs Moduli (GPa) = 133.62585 77.61641 104.63942
#
# Poissons Ratio (x) = 0.20978 0.08510
# Poissons Ratio (y) = 0.36116 0.27649
# Poissons Ratio (z) = 0.10867 0.20509
#
# Static dielectric constant tensor:
#      x y z
#    x 2.246590 0.000000 0.071160 
#    y 0.000000 1.939360 0.000000 
#    z 0.071160 0.000000 1.790410 
# 
# From -- ./inp_files/14534.got.cif
#   From: 2010.05.17/outbox.cif.g08.bks.cpg/sg13_8_cif.got.tgz:14534.got - 2010.06.03 16:44:36.
