data_PCOD9230913
_publ_section_title
;
Structure prediction by ZEFSAII (Michael W. Deem and Ramdas Pophale) SiO2 
 PCOD9230913
Probable space group: P 2/C
;
_chemical_formula_sum "Si O2"
_cell_formula_units_Z 20
_cell_length_a 5.993868
_cell_length_b 14.333211
_cell_length_c 11.994488
_cell_angle_alpha 90.000000
_cell_angle_beta 108.213024
_cell_angle_gamma 90.000000
_cell_volume 978.837821
_symmetry_space_group_name_H-M "P 2/C"
_symmetry_group_IT_number 13
_symmetry_cell_setting 'monoclinic'
loop_
_space_group_symop_operation_xyz
x,y,z
-x,y,1/2-z
-x,-y,-z
x,-y,1/2+z
loop_
_atom_site_type_symbol
_atom_site_label
_atom_site_fract_x
_atom_site_fract_y
_atom_site_fract_z
Si Si1 0.246238 0.508769 0.902765
Si Si2 0.500000 0.923476 0.250000
Si Si3 0.095321 0.350081 0.028158
Si Si4 0.500000 0.408012 0.250000
Si Si5 0.196917 0.983974 0.875644
Si Si6 0.080931 0.145547 0.552018
O O1 0.311264 0.528439 0.785754
O O2 0.100787 0.595804 0.929275
O O3 0.500000 0.500000 0.000000
O O4 0.121793 0.414213 0.922219
O O5 0.573249 0.988845 0.157819
O O6 0.718445 0.861216 0.322362
O O7 0.340243 0.351428 0.136807
O O8 0.018263 0.247054 0.985074
O O9 0.000000 0.969112 0.750000
O O10 0.116994 0.073027 0.936742
O O11 0.192158 0.895966 0.955954
#
# Coordination Sequence:
#
# PCOD9230913 Si02
#       6
#     4   2   4   2   4   4
#     4   9  20  39  58  83 118 152 194 245 296 350
#     4  10  20  38  60  86 122 160 194 240 300 356
#     4  10  21  39  60  87 120 155 199 245 295 356
#     4  10  20  38  62  86 118 158 198 246 300 350
#     4   9  20  39  60  85 118 154 196 245 295 352
#     4  10  21  39  60  87 120 154 196 243 294 355
#
# _framework density 20.432395
#
# number of rings (size 3 to 8) (size 9 to 14) (size 15 to 20)
#    0.000    2.400    0.000    1.200    0.000    4.800 
#    0.000   40.000    0.000    0.000    0.000    0.000 
#    0.000    0.000    0.000    0.000    0.000    0.000 
#
# Total GULP energy -111616.047160 kJ/mol
# GULP energy per Si atom -5580.802358 kJ/mol
# Density = 2.038589 g / cm^3
# Si number density = 20.432395 Si / 1000 Ang^3
#
#
#
# Elastic Constant Matrix: (Units=GPa)
#
#
# Indices 1 2 3 4 5 6 
#
# 1 84.1918 35.8410 23.0761 0.0000 -15.6781 0.0000
# 2 35.8410 139.8550 45.6552 0.0000 -10.3383 0.0000
# 3 23.0761 45.6552 73.8035 0.0000 -10.6429 0.0000
# 4 0.0000 0.0000 0.0000 17.9818 0.0000 9.4167
# 5 -15.6781 -10.3383 -10.6429 0.0000 49.2861 0.0000
# 6 0.0000 0.0000 0.0000 9.4167 0.0000 12.8200
#
#
#
# Elastic Compliance Matrix: (Units=1/GPa)
#
#
# Indices 1 2 3 4 5 6 
#
# 1 0.014291 -0.002644 -0.002330 0.000000 0.003488 0.000000
# 2 -0.002644 0.009473 -0.005024 0.000000 0.000061 0.000000
# 3 -0.002330 -0.005024 0.017678 0.000000 0.002022 0.000000
# 4 0.000000 0.000000 0.000000 0.090376 0.000000 -0.066384
# 5 0.003488 0.000061 0.002022 0.000000 0.021849 0.000000
# 6 0.000000 0.000000 0.000000 -0.066384 0.000000 0.126764
#
#
# Mechanical properties :
#
#
# Convention : Reuss Voigt Hill
#
# Bulk Modulus (GPa) = 46.63022 56.33277 51.48149
# Shear Modulus (GPa) = 16.25621 28.90279 22.57950
#
# Velocity S-wave (km/s) = 2.82372 3.76514 3.32789
# Velocity P-wave (km/s) = 5.78813 6.82143 6.32591
#
# Compressibility (1/GPa) = 0.02144532
#
# Stress axis : x y z
#
# Youngs Moduli (GPa) = 69.97198 105.56850 56.56880
#
# Poissons Ratio (x) = 0.27913 0.13179
# Poissons Ratio (y) = 0.18501 0.28422
# Poissons Ratio (z) = 0.16302 0.53040
#
# Static dielectric constant tensor:
#      x y z
#    x 1.775080 0.000000 0.003490 
#    y 0.000000 1.665820 0.000000 
#    z 0.003490 0.000000 1.785000 
# 
# From -- ./inp_files/26062.got.cif
#   From: 2010.05.17/outbox.cif.g08.bks.cpg/sg13_14_cif.got.tgz:26062.got - 2010.06.03 16:44:36.
