data_PCOD9230325
_publ_section_title
;
Structure prediction by ZEFSAII (Michael W. Deem and Ramdas Pophale) SiO2 
 PCOD9230325
Probable space group: P 2/C
;
_chemical_formula_sum "Si O2"
_cell_formula_units_Z 26
_cell_length_a 28.115315
_cell_length_b 8.241195
_cell_length_c 9.497366
_cell_angle_alpha 90.000000
_cell_angle_beta 141.974137
_cell_angle_gamma 90.000000
_cell_volume 1355.592315
_symmetry_space_group_name_H-M "P 2/C"
_symmetry_group_IT_number 13
_symmetry_cell_setting 'monoclinic'
loop_
_space_group_symop_operation_xyz
x,y,z
-x,y,1/2-z
-x,-y,-z
x,-y,1/2+z
loop_
_atom_site_type_symbol
_atom_site_label
_atom_site_fract_x
_atom_site_fract_y
_atom_site_fract_z
Si Si1 0.402592 0.134904 0.785052
Si Si2 0.741517 0.099119 0.623805
Si Si3 0.797656 0.357320 0.537574
Si Si4 0.500000 0.941299 0.250000
Si Si5 0.155427 0.802891 0.643138
Si Si6 0.284460 0.681511 0.162361
Si Si7 0.054989 0.533775 0.500015
O O1 0.448608 0.156572 0.745231
O O2 0.364387 0.293038 0.766319
O O3 0.331476 0.015577 0.579061
O O4 0.450640 0.050980 0.024547
O O5 0.755015 0.220033 0.526344
O O6 0.722575 0.203119 0.718398
O O7 0.819627 0.990094 0.820290
O O8 0.834291 0.282748 0.483154
O O9 0.738285 0.498386 0.355443
O O10 0.865643 0.435812 0.791114
O O11 0.077909 0.722646 0.526012
O O12 0.219652 0.741733 0.902376
O O13 0.000000 0.500000 0.500000
O O14 0.000000 0.471873 0.250000
#
# Coordination Sequence:
#
# PCOD9230325 Si02
#       7
#     4   4   4   2   4   4   4
#     4  10  20  37  62  90 123 166 206 250 295 374
#     4  11  22  39  62  95 117 156 211 264 298 354
#     4  11  23  39  64  89 120 159 204 262 309 361
#     4  10  20  36  60  92 126 168 204 236 316 366
#     4  10  21  37  60  89 119 155 206 255 291 364
#     4  10  20  36  60  89 119 156 204 255 301 350
#     4  11  22  41  62  86 127 169 199 240 317 373
#
# _framework density 19.179807
#
# number of rings (size 3 to 8) (size 9 to 14) (size 15 to 20)
#    0.000    1.538    3.077    3.692    4.308    0.000 
#    0.000    1.538    0.000    5.538    0.000    0.000 
#    0.000    0.000    0.000    0.000    0.000    0.000 
#
# Total GULP energy -144828.331250 kJ/mol
# GULP energy per Si atom -5570.320433 kJ/mol
# Density = 1.913615 g / cm^3
# Si number density = 19.179807 Si / 1000 Ang^3
#
#
#
# Elastic Constant Matrix: (Units=GPa)
#
#
# Indices 1 2 3 4 5 6 
#
# 1 145.5594 40.5337 22.8900 0.0000 -7.3683 0.0000
# 2 40.5337 88.2306 9.6464 0.0000 3.6006 0.0000
# 3 22.8900 9.6464 70.0950 0.0000 -14.8137 0.0000
# 4 0.0000 0.0000 0.0000 27.4115 0.0000 2.5417
# 5 -7.3683 3.6006 -14.8137 0.0000 34.3402 0.0000
# 6 0.0000 0.0000 0.0000 2.5417 0.0000 19.0254
#
#
#
# Elastic Compliance Matrix: (Units=1/GPa)
#
#
# Indices 1 2 3 4 5 6 
#
# 1 0.008250 -0.003635 -0.001914 0.000000 0.001326 0.000000
# 2 -0.003635 0.013245 -0.001204 0.000000 -0.002688 0.000000
# 3 -0.001914 -0.001204 0.016501 0.000000 0.006834 0.000000
# 4 0.000000 0.000000 0.000000 0.036939 0.000000 -0.004935
# 5 0.001326 -0.002688 0.006834 0.000000 0.032635 0.000000
# 6 0.000000 0.000000 0.000000 -0.004935 0.000000 0.053221
#
#
# Mechanical properties :
#
#
# Convention : Reuss Voigt Hill
#
# Bulk Modulus (GPa) = 40.83056 50.00281 45.41669
# Shear Modulus (GPa) = 27.40327 31.54309 29.47318
#
# Velocity S-wave (km/s) = 3.78399 4.05976 3.92430
# Velocity P-wave (km/s) = 6.35814 6.93561 6.65315
#
# Compressibility (1/GPa) = 0.02449146
#
# Stress axis : x y z
#
# Youngs Moduli (GPa) = 121.20646 75.49874 60.60151
#
# Poissons Ratio (x) = 0.27445 0.11598
# Poissons Ratio (y) = 0.44060 0.07295
# Poissons Ratio (z) = 0.23196 0.09089
#
# Static dielectric constant tensor:
#      x y z
#    x 1.880370 0.000000 0.246010 
#    y 0.000000 1.710270 0.000000 
#    z 0.246010 0.000000 1.901530 
# 
# From -- ./inp_files/21157.got.cif
#   From: 2010.05.17/outbox.cif.g08.bks.cpg/sg13_11_cif.got.tgz:21157.got - 2010.06.03 16:44:36.
