data_PCOD9230432
_publ_section_title
;
Structure prediction by ZEFSAII (Michael W. Deem and Ramdas Pophale) SiO2 
 PCOD9230432
Probable space group: P 2/C
;
_chemical_formula_sum "Si O2"
_cell_formula_units_Z 16
_cell_length_a 8.949417
_cell_length_b 10.629097
_cell_length_c 8.262640
_cell_angle_alpha 90.000000
_cell_angle_beta 124.181756
_cell_angle_gamma 90.000000
_cell_volume 650.207110
_symmetry_space_group_name_H-M "P 2/C"
_symmetry_group_IT_number 13
_symmetry_cell_setting 'monoclinic'
loop_
_space_group_symop_operation_xyz
x,y,z
-x,y,1/2-z
-x,-y,-z
x,-y,1/2+z
loop_
_atom_site_type_symbol
_atom_site_label
_atom_site_fract_x
_atom_site_fract_y
_atom_site_fract_z
Si Si1 0.290695 0.338519 0.567043
Si Si2 0.821474 0.146428 0.537121
Si Si3 0.292176 0.397519 0.188968
Si Si4 0.692579 0.084208 0.783367
O O1 0.500000 0.330710 0.750000
O O2 0.285243 0.363938 0.373424
O O3 0.217549 0.462721 0.611093
O O4 0.210891 0.204629 0.572647
O O5 0.806785 0.287728 0.467807
O O6 0.670194 0.119170 0.582285
O O7 0.000000 0.123909 0.750000
O O8 0.794329 0.045865 0.378947
O O9 0.500000 0.396981 0.250000
O O10 0.500000 0.070949 0.750000
#
# Coordination Sequence:
#
# PCOD9230432 Si02
#       4
#     4   4   4   4
#     4  10  20  36  63  94 119 154 207 260 301 353
#     4  12  25  41  61  93 129 163 201 253 311 364
#     4  11  20  38  63  91 123 162 205 253 302 364
#     4  11  22  41  64  90 120 163 210 252 299 363
#
# _framework density 24.607544000000001
#
# number of rings (size 3 to 8) (size 9 to 14) (size 15 to 20)
#    0.000    1.000    0.000   11.250    0.000    0.000 
#    0.000    6.250    0.000    0.000    0.000    0.000 
#    0.000    0.000    0.000    0.000    0.000    0.000 
#
# Total GULP energy -89644.467946 kJ/mol
# GULP energy per Si atom -5602.779247 kJ/mol
# Density = 2.455154 g / cm^3
# Si number density = 24.607544 Si / 1000 Ang^3
#
#
#
# Elastic Constant Matrix: (Units=GPa)
#
#
# Indices 1 2 3 4 5 6 
#
# 1 40.8534 -11.8668 -3.4957 0.0000 -1.9348 0.0000
# 2 -11.8668 177.7061 21.1024 0.0000 11.5213 0.0000
# 3 -3.4957 21.1024 74.3113 0.0000 -24.4633 0.0000
# 4 0.0000 0.0000 0.0000 193.7508 0.0000 191.9427
# 5 -1.9348 11.5213 -24.4633 0.0000 41.0424 0.0000
# 6 0.0000 0.0000 0.0000 191.9427 0.0000 307.0269
#
#
#
# Elastic Compliance Matrix: (Units=1/GPa)
#
#
# Indices 1 2 3 4 5 6 
#
# 1 0.025074 0.001421 0.001286 0.000000 0.001550 0.000000
# 2 0.001421 0.006277 -0.002829 0.000000 -0.003381 0.000000
# 3 0.001286 -0.002829 0.018167 0.000000 0.011683 0.000000
# 4 0.000000 0.000000 0.000000 0.013558 0.000000 -0.008476
# 5 0.001550 -0.003381 0.011683 0.000000 0.032351 0.000000
# 6 0.000000 0.000000 0.000000 -0.008476 0.000000 0.008556
#
#
# Mechanical properties :
#
#
# Convention : Reuss Voigt Hill
#
# Bulk Modulus (GPa) = 20.29431 33.81674 27.05552
# Shear Modulus (GPa) = 41.44161 127.50609 84.47385
#
# Velocity S-wave (km/s) = 4.10823 7.20613 5.86540
# Velocity P-wave (km/s) = 5.54694 9.11098 7.54250
#
# Compressibility (1/GPa) = 0.04927489
#
# Stress axis : x y z
#
# Youngs Moduli (GPa) = 39.88194 159.30372 55.04560
#
# Poissons Ratio (x) = -0.22640 -0.07079
# Poissons Ratio (y) = -0.05668 0.15572
# Poissons Ratio (z) = -0.05129 0.45065
#
# Static dielectric constant tensor:
#      x y z
#    x 2.131870 0.000000 0.024740 
#    y 0.000000 1.944640 0.000000 
#    z 0.024740 0.000000 1.899380 
# 
# From -- ./inp_files/11223.got.cif
#   From: 2010.05.17/outbox.cif.g08.bks.cpg/sg13_6_cif.got.tgz:11223.got - 2010.06.03 16:44:36.
