data_PCOD9230165
_publ_section_title
;
Structure prediction by ZEFSAII (Michael W. Deem and Ramdas Pophale) SiO2 
 PCOD9230165
Probable space group: P 2/C
;
_chemical_formula_sum "Si O2"
_cell_formula_units_Z 28
_cell_length_a 8.217547
_cell_length_b 23.907106
_cell_length_c 14.684822
_cell_angle_alpha 90.000000
_cell_angle_beta 148.901850
_cell_angle_gamma 90.000000
_cell_volume 1490.091691
_symmetry_space_group_name_H-M "P 2/C"
_symmetry_group_IT_number 13
_symmetry_cell_setting 'monoclinic'
loop_
_space_group_symop_operation_xyz
x,y,z
-x,y,1/2-z
-x,-y,-z
x,-y,1/2+z
loop_
_atom_site_type_symbol
_atom_site_label
_atom_site_fract_x
_atom_site_fract_y
_atom_site_fract_z
Si Si1 0.248659 0.541724 0.284587
Si Si2 0.366350 0.144211 0.786789
Si Si3 0.379751 0.240860 0.931613
Si Si4 0.624837 0.062883 0.065708
Si Si5 0.637027 0.566877 0.913159
Si Si6 0.370761 0.636231 0.941297
Si Si7 0.614622 0.847334 0.909233
O O1 0.448130 0.486191 0.364284
O O2 0.480939 0.593362 0.414449
O O3 0.000000 0.535959 0.250000
O O4 0.007431 0.553926 0.087645
O O5 0.500000 0.139907 0.750000
O O6 0.458151 0.200823 0.884183
O O7 0.990105 0.145380 0.596706
O O8 0.488387 0.095706 0.912454
O O9 0.000000 0.249780 0.750000
O O10 0.554278 0.299436 0.005043
O O11 0.465718 0.206225 0.064764
O O12 0.520243 0.098075 0.104364
O O13 0.000000 0.062351 0.250000
O O14 0.500000 0.000000 0.000000
O O15 0.500000 0.577964 0.750000
O O16 0.560705 0.618584 0.941710
O O17 0.000000 0.626476 0.750000
O O18 0.500000 0.841942 0.750000
#
# Coordination Sequence:
#
# PCOD9230165 Si02
#       7
#     4   4   4   4   4   4   4
#     4  10  20  36  56  76 106 142 176 216 272 334
#     4  10  21  39  61  87 117 151 191 235 284 338
#     4   9  20  39  59  80 112 149 187 233 281 330
#     4  11  22  38  60  87 120 155 194 237 284 334
#     4  11  21  35  56  81 107 136 176 225 275 327
#     4  11  22  37  56  78 107 145 184 220 271 333
#     4  10  21  38  61  87 117 152 191 234 285 338
#
# _framework density 18.790790000000001
#
# number of rings (size 3 to 8) (size 9 to 14) (size 15 to 20)
#    0.000    1.714    0.000    7.714    0.000    4.571 
#    0.000    6.429    0.000    0.000    0.000    0.000 
#    0.000    0.000    0.000    0.000    0.000    0.000 
#
# Total GULP energy -156353.529912 kJ/mol
# GULP energy per Si atom -5584.054640 kJ/mol
# Density = 1.874802 g / cm^3
# Si number density = 18.790790 Si / 1000 Ang^3
#
#
#
# Elastic Constant Matrix: (Units=GPa)
#
#
# Indices 1 2 3 4 5 6 
#
# 1 53.3289 24.5645 23.8243 0.0000 -14.9353 0.0000
# 2 24.5645 112.0676 40.5103 0.0000 -2.7087 0.0000
# 3 23.8243 40.5103 131.8426 0.0000 -13.2923 0.0000
# 4 0.0000 0.0000 0.0000 25.6122 0.0000 9.3305
# 5 -14.9353 -2.7087 -13.2923 0.0000 37.9316 0.0000
# 6 0.0000 0.0000 0.0000 9.3305 0.0000 8.5513
#
#
#
# Elastic Compliance Matrix: (Units=1/GPa)
#
#
# Indices 1 2 3 4 5 6 
#
# 1 0.024051 -0.004279 -0.002184 0.000000 0.008399 0.000000
# 2 -0.004279 0.010805 -0.002735 0.000000 -0.001872 0.000000
# 3 -0.002184 -0.002735 0.009033 0.000000 0.002110 0.000000
# 4 0.000000 0.000000 0.000000 0.064802 0.000000 -0.070706
# 5 0.008399 -0.001872 0.002110 0.000000 0.030276 0.000000
# 6 0.000000 0.000000 0.000000 -0.070706 0.000000 0.194089
#
#
# Mechanical properties :
#
#
# Convention : Reuss Voigt Hill
#
# Bulk Modulus (GPa) = 39.23069 52.78192 46.00630
# Shear Modulus (GPa) = 13.89082 28.30836 21.09959
#
# Velocity S-wave (km/s) = 2.72184 3.88558 3.35456
# Velocity P-wave (km/s) = 5.54985 6.94842 6.28814
#
# Compressibility (1/GPa) = 0.02549025
#
# Stress axis : x y z
#
# Youngs Moduli (GPa) = 41.57891 92.55263 110.70862
#
# Poissons Ratio (x) = 0.39604 0.24184
# Poissons Ratio (y) = 0.17792 0.30283
# Poissons Ratio (z) = 0.09083 0.25316
#
# Static dielectric constant tensor:
#      x y z
#    x 1.692440 0.000000 0.014020 
#    y 0.000000 1.624200 0.000000 
#    z 0.014020 0.000000 1.698430 
# 
# From -- ./inp_files/48237.got.cif
#   From: 2010.05.17/outbox.cif.g08.bks.cpg/sg13_25_cif.got.tgz:48237.got - 2010.06.03 16:44:36.
