data_PCOD9230422
_publ_section_title
;
Structure prediction by ZEFSAII (Michael W. Deem and Ramdas Pophale) SiO2 
 PCOD9230422
Probable space group: P 2/C
;
_chemical_formula_sum "Si O2"
_cell_formula_units_Z 32
_cell_length_a 19.489607
_cell_length_b 11.476866
_cell_length_c 8.698463
_cell_angle_alpha 90.000000
_cell_angle_beta 51.410664
_cell_angle_gamma 90.000000
_cell_volume 1520.805895
_symmetry_space_group_name_H-M "P 2/C"
_symmetry_group_IT_number 13
_symmetry_cell_setting 'monoclinic'
loop_
_space_group_symop_operation_xyz
x,y,z
-x,y,1/2-z
-x,-y,-z
x,-y,1/2+z
loop_
_atom_site_type_symbol
_atom_site_label
_atom_site_fract_x
_atom_site_fract_y
_atom_site_fract_z
Si Si1 0.231598 0.342930 0.459397
Si Si2 0.261887 0.832357 0.330958
Si Si3 0.199947 0.031084 0.196469
Si Si4 0.395913 0.376694 0.071937
Si Si5 0.155037 0.512461 0.783718
Si Si6 0.906986 0.328744 0.410045
Si Si7 0.399444 0.637266 0.200305
Si Si8 0.103368 0.861183 0.115548
O O1 0.326945 0.303621 0.270315
O O2 0.230272 0.434539 0.599280
O O3 0.193116 0.409527 0.365290
O O4 0.161250 0.245033 0.597204
O O5 0.261531 0.895177 0.497555
O O6 0.171045 0.760445 0.454062
O O7 0.339618 0.738521 0.211882
O O8 0.254126 0.932995 0.213997
O O9 0.147156 0.110020 0.390418
O O10 0.126985 0.968784 0.192305
O O11 0.383747 0.510544 0.146225
O O12 0.496407 0.341680 0.961947
O O13 0.380291 0.367620 0.910782
O O14 0.115984 0.593723 0.706936
O O15 0.089441 0.420512 0.954492
O O16 0.000000 0.269766 0.250000
O O17 0.000000 0.838123 0.250000
#
# Coordination Sequence:
#
# PCOD9230422 Si02
#       8
#     4   4   4   4   4   4   4   4
#     4  11  21  36  57  83 118 153 188 234 288 349
#     4  11  23  41  61  84 116 157 204 254 300 344
#     4  10  24  41  60  82 111 152 206 255 293 339
#     4  10  20  36  62  96 125 154 191 232 292 370
#     4  10  22  35  53  84 122 158 192 225 282 370
#     4  11  22  36  56  83 119 159 195 240 299 360
#     4  10  21  38  63  92 126 158 190 238 298 361
#     4  11  23  39  60  84 111 149 197 250 301 344
#
# _framework density 21.041474999999998
#
# number of rings (size 3 to 8) (size 9 to 14) (size 15 to 20)
#    0.000    1.500    0.000    6.000    0.000    9.000 
#    0.000    0.000    0.000   13.500    0.000    0.000 
#    0.000    0.000    0.000    0.000    0.000    0.000 
#
# Total GULP energy -178945.672749 kJ/mol
# GULP energy per Si atom -5592.052273 kJ/mol
# Density = 2.099358 g / cm^3
# Si number density = 21.041475 Si / 1000 Ang^3
#
#
#
# Elastic Constant Matrix: (Units=GPa)
#
#
# Indices 1 2 3 4 5 6 
#
# 1 54.2059 30.4813 35.2895 0.0000 -15.9277 0.0000
# 2 30.4813 77.7811 24.6550 0.0000 -8.7152 0.0000
# 3 35.2895 24.6550 66.9841 0.0000 -2.1601 0.0000
# 4 0.0000 0.0000 0.0000 13.6096 0.0000 -4.7261
# 5 -15.9277 -8.7152 -2.1601 0.0000 43.0617 0.0000
# 6 0.0000 0.0000 0.0000 -4.7261 0.0000 20.7130
#
#
#
# Elastic Compliance Matrix: (Units=1/GPa)
#
#
# Indices 1 2 3 4 5 6 
#
# 1 0.036652 -0.008049 -0.015988 0.000000 0.011126 0.000000
# 2 -0.008049 0.016638 -0.001874 0.000000 0.000296 0.000000
# 3 -0.015988 -0.001874 0.023878 0.000000 -0.005095 0.000000
# 4 0.000000 0.000000 0.000000 0.079801 0.000000 0.018208
# 5 0.011126 0.000296 -0.005095 0.000000 0.027142 0.000000
# 6 0.000000 0.000000 0.000000 0.018208 0.000000 0.052434
#
#
# Mechanical properties :
#
#
# Convention : Reuss Voigt Hill
#
# Bulk Modulus (GPa) = 39.45478 42.20250 40.82864
# Shear Modulus (GPa) = 16.84548 22.71321 19.77934
#
# Velocity S-wave (km/s) = 2.83253 3.28906 3.06930
# Velocity P-wave (km/s) = 5.43041 5.87574 5.65745
#
# Compressibility (1/GPa) = 0.02534547
#
# Stress axis : x y z
#
# Youngs Moduli (GPa) = 27.28341 60.10313 41.88032
#
# Poissons Ratio (x) = 0.48376 0.66959
# Poissons Ratio (y) = 0.21960 0.07849
# Poissons Ratio (z) = 0.43622 0.11264
#
# Static dielectric constant tensor:
#      x y z
#    x 1.755600 0.000000 0.007630 
#    y 0.000000 1.756440 0.000000 
#    z 0.007630 0.000000 1.782100 
# 
# From -- ./inp_files/23351.got.cif
#   From: 2010.05.17/outbox.cif.g08.bks.cpg/sg13_12_cif.got.tgz:23351.got - 2010.06.03 16:44:36.
