data_PCOD9230436
_publ_section_title
;
Structure prediction by ZEFSAII (Michael W. Deem and Ramdas Pophale) SiO2 
 PCOD9230436
Probable space group: P 2/C
;
_chemical_formula_sum "Si O2"
_cell_formula_units_Z 20
_cell_length_a 15.383456
_cell_length_b 7.205127
_cell_length_c 21.817089
_cell_angle_alpha 90.000000
_cell_angle_beta 17.243782
_cell_angle_gamma 90.000000
_cell_volume 716.846434
_symmetry_space_group_name_H-M "P 2/C"
_symmetry_group_IT_number 13
_symmetry_cell_setting 'monoclinic'
loop_
_space_group_symop_operation_xyz
x,y,z
-x,y,1/2-z
-x,-y,-z
x,-y,1/2+z
loop_
_atom_site_type_symbol
_atom_site_label
_atom_site_fract_x
_atom_site_fract_y
_atom_site_fract_z
Si Si1 0.696399 0.268119 0.038648
Si Si2 0.207730 0.149921 0.989577
Si Si3 0.064391 0.661124 0.004014
Si Si4 0.445950 0.767229 0.588623
Si Si5 0.537728 0.810825 0.058048
O O1 0.849017 0.401827 0.985059
O O2 0.357221 0.237869 0.285601
O O3 0.647024 0.338519 0.002820
O O4 0.833316 0.067634 0.962518
O O5 0.500000 0.171596 0.750000
O O6 0.253005 0.238780 0.026583
O O7 0.903273 0.215120 0.164796
O O8 0.000000 0.500000 0.000000
O O9 0.781849 0.787109 0.197502
O O10 0.470361 0.709081 0.501714
O O11 0.574046 0.974738 0.513996
#
# Coordination Sequence:
#
# PCOD9230436 Si02
#       5
#     4   4   4   4   4
#     4  10  21  40  62  92 127 173 226 275 343 398
#     4  11  18  34  64  96 137 161 205 281 357 419
#     4  11  22  42  61  86 132 179 238 265 311 409
#     4  10  20  36  63  97 137 157 209 290 355 415
#     4  10  21  35  60 101 128 170 212 272 356 402
#
# _framework density 27.899977
#
# number of rings (size 3 to 8) (size 9 to 14) (size 15 to 20)
#    0.000    1.600    4.000    1.800    0.000    4.000 
#   10.800    1.000    0.000    0.000    0.000    0.000 
#    0.000    0.000    0.000    0.000    0.000    0.000 
#
# Total GULP energy -111905.656738 kJ/mol
# GULP energy per Si atom -5595.282837 kJ/mol
# Density = 2.783648 g / cm^3
# Si number density = 27.899977 Si / 1000 Ang^3
#
#
#
# Elastic Constant Matrix: (Units=GPa)
#
#
# Indices 1 2 3 4 5 6 
#
# 1 312.1060 46.4416 17.2166 0.0000 -15.0712 0.0000
# 2 46.4416 81.1126 9.6768 0.0000 3.0869 0.0000
# 3 17.2166 9.6768 115.4199 0.0000 -9.9428 0.0000
# 4 0.0000 0.0000 0.0000 -18.7763 0.0000 11.9630
# 5 -15.0712 3.0869 -9.9428 0.0000 46.4268 0.0000
# 6 0.0000 0.0000 0.0000 11.9630 0.0000 41.0601
#
#
#
# Elastic Compliance Matrix: (Units=1/GPa)
#
#
# Indices 1 2 3 4 5 6 
#
# 1 0.003586 -0.002071 -0.000254 0.000000 0.001248 0.000000
# 2 -0.002071 0.013701 -0.000995 0.000000 -0.001796 0.000000
# 3 -0.000254 -0.000995 0.008949 0.000000 0.001900 0.000000
# 4 0.000000 0.000000 0.000000 -0.044920 0.000000 0.013088
# 5 0.001248 -0.001796 0.001900 0.000000 0.022471 0.000000
# 6 0.000000 0.000000 0.000000 0.013088 0.000000 0.020541
#
#
# Mechanical properties :
#
#
# Convention : Reuss Voigt Hill
#
# Bulk Modulus (GPa) = 51.02480 72.81206 61.91843
# Shear Modulus (GPa) = 133.33569 42.76235 88.04902
#
# Velocity S-wave (km/s) = 6.92058 3.91922 5.62382
# Velocity P-wave (km/s) = 9.06572 6.82895 8.02564
#
# Compressibility (1/GPa) = 0.01959831
#
# Stress axis : x y z
#
# Youngs Moduli (GPa) = 278.83162 72.98695 111.74469
#
# Poissons Ratio (x) = 0.15113 0.02837
# Poissons Ratio (y) = 0.57735 0.11114
# Poissons Ratio (z) = 0.07079 0.07259
#
# Static dielectric constant tensor:
#      x y z
#    x 2.327240 0.000000 0.116660 
#    y 0.000000 2.201460 0.000000 
#    z 0.116660 0.000000 2.163010 
# 
# From -- ./inp_files/79729.got.cif
#   From: 2010.05.17/outbox.cif.g08.bks.cpg/sg13_40_cif.got.tgz:79729.got - 2010.06.03 16:44:36.
