data_PCOD9230779
_publ_section_title
;
Structure prediction by ZEFSAII (Michael W. Deem and Ramdas Pophale) SiO2 
 PCOD9230779
Probable space group: P 2/C
;
_chemical_formula_sum "Si O2"
_cell_formula_units_Z 30
_cell_length_a 8.767397
_cell_length_b 15.682790
_cell_length_c 11.893992
_cell_angle_alpha 90.000000
_cell_angle_beta 67.501475
_cell_angle_gamma 90.000000
_cell_volume 1510.920516
_symmetry_space_group_name_H-M "P 2/C"
_symmetry_group_IT_number 13
_symmetry_cell_setting 'monoclinic'
loop_
_space_group_symop_operation_xyz
x,y,z
-x,y,1/2-z
-x,-y,-z
x,-y,1/2+z
loop_
_atom_site_type_symbol
_atom_site_label
_atom_site_fract_x
_atom_site_fract_y
_atom_site_fract_z
Si Si1 0.130422 0.748739 0.548838
Si Si2 0.182095 0.096461 0.643641
Si Si3 0.500000 0.300395 0.250000
Si Si4 0.225971 0.180531 0.392424
Si Si5 0.400375 0.578564 0.160555
Si Si6 0.682628 0.400695 0.391990
Si Si7 0.312035 0.755485 0.261828
Si Si8 0.198269 0.092903 0.178213
O O1 0.176831 0.659699 0.595087
O O2 0.195353 0.752258 0.403397
O O3 0.220661 0.826775 0.589266
O O4 0.935652 0.767630 0.603128
O O5 0.179455 0.131477 0.518169
O O6 0.278156 0.164332 0.692579
O O7 0.000000 0.093887 0.750000
O O8 0.252330 0.000320 0.623560
O O9 0.380058 0.242910 0.360132
O O10 0.611358 0.355133 0.301787
O O11 0.269373 0.116093 0.279432
O O12 0.500000 0.561682 0.250000
O O13 0.290583 0.498362 0.152869
O O14 0.297098 0.664958 0.203400
O O15 0.539806 0.594824 0.027124
O O16 0.500000 0.759151 0.250000
O O17 0.000000 0.087601 0.250000
#
# Coordination Sequence:
#
# PCOD9230779 Si02
#       8
#     4   4   2   4   4   4   4   4
#     4  11  21  41  65  90 129 168 211 258 319 381
#     4  11  23  41  66  92 127 170 216 265 314 377
#     4  12  24  40  66  94 126 168 212 264 322 380
#     4  11  24  41  64  94 128 167 215 260 317 382
#     4  10  20  37  64  96 124 164 216 252 321 385
#     4  11  21  38  67  92 126 168 208 263 314 386
#     4  11  22  40  64  94 126 167 208 263 319 373
#     4   9  22  38  63  93 123 170 215 257 317 383
#
# _framework density 19.855445
#
# number of rings (size 3 to 8) (size 9 to 14) (size 15 to 20)
#    0.000    1.333    6.000    0.800    1.867    1.600 
#    1.200    1.333    2.933    4.800    0.000    0.000 
#    0.000    0.000    0.000    0.000    0.000    0.000 
#
# Total GULP energy -167519.177657 kJ/mol
# GULP energy per Si atom -5583.972589 kJ/mol
# Density = 1.981025 g / cm^3
# Si number density = 19.855445 Si / 1000 Ang^3
#
#
#
# Elastic Constant Matrix: (Units=GPa)
#
#
# Indices 1 2 3 4 5 6 
#
# 1 36.9766 29.8586 -6.5318 0.0000 -0.8828 0.0000
# 2 29.8586 151.5802 21.8858 0.0000 -0.8341 0.0000
# 3 -6.5318 21.8858 68.3684 0.0000 -0.0405 0.0000
# 4 0.0000 0.0000 0.0000 69.8023 0.0000 -3.5001
# 5 -0.8828 -0.8341 -0.0405 0.0000 19.9227 0.0000
# 6 0.0000 0.0000 0.0000 -3.5001 0.0000 33.5503
#
#
#
# Elastic Compliance Matrix: (Units=1/GPa)
#
#
# Indices 1 2 3 4 5 6 
#
# 1 0.034168 -0.007544 0.005680 0.000000 0.001210 0.000000
# 2 -0.007544 0.008584 -0.003469 0.000000 0.000018 0.000000
# 3 0.005680 -0.003469 0.016280 0.000000 0.000140 0.000000
# 4 0.000000 0.000000 0.000000 0.014402 0.000000 0.001502
# 5 0.001210 0.000018 0.000140 0.000000 0.050249 0.000000
# 6 0.000000 0.000000 0.000000 0.001502 0.000000 0.029963
#
#
# Mechanical properties :
#
#
# Convention : Reuss Voigt Hill
#
# Bulk Modulus (GPa) = 20.67529 38.59446 29.63488
# Shear Modulus (GPa) = 27.71121 38.76923 33.24022
#
# Velocity S-wave (km/s) = 3.73989 4.42359 4.09603
# Velocity P-wave (km/s) = 5.39301 6.75061 6.10964
#
# Compressibility (1/GPa) = 0.04836691
#
# Stress axis : x y z
#
# Youngs Moduli (GPa) = 29.26703 116.49430 61.42595
#
# Poissons Ratio (x) = 0.87883 -0.34890
# Poissons Ratio (y) = 0.22079 0.21306
# Poissons Ratio (z) = -0.16624 0.40408
#
# Static dielectric constant tensor:
#      x y z
#    x 1.694520 0.000000 0.003620 
#    y 0.000000 1.729190 0.000000 
#    z 0.003620 0.000000 1.697560 
# 
# From -- ./inp_files/30373.got.cif
#   From: 2010.05.17/outbox.cif.g08.bks.cpg/sg13_16_cif.got.tgz:30373.got - 2010.06.03 16:44:36.
