data_PCOD9230220
_publ_section_title
;
Structure prediction by ZEFSAII (Michael W. Deem and Ramdas Pophale) SiO2 
 PCOD9230220
Probable space group: P 2/C
;
_chemical_formula_sum "Si O2"
_cell_formula_units_Z 32
_cell_length_a 19.755525
_cell_length_b 5.464836
_cell_length_c 32.672097
_cell_angle_alpha 90.000000
_cell_angle_beta 25.649896
_cell_angle_gamma 90.000000
_cell_volume 1526.866811
_symmetry_space_group_name_H-M "P 2/C"
_symmetry_group_IT_number 13
_symmetry_cell_setting 'monoclinic'
loop_
_space_group_symop_operation_xyz
x,y,z
-x,y,1/2-z
-x,-y,-z
x,-y,1/2+z
loop_
_atom_site_type_symbol
_atom_site_label
_atom_site_fract_x
_atom_site_fract_y
_atom_site_fract_z
Si Si1 0.836948 0.290736 0.390256
Si Si2 0.762599 0.198415 0.791756
Si Si3 0.183351 0.011441 0.400842
Si Si4 0.784320 0.303756 0.326292
Si Si5 0.669125 0.986227 0.598929
Si Si6 0.860892 0.787491 0.422859
Si Si7 0.618529 0.775910 0.281306
Si Si8 0.591724 0.600526 0.734188
O O1 0.755594 0.310595 0.390488
O O2 0.801801 0.529292 0.436948
O O3 0.025867 0.304108 0.281437
O O4 0.808151 0.023391 0.424985
O O5 0.725008 0.449712 0.836472
O O6 0.674752 0.188123 0.796357
O O7 0.950034 0.209476 0.680878
O O8 0.730861 0.950978 0.834830
O O9 0.244305 0.892295 0.409852
O O10 0.245182 0.290141 0.369553
O O11 0.266893 0.905023 0.314745
O O12 0.000000 0.000000 0.500000
O O13 0.793331 0.837905 0.504499
O O14 0.537634 0.808732 0.688997
O O15 0.561324 0.150661 0.628555
O O16 0.622648 0.501921 0.262222
O O17 0.500000 0.438473 0.750000
#
# Coordination Sequence:
#
# PCOD9230220 Si02
#       8
#     4   4   4   4   4   4   4   4
#     4   9  18  34  60  85 122 148 197 241 312 352
#     4  10  21  34  60  88 122 147 205 246 301 346
#     4  10  21  39  59  86 116 149 197 253 297 346
#     4   9  18  35  57  90 116 156 187 253 301 362
#     4  10  22  37  57  81 120 156 201 239 297 356
#     4  10  20  36  57  92 115 155 195 255 290 355
#     4  11  22  37  58  82 115 164 194 243 293 364
#     4   9  20  38  58  80 112 156 202 235 289 359
#
# _framework density 20.957951000000001
#
# number of rings (size 3 to 8) (size 9 to 14) (size 15 to 20)
#    0.000    2.250    0.000    3.375    5.250    3.500 
#    2.250    0.000    0.000    4.500    0.000    0.000 
#    0.000    0.000    0.000    0.000    0.000    0.000 
#
# Total GULP energy -178358.761139 kJ/mol
# GULP energy per Si atom -5573.711286 kJ/mol
# Density = 2.091025 g / cm^3
# Si number density = 20.957951 Si / 1000 Ang^3
#
#
#
# Elastic Constant Matrix: (Units=GPa)
#
#
# Indices 1 2 3 4 5 6 
#
# 1 173.2820 56.9380 5.8427 0.0000 -4.6562 0.0000
# 2 56.9380 103.5907 9.8453 0.0000 -5.5248 0.0000
# 3 5.8427 9.8453 23.4571 0.0000 -13.7398 0.0000
# 4 0.0000 0.0000 0.0000 1.9367 0.0000 8.5137
# 5 -4.6562 -5.5248 -13.7398 0.0000 24.6042 0.0000
# 6 0.0000 0.0000 0.0000 8.5137 0.0000 30.3194
#
#
#
# Elastic Compliance Matrix: (Units=1/GPa)
#
#
# Indices 1 2 3 4 5 6 
#
# 1 0.007049 -0.003863 0.000206 0.000000 0.000582 0.000000
# 2 -0.003863 0.012172 -0.004419 0.000000 -0.000466 0.000000
# 3 0.000206 -0.004419 0.065204 0.000000 0.035459 0.000000
# 4 0.000000 0.000000 0.000000 -2.203155 0.000000 0.618645
# 5 0.000582 -0.000466 0.035459 0.000000 0.060450 0.000000
# 6 0.000000 0.000000 0.000000 0.618645 0.000000 -0.140733
#
#
# Mechanical properties :
#
#
# Convention : Reuss Voigt Hill
#
# Bulk Modulus (GPa) = 14.64709 49.50910 32.07809
# Shear Modulus (GPa) = -2.31470 26.55233 12.11881
#
# Velocity S-wave (km/s) = -1.05207 3.56326 2.40728
# Velocity P-wave (km/s) = 2.35121 6.37209 4.80269
#
# Compressibility (1/GPa) = 0.06827297
#
# Stress axis : x y z
#
# Youngs Moduli (GPa) = 141.86539 82.15701 15.33646
#
# Poissons Ratio (x) = 0.31737 -0.00317
# Poissons Ratio (y) = 0.54802 0.06778
# Poissons Ratio (z) = -0.02928 0.36308
#
# Static dielectric constant tensor:
#      x y z
#    x 1.729140 0.000000 0.029550 
#    y 0.000000 1.847960 0.000000 
#    z 0.029550 0.000000 1.732570 
# 
# From -- ./inp_files/97245.got.cif
#   From: 2010.05.17/outbox.cif.g08.bks.cpg/sg13_49_cif.got.tgz:97245.got - 2010.06.03 16:44:36.
