data_PCOD9230111
_publ_section_title
;
Structure prediction by ZEFSAII (Michael W. Deem and Ramdas Pophale) SiO2 
 PCOD9230111
Probable space group: P 2/C
;
_chemical_formula_sum "Si O2"
_cell_formula_units_Z 32
_cell_length_a 23.358366
_cell_length_b 12.147550
_cell_length_c 16.980148
_cell_angle_alpha 90.000000
_cell_angle_beta 19.787268
_cell_angle_gamma 90.000000
_cell_volume 1631.053816
_symmetry_space_group_name_H-M "P 2/C"
_symmetry_group_IT_number 13
_symmetry_cell_setting 'monoclinic'
loop_
_space_group_symop_operation_xyz
x,y,z
-x,y,1/2-z
-x,-y,-z
x,-y,1/2+z
loop_
_atom_site_type_symbol
_atom_site_label
_atom_site_fract_x
_atom_site_fract_y
_atom_site_fract_z
Si Si1 0.449332 0.178980 0.589557
Si Si2 0.729063 0.010682 0.234795
Si Si3 0.314171 0.985567 0.527553
Si Si4 0.316840 0.487864 0.031199
Si Si5 0.509986 0.597684 0.551794
Si Si6 0.360296 0.753087 0.497279
Si Si7 0.846084 0.619521 0.393781
Si Si8 0.056627 0.128472 0.765410
O O1 0.594572 0.095733 0.370923
O O2 0.434103 0.288740 0.559783
O O3 0.529814 0.215240 0.568356
O O4 0.284449 0.100844 0.799200
O O5 0.684882 0.977508 0.382238
O O6 0.897654 0.083073 0.020287
O O7 0.500000 0.980442 0.250000
O O8 0.209856 0.062355 0.604922
O O9 0.250280 0.858878 0.615895
O O10 0.500000 0.485132 0.750000
O O11 0.355275 0.561285 0.057224
O O12 0.270973 0.364512 0.118288
O O13 0.188287 0.541239 0.136093
O O14 0.500000 0.500000 0.500000
O O15 0.327096 0.617876 0.830311
O O16 0.500000 0.739407 0.250000
O O17 0.896392 0.742276 0.298845
O O18 0.000000 0.582015 0.250000
O O19 0.000000 0.099301 0.750000
#
# Coordination Sequence:
#
# PCOD9230111 Si02
#       8
#     4   4   4   4   4   4   4   4
#     4  10  20  35  63  91 122 163 215 265 328 388
#     4  10  23  39  62  90 132 166 214 270 332 395
#     4  10  23  38  63  90 125 170 215 263 327 392
#     4   9  19  37  61  87 118 162 212 259 306 383
#     4  11  21  38  66  98 124 166 222 275 323 392
#     4   9  18  35  57  84 121 156 202 255 318 376
#     4  10  23  41  63  88 130 171 209 270 328 381
#     4  11  24  40  62  91 129 165 213 274 329 382
#
# _framework density 19.619216999999999
#
# number of rings (size 3 to 8) (size 9 to 14) (size 15 to 20)
#    0.000    2.000    1.250    1.875   10.500    0.500 
#    0.000    2.500    0.000    0.000    0.000    0.000 
#    0.000    0.000    0.000    0.000    0.000    0.000 
#
# Total GULP energy -178281.034113 kJ/mol
# GULP energy per Si atom -5571.282316 kJ/mol
# Density = 1.957456 g / cm^3
# Si number density = 19.619217 Si / 1000 Ang^3
#
#
#
# Elastic Constant Matrix: (Units=GPa)
#
#
# Indices 1 2 3 4 5 6 
#
# 1 133.5120 81.4934 14.4929 0.0000 -15.9734 0.0000
# 2 81.4934 157.5276 25.2766 0.0000 -17.1557 0.0000
# 3 14.4929 25.2766 49.6506 0.0000 -7.7027 0.0000
# 4 0.0000 0.0000 0.0000 -7.9189 0.0000 10.3657
# 5 -15.9734 -17.1557 -7.7027 0.0000 32.1434 0.0000
# 6 0.0000 0.0000 0.0000 10.3657 0.0000 37.4458
#
#
#
# Elastic Compliance Matrix: (Units=1/GPa)
#
#
# Indices 1 2 3 4 5 6 
#
# 1 0.011150 -0.005474 -0.000064 0.000000 0.002604 0.000000
# 2 -0.005474 0.009882 -0.003154 0.000000 0.001798 0.000000
# 3 -0.000064 -0.003154 0.022329 0.000000 0.003636 0.000000
# 4 0.000000 0.000000 0.000000 -0.092693 0.000000 0.025659
# 5 0.002604 0.001798 0.003636 0.000000 0.034235 0.000000
# 6 0.000000 0.000000 0.000000 0.025659 0.000000 0.019602
#
#
# Mechanical properties :
#
#
# Convention : Reuss Voigt Hill
#
# Bulk Modulus (GPa) = 38.49580 64.80178 51.64879
# Shear Modulus (GPa) = 163.67521 26.96257 95.31889
#
# Velocity S-wave (km/s) = 9.14369 3.71117 6.97782
# Velocity P-wave (km/s) = 11.45164 7.17392 9.55524
#
# Compressibility (1/GPa) = 0.02597686
#
# Stress axis : x y z
#
# Youngs Moduli (GPa) = 89.68748 101.19399 44.78473
#
# Poissons Ratio (x) = 0.55397 0.00285
# Poissons Ratio (y) = 0.49098 0.14125
# Poissons Ratio (z) = 0.00572 0.31916
#
# Static dielectric constant tensor:
#      x y z
#    x 1.708210 0.000000 0.013340 
#    y 0.000000 1.729910 0.000000 
#    z 0.013340 0.000000 1.745930 
# 
# From -- ./inp_files/71451.got.cif
#   From: 2010.05.17/outbox.cif.g08.bks.cpg/sg13_36_cif.got.tgz:71451.got - 2010.06.03 16:44:36.
