data_PCOD9230455
_publ_section_title
;
Structure prediction by ZEFSAII (Michael W. Deem and Ramdas Pophale) SiO2 
 PCOD9230455
Probable space group: P 2/C
;
_chemical_formula_sum "Si O2"
_cell_formula_units_Z 24
_cell_length_a 5.521520
_cell_length_b 7.113555
_cell_length_c 28.488686
_cell_angle_alpha 90.000000
_cell_angle_beta 63.592105
_cell_angle_gamma 90.000000
_cell_volume 1002.204450
_symmetry_space_group_name_H-M "P 2/C"
_symmetry_group_IT_number 13
_symmetry_cell_setting 'monoclinic'
loop_
_space_group_symop_operation_xyz
x,y,z
-x,y,1/2-z
-x,-y,-z
x,-y,1/2+z
loop_
_atom_site_type_symbol
_atom_site_label
_atom_site_fract_x
_atom_site_fract_y
_atom_site_fract_z
Si Si1 0.000000 0.951690 0.750000
Si Si2 0.214360 0.228679 0.872191
Si Si3 0.500000 0.266560 0.250000
Si Si4 0.679573 0.256518 0.954750
Si Si5 0.236673 0.211416 0.650162
Si Si6 0.382149 0.314336 0.071985
Si Si7 0.741678 0.775460 0.633100
O O1 0.231502 0.838910 0.755815
O O2 0.145394 0.072777 0.697905
O O3 0.262764 0.004801 0.860373
O O4 0.006392 0.255775 0.933458
O O5 0.504717 0.317962 0.853188
O O6 0.038965 0.305805 0.843791
O O7 0.388854 0.329222 0.310704
O O8 0.658188 0.129806 0.909268
O O9 0.598881 0.463163 0.942727
O O10 0.513692 0.214202 0.015037
O O11 0.562847 0.270606 0.102295
O O12 0.061137 0.272978 0.102545
#
# Coordination Sequence:
#
# PCOD9230455 Si02
#       7
#     2   4   2   4   4   4   4
#     4  12  18  38  66  94 122 168 210 256 318 384
#     4  10  21  39  63  93 126 157 212 268 308 369
#     4  12  22  40  64  88 140 158 202 260 330 382
#     4   9  25  44  64  89 131 174 210 265 313 391
#     4  10  20  36  64  94 117 165 211 262 301 378
#     4  11  26  41  67  89 131 173 215 250 336 384
#     4  12  24  41  63 101 120 169 211 268 317 387
#
# _framework density 23.947209999999998
#
# number of rings (size 3 to 8) (size 9 to 14) (size 15 to 20)
#    1.000    0.333    3.333    2.000    4.667    2.667 
#    0.000    1.667    0.000    0.000    0.000    0.000 
#    0.000    0.000    0.000    0.000    0.000    0.000 
#
# Total GULP energy -133702.473053 kJ/mol
# GULP energy per Si atom -5570.936377 kJ/mol
# Density = 2.389271 g / cm^3
# Si number density = 23.947210 Si / 1000 Ang^3
#
#
#
# Elastic Constant Matrix: (Units=GPa)
#
#
# Indices 1 2 3 4 5 6 
#
# 1 251.9673 28.1108 104.7803 0.0000 0.1157 0.0000
# 2 28.1108 79.7581 51.3637 0.0000 2.5019 0.0000
# 3 104.7803 51.3637 181.9965 0.0000 14.3658 0.0000
# 4 0.0000 0.0000 0.0000 14.7283 0.0000 14.1155
# 5 0.1157 2.5019 14.3658 0.0000 36.7936 0.0000
# 6 0.0000 0.0000 0.0000 14.1155 0.0000 13.7841
#
#
#
# Elastic Compliance Matrix: (Units=1/GPa)
#
#
# Indices 1 2 3 4 5 6 
#
# 1 0.005271 0.000147 -0.003172 0.000000 0.001212 0.000000
# 2 0.000147 0.015343 -0.004470 0.000000 0.000702 0.000000
# 3 -0.003172 -0.004470 0.008829 0.000000 -0.003133 0.000000
# 4 0.000000 0.000000 0.000000 3.657451 0.000000 -3.745381
# 5 0.001212 0.000702 -0.003133 0.000000 0.028351 0.000000
# 6 0.000000 0.000000 0.000000 -3.745381 0.000000 3.907972
#
#
# Mechanical properties :
#
#
# Convention : Reuss Voigt Hill
#
# Bulk Modulus (GPa) = 69.18769 98.02573 83.60671
# Shear Modulus (GPa) = 0.65419 35.02567 17.83993
#
# Velocity S-wave (km/s) = 0.52323 3.82857 2.73237
# Velocity P-wave (km/s) = 5.41475 7.78247 6.70397
#
# Compressibility (1/GPa) = 0.01445344
#
# Stress axis : x y z
#
# Youngs Moduli (GPa) = 189.72690 65.17714 113.25734
#
# Poissons Ratio (x) = -0.00957 0.35921
# Poissons Ratio (y) = -0.02785 0.50626
# Poissons Ratio (z) = 0.60173 0.29134
#
# Static dielectric constant tensor:
#      x y z
#    x 1.939830 0.000000 0.013500 
#    y 0.000000 1.979910 0.000000 
#    z 0.013500 0.000000 1.953740 
# 
# From -- ./inp_files/83317.got.cif
#   From: 2010.05.17/outbox.cif.g08.bks.cpg/sg13_42_cif.got.tgz:83317.got - 2010.06.03 16:44:36.
