data_PCOD9230766
_publ_section_title
;
Structure prediction by ZEFSAII (Michael W. Deem and Ramdas Pophale) SiO2 
 PCOD9230766
Probable space group: P 2/C
;
_chemical_formula_sum "Si O2"
_cell_formula_units_Z 28
_cell_length_a 27.469135
_cell_length_b 9.960421
_cell_length_c 27.894035
_cell_angle_alpha 90.000000
_cell_angle_beta 169.397189
_cell_angle_gamma 90.000000
_cell_volume 1404.270715
_symmetry_space_group_name_H-M "P 2/C"
_symmetry_group_IT_number 13
_symmetry_cell_setting 'monoclinic'
loop_
_space_group_symop_operation_xyz
x,y,z
-x,y,1/2-z
-x,-y,-z
x,-y,1/2+z
loop_
_atom_site_type_symbol
_atom_site_label
_atom_site_fract_x
_atom_site_fract_y
_atom_site_fract_z
Si Si1 0.158430 0.111535 0.769449
Si Si2 0.717518 0.931941 0.761221
Si Si3 0.974652 0.897862 0.780611
Si Si4 0.737251 0.564903 0.334995
Si Si5 0.524929 0.282625 0.718598
Si Si6 0.138710 0.773486 0.125896
Si Si7 0.747267 0.609298 0.167210
O O1 0.178575 0.270765 0.797544
O O2 0.926187 0.078420 0.507054
O O3 0.113673 0.019306 0.771656
O O4 0.435178 0.081908 0.011647
O O5 0.735934 0.077980 0.755075
O O6 0.828239 0.814351 0.833191
O O7 0.752156 0.781624 0.566018
O O8 0.000000 0.940849 0.750000
O O9 0.252183 0.833966 0.065484
O O10 0.619296 0.607642 0.271933
O O11 0.779248 0.695263 0.342257
O O12 0.025602 0.500638 0.617540
O O13 0.534996 0.458758 0.115177
O O14 0.500000 0.328235 0.750000
O O15 0.225439 0.680134 0.254237
#
# Coordination Sequence:
#
# PCOD9230766 Si02
#       7
#     4   4   4   4   4   4   4
#     4  11  21  40  56  83 119 149 190 236 287 348
#     4  10  23  36  60  84 112 153 189 243 297 331
#     4  10  20  37  64  90 110 139 184 247 301 335
#     4  12  23  39  59  82 115 161 192 229 285 335
#     4  10  22  40  63  90 113 140 191 245 289 340
#     4  10  22  39  58  85 116 150 199 240 282 340
#     4  11  25  37  55  83 119 157 194 228 271 343
#
# _framework density 19.939174999999999
#
# number of rings (size 3 to 8) (size 9 to 14) (size 15 to 20)
#    0.000    1.429    0.000    6.000    0.000    9.714 
#    0.000    1.429    0.000    0.000    0.000    0.000 
#    0.000    0.000    0.000    0.000    0.000    0.000 
#
# Total GULP energy -156501.231782 kJ/mol
# GULP energy per Si atom -5589.329707 kJ/mol
# Density = 1.989379 g / cm^3
# Si number density = 19.939175 Si / 1000 Ang^3
#
#
#
# Elastic Constant Matrix: (Units=GPa)
#
#
# Indices 1 2 3 4 5 6 
#
# 1 79.1780 39.3175 12.6738 0.0000 9.1273 0.0000
# 2 39.3175 67.9027 -7.2390 0.0000 -2.0782 0.0000
# 3 12.6738 -7.2390 77.9424 0.0000 12.7376 0.0000
# 4 0.0000 0.0000 0.0000 26.4193 0.0000 9.4684
# 5 9.1273 -2.0782 12.7376 0.0000 16.9116 0.0000
# 6 0.0000 0.0000 0.0000 9.4684 0.0000 28.8046
#
#
#
# Elastic Compliance Matrix: (Units=1/GPa)
#
#
# Indices 1 2 3 4 5 6 
#
# 1 0.020478 -0.012474 -0.002773 0.000000 -0.010496 0.000000
# 2 -0.012474 0.022485 0.002925 0.000000 0.007292 0.000000
# 3 -0.002773 0.002925 0.015109 0.000000 -0.009524 0.000000
# 4 0.000000 0.000000 0.000000 0.042906 0.000000 -0.014104
# 5 -0.010496 0.007292 -0.009524 0.000000 0.072865 0.000000
# 6 0.000000 0.000000 0.000000 -0.014104 0.000000 0.039353
#
#
# Mechanical properties :
#
#
# Convention : Reuss Voigt Hill
#
# Bulk Modulus (GPa) = 29.91578 34.94754 32.43166
# Shear Modulus (GPa) = 20.08179 26.44516 23.26347
#
# Velocity S-wave (km/s) = 3.17701 3.64578 3.41944
# Velocity P-wave (km/s) = 5.33797 5.94032 5.64718
#
# Compressibility (1/GPa) = 0.03342718
#
# Stress axis : x y z
#
# Youngs Moduli (GPa) = 48.83322 44.47452 66.18599
#
# Poissons Ratio (x) = 0.55478 0.18353
# Poissons Ratio (y) = 0.60915 -0.19359
# Poissons Ratio (z) = 0.13542 -0.13008
#
# Static dielectric constant tensor:
#      x y z
#    x 1.701520 0.000000 -0.010120 
#    y 0.000000 1.713550 0.000000 
#    z -0.010120 0.000000 1.751920 
# 
# From -- ./inp_files/98086.got.cif
#   From: 2010.05.17/outbox.cif.g08.bks.cpg/sg13_50_cif.got.tgz:98086.got - 2010.06.03 16:44:36.
