data_PCOD9230661
_publ_section_title
;
Structure prediction by ZEFSAII (Michael W. Deem and Ramdas Pophale) SiO2 
 PCOD9230661
Probable space group: P 2/C
;
_chemical_formula_sum "Si O2"
_cell_formula_units_Z 18
_cell_length_a 14.078809
_cell_length_b 6.173003
_cell_length_c 13.876730
_cell_angle_alpha 90.000000
_cell_angle_beta 134.829134
_cell_angle_gamma 90.000000
_cell_volume 855.314496
_symmetry_space_group_name_H-M "P 2/C"
_symmetry_group_IT_number 13
_symmetry_cell_setting 'monoclinic'
loop_
_space_group_symop_operation_xyz
x,y,z
-x,y,1/2-z
-x,-y,-z
x,-y,1/2+z
loop_
_atom_site_type_symbol
_atom_site_label
_atom_site_fract_x
_atom_site_fract_y
_atom_site_fract_z
Si Si1 0.500000 0.760430 0.250000
Si Si2 0.723839 0.894745 0.890018
Si Si3 0.906392 0.731421 0.531814
Si Si4 0.193983 0.560412 0.709677
Si Si5 0.308697 0.521624 0.492848
O O1 0.562948 0.610314 0.377644
O O2 0.383089 0.916765 0.203643
O O3 0.732043 0.724749 0.809496
O O4 0.686403 0.760481 0.958482
O O5 0.864516 0.018203 0.005227
O O6 0.861138 0.634950 0.395763
O O7 0.817612 0.598733 0.545611
O O8 0.062114 0.683165 0.654814
O O9 0.284479 0.485487 0.862491
#
# Coordination Sequence:
#
# PCOD9230661 Si02
#       5
#     2   4   4   4   4
#     4  10  22  40  56  80 118 154 198 248 282 332
#     4  10  21  39  60  84 116 154 194 238 289 344
#     4   9  20  37  58  90 122 145 185 238 289 352
#     4  10  20  37  61  89 117 149 189 239 292 345
#     4  10  21  38  59  83 118 156 192 238 287 339
#
# _framework density 21.044891
#
# number of rings (size 3 to 8) (size 9 to 14) (size 15 to 20)
#    0.000    2.222    0.000    2.000    0.000    4.444 
#    0.000   28.889    0.000    0.000    0.000    0.000 
#    0.000    0.000    0.000    0.000    0.000    0.000 
#
# Total GULP energy -100622.296379 kJ/mol
# GULP energy per Si atom -5590.127577 kJ/mol
# Density = 2.099699 g / cm^3
# Si number density = 21.044891 Si / 1000 Ang^3
#
#
#
# Elastic Constant Matrix: (Units=GPa)
#
#
# Indices 1 2 3 4 5 6 
#
# 1 24.7289 12.8138 15.5692 0.0000 1.8767 0.0000
# 2 12.8138 103.1834 44.6968 0.0000 -2.5637 0.0000
# 3 15.5692 44.6968 125.7795 0.0000 -14.2074 0.0000
# 4 0.0000 0.0000 0.0000 14.5008 0.0000 13.2375
# 5 1.8767 -2.5637 -14.2074 0.0000 27.7865 0.0000
# 6 0.0000 0.0000 0.0000 13.2375 0.0000 19.3198
#
#
#
# Elastic Compliance Matrix: (Units=1/GPa)
#
#
# Indices 1 2 3 4 5 6 
#
# 1 0.045989 -0.003664 -0.005073 0.000000 -0.006038 0.000000
# 2 -0.003664 0.011778 -0.003801 0.000000 -0.000609 0.000000
# 3 -0.005073 -0.003801 0.010537 0.000000 0.005379 0.000000
# 4 0.000000 0.000000 0.000000 0.184136 0.000000 -0.126166
# 5 -0.006038 -0.000609 0.005379 0.000000 0.039091 0.000000
# 6 0.000000 0.000000 0.000000 -0.126166 0.000000 0.138206
#
#
# Mechanical properties :
#
#
# Convention : Reuss Voigt Hill
#
# Bulk Modulus (GPa) = 23.13259 44.42796 33.78027
# Shear Modulus (GPa) = 10.65599 24.36222 17.50910
#
# Velocity S-wave (km/s) = 2.25265 3.40609 2.88755
# Velocity P-wave (km/s) = 4.21685 6.05190 5.21571
#
# Compressibility (1/GPa) = 0.04322906
#
# Stress axis : x y z
#
# Youngs Moduli (GPa) = 21.74438 84.90644 94.90813
#
# Poissons Ratio (x) = 0.31108 0.48143
# Poissons Ratio (y) = 0.07967 0.36071
# Poissons Ratio (z) = 0.11030 0.32269
#
# Static dielectric constant tensor:
#      x y z
#    x 1.790840 0.000000 0.044160 
#    y 0.000000 1.749740 0.000000 
#    z 0.044160 0.000000 1.744480 
# 
# From -- ./inp_files/31277.got.cif
#   From: 2010.05.17/outbox.cif.g08.bks.cpg/sg13_16_cif.got.tgz:31277.got - 2010.06.03 16:44:36.
