data_PCOD9230005
_publ_section_title
;
Structure prediction by ZEFSAII (Michael W. Deem and Ramdas Pophale) SiO2 
 PCOD9230005
Probable space group: P 2/C
;
_chemical_formula_sum "Si O2"
_cell_formula_units_Z 32
_cell_length_a 19.390434
_cell_length_b 8.478669
_cell_length_c 12.408193
_cell_angle_alpha 90.000000
_cell_angle_beta 51.808427
_cell_angle_gamma 90.000000
_cell_volume 1603.309904
_symmetry_space_group_name_H-M "P 2/C"
_symmetry_group_IT_number 13
_symmetry_cell_setting 'monoclinic'
loop_
_space_group_symop_operation_xyz
x,y,z
-x,y,1/2-z
-x,-y,-z
x,-y,1/2+z
loop_
_atom_site_type_symbol
_atom_site_label
_atom_site_fract_x
_atom_site_fract_y
_atom_site_fract_z
Si Si1 0.208397 0.648244 0.033347
Si Si2 0.114387 0.354813 0.402507
Si Si3 0.046807 0.360112 0.816903
Si Si4 0.364623 0.113721 0.336177
Si Si5 0.275287 0.636238 0.618744
Si Si6 0.396474 0.777904 0.330840
Si Si7 0.528932 0.137936 0.051509
Si Si8 0.405932 0.566201 0.127981
O O1 0.163950 0.593828 0.964237
O O2 0.281007 0.777866 0.933959
O O3 0.133627 0.721664 0.185063
O O4 0.244472 0.497218 0.063068
O O5 0.080305 0.496900 0.359664
O O6 0.191099 0.279708 0.254663
O O7 0.026769 0.274272 0.537888
O O8 0.000000 0.415014 0.750000
O O9 0.435832 0.197669 0.189983
O O10 0.413941 0.089053 0.401835
O O11 0.353867 0.930495 0.313176
O O12 0.342683 0.748017 0.491574
O O13 0.329287 0.541769 0.657027
O O14 0.500000 0.804664 0.250000
O O15 0.394667 0.617074 0.262251
O O16 0.588453 0.265812 0.936562
O O17 0.500000 0.000000 0.000000
O O18 0.500000 0.500000 0.000000
#
# Coordination Sequence:
#
# PCOD9230005 Si02
#       8
#     4   4   4   4   4   4   4   4
#     4  10  20  35  57  87 114 150 198 243 292 359
#     4   9  18  34  57  89 116 149 182 241 306 358
#     4   8  16  34  60  88 122 145 183 240 304 367
#     4  11  23  37  56  78 113 160 203 243 285 353
#     4  11  23  35  54  84 118 149 202 253 296 346
#     4  12  23  39  52  79 116 158 200 248 294 341
#     4  11  22  39  55  75 111 165 209 239 290 345
#     4  12  24  36  57  80 113 157 203 259 300 337
#
# _framework density 19.958711999999998
#
# number of rings (size 3 to 8) (size 9 to 14) (size 15 to 20)
#    0.000    1.500    5.000    0.750    3.500    0.000 
#    0.000    0.000    0.000    0.750    0.000   40.250 
#    0.000    0.000    0.000    0.000    0.000    0.000 
#
# Total GULP energy -178185.815854 kJ/mol
# GULP energy per Si atom -5568.306745 kJ/mol
# Density = 1.991329 g / cm^3
# Si number density = 19.958712 Si / 1000 Ang^3
#
#
#
# Elastic Constant Matrix: (Units=GPa)
#
#
# Indices 1 2 3 4 5 6 
#
# 1 69.2195 11.3772 27.4676 0.0000 -4.3276 0.0000
# 2 11.3772 32.9654 25.9541 0.0000 -6.8336 0.0000
# 3 27.4676 25.9541 178.5121 0.0000 -37.7146 0.0000
# 4 0.0000 0.0000 0.0000 23.4717 0.0000 4.0289
# 5 -4.3276 -6.8336 -37.7146 0.0000 40.9029 0.0000
# 6 0.0000 0.0000 0.0000 4.0289 0.0000 10.4233
#
#
#
# Elastic Compliance Matrix: (Units=1/GPa)
#
#
# Indices 1 2 3 4 5 6 
#
# 1 0.015867 -0.004054 -0.002037 0.000000 -0.000877 0.000000
# 2 -0.004054 0.035357 -0.004172 0.000000 0.001631 0.000000
# 3 -0.002037 -0.004172 0.007860 0.000000 0.006335 0.000000
# 4 0.000000 0.000000 0.000000 0.045632 0.000000 -0.017638
# 5 -0.000877 0.001631 0.006335 0.000000 0.030469 0.000000
# 6 0.000000 0.000000 0.000000 -0.017638 0.000000 0.102756
#
#
# Mechanical properties :
#
#
# Convention : Reuss Voigt Hill
#
# Bulk Modulus (GPa) = 25.93547 45.58832 35.76189
# Shear Modulus (GPa) = 18.42840 29.35278 23.89059
#
# Velocity S-wave (km/s) = 3.04192 3.83910 3.46352
# Velocity P-wave (km/s) = 5.03592 6.52246 5.82679
#
# Compressibility (1/GPa) = 0.03855724
#
# Stress axis : x y z
#
# Youngs Moduli (GPa) = 63.02502 28.28308 127.22044
#
# Poissons Ratio (x) = 0.11465 0.25919
# Poissons Ratio (y) = 0.25549 0.53079
# Poissons Ratio (z) = 0.12840 0.11800
#
# Static dielectric constant tensor:
#      x y z
#    x 1.747910 0.000000 0.020690 
#    y 0.000000 1.755740 0.000000 
#    z 0.020690 0.000000 1.821350 
# 
# From -- ./inp_files/40509.got.cif
#   From: 2010.05.17/outbox.cif.g08.bks.cpg/sg13_21_cif.got.tgz:40509.got - 2010.06.03 16:44:36.
