data_PCOD9230338
_publ_section_title
;
Structure prediction by ZEFSAII (Michael W. Deem and Ramdas Pophale) SiO2 
 PCOD9230338
Probable space group: P 2/C
;
_chemical_formula_sum "Si O2"
_cell_formula_units_Z 14
_cell_length_a 18.678619
_cell_length_b 6.649705
_cell_length_c 9.752146
_cell_angle_alpha 90.000000
_cell_angle_beta 31.952278
_cell_angle_gamma 90.000000
_cell_volume 641.028922
_symmetry_space_group_name_H-M "P 2/C"
_symmetry_group_IT_number 13
_symmetry_cell_setting 'monoclinic'
loop_
_space_group_symop_operation_xyz
x,y,z
-x,y,1/2-z
-x,-y,-z
x,-y,1/2+z
loop_
_atom_site_type_symbol
_atom_site_label
_atom_site_fract_x
_atom_site_fract_y
_atom_site_fract_z
Si Si1 0.858911 0.665947 0.904574
Si Si2 0.637588 0.950406 0.355568
Si Si3 0.500000 0.603766 0.750000
Si Si4 0.746884 0.642257 0.811040
O O1 0.865053 0.631240 0.731490
O O2 0.000000 0.707188 0.750000
O O3 0.762960 0.862621 0.067790
O O4 0.792348 0.482878 0.101896
O O5 0.587786 0.758363 0.520820
O O6 0.500000 0.000000 0.500000
O O7 0.692624 0.141274 0.350005
O O8 0.619366 0.455085 0.602197
#
# Coordination Sequence:
#
# PCOD9230338 Si02
#       4
#     4   4   2   4
#     4  11  25  42  63  93 127 168 212 257 315 377
#     4  11  22  38  64  93 126 163 207 259 314 372
#     4  10  20  36  60  92 120 156 208 256 308 364
#     4  11  23  41  65  91 128 166 209 263 313 371
#
# _framework density 21.839888999999999
#
# number of rings (size 3 to 8) (size 9 to 14) (size 15 to 20)
#    0.000    1.143    0.000    6.857    0.000    9.143 
#    0.000    0.000    0.000    0.000    0.000    0.000 
#    0.000    0.000    0.000    0.000    0.000    0.000 
#
# Total GULP energy -77980.255712 kJ/mol
# GULP energy per Si atom -5570.018265 kJ/mol
# Density = 2.179018 g / cm^3
# Si number density = 21.839889 Si / 1000 Ang^3
#
#
#
# Elastic Constant Matrix: (Units=GPa)
#
#
# Indices 1 2 3 4 5 6 
#
# 1 147.8974 46.9547 5.6447 0.0000 2.7113 0.0000
# 2 46.9547 108.6133 20.0656 0.0000 4.2731 0.0000
# 3 5.6447 20.0656 27.5879 0.0000 -5.1361 0.0000
# 4 0.0000 0.0000 0.0000 28.7532 0.0000 -1.8255
# 5 2.7113 4.2731 -5.1361 0.0000 40.3108 0.0000
# 6 0.0000 0.0000 0.0000 -1.8255 0.0000 17.2792
#
#
#
# Elastic Compliance Matrix: (Units=1/GPa)
#
#
# Indices 1 2 3 4 5 6 
#
# 1 0.007861 -0.003581 0.000992 0.000000 -0.000023 0.000000
# 2 -0.003581 0.012455 -0.008734 0.000000 -0.002192 0.000000
# 3 0.000992 -0.008734 0.043592 0.000000 0.006413 0.000000
# 4 0.000000 0.000000 0.000000 0.035014 0.000000 0.003699
# 5 -0.000023 -0.002192 0.006413 0.000000 0.025858 0.000000
# 6 0.000000 0.000000 0.000000 0.003699 0.000000 0.058264
#
#
# Mechanical properties :
#
#
# Convention : Reuss Voigt Hill
#
# Bulk Modulus (GPa) = 24.23614 47.71428 35.97521
# Shear Modulus (GPa) = 22.78498 31.36422 27.07460
#
# Velocity S-wave (km/s) = 3.23348 3.79370 3.52474
# Velocity P-wave (km/s) = 5.00618 6.40970 5.75092
#
# Compressibility (1/GPa) = 0.04126069
#
# Stress axis : x y z
#
# Youngs Moduli (GPa) = 127.21361 80.29061 22.94022
#
# Poissons Ratio (x) = 0.28749 -0.02275
# Poissons Ratio (y) = 0.45550 0.20037
# Poissons Ratio (z) = -0.12615 0.70128
#
# Static dielectric constant tensor:
#      x y z
#    x 1.681360 0.000000 0.082070 
#    y 0.000000 1.103480 0.000000 
#    z 0.082070 0.000000 1.880630 
# 
# From -- ./inp_files/14014.got.cif
#   From: 2010.05.17/outbox.cif.g08.bks.cpg/sg13_8_cif.got.tgz:14014.got - 2010.06.03 16:44:36.
