data_PCOD9230062
_publ_section_title
;
Structure prediction by ZEFSAII (Michael W. Deem and Ramdas Pophale) SiO2 
 PCOD9230062
Probable space group: P 2/C
;
_chemical_formula_sum "Si O2"
_cell_formula_units_Z 32
_cell_length_a 8.900914
_cell_length_b 21.457638
_cell_length_c 12.822887
_cell_angle_alpha 90.000000
_cell_angle_beta 145.174173
_cell_angle_gamma 90.000000
_cell_volume 1398.627507
_symmetry_space_group_name_H-M "P 2/C"
_symmetry_group_IT_number 13
_symmetry_cell_setting 'monoclinic'
loop_
_space_group_symop_operation_xyz
x,y,z
-x,y,1/2-z
-x,-y,-z
x,-y,1/2+z
loop_
_atom_site_type_symbol
_atom_site_label
_atom_site_fract_x
_atom_site_fract_y
_atom_site_fract_z
Si Si1 0.808326 0.188635 0.241638
Si Si2 0.220611 0.339437 0.650524
Si Si3 0.566515 0.452973 0.132735
Si Si4 0.834577 0.945936 0.763400
Si Si5 0.744106 0.070877 0.810955
Si Si6 0.010148 0.539312 0.380702
Si Si7 0.792232 0.323673 0.225866
Si Si8 0.766483 0.795365 0.332852
O O1 0.678901 0.120084 0.171135
O O2 0.662266 0.254900 0.150767
O O3 0.000000 0.186876 0.250000
O O4 0.995088 0.196639 0.449060
O O5 0.500000 0.346753 0.750000
O O6 0.225085 0.272896 0.713025
O O7 0.149958 0.401012 0.672211
O O8 0.980699 0.330977 0.433021
O O9 0.597599 0.381799 0.113997
O O10 0.858257 0.477137 0.330319
O O11 0.500000 0.500000 0.000000
O O12 0.322935 0.458035 0.072127
O O13 0.000000 0.949339 0.750000
O O14 0.709207 0.013293 0.712892
O O15 0.014721 0.937766 0.970290
O O16 0.500000 0.071117 0.750000
O O17 0.761297 0.139332 0.768912
O O18 0.000000 0.540261 0.250000
O O19 0.000000 0.327749 0.250000
O O20 0.500000 0.793775 0.250000
#
# Coordination Sequence:
#
# PCOD9230062 Si02
#       8
#     4   4   4   4   4   4   4   4
#     4   8  15  29  50  76 103 141 184 230 272 329
#     4  10  22  36  60  89 112 147 195 239 283 343
#     4  10  22  40  62  84 117 153 188 232 288 346
#     4   9  17  30  50  76 108 137 184 233 273 324
#     4   9  17  30  52  74 105 148 181 224 279 329
#     4  10  23  41  61  83 118 152 186 235 290 340
#     4  10  20  35  60  84 114 149 191 235 289 344
#     4   8  15  31  50  76 107 140 185 228 272 332
#
# _framework density 22.879573000000001
#
# number of rings (size 3 to 8) (size 9 to 14) (size 15 to 20)
#    0.000    2.750    0.000    1.125    5.250    1.500 
#    0.000    0.625   11.000    0.000    0.000    0.000 
#    0.000    0.000    0.000    0.000    0.000    0.000 
#
# Total GULP energy -178390.641176 kJ/mol
# GULP energy per Si atom -5574.707537 kJ/mol
# Density = 2.282750 g / cm^3
# Si number density = 22.879573 Si / 1000 Ang^3
#
#
#
# Elastic Constant Matrix: (Units=GPa)
#
#
# Indices 1 2 3 4 5 6 
#
# 1 67.0647 70.6704 4.4195 0.0000 7.5105 0.0000
# 2 70.6704 272.8248 21.1464 0.0000 16.4152 0.0000
# 3 4.4195 21.1464 66.8605 0.0000 0.0994 0.0000
# 4 0.0000 0.0000 0.0000 9.4201 0.0000 8.0017
# 5 7.5105 16.4152 0.0994 0.0000 23.1271 0.0000
# 6 0.0000 0.0000 0.0000 8.0017 0.0000 46.3204
#
#
#
# Elastic Compliance Matrix: (Units=1/GPa)
#
#
# Indices 1 2 3 4 5 6 
#
# 1 0.020718 -0.005206 0.000282 0.000000 -0.003034 0.000000
# 2 -0.005206 0.005237 -0.001309 0.000000 -0.002021 0.000000
# 3 0.000282 -0.001309 0.015351 0.000000 0.000772 0.000000
# 4 0.000000 0.000000 0.000000 0.124411 0.000000 -0.021492
# 5 -0.003034 -0.002021 0.000772 0.000000 0.045656 0.000000
# 6 0.000000 0.000000 0.000000 -0.021492 0.000000 0.025301
#
#
# Mechanical properties :
#
#
# Convention : Reuss Voigt Hill
#
# Bulk Modulus (GPa) = 34.67566 66.58030 50.62798
# Shear Modulus (GPa) = 19.32336 36.47443 27.89889
#
# Velocity S-wave (km/s) = 2.90930 3.99706 3.49575
# Velocity P-wave (km/s) = 5.14529 7.10391 6.20240
#
# Compressibility (1/GPa) = 0.02883868
#
# Stress axis : x y z
#
# Youngs Moduli (GPa) = 48.26717 190.95217 65.14311
#
# Poissons Ratio (x) = 0.99408 -0.01834
# Poissons Ratio (y) = 0.25127 0.08529
# Poissons Ratio (z) = -0.01359 0.25000
#
# Static dielectric constant tensor:
#      x y z
#    x 1.800850 0.000000 -0.053180 
#    y 0.000000 1.918930 0.000000 
#    z -0.053180 0.000000 2.042270 
# 
# From -- ./inp_files/48170.got.cif
#   From: 2010.05.17/outbox.cif.g08.bks.cpg/sg13_25_cif.got.tgz:48170.got - 2010.06.03 16:44:36.
