data_PCOD9230418
_publ_section_title
;
Structure prediction by ZEFSAII (Michael W. Deem and Ramdas Pophale) SiO2 
 PCOD9230418
Probable space group: P 2/C
;
_chemical_formula_sum "Si O2"
_cell_formula_units_Z 26
_cell_length_a 21.641115
_cell_length_b 10.345352
_cell_length_c 8.773452
_cell_angle_alpha 90.000000
_cell_angle_beta 146.163092
_cell_angle_gamma 90.000000
_cell_volume 1093.751477
_symmetry_space_group_name_H-M "P 2/C"
_symmetry_group_IT_number 13
_symmetry_cell_setting 'monoclinic'
loop_
_space_group_symop_operation_xyz
x,y,z
-x,y,1/2-z
-x,-y,-z
x,-y,1/2+z
loop_
_atom_site_type_symbol
_atom_site_label
_atom_site_fract_x
_atom_site_fract_y
_atom_site_fract_z
Si Si1 0.500000 0.524149 0.250000
Si Si2 0.000000 0.034611 0.250000
Si Si3 0.613878 0.659322 0.768286
Si Si4 0.418696 0.163968 0.875826
Si Si5 0.500000 0.955180 0.250000
Si Si6 0.822053 0.398946 0.508071
Si Si7 0.798847 0.676258 0.606477
Si Si8 0.025080 0.814900 0.073077
O O1 0.547070 0.603574 0.485975
O O2 0.403754 0.437776 0.127931
O O3 0.066640 0.131709 0.496063
O O4 0.943975 0.931227 0.248851
O O5 0.541939 0.782075 0.666283
O O6 0.734932 0.666056 0.948160
O O7 0.426351 0.126631 0.714815
O O8 0.319152 0.264602 0.686946
O O9 0.415383 0.037906 0.972990
O O10 0.826573 0.550076 0.561070
O O11 0.794520 0.369841 0.275024
O O12 0.932077 0.320488 0.775746
O O13 0.892969 0.787339 0.787555
#
# Coordination Sequence:
#
# PCOD9230418 Si02
#       8
#     2   2   4   4   2   4   4   4
#     4  10  20  36  62  94 132 174 222 272 336 430
#     4  10  24  52  74  96 138 188 242 288 344 414
#     4  11  21  39  62  94 134 175 223 273 343 416
#     4  11  24  44  65  99 133 184 232 287 347 407
#     4  10  24  46  64  96 140 178 242 290 338 412
#     4  12  25  43  69 107 145 183 231 293 355 424
#     4  12  26  44  72 103 144 184 232 294 357 422
#     4  11  25  49  72 106 136 185 239 291 350 417
#
# _framework density 23.771395999999999
#
# number of rings (size 3 to 8) (size 9 to 14) (size 15 to 20)
#    0.000    0.923    1.538    6.000    2.154    2.462 
#   11.077    0.000    0.000    0.000    0.000    0.000 
#    0.000    0.000    0.000    0.000    0.000    0.000 
#
# Total GULP energy -145311.642189 kJ/mol
# GULP energy per Si atom -5588.909315 kJ/mol
# Density = 2.371729 g / cm^3
# Si number density = 23.771396 Si / 1000 Ang^3
#
#
#
# Elastic Constant Matrix: (Units=GPa)
#
#
# Indices 1 2 3 4 5 6 
#
# 1 77.3599 19.3951 17.1216 0.0000 -10.7229 0.0000
# 2 19.3951 108.8190 25.3572 0.0000 -6.1470 0.0000
# 3 17.1216 25.3572 56.3700 0.0000 -0.4019 0.0000
# 4 0.0000 0.0000 0.0000 38.5032 0.0000 -14.5982
# 5 -10.7229 -6.1470 -0.4019 0.0000 33.4474 0.0000
# 6 0.0000 0.0000 0.0000 -14.5982 0.0000 41.5395
#
#
#
# Elastic Compliance Matrix: (Units=1/GPa)
#
#
# Indices 1 2 3 4 5 6 
#
# 1 0.014749 -0.001500 -0.003773 0.000000 0.004407 0.000000
# 2 -0.001500 0.010532 -0.004272 0.000000 0.001403 0.000000
# 3 -0.003773 -0.004272 0.020795 0.000000 -0.001745 0.000000
# 4 0.000000 0.000000 0.000000 0.029964 0.000000 0.010530
# 5 0.004407 0.001403 -0.001745 0.000000 0.031547 0.000000
# 6 0.000000 0.000000 0.000000 0.010530 0.000000 0.027774
#
#
# Mechanical properties :
#
#
# Convention : Reuss Voigt Hill
#
# Bulk Modulus (GPa) = 37.05838 40.69965 38.87901
# Shear Modulus (GPa) = 30.59084 34.74304 32.66694
#
# Velocity S-wave (km/s) = 3.59120 3.82717 3.71106
# Velocity P-wave (km/s) = 5.72878 6.05707 5.89521
#
# Compressibility (1/GPa) = 0.02698445
#
# Stress axis : x y z
#
# Youngs Moduli (GPa) = 67.80208 94.95160 48.08805
#
# Poissons Ratio (x) = 0.14247 0.18145
# Poissons Ratio (y) = 0.10174 0.20542
# Poissons Ratio (z) = 0.25584 0.40561
#
# Static dielectric constant tensor:
#      x y z
#    x 1.979120 0.000000 0.065750 
#    y 0.000000 1.928400 0.000000 
#    z 0.065750 0.000000 1.981060 
# 
# From -- ./inp_files/24181.got.cif
#   From: 2010.05.17/outbox.cif.g08.bks.cpg/sg13_13_cif.got.tgz:24181.got - 2010.06.03 16:44:36.
