data_PCOD9230209
_publ_section_title
;
Structure prediction by ZEFSAII (Michael W. Deem and Ramdas Pophale) SiO2 
 PCOD9230209
Probable space group: P 2/C
;
_chemical_formula_sum "Si O2"
_cell_formula_units_Z 28
_cell_length_a 9.138999
_cell_length_b 20.079521
_cell_length_c 15.394799
_cell_angle_alpha 90.000000
_cell_angle_beta 27.985398
_cell_angle_gamma 90.000000
_cell_volume 1325.644478
_symmetry_space_group_name_H-M "P 2/C"
_symmetry_group_IT_number 13
_symmetry_cell_setting 'monoclinic'
loop_
_space_group_symop_operation_xyz
x,y,z
-x,y,1/2-z
-x,-y,-z
x,-y,1/2+z
loop_
_atom_site_type_symbol
_atom_site_label
_atom_site_fract_x
_atom_site_fract_y
_atom_site_fract_z
Si Si1 0.410657 0.655860 0.203160
Si Si2 0.560299 0.905465 0.123985
Si Si3 0.280830 0.605326 0.948296
Si Si4 0.273495 0.530904 0.546391
Si Si5 0.625615 0.709523 0.460592
Si Si6 0.625359 0.144954 0.953975
Si Si7 0.176685 0.970826 0.749978
O O1 0.500000 0.683136 0.250000
O O2 0.498296 0.697552 0.071495
O O3 0.040306 0.643346 0.402182
O O4 0.574843 0.585124 0.095891
O O5 0.500000 0.877496 0.250000
O O6 0.518222 0.854661 0.067558
O O7 0.323915 0.965166 0.219070
O O8 0.903834 0.936724 0.946856
O O9 0.500000 0.598366 0.750000
O O10 0.182728 0.533490 0.037243
O O11 0.449153 0.649749 0.934545
O O12 0.500000 0.500000 0.500000
O O13 0.000000 0.559436 0.750000
O O14 0.552381 0.783265 0.533427
O O15 0.000000 0.707084 0.250000
O O16 0.000000 0.137691 0.750000
O O17 0.453241 0.082506 0.088581
O O18 0.000000 0.984341 0.750000
#
# Coordination Sequence:
#
# PCOD9230209 Si02
#       7
#     4   4   4   4   4   4   4
#     4  11  24  39  61  90 117 150 197 242 292 345
#     4  11  21  35  57  88 119 147 186 241 287 330
#     4  11  23  41  61  85 118 154 193 240 292 353
#     4  12  22  39  64  87 119 155 191 240 296 350
#     4   9  20  42  61  80 115 158 195 239 287 346
#     4  10  20  38  62  80 110 157 196 227 284 346
#     4  10  20  36  57  83 116 152 191 228 282 345
#
# _framework density 21.1218
#
# number of rings (size 3 to 8) (size 9 to 14) (size 15 to 20)
#    0.000    1.429    2.857    4.286    2.000    1.714 
#    0.000   11.429    0.000    0.000    0.000    0.000 
#    0.000    0.000    0.000    0.000    0.000    0.000 
#
# Total GULP energy -156303.110851 kJ/mol
# GULP energy per Si atom -5582.253959 kJ/mol
# Density = 2.107373 g / cm^3
# Si number density = 21.121800 Si / 1000 Ang^3
#
#
#
# Elastic Constant Matrix: (Units=GPa)
#
#
# Indices 1 2 3 4 5 6 
#
# 1 64.5267 6.6765 9.4172 0.0000 8.5354 0.0000
# 2 6.6765 79.1770 -4.7052 0.0000 0.0696 0.0000
# 3 9.4172 -4.7052 74.6488 0.0000 3.1086 0.0000
# 4 0.0000 0.0000 0.0000 9.3151 0.0000 -1.5465
# 5 8.5354 0.0696 3.1086 0.0000 35.3245 0.0000
# 6 0.0000 0.0000 0.0000 -1.5465 0.0000 5.4095
#
#
#
# Elastic Compliance Matrix: (Units=1/GPa)
#
#
# Indices 1 2 3 4 5 6 
#
# 1 0.016449 -0.001503 -0.002012 0.000000 -0.003794 0.000000
# 2 -0.001503 0.012815 0.000987 0.000000 0.000251 0.000000
# 3 -0.002012 0.000987 0.013742 0.000000 -0.000725 0.000000
# 4 0.000000 0.000000 0.000000 0.112702 0.000000 0.032220
# 5 -0.003794 0.000251 -0.000725 0.000000 0.029289 0.000000
# 6 0.000000 0.000000 0.000000 0.032220 0.000000 0.194071
#
#
# Mechanical properties :
#
#
# Convention : Reuss Voigt Hill
#
# Bulk Modulus (GPa) = 26.35065 26.79219 26.57142
# Shear Modulus (GPa) = 12.60164 23.80742 18.20453
#
# Velocity S-wave (km/s) = 2.44523 3.36095 2.93897
# Velocity P-wave (km/s) = 4.52491 5.27005 4.91163
#
# Compressibility (1/GPa) = 0.03794973
#
# Stress axis : x y z
#
# Youngs Moduli (GPa) = 60.79574 78.03289 72.76828
#
# Poissons Ratio (x) = 0.11730 0.14639
# Poissons Ratio (y) = 0.09139 -0.07182
# Poissons Ratio (z) = 0.12231 -0.07701
#
# Static dielectric constant tensor:
#      x y z
#    x 1.785700 0.000000 -0.022290 
#    y 0.000000 1.773840 0.000000 
#    z -0.022290 0.000000 1.780700 
# 
# From -- ./inp_files/48205.got.cif
#   From: 2010.05.17/outbox.cif.g08.bks.cpg/sg13_25_cif.got.tgz:48205.got - 2010.06.03 16:44:36.
