data_PCOD9230769
_publ_section_title
;
Structure prediction by ZEFSAII (Michael W. Deem and Ramdas Pophale) SiO2 
 PCOD9230769
Probable space group: P 2/C
;
_chemical_formula_sum "Si O2"
_cell_formula_units_Z 26
_cell_length_a 15.936165
_cell_length_b 7.574763
_cell_length_c 14.368326
_cell_angle_alpha 90.000000
_cell_angle_beta 142.073136
_cell_angle_gamma 90.000000
_cell_volume 1066.081812
_symmetry_space_group_name_H-M "P 2/C"
_symmetry_group_IT_number 13
_symmetry_cell_setting 'monoclinic'
loop_
_space_group_symop_operation_xyz
x,y,z
-x,y,1/2-z
-x,-y,-z
x,-y,1/2+z
loop_
_atom_site_type_symbol
_atom_site_label
_atom_site_fract_x
_atom_site_fract_y
_atom_site_fract_z
Si Si1 0.099886 0.962282 0.695035
Si Si2 0.363272 0.201277 0.420533
Si Si3 0.485365 0.276118 0.342436
Si Si4 0.873524 0.761591 0.431470
Si Si5 0.000000 0.754020 0.250000
Si Si6 0.769256 0.581669 0.156050
Si Si7 0.590855 0.687000 0.243136
O O1 0.251486 0.928938 0.866125
O O2 0.017114 0.779613 0.609605
O O3 0.131664 0.048739 0.623156
O O4 0.012076 0.105027 0.675646
O O5 0.387544 0.182829 0.331321
O O6 0.296687 0.390727 0.387612
O O7 0.514958 0.211039 0.594122
O O8 0.500000 0.206302 0.250000
O O9 0.636056 0.300015 0.517452
O O10 0.425065 0.476240 0.282908
O O11 0.845829 0.631401 0.320051
O O12 0.747991 0.732744 0.389359
O O13 0.127214 0.625699 0.337852
O O14 0.500000 0.737367 0.250000
#
# Coordination Sequence:
#
# PCOD9230769 Si02
#       7
#     4   4   4   4   2   4   4
#     4  10  25  38  61  89 131 167 215 258 311 382
#     4  11  21  41  65 100 123 160 218 273 314 378
#     4  10  20  37  64  96 126 160 211 272 321 377
#     4  10  20  43  59  83 129 175 195 256 326 376
#     4  10  24  44  58  86 132 176 212 260 316 392
#     4  10  20  42  67  86 126 170 210 264 327 373
#     4  10  20  37  64  90 125 165 208 259 322 376
#
# _framework density 24.388370999999999
#
# number of rings (size 3 to 8) (size 9 to 14) (size 15 to 20)
#    0.000    1.846    3.077    0.923    2.154    5.538 
#    5.538    0.769    0.000    0.000    0.000    0.000 
#    0.000    0.000    0.000    0.000    0.000    0.000 
#
# Total GULP energy -145049.146732 kJ/mol
# GULP energy per Si atom -5578.813336 kJ/mol
# Density = 2.433286 g / cm^3
# Si number density = 24.388371 Si / 1000 Ang^3
#
#
#
# Elastic Constant Matrix: (Units=GPa)
#
#
# Indices 1 2 3 4 5 6 
#
# 1 169.3311 32.3277 18.8054 0.0000 15.1136 0.0000
# 2 32.3277 80.0258 24.3291 0.0000 15.5615 0.0000
# 3 18.8054 24.3291 27.6784 0.0000 11.0463 0.0000
# 4 0.0000 0.0000 0.0000 18.1981 0.0000 3.6682
# 5 15.1136 15.5615 11.0463 0.0000 41.7667 0.0000
# 6 0.0000 0.0000 0.0000 3.6682 0.0000 81.8033
#
#
#
# Elastic Compliance Matrix: (Units=1/GPa)
#
#
# Indices 1 2 3 4 5 6 
#
# 1 0.006609 -0.001672 -0.002588 0.000000 -0.001084 0.000000
# 2 -0.001672 0.017747 -0.013490 0.000000 -0.002439 0.000000
# 3 -0.002588 -0.013490 0.052955 0.000000 -0.008043 0.000000
# 4 0.000000 0.000000 0.000000 0.055452 0.000000 -0.002487
# 5 -0.001084 -0.002439 -0.008043 0.000000 0.027371 0.000000
# 6 0.000000 0.000000 0.000000 -0.002487 0.000000 0.012336
#
#
# Mechanical properties :
#
#
# Convention : Reuss Voigt Hill
#
# Bulk Modulus (GPa) = 23.91706 47.55106 35.73406
# Shear Modulus (GPa) = 22.53208 41.79183 32.16195
#
# Velocity S-wave (km/s) = 3.04285 4.14405 3.63539
# Velocity P-wave (km/s) = 4.70885 6.51439 5.68377
#
# Compressibility (1/GPa) = 0.04181117
#
# Stress axis : x y z
#
# Youngs Moduli (GPa) = 151.30882 56.34775 18.88408
#
# Poissons Ratio (x) = 0.09423 0.04887
# Poissons Ratio (y) = 0.25303 0.25474
# Poissons Ratio (z) = 0.39155 0.76011
#
# Static dielectric constant tensor:
#      x y z
#    x 1.962340 0.000000 -0.094320 
#    y 0.000000 1.958980 0.000000 
#    z -0.094320 0.000000 2.109390 
# 
# From -- ./inp_files/53352.got.cif
#   From: 2010.05.17/outbox.cif.g08.bks.cpg/sg13_27_cif.got.tgz:53352.got - 2010.06.03 16:44:36.
