data_PCOD9230020
_publ_section_title
;
Structure prediction by ZEFSAII (Michael W. Deem and Ramdas Pophale) SiO2 
 PCOD9230020
Probable space group: P 2/C
;
_chemical_formula_sum "Si O2"
_cell_formula_units_Z 30
_cell_length_a 27.939609
_cell_length_b 5.272320
_cell_length_c 30.285916
_cell_angle_alpha 90.000000
_cell_angle_beta 20.172189
_cell_angle_gamma 90.000000
_cell_volume 1538.451236
_symmetry_space_group_name_H-M "P 2/C"
_symmetry_group_IT_number 13
_symmetry_cell_setting 'monoclinic'
loop_
_space_group_symop_operation_xyz
x,y,z
-x,y,1/2-z
-x,-y,-z
x,-y,1/2+z
loop_
_atom_site_type_symbol
_atom_site_label
_atom_site_fract_x
_atom_site_fract_y
_atom_site_fract_z
Si Si1 0.103405 0.004712 0.451513
Si Si2 0.168550 0.481514 0.007421
Si Si3 0.562457 0.450868 0.605646
Si Si4 0.863602 0.187009 0.341502
Si Si5 0.500000 0.835643 0.250000
Si Si6 0.296122 0.807190 0.964979
Si Si7 0.721315 0.503898 0.684053
Si Si8 0.991512 0.975972 0.367265
O O1 0.209235 0.243563 0.355776
O O2 0.011810 0.026505 0.576314
O O3 0.191894 0.744873 0.377446
O O4 0.000000 0.000000 0.500000
O O5 0.253054 0.551428 0.977581
O O6 0.044850 0.688837 0.115042
O O7 0.122045 0.194339 0.044239
O O8 0.250941 0.546694 0.892016
O O9 0.591367 0.739519 0.595432
O O10 0.443963 0.451029 0.670958
O O11 0.718350 0.342257 0.462177
O O12 0.504223 0.312789 0.700215
O O13 0.827539 0.951090 0.404582
O O14 0.000000 0.303174 0.250000
O O15 0.894341 0.079557 0.265852
O O16 0.368548 0.019364 0.366265
#
# Coordination Sequence:
#
# PCOD9230020 Si02
#       8
#     4   4   4   4   2   4   4   4
#     4  10  22  42  70  96 116 147 195 265 330 381
#     4  10  20  35  58  83 118 162 202 246 296 347
#     4  11  24  35  55  83 123 171 207 260 300 357
#     4  11  23  37  55  83 126 172 219 243 289 357
#     4  10  22  34  50  80 120 158 220 244 296 348
#     4  11  22  33  54  79 123 170 216 247 289 347
#     4  10  22  37  65  91 123 147 199 250 321 373
#     4  10  22  38  58  89 119 160 200 254 301 367
#
# _framework density 19.500129000000001
#
# number of rings (size 3 to 8) (size 9 to 14) (size 15 to 20)
#    0.000    1.600    1.333    3.200   13.067    0.533 
#    0.000    0.000    0.000    1.600    0.000    0.000 
#    0.000    0.000    0.000    0.000    0.000    0.000 
#
# Total GULP energy -167146.670216 kJ/mol
# GULP energy per Si atom -5571.555674 kJ/mol
# Density = 1.945575 g / cm^3
# Si number density = 19.500129 Si / 1000 Ang^3
#
#
#
# Elastic Constant Matrix: (Units=GPa)
#
#
# Indices 1 2 3 4 5 6 
#
# 1 115.4418 40.7997 56.7592 0.0000 -21.6137 0.0000
# 2 40.7997 86.7267 35.9920 0.0000 -17.5591 0.0000
# 3 56.7592 35.9920 105.2213 0.0000 -12.9097 0.0000
# 4 0.0000 0.0000 0.0000 25.9279 0.0000 -4.0347
# 5 -21.6137 -17.5591 -12.9097 0.0000 29.9614 0.0000
# 6 0.0000 0.0000 0.0000 -4.0347 0.0000 19.6970
#
#
#
# Elastic Compliance Matrix: (Units=1/GPa)
#
#
# Indices 1 2 3 4 5 6 
#
# 1 0.013488 -0.002882 -0.005599 0.000000 0.005628 0.000000
# 2 -0.002882 0.015251 -0.002978 0.000000 0.005576 0.000000
# 3 -0.005599 -0.002978 0.013549 0.000000 0.000054 0.000000
# 4 0.000000 0.000000 0.000000 0.039838 0.000000 0.008160
# 5 0.005628 0.005576 0.000054 0.000000 0.040727 0.000000
# 6 0.000000 0.000000 0.000000 0.008160 0.000000 0.052441
#
#
# Mechanical properties :
#
#
# Convention : Reuss Voigt Hill
#
# Bulk Modulus (GPa) = 51.62731 63.83241 57.72986
# Shear Modulus (GPa) = 24.42963 26.70653 25.56808
#
# Velocity S-wave (km/s) = 3.54332 3.70477 3.62494
# Velocity P-wave (km/s) = 6.57822 7.14883 6.86946
#
# Compressibility (1/GPa) = 0.01936959
#
# Stress axis : x y z
#
# Youngs Moduli (GPa) = 74.14197 65.56914 73.80378
#
# Poissons Ratio (x) = 0.18896 0.41325
# Poissons Ratio (y) = 0.21367 0.21980
# Poissons Ratio (z) = 0.41514 0.19527
#
# Static dielectric constant tensor:
#      x y z
#    x 1.674540 0.000000 -0.019810 
#    y 0.000000 1.750010 0.000000 
#    z -0.019810 0.000000 1.782040 
# 
# From -- ./inp_files/94358.got.cif
#   From: 2010.05.17/outbox.cif.g08.bks.cpg/sg13_48_cif.got.tgz:94358.got - 2010.06.03 16:44:36.
