data_PCOD9230662
_publ_section_title
;
Structure prediction by ZEFSAII (Michael W. Deem and Ramdas Pophale) SiO2 
 PCOD9230662
Probable space group: P 2/C
;
_chemical_formula_sum "Si O2"
_cell_formula_units_Z 26
_cell_length_a 15.196845
_cell_length_b 9.456095
_cell_length_c 7.816861
_cell_angle_alpha 90.000000
_cell_angle_beta 106.946763
_cell_angle_gamma 90.000000
_cell_volume 1074.526504
_symmetry_space_group_name_H-M "P 2/C"
_symmetry_group_IT_number 13
_symmetry_cell_setting 'monoclinic'
loop_
_space_group_symop_operation_xyz
x,y,z
-x,y,1/2-z
-x,-y,-z
x,-y,1/2+z
loop_
_atom_site_type_symbol
_atom_site_label
_atom_site_fract_x
_atom_site_fract_y
_atom_site_fract_z
Si Si1 0.325826 0.818521 0.789041
Si Si2 0.852056 0.646482 0.896249
Si Si3 0.759568 0.920584 0.442049
Si Si4 0.500000 0.393515 0.750000
Si Si5 0.192333 0.344605 0.746375
Si Si6 0.062724 0.886787 0.444063
Si Si7 0.604073 0.350001 0.478865
O O1 0.244718 0.702233 0.727847
O O2 0.393177 0.759474 0.679124
O O3 0.293900 0.972629 0.710259
O O4 0.321678 0.849113 0.988320
O O5 0.853853 0.482201 0.862261
O O6 0.855959 0.675958 0.100582
O O7 0.923448 0.768506 0.895757
O O8 0.806814 0.788741 0.375859
O O9 0.841796 0.026870 0.553087
O O10 0.537374 0.315564 0.601679
O O11 0.424952 0.501761 0.625175
O O12 0.297381 0.366136 0.872754
O O13 0.000000 0.841400 0.250000
O O14 0.000000 0.000000 0.500000
#
# Coordination Sequence:
#
# PCOD9230662 Si02
#       7
#     4   4   4   2   4   4   4
#     4  10  20  37  61  89 118 159 212 253 304 355
#     4  10  21  36  58  91 119 156 211 259 299 368
#     4  11  22  39  64  91 121 163 215 264 304 376
#     4  10  22  40  60  96 134 162 202 242 328 392
#     4  11  21  38  63  92 123 155 210 266 307 347
#     4  11  22  40  61  86 125 167 204 255 326 382
#     4  10  21  37  63  93 127 165 199 258 310 379
#
# _framework density 24.196705000000001
#
# number of rings (size 3 to 8) (size 9 to 14) (size 15 to 20)
#    0.000    1.538    0.000    8.308    0.000    3.692 
#    0.000    3.846    0.000   11.077    0.000    3.231 
#    0.000    0.000    0.000    0.000    0.000    0.000 
#
# Total GULP energy -144817.565394 kJ/mol
# GULP energy per Si atom -5569.906361 kJ/mol
# Density = 2.414163 g / cm^3
# Si number density = 24.196705 Si / 1000 Ang^3
#
#
#
# Elastic Constant Matrix: (Units=GPa)
#
#
# Indices 1 2 3 4 5 6 
#
# 1 46.2514 -6.1342 1.0146 0.0000 1.5789 0.0000
# 2 -6.1342 121.1519 2.4207 0.0000 8.9759 0.0000
# 3 1.0146 2.4207 45.8839 0.0000 -5.7696 0.0000
# 4 0.0000 0.0000 0.0000 26.4644 0.0000 -9.5839
# 5 1.5789 8.9759 -5.7696 0.0000 42.1120 0.0000
# 6 0.0000 0.0000 0.0000 -9.5839 0.0000 35.8074
#
#
#
# Elastic Compliance Matrix: (Units=1/GPa)
#
#
# Indices 1 2 3 4 5 6 
#
# 1 0.021836 0.001206 -0.000694 0.000000 -0.001171 0.000000
# 2 0.001206 0.008474 -0.000719 0.000000 -0.001950 0.000000
# 3 -0.000694 -0.000719 0.022253 0.000000 0.003228 0.000000
# 4 0.000000 0.000000 0.000000 0.041842 0.000000 0.011199
# 5 -0.001171 -0.001950 0.003228 0.000000 0.024648 0.000000
# 6 0.000000 0.000000 0.000000 0.011199 0.000000 0.030925
#
#
# Mechanical properties :
#
#
# Convention : Reuss Voigt Hill
#
# Bulk Modulus (GPa) = 19.17522 23.09883 21.13702
# Shear Modulus (GPa) = 29.80186 35.27583 32.53885
#
# Velocity S-wave (km/s) = 3.51329 3.82236 3.67108
# Velocity P-wave (km/s) = 4.93959 5.38958 5.16948
#
# Compressibility (1/GPa) = 0.05215064
#
# Stress axis : x y z
#
# Youngs Moduli (GPa) = 45.79566 118.00798 44.93709
#
# Poissons Ratio (x) = -0.14234 0.03117
# Poissons Ratio (y) = -0.05524 0.03231
# Poissons Ratio (z) = 0.03177 0.08484
#
# Static dielectric constant tensor:
#      x y z
#    x 2.140360 0.000000 -0.029450 
#    y 0.000000 1.907650 0.000000 
#    z -0.029450 0.000000 1.976820 
# 
# From -- ./inp_files/21195.got.cif
#   From: 2010.05.17/outbox.cif.g08.bks.cpg/sg13_11_cif.got.tgz:21195.got - 2010.06.03 16:44:36.
