data_PCOD9230893
_publ_section_title
;
Structure prediction by ZEFSAII (Michael W. Deem and Ramdas Pophale) SiO2 
 PCOD9230893
Probable space group: P 2/C
;
_chemical_formula_sum "Si O2"
_cell_formula_units_Z 16
_cell_length_a 7.937397
_cell_length_b 15.910018
_cell_length_c 8.733577
_cell_angle_alpha 90.000000
_cell_angle_beta 49.047325
_cell_angle_gamma 90.000000
_cell_volume 832.975750
_symmetry_space_group_name_H-M "P 2/C"
_symmetry_group_IT_number 13
_symmetry_cell_setting 'monoclinic'
loop_
_space_group_symop_operation_xyz
x,y,z
-x,y,1/2-z
-x,-y,-z
x,-y,1/2+z
loop_
_atom_site_type_symbol
_atom_site_label
_atom_site_fract_x
_atom_site_fract_y
_atom_site_fract_z
Si Si1 0.182972 0.609898 0.860772
Si Si2 0.500000 0.966487 0.250000
Si Si3 0.266640 0.105270 0.596985
Si Si4 0.500000 0.240762 0.250000
Si Si5 0.280094 0.554869 0.472008
O O1 0.298330 0.697817 0.822920
O O2 0.296169 0.570527 0.641888
O O3 0.219888 0.542315 0.973081
O O4 0.923141 0.609867 0.974116
O O5 0.645120 0.913864 0.284892
O O6 0.337163 0.025861 0.448216
O O7 0.404683 0.182300 0.441584
O O8 0.000000 0.118000 0.750000
O O9 0.500000 0.576488 0.250000
#
# Coordination Sequence:
#
# PCOD9230893 Si02
#       5
#     4   2   4   2   4
#     4  10  22  38  56  83 114 152 208 261 290 361
#     4   9  20  42  70  93 120 154 214 229 278 390
#     4  10  21  41  66  95 123 164 191 245 303 359
#     4  11  24  40  52  91 134 146 196 259 308 348
#     4  10  20  38  60  78 104 160 214 248 302 348
#
# _framework density 19.208241999999998
#
# number of rings (size 3 to 8) (size 9 to 14) (size 15 to 20)
#    0.000    2.000    1.250    1.500    0.000    2.000 
#   15.750    0.000    0.000    0.000    0.000    0.000 
#    0.000    0.000    0.000    0.000    0.000    0.000 
#
# Total GULP energy -89361.512393 kJ/mol
# GULP energy per Si atom -5585.094525 kJ/mol
# Density = 1.916452 g / cm^3
# Si number density = 19.208242 Si / 1000 Ang^3
#
#
#
# Elastic Constant Matrix: (Units=GPa)
#
#
# Indices 1 2 3 4 5 6 
#
# 1 109.3826 62.5869 40.6677 0.0000 3.4463 0.0000
# 2 62.5869 109.6416 33.0748 0.0000 9.4955 0.0000
# 3 40.6677 33.0748 83.0195 0.0000 -2.6472 0.0000
# 4 0.0000 0.0000 0.0000 11.4250 0.0000 -16.8758
# 5 3.4463 9.4955 -2.6472 0.0000 47.6767 0.0000
# 6 0.0000 0.0000 0.0000 -16.8758 0.0000 -0.7645
#
#
#
# Elastic Compliance Matrix: (Units=1/GPa)
#
#
# Indices 1 2 3 4 5 6 
#
# 1 0.014891 -0.007172 -0.004434 0.000000 0.000106 0.000000
# 2 -0.007172 0.014078 -0.002172 0.000000 -0.002406 0.000000
# 3 -0.004434 -0.002172 0.015134 0.000000 0.001593 0.000000
# 4 0.000000 0.000000 0.000000 0.002605 0.000000 -0.057493
# 5 0.000106 -0.002406 0.001593 0.000000 0.021535 0.000000
# 6 0.000000 0.000000 0.000000 -0.057493 0.000000 -0.038923
#
#
# Mechanical properties :
#
#
# Convention : Reuss Voigt Hill
#
# Bulk Modulus (GPa) = 60.43458 63.85583 62.14520
# Shear Modulus (GPa) = 80.14084 22.71505 51.42795
#
# Velocity S-wave (km/s) = 6.46627 3.44258 5.17996
# Velocity P-wave (km/s) = 9.34245 7.00842 8.25831
#
# Compressibility (1/GPa) = 0.01654682
#
# Stress axis : x y z
#
# Youngs Moduli (GPa) = 67.15476 71.03162 66.07845
#
# Poissons Ratio (x) = 0.50943 0.29298
# Poissons Ratio (y) = 0.48163 0.14354
# Poissons Ratio (z) = 0.29775 0.15430
#
# Static dielectric constant tensor:
#      x y z
#    x 1.696370 0.000000 0.006040 
#    y 0.000000 1.659240 0.000000 
#    z 0.006040 0.000000 1.680350 
# 
# From -- ./inp_files/12110.got.cif
#   From: 2010.05.17/outbox.cif.g08.bks.cpg/sg13_7_cif.got.tgz:12110.got - 2010.06.03 16:44:36.
