data_PCOD9230123
_publ_section_title
;
Structure prediction by ZEFSAII (Michael W. Deem and Ramdas Pophale) SiO2 
 PCOD9230123
Probable space group: P 2/C
;
_chemical_formula_sum "Si O2"
_cell_formula_units_Z 24
_cell_length_a 6.810886
_cell_length_b 9.330581
_cell_length_c 17.640475
_cell_angle_alpha 90.000000
_cell_angle_beta 54.162017
_cell_angle_gamma 90.000000
_cell_volume 908.803126
_symmetry_space_group_name_H-M "P 2/C"
_symmetry_group_IT_number 13
_symmetry_cell_setting 'monoclinic'
loop_
_space_group_symop_operation_xyz
x,y,z
-x,y,1/2-z
-x,-y,-z
x,-y,1/2+z
loop_
_atom_site_type_symbol
_atom_site_label
_atom_site_fract_x
_atom_site_fract_y
_atom_site_fract_z
Si Si1 0.152647 0.997155 0.046296
Si Si2 0.280273 0.492028 0.657980
Si Si3 0.471609 0.816399 0.126175
Si Si4 0.065593 0.709468 0.418956
Si Si5 0.500000 0.631268 0.750000
Si Si6 0.000000 0.993187 0.250000
Si Si7 0.988799 0.621101 0.896702
O O1 0.391914 0.081146 0.965132
O O2 0.132171 0.825031 0.062385
O O3 0.050577 0.319192 0.011993
O O4 0.000000 0.000000 0.000000
O O5 0.379831 0.336878 0.616718
O O6 0.464686 0.544776 0.680481
O O7 0.000000 0.482988 0.750000
O O8 0.248114 0.614369 0.601883
O O9 0.670074 0.779357 0.145978
O O10 0.239368 0.899317 0.209791
O O11 0.041442 0.551304 0.390188
O O12 0.234556 0.698731 0.813882
O O13 0.063372 0.056296 0.149897
#
# Coordination Sequence:
#
# PCOD9230123 Si02
#       7
#     4   4   4   4   2   2   4
#     4  10  25  44  69 100 138 184 239 297 366 428
#     4  10  20  35  65 102 136 183 245 297 357 429
#     4  11  22  41  68 101 141 180 242 303 359 431
#     4  10  22  41  60  96 135 180 232 295 363 423
#     4  10  20  38  62 100 132 182 240 296 356 432
#     4  12  24  42  70 106 134 184 242 298 360 438
#     4  10  21  38  63  94 137 179 235 293 358 427
#
# _framework density 26.408359000000001
#
# number of rings (size 3 to 8) (size 9 to 14) (size 15 to 20)
#    0.000    1.667    2.500    1.500    2.333    3.333 
#    3.000    3.333   22.000    0.000    0.000    1.167 
#    0.000    0.000    0.000    0.000    0.000    0.000 
#
# Total GULP energy -133830.879740 kJ/mol
# GULP energy per Si atom -5576.286656 kJ/mol
# Density = 2.634825 g / cm^3
# Si number density = 26.408359 Si / 1000 Ang^3
#
#
#
# Elastic Constant Matrix: (Units=GPa)
#
#
# Indices 1 2 3 4 5 6 
#
# 1 125.3068 42.5972 13.6048 0.0000 16.1421 0.0000
# 2 42.5972 94.9806 14.6009 0.0000 -11.7202 0.0000
# 3 13.6048 14.6009 127.9293 0.0000 7.0204 0.0000
# 4 0.0000 0.0000 0.0000 11.3853 0.0000 -24.5488
# 5 16.1421 -11.7202 7.0204 0.0000 57.7957 0.0000
# 6 0.0000 0.0000 0.0000 -24.5488 0.0000 15.0270
#
#
#
# Elastic Compliance Matrix: (Units=1/GPa)
#
#
# Indices 1 2 3 4 5 6 
#
# 1 0.010208 -0.005004 -0.000304 0.000000 -0.003829 0.000000
# 2 -0.005004 0.013492 -0.001243 0.000000 0.004285 0.000000
# 3 -0.000304 -0.001243 0.008054 0.000000 -0.001145 0.000000
# 4 0.000000 0.000000 0.000000 -0.034820 0.000000 -0.056884
# 5 -0.003829 0.004285 -0.001145 0.000000 0.019380 0.000000
# 6 0.000000 0.000000 0.000000 -0.056884 0.000000 -0.026382
#
#
# Mechanical properties :
#
#
# Convention : Reuss Voigt Hill
#
# Bulk Modulus (GPa) = 53.61350 54.42472 54.01911
# Shear Modulus (GPa) = 540.52945 35.33584 287.93264
#
# Velocity S-wave (km/s) = 14.32220 3.66191 10.45311
# Velocity P-wave (km/s) = 17.14195 6.20750 12.89146
#
# Compressibility (1/GPa) = 0.01865202
#
# Stress axis : x y z
#
# Youngs Moduli (GPa) = 97.96614 74.11660 124.16351
#
# Poissons Ratio (x) = 0.37085 0.03779
# Poissons Ratio (y) = 0.49018 0.15432
# Poissons Ratio (z) = 0.02982 0.09212
#
# Static dielectric constant tensor:
#      x y z
#    x 2.147990 0.000000 0.078630 
#    y 0.000000 2.099140 0.000000 
#    z 0.078630 0.000000 2.373410 
# 
# From -- ./inp_files/84734.got.cif
#   From: 2010.05.17/outbox.cif.g08.bks.cpg/sg13_43_cif.got.tgz:84734.got - 2010.06.03 16:44:36.
