data_PCOD9230989
_publ_section_title
;
Structure prediction by ZEFSAII (Michael W. Deem and Ramdas Pophale) SiO2 
 PCOD9230989
Probable space group: P 2/C
;
_chemical_formula_sum "Si O2"
_cell_formula_units_Z 26
_cell_length_a 15.236157
_cell_length_b 15.458197
_cell_length_c 8.278240
_cell_angle_alpha 90.000000
_cell_angle_beta 37.960880
_cell_angle_gamma 90.000000
_cell_volume 1199.318319
_symmetry_space_group_name_H-M "P 2/C"
_symmetry_group_IT_number 13
_symmetry_cell_setting 'monoclinic'
loop_
_space_group_symop_operation_xyz
x,y,z
-x,y,1/2-z
-x,-y,-z
x,-y,1/2+z
loop_
_atom_site_type_symbol
_atom_site_label
_atom_site_fract_x
_atom_site_fract_y
_atom_site_fract_z
Si Si1 0.843249 0.439671 0.909528
Si Si2 0.795992 0.273487 0.193658
Si Si3 0.500000 0.999702 0.750000
Si Si4 0.409019 0.569476 0.223749
Si Si5 0.923336 0.694180 0.031141
Si Si6 0.388498 0.871754 0.667254
Si Si7 0.339290 0.749971 0.254223
O O1 0.863258 0.389442 0.711125
O O2 0.000000 0.461944 0.750000
O O3 0.781551 0.365998 0.123262
O O4 0.743379 0.522786 0.028619
O O5 0.737749 0.197041 0.165542
O O6 0.708084 0.260876 0.488930
O O7 0.959314 0.268343 0.015830
O O8 0.394996 0.936077 0.807099
O O9 0.597200 0.062784 0.502731
O O10 0.500000 0.590897 0.250000
O O11 0.396811 0.654481 0.134143
O O12 0.500000 0.500000 0.000000
O O13 0.000000 0.671986 0.750000
O O14 0.798389 0.759470 0.159184
O O15 0.536811 0.818006 0.449758
#
# Coordination Sequence:
#
# PCOD9230989 Si02
#       7
#     4   4   2   4   4   4   4
#     4  10  22  39  60  91 127 173 225 261 312 371
#     4  10  20  38  62  86 125 164 203 258 305 376
#     4  10  24  38  66  98 120 158 198 266 314 402
#     4  12  24  38  57  90 129 168 217 270 312 360
#     4   9  21  38  60  90 119 169 218 256 311 365
#     4  11  21  41  64  95 124 156 207 248 327 379
#     4  11  21  38  60  86 124 167 202 256 310 374
#
# _framework density 21.678981
#
# number of rings (size 3 to 8) (size 9 to 14) (size 15 to 20)
#    0.000    1.538    1.538    3.692    2.154    1.846 
#    1.385    6.154    0.000    5.538    0.000    0.000 
#    0.000    0.000    0.000    0.000    0.000    0.000 
#
# Total GULP energy -145384.729274 kJ/mol
# GULP energy per Si atom -5591.720357 kJ/mol
# Density = 2.162964 g / cm^3
# Si number density = 21.678981 Si / 1000 Ang^3
#
#
#
# Elastic Constant Matrix: (Units=GPa)
#
#
# Indices 1 2 3 4 5 6 
#
# 1 123.0541 51.9570 35.7967 0.0000 -16.7255 0.0000
# 2 51.9570 126.9935 36.0809 0.0000 -19.7859 0.0000
# 3 35.7967 36.0809 56.7891 0.0000 -13.0641 0.0000
# 4 0.0000 0.0000 0.0000 54.1517 0.0000 32.2330
# 5 -16.7255 -19.7859 -13.0641 0.0000 28.4328 0.0000
# 6 0.0000 0.0000 0.0000 32.2330 0.0000 63.5507
#
#
#
# Elastic Compliance Matrix: (Units=1/GPa)
#
#
# Indices 1 2 3 4 5 6 
#
# 1 0.010972 -0.002816 -0.004577 0.000000 0.002392 0.000000
# 2 -0.002816 0.010836 -0.004200 0.000000 0.003954 0.000000
# 3 -0.004577 -0.004200 0.024456 0.000000 0.005622 0.000000
# 4 0.000000 0.000000 0.000000 0.026453 0.000000 -0.013417
# 5 0.002392 0.003954 0.005622 0.000000 0.041912 0.000000
# 6 0.000000 0.000000 0.000000 -0.013417 0.000000 0.022541
#
#
# Mechanical properties :
#
#
# Convention : Reuss Voigt Hill
#
# Bulk Modulus (GPa) = 43.33100 61.61178 52.47139
# Shear Modulus (GPa) = 29.75356 41.42719 35.59038
#
# Velocity S-wave (km/s) = 3.70869 4.37617 4.05619
# Velocity P-wave (km/s) = 6.19437 7.34957 6.79656
#
# Compressibility (1/GPa) = 0.02307817
#
# Stress axis : x y z
#
# Youngs Moduli (GPa) = 91.14129 92.28614 40.89048
#
# Poissons Ratio (x) = 0.25988 0.18715
# Poissons Ratio (y) = 0.25665 0.17173
# Poissons Ratio (z) = 0.41713 0.38759
#
# Static dielectric constant tensor:
#      x y z
#    x 1.846360 0.000000 0.011450 
#    y 0.000000 1.749570 0.000000 
#    z 0.011450 0.000000 1.840150 
# 
# From -- ./inp_files/19831.got.cif
#   From: 2010.05.17/outbox.cif.g08.bks.cpg/sg13_10_cif.got.tgz:19831.got - 2010.06.03 16:44:36.
