data_PCOD9230477
_publ_section_title
;
Structure prediction by ZEFSAII (Michael W. Deem and Ramdas Pophale) SiO2 
 PCOD9230477
Probable space group: P 2/C
;
_chemical_formula_sum "Si O2"
_cell_formula_units_Z 22
_cell_length_a 12.195070
_cell_length_b 14.823192
_cell_length_c 5.239830
_cell_angle_alpha 90.000000
_cell_angle_beta 95.522261
_cell_angle_gamma 90.000000
_cell_volume 942.807277
_symmetry_space_group_name_H-M "P 2/C"
_symmetry_group_IT_number 13
_symmetry_cell_setting 'monoclinic'
loop_
_space_group_symop_operation_xyz
x,y,z
-x,y,1/2-z
-x,-y,-z
x,-y,1/2+z
loop_
_atom_site_type_symbol
_atom_site_label
_atom_site_fract_x
_atom_site_fract_y
_atom_site_fract_z
Si Si1 0.000000 0.736558 0.750000
Si Si2 0.189326 0.774625 0.462211
Si Si3 0.568078 0.728099 0.027653
Si Si4 0.131825 0.949637 0.238089
Si Si5 0.348688 0.454906 0.675402
Si Si6 0.109689 0.600908 0.175001
O O1 0.094094 0.797842 0.643559
O O2 0.933906 0.669515 0.548455
O O3 0.318811 0.775838 0.538009
O O4 0.166809 0.845424 0.233160
O O5 0.156030 0.671332 0.394736
O O6 0.500000 0.714980 0.750000
O O7 0.500000 0.772753 0.250000
O O8 0.610869 0.637048 0.183858
O O9 0.000000 0.952827 0.250000
O O10 0.173971 0.995775 0.505860
O O11 0.384579 0.470994 0.392638
O O12 0.215561 0.455220 0.621551
O O13 0.000000 0.551348 0.250000
#
# Coordination Sequence:
#
# PCOD9230477 Si02
#       6
#     2   4   4   4   4   4
#     4  10  20  36  66  90 124 166 210 262 310 372
#     4  10  23  39  65  93 128 166 214 260 312 368
#     4  11  26  45  69  91 119 166 221 268 309 371
#     4  10  22  36  59  97 138 168 199 244 314 378
#     4  11  25  40  62  89 124 159 202 264 328 374
#     4   9  21  36  57  88 122 167 210 251 308 381
#
# _framework density 23.334568000000001
#
# number of rings (size 3 to 8) (size 9 to 14) (size 15 to 20)
#    0.000    1.818    0.000    2.727   19.091    2.909 
#    0.000    0.000    0.000    3.273    0.000    0.000 
#    0.000    0.000    0.000    0.000    0.000    0.000 
#
# Total GULP energy -122801.983818 kJ/mol
# GULP energy per Si atom -5581.908355 kJ/mol
# Density = 2.328146 g / cm^3
# Si number density = 23.334568 Si / 1000 Ang^3
#
#
#
# Elastic Constant Matrix: (Units=GPa)
#
#
# Indices 1 2 3 4 5 6 
#
# 1 159.9932 7.2451 60.2516 0.0000 0.4936 0.0000
# 2 7.2451 41.9621 12.3421 0.0000 -7.5453 0.0000
# 3 60.2516 12.3421 112.9357 0.0000 -2.1285 0.0000
# 4 0.0000 0.0000 0.0000 30.9507 0.0000 2.2747
# 5 0.4936 -7.5453 -2.1285 0.0000 20.3913 0.0000
# 6 0.0000 0.0000 0.0000 2.2747 0.0000 7.6349
#
#
#
# Elastic Compliance Matrix: (Units=1/GPa)
#
#
# Indices 1 2 3 4 5 6 
#
# 1 0.007832 -0.000257 -0.004164 0.000000 -0.000719 0.000000
# 2 -0.000257 0.026334 -0.002562 0.000000 0.009483 0.000000
# 3 -0.004164 -0.002562 0.011362 0.000000 0.000339 0.000000
# 4 0.000000 0.000000 0.000000 0.033033 0.000000 -0.009842
# 5 -0.000719 0.009483 0.000339 0.000000 0.052602 0.000000
# 6 0.000000 0.000000 0.000000 -0.009842 0.000000 0.133910
#
#
# Mechanical properties :
#
#
# Convention : Reuss Voigt Hill
#
# Bulk Modulus (GPa) = 31.68285 52.72983 42.20634
# Shear Modulus (GPa) = 17.26753 27.46553 22.36653
#
# Velocity S-wave (km/s) = 2.72324 3.43451 3.09935
# Velocity P-wave (km/s) = 4.84718 6.19469 5.56190
#
# Compressibility (1/GPa) = 0.03156282
#
# Stress axis : x y z
#
# Youngs Moduli (GPa) = 127.67742 37.97354 88.00885
#
# Poissons Ratio (x) = 0.00976 0.36647
# Poissons Ratio (y) = 0.03280 0.22549
# Poissons Ratio (z) = 0.53165 0.09729
#
# Static dielectric constant tensor:
#      x y z
#    x 1.952120 0.000000 -0.051080 
#    y 0.000000 1.848010 0.000000 
#    z -0.051080 0.000000 1.967900 
# 
# From -- ./inp_files/3347.got.cif
#   From: 2010.05.17/outbox.cif.g08.bks.cpg/sg13_2_cif.got.tgz:3347.got - 2010.06.03 16:44:36.
