data_PCOD9230453
_publ_section_title
;
Structure prediction by ZEFSAII (Michael W. Deem and Ramdas Pophale) SiO2 
 PCOD9230453
Probable space group: P 2/C
;
_chemical_formula_sum "Si O2"
_cell_formula_units_Z 28
_cell_length_a 19.631356
_cell_length_b 8.121831
_cell_length_c 15.837147
_cell_angle_alpha 90.000000
_cell_angle_beta 148.916628
_cell_angle_gamma 90.000000
_cell_volume 1303.678610
_symmetry_space_group_name_H-M "P 2/C"
_symmetry_group_IT_number 13
_symmetry_cell_setting 'monoclinic'
loop_
_space_group_symop_operation_xyz
x,y,z
-x,y,1/2-z
-x,-y,-z
x,-y,1/2+z
loop_
_atom_site_type_symbol
_atom_site_label
_atom_site_fract_x
_atom_site_fract_y
_atom_site_fract_z
Si Si1 0.367606 0.144694 0.766760
Si Si2 0.440291 0.322492 0.412171
Si Si3 0.910879 0.715994 0.485040
Si Si4 0.000000 0.353456 0.250000
Si Si5 0.500000 0.345562 0.750000
Si Si6 0.759700 0.548073 0.069968
Si Si7 0.157111 0.606313 0.666288
Si Si8 0.375881 0.183288 0.173912
O O1 0.230901 0.202310 0.664667
O O2 0.430930 0.245745 0.754233
O O3 0.337743 0.968598 0.693050
O O4 0.471684 0.181176 0.952006
O O5 0.500000 0.500000 0.500000
O O6 0.292967 0.306420 0.291151
O O7 0.428073 0.314014 0.298405
O O8 0.973962 0.756414 0.641519
O O9 0.880419 0.519768 0.447325
O O10 0.033900 0.726994 0.551568
O O11 0.128477 0.462408 0.367972
O O12 0.378279 0.451032 0.584521
O O13 0.812618 0.514664 0.221115
O O14 0.728492 0.728864 0.999119
O O15 0.500000 0.129285 0.250000
#
# Coordination Sequence:
#
# PCOD9230453 Si02
#       8
#     4   4   4   2   2   4   4   4
#     4  12  24  41  64  98 135 172 209 275 338 393
#     4  12  22  41  70  98 126 173 228 271 317 391
#     4  10  21  37  62  97 127 161 212 272 323 383
#     4  10  20  36  64  92 122 162 222 270 316 374
#     4  12  20  38  66  96 120 166 232 266 316 386
#     4  11  21  38  65  93 123 171 218 275 313 386
#     4  10  21  38  66  99 122 162 230 273 316 379
#     4  12  26  41  62  98 140 170 214 274 341 394
#
# _framework density 21.477685000000001
#
# number of rings (size 3 to 8) (size 9 to 14) (size 15 to 20)
#    0.000    0.857    5.714    3.000    0.000    0.000 
#    0.000    1.429    0.000    0.000    0.000    0.000 
#    0.000    0.000    0.000    0.000    0.000    0.000 
#
# Total GULP energy -156144.563483 kJ/mol
# GULP energy per Si atom -5576.591553 kJ/mol
# Density = 2.142880 g / cm^3
# Si number density = 21.477685 Si / 1000 Ang^3
#
#
#
# Elastic Constant Matrix: (Units=GPa)
#
#
# Indices 1 2 3 4 5 6 
#
# 1 100.7354 16.7531 40.2566 0.0000 18.0392 0.0000
# 2 16.7531 55.7013 15.7340 0.0000 17.3794 0.0000
# 3 40.2566 15.7340 112.2417 0.0000 30.4500 0.0000
# 4 0.0000 0.0000 0.0000 4.6160 0.0000 -9.6355
# 5 18.0392 17.3794 30.4500 0.0000 60.3694 0.0000
# 6 0.0000 0.0000 0.0000 -9.6355 0.0000 26.6303
#
#
#
# Elastic Compliance Matrix: (Units=1/GPa)
#
#
# Indices 1 2 3 4 5 6 
#
# 1 0.011962 -0.002221 -0.003687 0.000000 -0.001075 0.000000
# 2 -0.002221 0.020334 -0.000748 0.000000 -0.004813 0.000000
# 3 -0.003687 -0.000748 0.011561 0.000000 -0.004514 0.000000
# 4 0.000000 0.000000 0.000000 0.885257 0.000000 0.320308
# 5 -0.001075 -0.004813 -0.004514 0.000000 0.020548 0.000000
# 6 0.000000 0.000000 0.000000 0.320308 0.000000 0.153447
#
#
# Mechanical properties :
#
#
# Convention : Reuss Voigt Hill
#
# Bulk Modulus (GPa) = 32.73878 46.01845 39.37861
# Shear Modulus (GPa) = 4.43811 31.38546 17.91179
#
# Velocity S-wave (km/s) = 1.43905 3.82685 2.89099
# Velocity P-wave (km/s) = 4.24705 6.40305 5.43307
#
# Compressibility (1/GPa) = 0.03054481
#
# Stress axis : x y z
#
# Youngs Moduli (GPa) = 83.59457 49.17909 86.49441
#
# Poissons Ratio (x) = 0.10922 0.31894
# Poissons Ratio (y) = 0.18565 0.06472
# Poissons Ratio (z) = 0.30825 0.03680
#
# Static dielectric constant tensor:
#      x y z
#    x 1.806840 0.000000 -0.010660 
#    y 0.000000 1.815820 0.000000 
#    z -0.010660 0.000000 1.799430 
# 
# From -- ./inp_files/70533.got.cif
#   From: 2010.05.17/outbox.cif.g08.bks.cpg/sg13_36_cif.got.tgz:70533.got - 2010.06.03 16:44:36.
