data_PCOD9230971
_publ_section_title
;
Structure prediction by ZEFSAII (Michael W. Deem and Ramdas Pophale) SiO2 
 PCOD9230971
Probable space group: P 2/C
;
_chemical_formula_sum "Si O2"
_cell_formula_units_Z 30
_cell_length_a 28.935993
_cell_length_b 9.002414
_cell_length_c 17.008951
_cell_angle_alpha 90.000000
_cell_angle_beta 159.473392
_cell_angle_gamma 90.000000
_cell_volume 1553.600124
_symmetry_space_group_name_H-M "P 2/C"
_symmetry_group_IT_number 13
_symmetry_cell_setting 'monoclinic'
loop_
_space_group_symop_operation_xyz
x,y,z
-x,y,1/2-z
-x,-y,-z
x,-y,1/2+z
loop_
_atom_site_type_symbol
_atom_site_label
_atom_site_fract_x
_atom_site_fract_y
_atom_site_fract_z
Si Si1 0.418048 0.296907 0.696562
Si Si2 0.198276 0.473764 0.879344
Si Si3 0.000000 0.915283 0.250000
Si Si4 0.834163 0.903579 0.722904
Si Si5 0.803298 0.164313 0.546699
Si Si6 0.804237 0.913965 0.334026
Si Si7 0.039329 0.658760 0.986728
Si Si8 0.410006 0.081901 0.420540
O O1 0.500000 0.340218 0.750000
O O2 0.332758 0.433488 0.594116
O O3 0.301086 0.186057 0.485537
O O4 0.510678 0.206824 0.904667
O O5 0.128979 0.447666 0.684044
O O6 0.081537 0.560723 0.740282
O O7 0.227696 0.308503 0.953563
O O8 0.054510 0.817903 0.266594
O O9 0.110379 0.023488 0.458609
O O10 0.953599 0.787222 0.897053
O O11 0.814857 0.017905 0.619429
O O12 0.843560 0.995599 0.818104
O O13 0.701789 0.152946 0.313081
O O14 0.856912 0.748170 0.401876
O O15 0.657038 0.962237 0.126104
O O16 0.500000 0.000000 0.500000
#
# Coordination Sequence:
#
# PCOD9230971 Si02
#       8
#     4   4   2   4   4   4   4   4
#     4  11  23  44  62  88 125 170 212 261 313 372
#     4  10  23  38  63  89 134 161 198 258 321 386
#     4  10  22  34  60  96 126 154 200 264 322 366
#     4  11  19  36  73  90 119 159 215 268 303 363
#     4  11  21  40  62  95 125 166 207 259 319 375
#     4  11  20  35  64  94 117 156 207 266 302 370
#     4  10  20  38  61  99 120 154 204 257 323 371
#     4  11  24  40  63  92 122 161 221 265 310 365
#
# _framework density 19.309988000000001
#
# number of rings (size 3 to 8) (size 9 to 14) (size 15 to 20)
#    0.000    1.333    5.333    1.200    0.000    0.533 
#    2.400    2.667    0.000    0.000    0.000    0.000 
#    0.000    0.000    0.000    0.000    0.000    0.000 
#
# Total GULP energy -167088.347453 kJ/mol
# GULP energy per Si atom -5569.611582 kJ/mol
# Density = 1.926604 g / cm^3
# Si number density = 19.309988 Si / 1000 Ang^3
#
#
#
# Elastic Constant Matrix: (Units=GPa)
#
#
# Indices 1 2 3 4 5 6 
#
# 1 36.3478 4.7172 12.8823 0.0000 10.9735 0.0000
# 2 4.7172 67.6071 21.6281 0.0000 11.0511 0.0000
# 3 12.8823 21.6281 64.0830 0.0000 11.5589 0.0000
# 4 0.0000 0.0000 0.0000 27.6802 0.0000 11.6321
# 5 10.9735 11.0511 11.5589 0.0000 29.6137 0.0000
# 6 0.0000 0.0000 0.0000 11.6321 0.0000 22.6073
#
#
#
# Elastic Compliance Matrix: (Units=1/GPa)
#
#
# Indices 1 2 3 4 5 6 
#
# 1 0.032279 0.001037 -0.004961 0.000000 -0.010412 0.000000
# 2 0.001037 0.017142 -0.005132 0.000000 -0.004778 0.000000
# 3 -0.004961 -0.005132 0.018994 0.000000 -0.003661 0.000000
# 4 0.000000 0.000000 0.000000 0.046093 0.000000 -0.023716
# 5 -0.010412 -0.004778 -0.003661 0.000000 0.040838 0.000000
# 6 0.000000 0.000000 0.000000 -0.023716 0.000000 0.056436
#
#
# Mechanical properties :
#
#
# Convention : Reuss Voigt Hill
#
# Bulk Modulus (GPa) = 19.87957 27.38812 23.63385
# Shear Modulus (GPa) = 20.27063 24.56760 22.41911
#
# Velocity S-wave (km/s) = 3.24350 3.57076 3.41106
# Velocity P-wave (km/s) = 4.93400 5.58701 5.27063
#
# Compressibility (1/GPa) = 0.05030289
#
# Stress axis : x y z
#
# Youngs Moduli (GPa) = 30.98002 58.33700 52.64737
#
# Poissons Ratio (x) = -0.06048 0.26117
# Poissons Ratio (y) = -0.03212 0.27018
# Poissons Ratio (z) = 0.15368 0.29938
#
# Static dielectric constant tensor:
#      x y z
#    x 1.719120 0.000000 0.041940 
#    y 0.000000 1.705210 0.000000 
#    z 0.041940 0.000000 1.745980 
# 
# From -- ./inp_files/72429.got.cif
#   From: 2010.05.17/outbox.cif.g08.bks.cpg/sg13_37_cif.got.tgz:72429.got - 2010.06.03 16:44:36.
