data_PCOD9230976
_publ_section_title
;
Structure prediction by ZEFSAII (Michael W. Deem and Ramdas Pophale) SiO2 
 PCOD9230976
Probable space group: P 2/C
;
_chemical_formula_sum "Si O2"
_cell_formula_units_Z 22
_cell_length_a 26.448203
_cell_length_b 5.660501
_cell_length_c 13.769876
_cell_angle_alpha 90.000000
_cell_angle_beta 152.476502
_cell_angle_gamma 90.000000
_cell_volume 952.639639
_symmetry_space_group_name_H-M "P 2/C"
_symmetry_group_IT_number 13
_symmetry_cell_setting 'monoclinic'
loop_
_space_group_symop_operation_xyz
x,y,z
-x,y,1/2-z
-x,-y,-z
x,-y,1/2+z
loop_
_atom_site_type_symbol
_atom_site_label
_atom_site_fract_x
_atom_site_fract_y
_atom_site_fract_z
Si Si1 0.324722 0.404122 0.718422
Si Si2 0.686619 0.093765 0.219854
Si Si3 0.509519 0.617006 0.152606
Si Si4 0.862074 0.909761 0.865913
Si Si5 0.000000 0.414391 0.750000
Si Si6 0.038917 0.694537 0.642562
O O1 0.275894 0.663686 0.661128
O O2 0.370082 0.397529 0.686290
O O3 0.279884 0.147498 0.670591
O O4 0.435259 0.419772 0.973406
O O5 0.743080 0.079959 0.210150
O O6 0.556881 0.143303 0.987983
O O7 0.500000 0.585207 0.250000
O O8 0.928171 0.741406 0.054190
O O9 0.872027 0.829419 0.770838
O O10 0.933667 0.146970 0.987699
O O11 0.929460 0.577969 0.702247
O O12 0.000000 0.500000 0.500000
#
# Coordination Sequence:
#
# PCOD9230976 Si02
#       6
#     4   4   4   4   2   4
#     4   9  21  39  59  86 122 159 189 251 298 351
#     4  10  21  39  61  86 121 154 198 249 294 353
#     4   9  20  39  62  87 119 160 198 237 304 355
#     4  10  21  38  58  89 114 158 201 250 301 357
#     4  10  20  38  62  82 116 160 196 244 306 354
#     4   9  20  37  60  80 118 154 194 247 300 359
#
# _framework density 23.093727000000001
#
# number of rings (size 3 to 8) (size 9 to 14) (size 15 to 20)
#    1.091    1.455    0.000    1.091    5.091    0.727 
#    3.273    3.636    0.000    0.000    0.000    0.000 
#    0.000    0.000    0.000    0.000    0.000    0.000 
#
# Total GULP energy -122518.493714 kJ/mol
# GULP energy per Si atom -5569.022442 kJ/mol
# Density = 2.304116 g / cm^3
# Si number density = 23.093727 Si / 1000 Ang^3
#
#
#
# Elastic Constant Matrix: (Units=GPa)
#
#
# Indices 1 2 3 4 5 6 
#
# 1 146.7283 63.8501 -0.7314 0.0000 -12.5230 0.0000
# 2 63.8501 146.8663 12.6468 0.0000 7.9383 0.0000
# 3 -0.7314 12.6468 29.5468 0.0000 -6.6964 0.0000
# 4 0.0000 0.0000 0.0000 14.7812 0.0000 -4.1269
# 5 -12.5230 7.9383 -6.6964 0.0000 35.5374 0.0000
# 6 0.0000 0.0000 0.0000 -4.1269 0.0000 33.1677
#
#
#
# Elastic Compliance Matrix: (Units=1/GPa)
#
#
# Indices 1 2 3 4 5 6 
#
# 1 0.009235 -0.004563 0.003291 0.000000 0.004894 0.000000
# 2 -0.004563 0.009500 -0.005248 0.000000 -0.004719 0.000000
# 3 0.003291 -0.005248 0.038338 0.000000 0.009556 0.000000
# 4 0.000000 0.000000 0.000000 0.070088 0.000000 0.008721
# 5 0.004894 -0.004719 0.009556 0.000000 0.032719 0.000000
# 6 0.000000 0.000000 0.000000 0.008721 0.000000 0.031235
#
#
# Mechanical properties :
#
#
# Convention : Reuss Voigt Hill
#
# Bulk Modulus (GPa) = 22.71092 52.74138 37.72615
# Shear Modulus (GPa) = 22.84845 33.18897 28.01871
#
# Velocity S-wave (km/s) = 3.14885 3.79508 3.48697
# Velocity P-wave (km/s) = 4.80374 6.48776 5.70820
#
# Compressibility (1/GPa) = 0.04403168
#
# Stress axis : x y z
#
# Youngs Moduli (GPa) = 108.28502 105.26791 26.08351
#
# Poissons Ratio (x) = 0.48031 -0.08583
# Poissons Ratio (y) = 0.49408 0.13690
# Poissons Ratio (z) = -0.35633 0.55250
#
# Static dielectric constant tensor:
#      x y z
#    x 1.902890 0.000000 0.053700 
#    y 0.000000 1.897770 0.000000 
#    z 0.053700 0.000000 1.953740 
# 
# From -- ./inp_files/57962.got.cif
#   From: 2010.05.17/outbox.cif.g08.bks.cpg/sg13_29_cif.got.tgz:57962.got - 2010.06.03 16:44:36.
