data_PCOD9230272
_publ_section_title
;
Structure prediction by ZEFSAII (Michael W. Deem and Ramdas Pophale) SiO2 
 PCOD9230272
Probable space group: P 2/C
;
_chemical_formula_sum "Si O2"
_cell_formula_units_Z 32
_cell_length_a 17.251001
_cell_length_b 11.661506
_cell_length_c 22.935538
_cell_angle_alpha 90.000000
_cell_angle_beta 19.618362
_cell_angle_gamma 90.000000
_cell_volume 1549.167473
_symmetry_space_group_name_H-M "P 2/C"
_symmetry_group_IT_number 13
_symmetry_cell_setting 'monoclinic'
loop_
_space_group_symop_operation_xyz
x,y,z
-x,y,1/2-z
-x,-y,-z
x,-y,1/2+z
loop_
_atom_site_type_symbol
_atom_site_label
_atom_site_fract_x
_atom_site_fract_y
_atom_site_fract_z
Si Si1 0.690333 0.080427 0.755468
Si Si2 0.626637 0.507112 0.471806
Si Si3 0.931753 0.457329 0.911007
Si Si4 0.239828 0.309603 0.922053
Si Si5 0.768358 0.026714 0.952690
Si Si6 0.936616 0.073710 0.453873
Si Si7 0.263008 0.341508 0.770438
Si Si8 0.256373 0.285099 0.539745
O O1 0.792368 0.071453 0.616996
O O2 0.731143 0.207930 0.751558
O O3 0.822908 0.986806 0.700408
O O4 0.421041 0.056772 0.940277
O O5 0.500000 0.500000 0.500000
O O6 0.510825 0.404581 0.589607
O O7 0.593111 0.629657 0.527022
O O8 0.893072 0.505475 0.264766
O O9 0.778965 0.353368 0.995271
O O10 0.083163 0.411280 0.857926
O O11 0.791174 0.570330 0.024399
O O12 0.500000 0.266319 0.750000
O O13 0.065215 0.207677 0.062466
O O14 0.199633 0.337746 0.882868
O O15 0.664874 0.155501 0.023437
O O16 0.000000 0.021764 0.750000
O O17 0.823617 0.993907 0.980188
O O18 0.000000 0.276150 0.750000
#
# Coordination Sequence:
#
# PCOD9230272 Si02
#       8
#     4   4   4   4   4   4   4   4
#     4  10  22  40  64  85 116 167 206 246 306 369
#     4   9  19  35  58  82 113 151 185 231 291 356
#     4  10  20  36  59  83 113 154 192 236 298 364
#     4  11  22  37  58  85 120 153 194 253 301 353
#     4  11  23  39  62  90 121 155 202 263 308 358
#     4  10  22  42  60  84 121 162 204 247 304 370
#     4  10  20  37  57  84 117 147 192 247 295 351
#     4   9  19  36  55  81 115 148 187 235 293 353
#
# _framework density 20.656255999999999
#
# number of rings (size 3 to 8) (size 9 to 14) (size 15 to 20)
#    0.000    2.000    0.000    3.750    0.000    4.500 
#    0.000   10.000    0.000    0.000    0.000    0.000 
#    0.000    0.000    0.000    0.000    0.000    0.000 
#
# Total GULP energy -178570.103825 kJ/mol
# GULP energy per Si atom -5580.315745 kJ/mol
# Density = 2.060924 g / cm^3
# Si number density = 20.656256 Si / 1000 Ang^3
#
#
#
# Elastic Constant Matrix: (Units=GPa)
#
#
# Indices 1 2 3 4 5 6 
#
# 1 90.3353 28.5862 2.2286 0.0000 -14.0791 0.0000
# 2 28.5862 92.1547 13.7140 0.0000 4.5940 0.0000
# 3 2.2286 13.7140 27.2900 0.0000 -8.3880 0.0000
# 4 0.0000 0.0000 0.0000 32.7408 0.0000 -5.1849
# 5 -14.0791 4.5940 -8.3880 0.0000 20.9640 0.0000
# 6 0.0000 0.0000 0.0000 -5.1849 0.0000 32.5982
#
#
#
# Elastic Compliance Matrix: (Units=1/GPa)
#
#
# Indices 1 2 3 4 5 6 
#
# 1 0.015099 -0.006313 0.006250 0.000000 0.014024 0.000000
# 2 -0.006313 0.014979 -0.010631 0.000000 -0.011776 0.000000
# 3 0.006250 -0.010631 0.049579 0.000000 0.026364 0.000000
# 4 0.000000 0.000000 0.000000 0.031332 0.000000 0.004984
# 5 0.014024 -0.011776 0.026364 0.000000 0.070249 0.000000
# 6 0.000000 0.000000 0.000000 0.004984 0.000000 0.031469
#
#
# Mechanical properties :
#
#
# Convention : Reuss Voigt Hill
#
# Bulk Modulus (GPa) = 17.16188 33.20416 25.18302
# Shear Modulus (GPa) = 19.72250 28.27736 23.99993
#
# Velocity S-wave (km/s) = 3.09333 3.70395 3.41232
# Velocity P-wave (km/s) = 4.59180 5.86531 5.26718
#
# Compressibility (1/GPa) = 0.05826869
#
# Stress axis : x y z
#
# Youngs Moduli (GPa) = 66.22889 66.76157 20.16987
#
# Poissons Ratio (x) = 0.42146 -0.12606
# Poissons Ratio (y) = 0.41810 0.21443
# Poissons Ratio (z) = -0.41393 0.70975
#
# Static dielectric constant tensor:
#      x y z
#    x 1.730720 0.000000 0.017840 
#    y 0.000000 1.740880 0.000000 
#    z 0.017840 0.000000 1.761440 
# 
# From -- ./inp_files/88168.got.cif
#   From: 2010.05.17/outbox.cif.g08.bks.cpg/sg13_45_cif.got.tgz:88168.got - 2010.06.03 16:44:36.
