data_PCOD9230158
_publ_section_title
;
Structure prediction by ZEFSAII (Michael W. Deem and Ramdas Pophale) SiO2 
 PCOD9230158
Probable space group: P 2/C
;
_chemical_formula_sum "Si O2"
_cell_formula_units_Z 18
_cell_length_a 8.222978
_cell_length_b 10.872299
_cell_length_c 8.287779
_cell_angle_alpha 90.000000
_cell_angle_beta 85.114666
_cell_angle_gamma 90.000000
_cell_volume 738.257841
_symmetry_space_group_name_H-M "P 2/C"
_symmetry_group_IT_number 13
_symmetry_cell_setting 'monoclinic'
loop_
_space_group_symop_operation_xyz
x,y,z
-x,y,1/2-z
-x,-y,-z
x,-y,1/2+z
loop_
_atom_site_type_symbol
_atom_site_label
_atom_site_fract_x
_atom_site_fract_y
_atom_site_fract_z
Si Si1 0.018389 0.639269 0.940887
Si Si2 0.205326 0.865135 0.990140
Si Si3 0.669503 0.335041 0.444161
Si Si4 0.000000 0.996788 0.250000
Si Si5 0.500000 0.533520 0.250000
Si Si6 0.500000 0.867867 0.750000
O O1 0.844259 0.694009 0.006932
O O2 0.000000 0.641601 0.750000
O O3 0.173793 0.717496 0.986900
O O4 0.000000 0.500000 0.000000
O O5 0.371911 0.915762 0.896362
O O6 0.149924 0.916862 0.166989
O O7 0.066917 0.915296 0.882224
O O8 0.641963 0.444589 0.312305
O O9 0.559338 0.381816 0.599674
O O10 0.613988 0.216248 0.352771
#
# Coordination Sequence:
#
# PCOD9230158 Si02
#       6
#     4   4   4   2   2   2
#     4  12  24  39  62  97 135 173 215 263 326 405
#     4  11  24  45  68  98 127 176 220 282 331 391
#     4  10  20  36  55  84 131 172 211 261 315 397
#     4  10  24  48  72  90 130 168 234 278 328 398
#     4   9  20  32  54  81 122 180 215 250 315 372
#     4  11  22  40  66  93 134 164 219 280 339 384
#
# _framework density 24.381727000000001
#
# number of rings (size 3 to 8) (size 9 to 14) (size 15 to 20)
#    0.000    1.333    3.333    1.333    7.778    2.667 
#    0.000    0.000    0.000    0.000    0.000    0.000 
#    0.000    0.000    0.000    0.000    0.000    0.000 
#
# Total GULP energy -100454.591392 kJ/mol
# GULP energy per Si atom -5580.810633 kJ/mol
# Density = 2.432623 g / cm^3
# Si number density = 24.381727 Si / 1000 Ang^3
#
#
#
# Elastic Constant Matrix: (Units=GPa)
#
#
# Indices 1 2 3 4 5 6 
#
# 1 83.7016 3.5699 -2.8843 0.0000 -22.0587 0.0000
# 2 3.5699 61.4211 35.4148 0.0000 -12.0432 0.0000
# 3 -2.8843 35.4148 75.5106 0.0000 -21.8340 0.0000
# 4 0.0000 0.0000 0.0000 16.6008 0.0000 0.0395
# 5 -22.0587 -12.0432 -21.8340 0.0000 42.6264 0.0000
# 6 0.0000 0.0000 0.0000 0.0395 0.0000 12.9948
#
#
#
# Elastic Compliance Matrix: (Units=1/GPa)
#
#
# Indices 1 2 3 4 5 6 
#
# 1 0.014527 -0.001230 0.003762 0.000000 0.009097 0.000000
# 2 -0.001230 0.022464 -0.010485 0.000000 0.000340 0.000000
# 3 0.003762 -0.010485 0.021142 0.000000 0.009814 0.000000
# 4 0.000000 0.000000 0.000000 0.060238 0.000000 -0.000183
# 5 0.009097 0.000340 0.009814 0.000000 0.033290 0.000000
# 6 0.000000 0.000000 0.000000 -0.000183 0.000000 0.076954
#
#
# Mechanical properties :
#
#
# Convention : Reuss Voigt Hill
#
# Bulk Modulus (GPa) = 23.68071 32.53711 28.10891
# Shear Modulus (GPa) = 19.33512 26.74660 23.04086
#
# Velocity S-wave (km/s) = 2.81911 3.31568 3.07743
# Velocity P-wave (km/s) = 4.50889 5.29454 4.91743
#
# Compressibility (1/GPa) = 0.04222846
#
# Stress axis : x y z
#
# Youngs Moduli (GPa) = 68.83881 44.51472 47.29948
#
# Poissons Ratio (x) = 0.05474 -0.17794
# Poissons Ratio (y) = 0.08466 0.49591
# Poissons Ratio (z) = -0.25897 0.46672
#
# Static dielectric constant tensor:
#      x y z
#    x 2.066790 0.000000 -0.084060 
#    y 0.000000 2.001250 0.000000 
#    z -0.084060 0.000000 1.982100 
# 
# From -- ./inp_files/11280.got.cif
#   From: 2010.05.17/outbox.cif.g08.bks.cpg/sg13_6_cif.got.tgz:11280.got - 2010.06.03 16:44:36.
