data_PCOD9230340
_publ_section_title
;
Structure prediction by ZEFSAII (Michael W. Deem and Ramdas Pophale) SiO2 
 PCOD9230340
Probable space group: P 2/C
;
_chemical_formula_sum "Si O2"
_cell_formula_units_Z 16
_cell_length_a 7.112681
_cell_length_b 12.168443
_cell_length_c 6.838054
_cell_angle_alpha 90.000000
_cell_angle_beta 92.841170
_cell_angle_gamma 90.000000
_cell_volume 591.107809
_symmetry_space_group_name_H-M "P 2/C"
_symmetry_group_IT_number 13
_symmetry_cell_setting 'monoclinic'
loop_
_space_group_symop_operation_xyz
x,y,z
-x,y,1/2-z
-x,-y,-z
x,-y,1/2+z
loop_
_atom_site_type_symbol
_atom_site_label
_atom_site_fract_x
_atom_site_fract_y
_atom_site_fract_z
Si Si1 0.271886 0.864858 0.935467
Si Si2 0.339690 0.372316 0.431241
Si Si3 0.000000 0.790787 0.250000
Si Si4 0.500000 0.033065 0.750000
Si Si5 0.734387 0.611577 0.113067
O O1 0.273484 0.743941 0.847470
O O2 0.114578 0.862576 0.096937
O O3 0.464598 0.886523 0.067834
O O4 0.313924 0.958610 0.778634
O O5 0.222243 0.481348 0.375772
O O6 0.320596 0.361087 0.666293
O O7 0.567948 0.386942 0.441703
O O8 0.111792 0.705721 0.399354
#
# Coordination Sequence:
#
# PCOD9230340 Si02
#       5
#     4   4   2   2   4
#     4  10  21  37  59  80 113 152 199 246 290 336
#     4   9  18  35  55  82 116 157 189 228 288 365
#     4  10  20  36  60  92 122 146 184 254 306 334
#     4  10  22  40  58  80 108 160 212 238 280 354
#     4   9  18  31  55  84 118 150 188 229 291 363
#
# _framework density 27.067820999999999
#
# number of rings (size 3 to 8) (size 9 to 14) (size 15 to 20)
#    0.000    2.500    0.000    3.000    0.000    9.000 
#    0.000    0.000    0.000   19.500    0.000    0.000 
#    0.000    6.000    0.000    0.000    0.000    0.000 
#
# Total GULP energy -89176.852312 kJ/mol
# GULP energy per Si atom -5573.553270 kJ/mol
# Density = 2.700621 g / cm^3
# Si number density = 27.067821 Si / 1000 Ang^3
#
#
#
# Elastic Constant Matrix: (Units=GPa)
#
#
# Indices 1 2 3 4 5 6 
#
# 1 93.8534 58.0288 25.3978 0.0000 -23.6560 0.0000
# 2 58.0288 157.6240 36.7589 0.0000 -14.9966 0.0000
# 3 25.3978 36.7589 58.1100 0.0000 2.2419 0.0000
# 4 0.0000 0.0000 0.0000 43.3601 0.0000 -0.6436
# 5 -23.6560 -14.9966 2.2419 0.0000 48.1916 0.0000
# 6 0.0000 0.0000 0.0000 -0.6436 0.0000 38.5542
#
#
#
# Elastic Compliance Matrix: (Units=1/GPa)
#
#
# Indices 1 2 3 4 5 6 
#
# 1 0.016289 -0.004245 -0.004700 0.000000 0.006894 0.000000
# 2 -0.004245 0.008872 -0.003790 0.000000 0.000854 0.000000
# 3 -0.004700 -0.003790 0.021834 0.000000 -0.004502 0.000000
# 4 0.000000 0.000000 0.000000 0.023068 0.000000 0.000385
# 5 0.006894 0.000854 -0.004502 0.000000 0.024609 0.000000
# 6 0.000000 0.000000 0.000000 0.000385 0.000000 0.025944
#
#
# Mechanical properties :
#
#
# Convention : Reuss Voigt Hill
#
# Bulk Modulus (GPa) = 46.45673 61.10649 53.78161
# Shear Modulus (GPa) = 32.62407 38.64797 35.63602
#
# Velocity S-wave (km/s) = 3.47547 3.78275 3.63236
# Velocity P-wave (km/s) = 5.77109 6.45781 6.12408
#
# Compressibility (1/GPa) = 0.02152541
#
# Stress axis : x y z
#
# Youngs Moduli (GPa) = 61.39182 112.71522 45.80001
#
# Poissons Ratio (x) = 0.47845 0.21526
# Poissons Ratio (y) = 0.26059 0.17358
# Poissons Ratio (z) = 0.28855 0.42717
#
# Static dielectric constant tensor:
#      x y z
#    x 2.396670 0.000000 -0.134940 
#    y 0.000000 2.049260 0.000000 
#    z -0.134940 0.000000 2.190060 
# 
# From -- ./inp_files/11117.got.cif
#   From: 2010.05.17/outbox.cif.g08.bks.cpg/sg13_6_cif.got.tgz:11117.got - 2010.06.03 16:44:36.
