data_PCOD9230039
_publ_section_title
;
Structure prediction by ZEFSAII (Michael W. Deem and Ramdas Pophale) SiO2 
 PCOD9230039
Probable space group: P 2/C
;
_chemical_formula_sum "Si O2"
_cell_formula_units_Z 28
_cell_length_a 9.647902
_cell_length_b 12.041175
_cell_length_c 13.882371
_cell_angle_alpha 90.000000
_cell_angle_beta 120.070979
_cell_angle_gamma 90.000000
_cell_volume 1395.677137
_symmetry_space_group_name_H-M "P 2/C"
_symmetry_group_IT_number 13
_symmetry_cell_setting 'monoclinic'
loop_
_space_group_symop_operation_xyz
x,y,z
-x,y,1/2-z
-x,-y,-z
x,-y,1/2+z
loop_
_atom_site_type_symbol
_atom_site_label
_atom_site_fract_x
_atom_site_fract_y
_atom_site_fract_z
Si Si1 0.322467 0.209787 0.442739
Si Si2 0.327333 0.815473 0.348901
Si Si3 0.143089 0.401170 0.722459
Si Si4 0.842340 0.655930 0.764591
Si Si5 0.175098 0.052878 0.636722
Si Si6 0.933960 0.719357 0.493586
Si Si7 0.840399 0.017598 0.576893
O O1 0.499972 0.195041 0.544033
O O2 0.295998 0.273497 0.333921
O O3 0.217543 0.276173 0.486307
O O4 0.247056 0.087640 0.407168
O O5 0.267517 0.695258 0.293753
O O6 0.313439 0.899462 0.252714
O O7 0.207565 0.871077 0.384742
O O8 0.204391 0.526971 0.745438
O O9 0.081606 0.372458 0.594148
O O10 0.000000 0.393604 0.750000
O O11 0.907758 0.297995 0.388368
O O12 0.000000 0.663054 0.750000
O O13 0.081802 0.162651 0.564879
O O14 0.031097 0.995354 0.644412
O O15 0.216680 0.985979 0.555049
#
# Coordination Sequence:
#
# PCOD9230039 Si02
#       7
#     4   4   4   4   4   4   4
#     4  10  22  36  56  85 113 148 182 226 290 346
#     4  11  21  36  57  84 118 145 181 232 287 341
#     4  10  20  35  59  84 108 147 193 236 277 328
#     4   9  19  36  57  82 111 146 192 235 277 334
#     4   9  20  34  57  84 108 147 191 228 277 334
#     4   9  18  35  57  82 112 145 187 234 276 329
#     4  10  20  36  54  81 112 147 189 230 276 334
#
# _framework density 20.061947
#
# number of rings (size 3 to 8) (size 9 to 14) (size 15 to 20)
#    0.000    2.286    0.000    3.000    0.000   12.571 
#    0.000    1.429    0.000    6.000    0.000    0.000 
#    0.000    0.000    0.000    0.000    0.000    0.000 
#
# Total GULP energy -156275.155692 kJ/mol
# GULP energy per Si atom -5581.255560 kJ/mol
# Density = 2.001629 g / cm^3
# Si number density = 20.061947 Si / 1000 Ang^3
#
#
#
# Elastic Constant Matrix: (Units=GPa)
#
#
# Indices 1 2 3 4 5 6 
#
# 1 22.2958 9.4309 31.4271 0.0000 5.5186 0.0000
# 2 9.4309 59.7125 56.3767 0.0000 10.8212 0.0000
# 3 31.4271 56.3767 154.2808 0.0000 19.8196 0.0000
# 4 0.0000 0.0000 0.0000 26.9602 0.0000 -8.2538
# 5 5.5186 10.8212 19.8196 0.0000 28.9449 0.0000
# 6 0.0000 0.0000 0.0000 -8.2538 0.0000 9.9261
#
#
#
# Elastic Compliance Matrix: (Units=1/GPa)
#
#
# Indices 1 2 3 4 5 6 
#
# 1 0.063778 0.003722 -0.013827 0.000000 -0.004083 0.000000
# 2 0.003722 0.026106 -0.009816 0.000000 -0.003748 0.000000
# 3 -0.013827 -0.009816 0.013240 0.000000 -0.002760 0.000000
# 4 0.000000 0.000000 0.000000 0.049759 0.000000 0.041375
# 5 -0.004083 -0.003748 -0.002760 0.000000 0.038618 0.000000
# 6 0.000000 0.000000 0.000000 0.041375 0.000000 0.135149
#
#
# Mechanical properties :
#
#
# Convention : Reuss Voigt Hill
#
# Bulk Modulus (GPa) = 15.80267 47.86208 31.83238
# Shear Modulus (GPa) = 12.90037 22.43655 17.66846
#
# Velocity S-wave (km/s) = 2.53855 3.34782 2.97087
# Velocity P-wave (km/s) = 4.06034 6.23320 5.26019
#
# Compressibility (1/GPa) = 0.06328043
#
# Stress axis : x y z
#
# Youngs Moduli (GPa) = 15.67946 38.30502 75.52998
#
# Poissons Ratio (x) = -0.14255 1.04435
# Poissons Ratio (y) = -0.05835 0.74142
# Poissons Ratio (z) = 0.21680 0.37601
#
# Static dielectric constant tensor:
#      x y z
#    x 1.714170 0.000000 -0.039850 
#    y 0.000000 1.722010 0.000000 
#    z -0.039850 0.000000 1.753790 
# 
# From -- ./inp_files/46964.got.cif
#   From: 2010.05.17/outbox.cif.g08.bks.cpg/sg13_24_cif.got.tgz:46964.got - 2010.06.03 16:44:36.
