data_PCOD9230821
_publ_section_title
;
Structure prediction by ZEFSAII (Michael W. Deem and Ramdas Pophale) SiO2 
 PCOD9230821
Probable space group: P 2/C
;
_chemical_formula_sum "Si O2"
_cell_formula_units_Z 30
_cell_length_a 20.447954
_cell_length_b 7.670576
_cell_length_c 9.183876
_cell_angle_alpha 90.000000
_cell_angle_beta 100.916501
_cell_angle_gamma 90.000000
_cell_volume 1414.402357
_symmetry_space_group_name_H-M "P 2/C"
_symmetry_group_IT_number 13
_symmetry_cell_setting 'monoclinic'
loop_
_space_group_symop_operation_xyz
x,y,z
-x,y,1/2-z
-x,-y,-z
x,-y,1/2+z
loop_
_atom_site_type_symbol
_atom_site_label
_atom_site_fract_x
_atom_site_fract_y
_atom_site_fract_z
Si Si1 0.500000 0.484793 0.250000
Si Si2 0.030074 0.776979 0.922408
Si Si3 0.686480 0.861560 0.455010
Si Si4 0.408051 0.583088 0.958462
Si Si5 0.056282 0.617883 0.394099
Si Si6 0.335254 0.223730 0.887883
Si Si7 0.189108 0.235245 0.879058
Si Si8 0.830907 0.942704 0.428392
O O1 0.541673 0.596045 0.384227
O O2 0.552311 0.378472 0.173521
O O3 0.054536 0.577517 0.952018
O O4 0.096050 0.884945 0.987801
O O5 0.000000 0.812217 0.750000
O O6 0.966325 0.768570 0.003098
O O7 0.652994 0.711540 0.537847
O O8 0.661285 0.837181 0.278424
O O9 0.767100 0.847264 0.477101
O O10 0.665872 0.050131 0.512372
O O11 0.386058 0.379654 0.941278
O O12 0.127424 0.637867 0.350246
O O13 0.000000 0.628608 0.250000
O O14 0.261900 0.306882 0.882051
O O15 0.175759 0.094921 0.745372
O O16 0.183817 0.140133 0.031851
#
# Coordination Sequence:
#
# PCOD9230821 Si02
#       8
#     2   4   4   4   4   4   4   4
#     4  10  24  42  70  98 140 162 220 256 296 388
#     4  10  22  36  54  80 114 153 204 249 307 369
#     4  10  23  42  67  96 131 169 218 262 315 379
#     4  11  22  46  68  99 133 176 205 262 314 367
#     4  10  20  38  54  77 113 156 197 255 302 365
#     4  10  23  42  66  98 130 169 218 263 315 378
#     4  10  22  39  59  85 117 152 204 257 304 363
#     4  10  22  40  57  86 117 153 203 257 301 368
#
# _framework density 21.210370000000001
#
# number of rings (size 3 to 8) (size 9 to 14) (size 15 to 20)
#    0.000    1.867    2.667    0.000    5.600    1.067 
#    0.000    4.000    0.000    0.000    0.000    0.000 
#    0.000    0.000    0.000    0.000    0.000    0.000 
#
# Total GULP energy -167308.792257 kJ/mol
# GULP energy per Si atom -5576.959742 kJ/mol
# Density = 2.116209 g / cm^3
# Si number density = 21.210370 Si / 1000 Ang^3
#
#
#
# Elastic Constant Matrix: (Units=GPa)
#
#
# Indices 1 2 3 4 5 6 
#
# 1 94.7025 44.7182 34.8349 0.0000 -11.5320 0.0000
# 2 44.7182 73.6379 25.1225 0.0000 -7.6104 0.0000
# 3 34.8349 25.1225 70.8269 0.0000 -11.4830 0.0000
# 4 0.0000 0.0000 0.0000 7.1369 0.0000 -9.9622
# 5 -11.5320 -7.6104 -11.4830 0.0000 33.9531 0.0000
# 6 0.0000 0.0000 0.0000 -9.9622 0.0000 24.1481
#
#
#
# Elastic Compliance Matrix: (Units=1/GPa)
#
#
# Indices 1 2 3 4 5 6 
#
# 1 0.016432 -0.008100 -0.004865 0.000000 0.002120 0.000000
# 2 -0.008100 0.019536 -0.002837 0.000000 0.000668 0.000000
# 3 -0.004865 -0.002837 0.018142 0.000000 0.003847 0.000000
# 4 0.000000 0.000000 0.000000 0.330358 0.000000 0.136288
# 5 0.002120 0.000668 0.003847 0.000000 0.031623 0.000000
# 6 0.000000 0.000000 0.000000 0.136288 0.000000 0.097636
#
#
# Mechanical properties :
#
#
# Convention : Reuss Voigt Hill
#
# Bulk Modulus (GPa) = 44.43393 49.83540 47.13466
# Shear Modulus (GPa) = 9.04433 22.01372 15.52903
#
# Velocity S-wave (km/s) = 2.06721 3.22510 2.70875
# Velocity P-wave (km/s) = 5.16647 6.11679 5.66161
#
# Compressibility (1/GPa) = 0.02250533
#
# Stress axis : x y z
#
# Youngs Moduli (GPa) = 60.85807 51.18831 55.12125
#
# Poissons Ratio (x) = 0.41461 0.26816
# Poissons Ratio (y) = 0.49293 0.15640
# Poissons Ratio (z) = 0.29607 0.14524
#
# Static dielectric constant tensor:
#      x y z
#    x 1.809950 0.000000 -0.022710 
#    y 0.000000 1.790190 0.000000 
#    z -0.022710 0.000000 1.775320 
# 
# From -- ./inp_files/22792.got.cif
#   From: 2010.05.17/outbox.cif.g08.bks.cpg/sg13_12_cif.got.tgz:22792.got - 2010.06.03 16:44:36.
