data_PCOD9230080
_publ_section_title
;
Structure prediction by ZEFSAII (Michael W. Deem and Ramdas Pophale) SiO2 
 PCOD9230080
Probable space group: P 2/C
;
_chemical_formula_sum "Si O2"
_cell_formula_units_Z 22
_cell_length_a 23.494084
_cell_length_b 8.656027
_cell_length_c 8.895290
_cell_angle_alpha 90.000000
_cell_angle_beta 31.774483
_cell_angle_gamma 90.000000
_cell_volume 952.575295
_symmetry_space_group_name_H-M "P 2/C"
_symmetry_group_IT_number 13
_symmetry_cell_setting 'monoclinic'
loop_
_space_group_symop_operation_xyz
x,y,z
-x,y,1/2-z
-x,-y,-z
x,-y,1/2+z
loop_
_atom_site_type_symbol
_atom_site_label
_atom_site_fract_x
_atom_site_fract_y
_atom_site_fract_z
Si Si1 0.532105 0.332575 0.001373
Si Si2 0.000000 0.952064 0.750000
Si Si3 0.339748 0.709590 0.767434
Si Si4 0.210134 0.284233 0.095737
Si Si5 0.149222 0.933866 0.169047
Si Si6 0.760667 0.488815 0.735136
O O1 0.657833 0.291459 0.701167
O O2 0.500000 0.320381 0.250000
O O3 0.500000 0.500000 0.000000
O O4 0.454775 0.230635 0.067011
O O5 0.925443 0.053509 0.808328
O O6 0.079383 0.860468 0.460956
O O7 0.331307 0.582569 0.653570
O O8 0.259912 0.845067 0.898730
O O9 0.288835 0.624023 0.028268
O O10 0.177509 0.385945 0.024535
O O11 0.175017 0.379002 0.321211
O O12 0.173097 0.110257 0.162758
#
# Coordination Sequence:
#
# PCOD9230080 Si02
#       6
#     4   2   4   4   4   4
#     4  12  20  35  60  96 132 178 197 234 306 390
#     4  10  24  46  68  86 120 166 216 256 352 376
#     4  11  21  37  63  95 129 168 210 248 307 369
#     4  11  21  37  63  95 129 168 210 248 307 369
#     4  11  24  43  70  92 118 165 214 277 308 374
#     4  10  20  35  60  91 126 170 206 243 298 377
#
# _framework density 23.095286999999999
#
# number of rings (size 3 to 8) (size 9 to 14) (size 15 to 20)
#    0.000    1.091    5.455    2.182    0.000    0.727 
#    0.000    0.000    0.000   76.364    0.000    0.000 
#    0.000    0.000    0.000    0.000    0.000    0.000 
#
# Total GULP energy -122893.815964 kJ/mol
# GULP energy per Si atom -5586.082544 kJ/mol
# Density = 2.304272 g / cm^3
# Si number density = 23.095287 Si / 1000 Ang^3
#
#
#
# Elastic Constant Matrix: (Units=GPa)
#
#
# Indices 1 2 3 4 5 6 
#
# 1 135.3141 29.0461 19.1202 0.0000 -0.4462 0.0000
# 2 29.0461 74.3593 6.7816 0.0000 -15.6011 0.0000
# 3 19.1202 6.7816 42.7220 0.0000 -6.8270 0.0000
# 4 0.0000 0.0000 0.0000 10.3802 0.0000 4.1394
# 5 -0.4462 -15.6011 -6.8270 0.0000 41.2156 0.0000
# 6 0.0000 0.0000 0.0000 4.1394 0.0000 21.8730
#
#
#
# Elastic Compliance Matrix: (Units=1/GPa)
#
#
# Indices 1 2 3 4 5 6 
#
# 1 0.008628 -0.003418 -0.003606 0.000000 -0.001798 0.000000
# 2 -0.003418 0.016054 -0.000055 0.000000 0.006031 0.000000
# 3 -0.003606 -0.000055 0.025700 0.000000 0.004197 0.000000
# 4 0.000000 0.000000 0.000000 0.104201 0.000000 -0.019720
# 5 -0.001798 0.006031 0.004197 0.000000 0.027221 0.000000
# 6 0.000000 0.000000 0.000000 -0.019720 0.000000 0.049450
#
#
# Mechanical properties :
#
#
# Convention : Reuss Voigt Hill
#
# Bulk Modulus (GPa) = 27.60632 40.25456 33.93044
# Shear Modulus (GPa) = 19.41848 27.85693 23.63770
#
# Velocity S-wave (km/s) = 2.90280 3.47677 3.20267
# Velocity P-wave (km/s) = 4.81811 5.79524 5.32912
#
# Compressibility (1/GPa) = 0.03622359
#
# Stress axis : x y z
#
# Youngs Moduli (GPa) = 115.90712 62.29055 38.90997
#
# Poissons Ratio (x) = 0.21294 0.14031
# Poissons Ratio (y) = 0.39622 0.00213
# Poissons Ratio (z) = 0.41795 0.00341
#
# Static dielectric constant tensor:
#      x y z
#    x 1.928440 0.000000 -0.011080 
#    y 0.000000 1.884720 0.000000 
#    z -0.011080 0.000000 1.926500 
# 
# From -- ./inp_files/22663.got.cif
#   From: 2010.05.17/outbox.cif.g08.bks.cpg/sg13_12_cif.got.tgz:22663.got - 2010.06.03 16:44:36.
