data_PCOD9230468
_publ_section_title
;
Structure prediction by ZEFSAII (Michael W. Deem and Ramdas Pophale) SiO2 
 PCOD9230468
Probable space group: P 2/C
;
_chemical_formula_sum "Si O2"
_cell_formula_units_Z 30
_cell_length_a 22.628684
_cell_length_b 11.582448
_cell_length_c 28.113253
_cell_angle_alpha 90.000000
_cell_angle_beta 169.247215
_cell_angle_gamma 90.000000
_cell_volume 1374.727867
_symmetry_space_group_name_H-M "P 2/C"
_symmetry_group_IT_number 13
_symmetry_cell_setting 'monoclinic'
loop_
_space_group_symop_operation_xyz
x,y,z
-x,y,1/2-z
-x,-y,-z
x,-y,1/2+z
loop_
_atom_site_type_symbol
_atom_site_label
_atom_site_fract_x
_atom_site_fract_y
_atom_site_fract_z
Si Si1 0.000000 0.306426 0.750000
Si Si2 0.320206 0.906830 0.974835
Si Si3 0.822071 0.469563 0.534668
Si Si4 0.778219 0.869564 0.928714
Si Si5 0.850488 0.304245 0.227780
Si Si6 0.338484 0.694631 0.395683
Si Si7 0.509936 0.845075 0.905404
Si Si8 0.744668 0.870173 0.400161
O O1 0.232661 0.393568 0.961236
O O2 0.846654 0.217186 0.664567
O O3 0.569644 0.867237 0.211579
O O4 0.452056 0.020566 0.052922
O O5 0.242580 0.801342 0.879699
O O6 0.000000 0.942029 0.750000
O O7 0.947952 0.599200 0.640179
O O8 0.122932 0.406017 0.747905
O O9 0.500000 0.467289 0.250000
O O10 0.500000 0.855434 0.750000
O O11 0.643893 0.843781 0.769098
O O12 0.898417 0.002314 0.023996
O O13 0.075978 0.787843 0.172115
O O14 0.068726 0.244239 0.439923
O O15 0.540268 0.347704 0.010111
O O16 0.585855 0.761403 0.627183
O O17 0.500000 0.877661 0.250000
#
# Coordination Sequence:
#
# PCOD9230468 Si02
#       8
#     2   4   4   4   4   4   4   4
#     4  10  20  38  64  94 114 150 208 268 306 352
#     4  11  22  37  65  97 128 163 208 257 309 372
#     4  11  25  43  67  89 117 162 222 266 301 361
#     4  10  20  36  65  95 124 161 211 260 304 367
#     4  12  26  41  60  91 133 170 202 255 320 377
#     4  11  24  42  62  90 129 169 207 256 319 370
#     4  10  20  37  64  95 127 157 203 257 310 366
#     4  10  21  37  60  92 125 161 207 254 308 367
#
# _framework density 21.822503000000001
#
# number of rings (size 3 to 8) (size 9 to 14) (size 15 to 20)
#    0.000    1.333    2.000    4.400    2.800    3.200 
#    0.000    2.667    0.000    6.400    0.000    0.000 
#    0.000    0.000    0.000    0.000    0.000    0.000 
#
# Total GULP energy -167297.648422 kJ/mol
# GULP energy per Si atom -5576.588281 kJ/mol
# Density = 2.177283 g / cm^3
# Si number density = 21.822503 Si / 1000 Ang^3
#
#
#
# Elastic Constant Matrix: (Units=GPa)
#
#
# Indices 1 2 3 4 5 6 
#
# 1 27.8535 17.4943 7.1470 0.0000 -10.3572 0.0000
# 2 17.4943 108.3120 28.3832 0.0000 -11.9102 0.0000
# 3 7.1470 28.3832 38.3006 0.0000 -24.0721 0.0000
# 4 0.0000 0.0000 0.0000 46.2020 0.0000 9.6480
# 5 -10.3572 -11.9102 -24.0721 0.0000 33.5384 0.0000
# 6 0.0000 0.0000 0.0000 9.6480 0.0000 33.6795
#
#
#
# Elastic Compliance Matrix: (Units=1/GPa)
#
#
# Indices 1 2 3 4 5 6 
#
# 1 0.044790 -0.007391 0.007584 0.000000 0.016651 0.000000
# 2 -0.007391 0.012933 -0.012303 0.000000 -0.006520 0.000000
# 3 0.007584 -0.012303 0.059279 0.000000 0.040520 0.000000
# 4 0.000000 0.000000 0.000000 0.023021 0.000000 -0.006595
# 5 0.016651 -0.006520 0.040520 0.000000 0.061726 0.000000
# 6 0.000000 0.000000 0.000000 -0.006595 0.000000 0.031581
#
#
# Mechanical properties :
#
#
# Convention : Reuss Voigt Hill
#
# Bulk Modulus (GPa) = 10.77800 31.16837 20.97318
# Shear Modulus (GPa) = 17.33241 30.78009 24.05625
#
# Velocity S-wave (km/s) = 2.82129 3.75970 3.32378
# Velocity P-wave (km/s) = 3.94494 5.75854 4.93576
#
# Compressibility (1/GPa) = 0.09278161
#
# Stress axis : x y z
#
# Youngs Moduli (GPa) = 22.32666 77.31890 16.86952
#
# Poissons Ratio (x) = 0.57145 -0.12794
# Poissons Ratio (y) = 0.16501 0.20755
# Poissons Ratio (z) = -0.16933 0.95128
#
# Static dielectric constant tensor:
#      x y z
#    x 1.975830 0.000000 0.036940 
#    y 0.000000 1.814550 0.000000 
#    z 0.036940 0.000000 1.827950 
# 
# From -- ./inp_files/97746.got.cif
#   From: 2010.05.17/outbox.cif.g08.bks.cpg/sg13_49_cif.got.tgz:97746.got - 2010.06.03 16:44:36.
