data_PCOD9230095
_publ_section_title
;
Structure prediction by ZEFSAII (Michael W. Deem and Ramdas Pophale) SiO2 
 PCOD9230095
Probable space group: P 2/C
;
_chemical_formula_sum "Si O2"
_cell_formula_units_Z 30
_cell_length_a 31.577964
_cell_length_b 9.278745
_cell_length_c 12.566504
_cell_angle_alpha 90.000000
_cell_angle_beta 155.110137
_cell_angle_gamma 90.000000
_cell_volume 1549.677428
_symmetry_space_group_name_H-M "P 2/C"
_symmetry_group_IT_number 13
_symmetry_cell_setting 'monoclinic'
loop_
_space_group_symop_operation_xyz
x,y,z
-x,y,1/2-z
-x,-y,-z
x,-y,1/2+z
loop_
_atom_site_type_symbol
_atom_site_label
_atom_site_fract_x
_atom_site_fract_y
_atom_site_fract_z
Si Si1 0.855102 0.281617 0.429544
Si Si2 0.626742 0.930970 0.960755
Si Si3 0.154297 0.054292 0.628288
Si Si4 0.985761 0.127837 0.387183
Si Si5 0.026027 0.369033 0.984095
Si Si6 0.422017 0.234864 0.947979
Si Si7 0.500000 0.504226 0.250000
Si Si8 0.374739 0.739072 0.091861
O O1 0.930438 0.307668 0.699479
O O2 0.890496 0.388414 0.416503
O O3 0.863172 0.118545 0.400767
O O4 0.740175 0.297851 0.198758
O O5 0.533109 0.839956 0.700686
O O6 0.602219 0.101612 0.902887
O O7 0.728655 0.915592 0.124691
O O8 0.639202 0.867257 0.108887
O O9 0.092521 0.090635 0.382005
O O10 0.096348 0.144570 0.586410
O O11 0.941492 0.254061 0.355477
O O12 0.000000 0.000000 0.500000
O O13 0.000000 0.500000 0.000000
O O14 0.383546 0.246513 0.740149
O O15 0.432884 0.392183 0.027464
O O16 0.442185 0.611656 0.198026
#
# Coordination Sequence:
#
# PCOD9230095 Si02
#       8
#     4   4   4   4   4   4   2   4
#     4  10  22  40  58  88 121 151 204 242 296 357
#     4   9  21  38  59  93 122 148 205 254 301 366
#     4  10  20  35  61  93 113 152 204 248 284 364
#     4  11  19  36  63  82 118 157 198 237 299 347
#     4  11  23  41  58  85 124 161 189 249 296 351
#     4  10  22  42  62  89 125 158 195 265 309 350
#     4  10  22  42  60  88 120 156 216 242 292 380
#     4  11  22  40  66  87 119 169 196 251 311 362
#
# _framework density 19.358867
#
# number of rings (size 3 to 8) (size 9 to 14) (size 15 to 20)
#    0.000    1.867    2.667    2.400    1.867    3.200 
#    9.600    0.000    0.000    0.000    0.000    0.000 
#    0.000    0.000    0.000    0.000    0.000    0.000 
#
# Total GULP energy -167231.155609 kJ/mol
# GULP energy per Si atom -5574.371854 kJ/mol
# Density = 1.931481 g / cm^3
# Si number density = 19.358867 Si / 1000 Ang^3
#
#
#
# Elastic Constant Matrix: (Units=GPa)
#
#
# Indices 1 2 3 4 5 6 
#
# 1 69.3850 12.0605 15.2792 0.0000 -13.5781 0.0000
# 2 12.0605 70.5970 -3.7107 0.0000 -11.9136 0.0000
# 3 15.2792 -3.7107 35.4315 0.0000 8.4093 0.0000
# 4 0.0000 0.0000 0.0000 12.1348 0.0000 -3.5440
# 5 -13.5781 -11.9136 8.4093 0.0000 26.4322 0.0000
# 6 0.0000 0.0000 0.0000 -3.5440 0.0000 33.5669
#
#
#
# Elastic Compliance Matrix: (Units=1/GPa)
#
#
# Indices 1 2 3 4 5 6 
#
# 1 0.019940 -0.001801 -0.011926 0.000000 0.013225 0.000000
# 2 -0.001801 0.015494 0.001040 0.000000 0.005727 0.000000
# 3 -0.011926 0.001040 0.037662 0.000000 -0.017640 0.000000
# 4 0.000000 0.000000 0.000000 0.085030 0.000000 0.008977
# 5 0.013225 0.005727 -0.017640 0.000000 0.052820 0.000000
# 6 0.000000 0.000000 0.000000 0.008977 0.000000 0.030739
#
#
# Mechanical properties :
#
#
# Convention : Reuss Voigt Hill
#
# Bulk Modulus (GPa) = 20.95528 24.74128 22.84828
# Shear Modulus (GPa) = 17.66996 24.54573 21.10784
#
# Velocity S-wave (km/s) = 3.02447 3.56467 3.30562
# Velocity P-wave (km/s) = 4.80049 5.45441 5.13786
#
# Compressibility (1/GPa) = 0.04772067
#
# Stress axis : x y z
#
# Youngs Moduli (GPa) = 50.15077 64.54184 26.55195
#
# Poissons Ratio (x) = 0.11627 0.31667
# Poissons Ratio (y) = 0.09034 -0.02762
# Poissons Ratio (z) = 0.59811 -0.06714
#
# Static dielectric constant tensor:
#      x y z
#    x 1.655720 0.000000 0.051580 
#    y 0.000000 1.651860 0.000000 
#    z 0.051580 0.000000 1.640420 
# 
# From -- ./inp_files/42722.got.cif
#   From: 2010.05.17/outbox.cif.g08.bks.cpg/sg13_22_cif.got.tgz:42722.got - 2010.06.03 16:44:36.
