data_PCOD9230506
_publ_section_title
;
Structure prediction by ZEFSAII (Michael W. Deem and Ramdas Pophale) SiO2 
 PCOD9230506
Probable space group: P 2/C
;
_chemical_formula_sum "Si O2"
_cell_formula_units_Z 22
_cell_length_a 18.193609
_cell_length_b 5.304087
_cell_length_c 15.664784
_cell_angle_alpha 90.000000
_cell_angle_beta 142.510939
_cell_angle_gamma 90.000000
_cell_volume 920.010862
_symmetry_space_group_name_H-M "P 2/C"
_symmetry_group_IT_number 13
_symmetry_cell_setting 'monoclinic'
loop_
_space_group_symop_operation_xyz
x,y,z
-x,y,1/2-z
-x,-y,-z
x,-y,1/2+z
loop_
_atom_site_type_symbol
_atom_site_label
_atom_site_fract_x
_atom_site_fract_y
_atom_site_fract_z
Si Si1 0.608069 0.583873 0.510247
Si Si2 0.852504 0.577283 0.275109
Si Si3 0.500000 0.738812 0.250000
Si Si4 0.268572 0.978416 0.098406
Si Si5 0.337797 0.085454 0.853924
Si Si6 0.130449 0.472066 0.007599
O O1 0.752246 0.552565 0.622953
O O2 0.517154 0.563415 0.348283
O O3 0.399420 0.646586 0.430489
O O4 0.600574 0.862774 0.539524
O O5 0.799411 0.859752 0.239089
O O6 0.846686 0.466237 0.367396
O O7 0.987213 0.560173 0.366458
O O8 0.380189 0.909369 0.140866
O O9 0.328557 0.979728 0.247381
O O10 0.177329 0.741441 0.018081
O O11 0.201357 0.243509 0.028097
#
# Coordination Sequence:
#
# PCOD9230506 Si02
#       6
#     4   4   2   4   4   4
#     4  10  22  41  62  95 121 176 204 275 319 380
#     4   8  19  36  69  98 127 151 205 284 317 386
#     4  12  30  44  64  82 148 174 228 262 314 384
#     4  11  23  41  61 100 122 178 208 269 315 392
#     4   9  19  39  66  93 124 152 227 251 337 366
#     4  10  20  36  70  98 126 154 217 264 337 375
#
# _framework density 23.912758
#
# number of rings (size 3 to 8) (size 9 to 14) (size 15 to 20)
#    1.091    1.091    1.818    0.000    2.545    8.000 
#    0.000    0.909    0.000    0.000    0.000    0.000 
#    0.000    0.000    0.000    0.000    0.000    0.000 
#
# Total GULP energy -122926.275277 kJ/mol
# GULP energy per Si atom -5587.557967 kJ/mol
# Density = 2.385833 g / cm^3
# Si number density = 23.912758 Si / 1000 Ang^3
#
#
#
# Elastic Constant Matrix: (Units=GPa)
#
#
# Indices 1 2 3 4 5 6 
#
# 1 47.7040 12.5685 15.6921 0.0000 19.3808 0.0000
# 2 12.5685 114.9147 27.3185 0.0000 4.6190 0.0000
# 3 15.6921 27.3185 99.3975 0.0000 26.1673 0.0000
# 4 0.0000 0.0000 0.0000 26.0729 0.0000 11.4755
# 5 19.3808 4.6190 26.1673 0.0000 41.0052 0.0000
# 6 0.0000 0.0000 0.0000 11.4755 0.0000 19.2720
#
#
#
# Elastic Compliance Matrix: (Units=1/GPa)
#
#
# Indices 1 2 3 4 5 6 
#
# 1 0.026606 -0.002334 -0.000382 0.000000 -0.012069 0.000000
# 2 -0.002334 0.009532 -0.002715 0.000000 0.001762 0.000000
# 3 -0.000382 -0.002715 0.012908 0.000000 -0.007751 0.000000
# 4 0.000000 0.000000 0.000000 0.051976 0.000000 -0.030949
# 5 -0.012069 0.001762 -0.007751 0.000000 0.034839 0.000000
# 6 0.000000 0.000000 0.000000 -0.030949 0.000000 0.070317
#
#
# Mechanical properties :
#
#
# Convention : Reuss Voigt Hill
#
# Bulk Modulus (GPa) = 26.18906 41.46383 33.82644
# Shear Modulus (GPa) = 21.76113 31.03249 26.39681
#
# Velocity S-wave (km/s) = 3.01993 3.60632 3.32607
# Velocity P-wave (km/s) = 4.80995 5.89220 5.37837
#
# Compressibility (1/GPa) = 0.03818388
#
# Stress axis : x y z
#
# Youngs Moduli (GPa) = 37.58503 104.90916 77.47406
#
# Poissons Ratio (x) = 0.24488 0.02957
# Poissons Ratio (y) = 0.08773 0.21036
# Poissons Ratio (z) = 0.01434 0.28485
#
# Static dielectric constant tensor:
#      x y z
#    x 2.034800 0.000000 0.043800 
#    y 0.000000 1.885530 0.000000 
#    z 0.043800 0.000000 1.923630 
# 
# From -- ./inp_files/81292.got.cif
#   From: 2010.05.17/outbox.cif.g08.bks.cpg/sg13_41_cif.got.tgz:81292.got - 2010.06.03 16:44:36.
