data_PCOD9230314
_publ_section_title
;
Structure prediction by ZEFSAII (Michael W. Deem and Ramdas Pophale) SiO2 
 PCOD9230314
Probable space group: P 2/C
;
_chemical_formula_sum "Si O2"
_cell_formula_units_Z 26
_cell_length_a 8.675180
_cell_length_b 11.976149
_cell_length_c 18.188429
_cell_angle_alpha 90.000000
_cell_angle_beta 42.177340
_cell_angle_gamma 90.000000
_cell_volume 1268.790840
_symmetry_space_group_name_H-M "P 2/C"
_symmetry_group_IT_number 13
_symmetry_cell_setting 'monoclinic'
loop_
_space_group_symop_operation_xyz
x,y,z
-x,y,1/2-z
-x,-y,-z
x,-y,1/2+z
loop_
_atom_site_type_symbol
_atom_site_label
_atom_site_fract_x
_atom_site_fract_y
_atom_site_fract_z
Si Si1 0.500000 0.684795 0.750000
Si Si2 0.743773 0.121559 0.866386
Si Si3 0.903331 0.160960 0.067609
Si Si4 0.693494 0.988495 0.034176
Si Si5 0.652557 0.512847 0.576433
Si Si6 0.249672 0.370164 0.679967
Si Si7 0.905311 0.351359 0.602855
O O1 0.271656 0.759522 0.827508
O O2 0.525491 0.605530 0.670677
O O3 0.723074 0.255217 0.873816
O O4 0.000000 0.094672 0.750000
O O5 0.703391 0.069363 0.960430
O O6 0.553116 0.069970 0.879791
O O7 0.107977 0.105099 0.040851
O O8 0.017691 0.236377 0.962722
O O9 0.754722 0.062521 0.083152
O O10 0.464582 0.450486 0.594649
O O11 0.762252 0.422513 0.593882
O O12 0.864998 0.575464 0.463562
O O13 0.231148 0.337932 0.773338
O O14 0.000000 0.420021 0.750000
#
# Coordination Sequence:
#
# PCOD9230314 Si02
#       7
#     2   4   4   4   4   4   4
#     4  10  20  36  60  86 122 152 196 252 298 350
#     4  10  22  39  61  83 121 158 195 239 300 359
#     4  10  21  36  61  89 117 151 202 252 298 345
#     4  10  22  40  58  90 117 155 200 251 297 350
#     4  10  20  37  60  87 120 155 196 247 294 343
#     4  11  21  36  60  88 117 159 195 239 292 362
#     4  10  20  37  62  87 118 154 199 247 292 352
#
# _framework density 20.491951
#
# number of rings (size 3 to 8) (size 9 to 14) (size 15 to 20)
#    0.000    1.846    1.538    2.769    2.154    0.615 
#    0.000    0.000    6.769    0.000    0.000    0.000 
#    0.000    0.000    0.000    0.000    0.000    0.000 
#
# Total GULP energy -145310.952111 kJ/mol
# GULP energy per Si atom -5588.882773 kJ/mol
# Density = 2.044531 g / cm^3
# Si number density = 20.491951 Si / 1000 Ang^3
#
#
#
# Elastic Constant Matrix: (Units=GPa)
#
#
# Indices 1 2 3 4 5 6 
#
# 1 91.9470 43.2690 31.6347 0.0000 -37.6284 0.0000
# 2 43.2690 82.4560 34.0326 0.0000 -27.9615 0.0000
# 3 31.6347 34.0326 69.9960 0.0000 -22.6224 0.0000
# 4 0.0000 0.0000 0.0000 15.1875 0.0000 -5.3876
# 5 -37.6284 -27.9615 -22.6224 0.0000 39.5126 0.0000
# 6 0.0000 0.0000 0.0000 -5.3876 0.0000 19.7691
#
#
#
# Elastic Compliance Matrix: (Units=1/GPa)
#
#
# Indices 1 2 3 4 5 6 
#
# 1 0.019550 -0.004616 -0.002000 0.000000 0.014206 0.000000
# 2 -0.004616 0.018642 -0.005073 0.000000 0.005891 0.000000
# 3 -0.002000 -0.005073 0.019487 0.000000 0.005662 0.000000
# 4 0.000000 0.000000 0.000000 0.072890 0.000000 0.019864
# 5 0.014206 0.005891 0.005662 0.000000 0.046248 0.000000
# 6 0.000000 0.000000 0.000000 0.019864 0.000000 0.055998
#
#
# Mechanical properties :
#
#
# Convention : Reuss Voigt Hill
#
# Bulk Modulus (GPa) = 29.15457 51.36351 40.25904
# Shear Modulus (GPa) = 18.68276 23.92470 21.30373
#
# Velocity S-wave (km/s) = 3.02273 3.42060 3.22780
# Velocity P-wave (km/s) = 5.14206 6.38125 5.79487
#
# Compressibility (1/GPa) = 0.03429994
#
# Stress axis : x y z
#
# Youngs Moduli (GPa) = 51.15143 53.64294 51.31586
#
# Poissons Ratio (x) = 0.24762 0.10263
# Poissons Ratio (y) = 0.23612 0.26035
# Poissons Ratio (z) = 0.10230 0.27216
#
# Static dielectric constant tensor:
#      x y z
#    x 1.744690 0.000000 -0.002860 
#    y 0.000000 1.726650 0.000000 
#    z -0.002860 0.000000 1.718640 
# 
# From -- ./inp_files/76388.got.cif
#   From: 2010.05.17/outbox.cif.g08.bks.cpg/sg13_39_cif.got.tgz:76388.got - 2010.06.03 16:44:36.
