data_PCOD9230991
_publ_section_title
;
Structure prediction by ZEFSAII (Michael W. Deem and Ramdas Pophale) SiO2 
 PCOD9230991
Probable space group: P 2/C
;
_chemical_formula_sum "Si O2"
_cell_formula_units_Z 32
_cell_length_a 15.658293
_cell_length_b 8.312246
_cell_length_c 25.470720
_cell_angle_alpha 90.000000
_cell_angle_beta 152.487582
_cell_angle_gamma 90.000000
_cell_volume 1531.406170
_symmetry_space_group_name_H-M "P 2/C"
_symmetry_group_IT_number 13
_symmetry_cell_setting 'monoclinic'
loop_
_space_group_symop_operation_xyz
x,y,z
-x,y,1/2-z
-x,-y,-z
x,-y,1/2+z
loop_
_atom_site_type_symbol
_atom_site_label
_atom_site_fract_x
_atom_site_fract_y
_atom_site_fract_z
Si Si1 0.565478 0.704354 0.918061
Si Si2 0.198890 0.538709 0.747693
Si Si3 0.040476 0.249646 0.594553
Si Si4 0.306038 0.564291 0.615589
Si Si5 0.211135 0.011642 0.993060
Si Si6 0.221450 0.422362 0.871252
Si Si7 0.112024 0.260504 0.361607
Si Si8 0.280082 0.196783 0.630416
O O1 0.355310 0.653934 0.810234
O O2 0.655971 0.578945 0.926042
O O3 0.667637 0.693843 0.029945
O O4 0.609830 0.876301 0.916843
O O5 0.130043 0.408355 0.668606
O O6 0.277526 0.442430 0.841427
O O7 0.031139 0.645748 0.678445
O O8 0.183594 0.167472 0.633412
O O9 0.858515 0.310462 0.463611
O O10 0.961586 0.134796 0.597283
O O11 0.500000 0.601956 0.750000
O O12 0.247746 0.384947 0.599211
O O13 0.202596 0.882502 0.942491
O O14 0.205338 0.917052 0.044399
O O15 0.240331 0.599401 0.907890
O O16 0.000000 0.386743 0.750000
O O17 0.000000 0.197444 0.250000
O O18 0.500000 0.175870 0.750000
#
# Coordination Sequence:
#
# PCOD9230991 Si02
#       8
#     4   4   4   4   4   4   4   4
#     4  11  22  36  58  90 115 146 197 246 290 343
#     4  10  20  38  62  87 115 150 195 246 291 340
#     4  11  23  39  62  89 115 153 200 246 294 344
#     4  10  21  38  61  85 112 154 203 248 289 340
#     4  11  23  37  57  84 119 156 190 234 293 357
#     4   9  18  37  61  84 114 153 194 241 289 339
#     4   9  20  38  58  81 116 157 190 229 290 352
#     4  11  23  39  57  84 119 157 194 238 294 353
#
# _framework density 20.895828000000002
#
# number of rings (size 3 to 8) (size 9 to 14) (size 15 to 20)
#    0.000    2.000    0.000    7.125    0.000    5.500 
#    0.000    2.500    0.000    0.000    0.000    0.000 
#    0.000    0.000    0.000    0.000    0.000    0.000 
#
# Total GULP energy -178758.682643 kJ/mol
# GULP energy per Si atom -5586.208833 kJ/mol
# Density = 2.084827 g / cm^3
# Si number density = 20.895828 Si / 1000 Ang^3
#
#
#
# Elastic Constant Matrix: (Units=GPa)
#
#
# Indices 1 2 3 4 5 6 
#
# 1 81.2106 9.6764 24.8781 0.0000 2.9341 0.0000
# 2 9.6764 44.5075 27.1213 0.0000 -4.7899 0.0000
# 3 24.8781 27.1213 59.1499 0.0000 -0.3243 0.0000
# 4 0.0000 0.0000 0.0000 12.0854 0.0000 -3.4109
# 5 2.9341 -4.7899 -0.3243 0.0000 28.3172 0.0000
# 6 0.0000 0.0000 0.0000 -3.4109 0.0000 2.5184
#
#
#
# Elastic Compliance Matrix: (Units=1/GPa)
#
#
# Indices 1 2 3 4 5 6 
#
# 1 0.014211 0.000557 -0.006241 0.000000 -0.001450 0.000000
# 2 0.000557 0.031959 -0.014860 0.000000 0.005178 0.000000
# 3 -0.006241 -0.014860 0.026336 0.000000 -0.001565 0.000000
# 4 0.000000 0.000000 0.000000 0.133948 0.000000 0.181421
# 5 -0.001450 0.005178 -0.001565 0.000000 0.036322 0.000000
# 6 0.000000 0.000000 0.000000 0.181421 0.000000 0.642800
#
#
# Mechanical properties :
#
#
# Convention : Reuss Voigt Hill
#
# Bulk Modulus (GPa) = 31.82698 34.24661 33.03680
# Shear Modulus (GPa) = 5.33540 16.79700 11.06620
#
# Velocity S-wave (km/s) = 1.59965 2.83829 2.30378
# Velocity P-wave (km/s) = 4.32159 5.21210 4.78760
#
# Compressibility (1/GPa) = 0.03141988
#
# Stress axis : x y z
#
# Youngs Moduli (GPa) = 70.36595 31.28975 37.97106
#
# Poissons Ratio (x) = -0.01743 0.23696
# Poissons Ratio (y) = -0.03920 0.56424
# Poissons Ratio (z) = 0.43912 0.46496
#
# Static dielectric constant tensor:
#      x y z
#    x 1.757040 0.000000 -0.005220 
#    y 0.000000 1.727270 0.000000 
#    z -0.005220 0.000000 1.780560 
# 
# From -- ./inp_files/87437.got.cif
#   From: 2010.05.17/outbox.cif.g08.bks.cpg/sg13_44_cif.got.tgz:87437.got - 2010.06.03 16:44:36.
