data_PCOD9230498
_publ_section_title
;
Structure prediction by ZEFSAII (Michael W. Deem and Ramdas Pophale) SiO2 
 PCOD9230498
Probable space group: P 2/C
;
_chemical_formula_sum "Si O2"
_cell_formula_units_Z 22
_cell_length_a 22.716206
_cell_length_b 7.832343
_cell_length_c 14.615748
_cell_angle_alpha 90.000000
_cell_angle_beta 158.178751
_cell_angle_gamma 90.000000
_cell_volume 966.618946
_symmetry_space_group_name_H-M "P 2/C"
_symmetry_group_IT_number 13
_symmetry_cell_setting 'monoclinic'
loop_
_space_group_symop_operation_xyz
x,y,z
-x,y,1/2-z
-x,-y,-z
x,-y,1/2+z
loop_
_atom_site_type_symbol
_atom_site_label
_atom_site_fract_x
_atom_site_fract_y
_atom_site_fract_z
Si Si1 0.083848 0.737101 0.491056
Si Si2 0.593338 0.355317 0.973896
Si Si3 0.326172 0.209924 0.713554
Si Si4 0.533767 0.254980 0.397526
Si Si5 0.000000 0.577725 0.750000
Si Si6 0.220496 0.141250 0.995849
O O1 0.153142 0.825286 0.499651
O O2 0.027329 0.549547 0.375492
O O3 0.232308 0.723476 0.770846
O O4 0.923712 0.837976 0.282782
O O5 0.500000 0.299861 0.750000
O O6 0.478408 0.308991 0.892889
O O7 0.611577 0.560326 0.996921
O O8 0.160910 0.313384 0.472447
O O9 0.301077 0.041666 0.617071
O O10 0.370210 0.164781 0.882625
O O11 0.500000 0.170791 0.250000
O O12 0.354358 0.281039 0.172874
#
# Coordination Sequence:
#
# PCOD9230498 Si02
#       6
#     4   4   4   4   2   4
#     4  10  20  41  64  90 125 162 211 257 309 362
#     4  11  23  41  66  95 122 167 211 258 304 369
#     4  12  22  42  64  94 126 165 211 253 313 373
#     4  11  23  41  64  95 126 166 210 252 311 372
#     4  10  20  36  68  88 118 172 208 256 300 364
#     4  10  22  39  64  89 127 165 200 260 316 360
#
# _framework density 22.759744999999999
#
# number of rings (size 3 to 8) (size 9 to 14) (size 15 to 20)
#    0.000    1.455    3.636    4.364    0.000    0.727 
#    3.273    3.636    0.000    0.000    0.000    0.000 
#    0.000    0.000    0.000    0.000    0.000    0.000 
#
# Total GULP energy -122813.636548 kJ/mol
# GULP energy per Si atom -5582.438025 kJ/mol
# Density = 2.270794 g / cm^3
# Si number density = 22.759745 Si / 1000 Ang^3
#
#
#
# Elastic Constant Matrix: (Units=GPa)
#
#
# Indices 1 2 3 4 5 6 
#
# 1 39.8060 3.3733 31.7194 0.0000 -18.0392 0.0000
# 2 3.3733 53.9980 31.5823 0.0000 -5.4848 0.0000
# 3 31.7194 31.5823 216.9629 0.0000 -21.3983 0.0000
# 4 0.0000 0.0000 0.0000 13.5050 0.0000 9.1263
# 5 -18.0392 -5.4848 -21.3983 0.0000 27.9209 0.0000
# 6 0.0000 0.0000 0.0000 9.1263 0.0000 10.8413
#
#
#
# Elastic Compliance Matrix: (Units=1/GPa)
#
#
# Indices 1 2 3 4 5 6 
#
# 1 0.037856 0.002011 -0.003652 0.000000 0.022054 0.000000
# 2 0.002011 0.020439 -0.002970 0.000000 0.003039 0.000000
# 3 -0.003652 -0.002970 0.005717 0.000000 0.001439 0.000000
# 4 0.000000 0.000000 0.000000 0.171752 0.000000 -0.144583
# 5 0.022054 0.003039 0.001439 0.000000 0.051764 0.000000
# 6 0.000000 0.000000 0.000000 -0.144583 0.000000 0.213951
#
#
# Mechanical properties :
#
#
# Convention : Reuss Voigt Hill
#
# Bulk Modulus (GPa) = 18.25097 49.34633 33.79865
# Shear Modulus (GPa) = 9.45244 26.72623 18.08934
#
# Velocity S-wave (km/s) = 2.04014 3.43049 2.82227
# Velocity P-wave (km/s) = 3.68591 6.11715 5.05002
#
# Compressibility (1/GPa) = 0.05479161
#
# Stress axis : x y z
#
# Youngs Moduli (GPa) = 26.41580 48.92596 174.91166
#
# Poissons Ratio (x) = -0.09841 0.63880
# Poissons Ratio (y) = -0.05313 0.51941
# Poissons Ratio (z) = 0.09647 0.14529
#
# Static dielectric constant tensor:
#      x y z
#    x 1.911140 0.000000 -0.001600 
#    y 0.000000 1.885380 0.000000 
#    z -0.001600 0.000000 1.882220 
# 
# From -- ./inp_files/58739.got.cif
#   From: 2010.05.17/outbox.cif.g08.bks.cpg/sg13_30_cif.got.tgz:58739.got - 2010.06.03 16:44:36.
