data_PCOD9230256
_publ_section_title
;
Structure prediction by ZEFSAII (Michael W. Deem and Ramdas Pophale) SiO2 
 PCOD9230256
Probable space group: P 2/C
;
_chemical_formula_sum "Si O2"
_cell_formula_units_Z 26
_cell_length_a 21.143774
_cell_length_b 8.961627
_cell_length_c 10.765162
_cell_angle_alpha 90.000000
_cell_angle_beta 149.981452
_cell_angle_gamma 90.000000
_cell_volume 1020.477342
_symmetry_space_group_name_H-M "P 2/C"
_symmetry_group_IT_number 13
_symmetry_cell_setting 'monoclinic'
loop_
_space_group_symop_operation_xyz
x,y,z
-x,y,1/2-z
-x,-y,-z
x,-y,1/2+z
loop_
_atom_site_type_symbol
_atom_site_label
_atom_site_fract_x
_atom_site_fract_y
_atom_site_fract_z
Si Si1 0.915218 0.803884 0.991316
Si Si2 0.319023 0.050312 0.284649
Si Si3 0.178582 0.519124 0.551292
Si Si4 0.500000 0.869830 0.750000
Si Si5 0.622620 0.395219 0.907309
Si Si6 0.174053 0.780583 0.909598
Si Si7 0.339820 0.319340 0.142212
O O1 0.000000 0.864024 0.250000
O O2 0.780097 0.883810 0.784067
O O3 0.906980 0.626548 0.008671
O O4 0.936461 0.815969 0.879577
O O5 0.362303 0.194522 0.282398
O O6 0.441909 0.970880 0.545010
O O7 0.234830 0.929992 0.066982
O O8 0.142431 0.350428 0.455318
O O9 0.208810 0.608923 0.473058
O O10 0.303453 0.529107 0.850876
O O11 0.622212 0.774765 0.914884
O O12 0.500000 0.314546 0.750000
O O13 0.581191 0.532247 0.749103
O O14 0.714672 0.297946 0.980830
#
# Coordination Sequence:
#
# PCOD9230256 Si02
#       7
#     4   4   4   2   4   4   4
#     4  10  23  45  65  87 118 156 208 259 301 355
#     4  11  24  41  58  91 125 164 199 244 305 358
#     4   9  21  39  60  90 121 154 200 248 303 355
#     4  12  22  36  58  90 128 162 200 240 288 372
#     4  10  20  36  58  87 122 167 201 236 285 361
#     4  10  22  39  63  89 123 157 200 250 302 358
#     4  10  21  36  55  83 123 165 196 236 287 357
#
# _framework density 25.478273000000002
#
# number of rings (size 3 to 8) (size 9 to 14) (size 15 to 20)
#    0.000    1.846    0.769    2.308    2.154    2.462 
#   13.846    0.769    0.000    0.000    0.000    0.000 
#    0.000    0.000    0.000    0.000    0.000    0.000 
#
# Total GULP energy -144917.972071 kJ/mol
# GULP energy per Si atom -5573.768157 kJ/mol
# Density = 2.542028 g / cm^3
# Si number density = 25.478273 Si / 1000 Ang^3
#
#
#
# Elastic Constant Matrix: (Units=GPa)
#
#
# Indices 1 2 3 4 5 6 
#
# 1 58.0837 27.9762 4.8080 0.0000 -5.2040 0.0000
# 2 27.9762 130.8550 41.7437 0.0000 -29.1615 0.0000
# 3 4.8080 41.7437 111.6940 0.0000 -17.9857 0.0000
# 4 0.0000 0.0000 0.0000 49.9652 0.0000 -35.9073
# 5 -5.2040 -29.1615 -17.9857 0.0000 31.2997 0.0000
# 6 0.0000 0.0000 0.0000 -35.9073 0.0000 43.0138
#
#
#
# Elastic Compliance Matrix: (Units=1/GPa)
#
#
# Indices 1 2 3 4 5 6 
#
# 1 0.019263 -0.004480 0.000759 0.000000 -0.000535 0.000000
# 2 -0.004480 0.011295 -0.002704 0.000000 0.008225 0.000000
# 3 0.000759 -0.002704 0.010519 0.000000 0.003651 0.000000
# 4 0.000000 0.000000 0.000000 0.050024 0.000000 0.041759
# 5 -0.000535 0.008225 0.003651 0.000000 0.041622 0.000000
# 6 0.000000 0.000000 0.000000 0.041759 0.000000 0.058108
#
#
# Mechanical properties :
#
#
# Convention : Reuss Voigt Hill
#
# Bulk Modulus (GPa) = 35.42606 49.96538 42.69572
# Shear Modulus (GPa) = 23.46412 39.92940 31.69676
#
# Velocity S-wave (km/s) = 3.03800 3.96308 3.53096
# Velocity P-wave (km/s) = 5.12255 6.37141 5.78080
#
# Compressibility (1/GPa) = 0.02822781
#
# Stress axis : x y z
#
# Youngs Moduli (GPa) = 51.91171 88.53126 95.06658
#
# Poissons Ratio (x) = 0.39660 -0.07214
# Poissons Ratio (y) = 0.23255 0.25708
# Poissons Ratio (z) = -0.03939 0.23940
#
# Static dielectric constant tensor:
#      x y z
#    x 2.067640 0.000000 -0.002860 
#    y 0.000000 1.994370 0.000000 
#    z -0.002860 0.000000 2.135120 
# 
# From -- ./inp_files/42217.got.cif
#   From: 2010.05.17/outbox.cif.g08.bks.cpg/sg13_22_cif.got.tgz:42217.got - 2010.06.03 16:44:36.
