data_PCOD9230776
_publ_section_title
;
Structure prediction by ZEFSAII (Michael W. Deem and Ramdas Pophale) SiO2 
 PCOD9230776
Probable space group: P 2/C
;
_chemical_formula_sum "Si O2"
_cell_formula_units_Z 24
_cell_length_a 11.259015
_cell_length_b 5.339485
_cell_length_c 18.713884
_cell_angle_alpha 90.000000
_cell_angle_beta 66.045995
_cell_angle_gamma 90.000000
_cell_volume 1028.132101
_symmetry_space_group_name_H-M "P 2/C"
_symmetry_group_IT_number 13
_symmetry_cell_setting 'monoclinic'
loop_
_space_group_symop_operation_xyz
x,y,z
-x,y,1/2-z
-x,-y,-z
x,-y,1/2+z
loop_
_atom_site_type_symbol
_atom_site_label
_atom_site_fract_x
_atom_site_fract_y
_atom_site_fract_z
Si Si1 0.600946 0.427250 0.361039
Si Si2 0.139890 0.179380 0.031116
Si Si3 0.304519 0.551658 0.926511
Si Si4 0.639809 0.228883 0.718852
Si Si5 0.864901 0.052155 0.118135
Si Si6 0.357747 0.054326 0.567070
O O1 0.448535 0.363946 0.410375
O O2 0.625161 0.533335 0.275056
O O3 0.668619 0.171484 0.369552
O O4 0.636546 0.673613 0.398445
O O5 0.245537 0.983740 0.035284
O O6 0.004733 0.158490 0.105939
O O7 0.215490 0.441247 0.010802
O O8 0.105376 0.136132 0.955573
O O9 0.342550 0.317463 0.866533
O O10 0.222530 0.735380 0.897237
O O11 0.500000 0.089336 0.750000
O O12 0.771932 0.076539 0.699011
O O13 0.500000 0.000000 0.500000
#
# Coordination Sequence:
#
# PCOD9230776 Si02
#       6
#     4   4   4   4   4   4
#     4  11  25  40  67  95 133 171 220 268 330 396
#     4  10  22  38  61  99 125 169 216 268 340 379
#     4  10  20  37  64  94 124 165 213 282 321 388
#     4   9  22  39  60  96 119 168 217 266 322 381
#     4  10  21  39  67  90 132 161 219 278 325 393
#     4  12  24  42  65  98 133 174 215 271 325 408
#
# _framework density 23.343304
#
# number of rings (size 3 to 8) (size 9 to 14) (size 15 to 20)
#    0.000    1.667    1.667    2.000    9.333    0.667 
#    0.000    0.833    0.000    0.000    0.000    0.000 
#    0.000    0.000    0.000    0.000    0.000    0.000 
#
# Total GULP energy -133925.265826 kJ/mol
# GULP energy per Si atom -5580.219409 kJ/mol
# Density = 2.329017 g / cm^3
# Si number density = 23.343304 Si / 1000 Ang^3
#
#
#
# Elastic Constant Matrix: (Units=GPa)
#
#
# Indices 1 2 3 4 5 6 
#
# 1 99.4968 39.6763 43.9573 0.0000 -14.1001 0.0000
# 2 39.6763 78.8960 24.9997 0.0000 -21.5870 0.0000
# 3 43.9573 24.9997 82.9651 0.0000 -24.8373 0.0000
# 4 0.0000 0.0000 0.0000 34.0332 0.0000 22.0681
# 5 -14.1001 -21.5870 -24.8373 0.0000 30.8082 0.0000
# 6 0.0000 0.0000 0.0000 22.0681 0.0000 16.4065
#
#
#
# Elastic Compliance Matrix: (Units=1/GPa)
#
#
# Indices 1 2 3 4 5 6 
#
# 1 0.015261 -0.006280 -0.007144 0.000000 -0.003175 0.000000
# 2 -0.006280 0.018494 0.001019 0.000000 0.010906 0.000000
# 3 -0.007144 0.001019 0.019464 0.000000 0.013136 0.000000
# 4 0.000000 0.000000 0.000000 0.229896 0.000000 -0.309229
# 5 -0.003175 0.010906 0.013136 0.000000 0.049238 0.000000
# 6 0.000000 0.000000 0.000000 -0.309229 0.000000 0.476890
#
#
# Mechanical properties :
#
#
# Convention : Reuss Voigt Hill
#
# Bulk Modulus (GPa) = 35.19841 53.18053 44.18947
# Shear Modulus (GPa) = 5.92753 26.43122 16.17938
#
# Velocity S-wave (km/s) = 1.59524 3.36859 2.63555
# Velocity P-wave (km/s) = 4.30167 6.16127 5.31346
#
# Compressibility (1/GPa) = 0.02841037
#
# Stress axis : x y z
#
# Youngs Moduli (GPa) = 65.52681 54.07155 51.37761
#
# Poissons Ratio (x) = 0.33955 0.36704
# Poissons Ratio (y) = 0.41148 -0.05238
# Poissons Ratio (z) = 0.46812 -0.05512
#
# Static dielectric constant tensor:
#      x y z
#    x 1.984400 0.000000 0.019950 
#    y 0.000000 2.006090 0.000000 
#    z 0.019950 0.000000 1.937130 
# 
# From -- ./inp_files/77166.got.cif
#   From: 2010.05.17/outbox.cif.g08.bks.cpg/sg13_39_cif.got.tgz:77166.got - 2010.06.03 16:44:36.
