data_PCOD9230671
_publ_section_title
;
Structure prediction by ZEFSAII (Michael W. Deem and Ramdas Pophale) SiO2 
 PCOD9230671
Probable space group: P 2/C
;
_chemical_formula_sum "Si O2"
_cell_formula_units_Z 28
_cell_length_a 6.460340
_cell_length_b 12.663516
_cell_length_c 19.075389
_cell_angle_alpha 90.000000
_cell_angle_beta 70.133627
_cell_angle_gamma 90.000000
_cell_volume 1467.696361
_symmetry_space_group_name_H-M "P 2/C"
_symmetry_group_IT_number 13
_symmetry_cell_setting 'monoclinic'
loop_
_space_group_symop_operation_xyz
x,y,z
-x,y,1/2-z
-x,-y,-z
x,-y,1/2+z
loop_
_atom_site_type_symbol
_atom_site_label
_atom_site_fract_x
_atom_site_fract_y
_atom_site_fract_z
Si Si1 0.649842 0.066256 0.536883
Si Si2 0.354825 0.743094 0.046029
Si Si3 0.855227 0.129677 0.062307
Si Si4 0.022314 0.739029 0.822208
Si Si5 0.607474 0.611538 0.910761
Si Si6 0.693589 0.456577 0.176923
Si Si7 0.926422 0.413876 0.840618
O O1 0.511374 0.171848 0.566108
O O2 0.889008 0.100057 0.480187
O O3 0.500000 0.000000 0.500000
O O4 0.714414 0.977582 0.586117
O O5 0.178868 0.693283 0.119112
O O6 0.238240 0.802555 0.993040
O O7 0.500563 0.647349 0.996283
O O8 0.856059 0.195251 0.133006
O O9 0.163560 0.631234 0.798260
O O10 0.000000 0.793101 0.750000
O O11 0.778806 0.705122 0.874025
O O12 0.409559 0.597291 0.878948
O O13 0.752091 0.506227 0.881170
O O14 0.500000 0.492443 0.250000
O O15 0.854966 0.552545 0.142251
O O16 0.000000 0.413228 0.750000
#
# Coordination Sequence:
#
# PCOD9230671 Si02
#       7
#     4   4   4   4   4   4   4
#     4   9  20  39  63  84 115 150 196 254 306 351
#     4  11  22  37  62  91 116 159 207 254 298 356
#     4  10  20  37  61  91 115 152 205 246 308 370
#     4  11  20  32  58  91 122 157 193 245 312 371
#     4  11  20  36  57  87 126 157 198 247 293 356
#     4  11  19  36  55  79 126 166 192 235 296 360
#     4  11  24  38  56  87 122 168 205 240 297 366
#
# _framework density 19.077515999999999
#
# number of rings (size 3 to 8) (size 9 to 14) (size 15 to 20)
#    0.000    1.429    5.714    1.286    0.000    1.714 
#    0.000    0.000    0.000    9.429    0.000    0.000 
#    0.000    0.000    0.000    0.000    0.000    0.000 
#
# Total GULP energy -156040.028358 kJ/mol
# GULP energy per Si atom -5572.858156 kJ/mol
# Density = 1.903410 g / cm^3
# Si number density = 19.077516 Si / 1000 Ang^3
#
#
#
# Elastic Constant Matrix: (Units=GPa)
#
#
# Indices 1 2 3 4 5 6 
#
# 1 107.5557 47.9037 31.8760 0.0000 -7.0588 0.0000
# 2 47.9037 102.1278 54.5770 0.0000 -1.4845 0.0000
# 3 31.8760 54.5770 78.9118 0.0000 -9.4193 0.0000
# 4 0.0000 0.0000 0.0000 13.7503 0.0000 -3.6637
# 5 -7.0588 -1.4845 -9.4193 0.0000 22.7952 0.0000
# 6 0.0000 0.0000 0.0000 -3.6637 0.0000 20.1442
#
#
#
# Elastic Compliance Matrix: (Units=1/GPa)
#
#
# Indices 1 2 3 4 5 6 
#
# 1 0.012050 -0.005073 -0.001002 0.000000 0.002987 0.000000
# 2 -0.005073 0.017955 -0.010957 0.000000 -0.004929 0.000000
# 3 -0.001002 -0.010957 0.021599 0.000000 0.007901 0.000000
# 4 0.000000 0.000000 0.000000 0.076429 0.000000 0.013901
# 5 0.002987 -0.004929 0.007901 0.000000 0.047738 0.000000
# 6 0.000000 0.000000 0.000000 0.013901 0.000000 0.052170
#
#
# Mechanical properties :
#
#
# Convention : Reuss Voigt Hill
#
# Bulk Modulus (GPa) = 57.01784 61.92317 59.47051
# Shear Modulus (GPa) = 18.66697 21.62051 20.14374
#
# Velocity S-wave (km/s) = 3.13146 3.37010 3.25297
# Velocity P-wave (km/s) = 6.55950 6.90454 6.73423
#
# Compressibility (1/GPa) = 0.01753837
#
# Stress axis : x y z
#
# Youngs Moduli (GPa) = 82.98705 55.69446 46.29915
#
# Poissons Ratio (x) = 0.28254 0.04641
# Poissons Ratio (y) = 0.42100 0.50731
# Poissons Ratio (z) = 0.08319 0.61026
#
# Static dielectric constant tensor:
#      x y z
#    x 1.705590 0.000000 0.001800 
#    y 0.000000 1.711050 0.000000 
#    z 0.001800 0.000000 1.659440 
# 
# From -- ./inp_files/73599.got.cif
#   From: 2010.05.17/outbox.cif.g08.bks.cpg/sg13_37_cif.got.tgz:73599.got - 2010.06.03 16:44:36.
