data_PCOD9230670
_publ_section_title
;
Structure prediction by ZEFSAII (Michael W. Deem and Ramdas Pophale) SiO2 
 PCOD9230670
Probable space group: P 2/C
;
_chemical_formula_sum "Si O2"
_cell_formula_units_Z 26
_cell_length_a 9.896049
_cell_length_b 19.698852
_cell_length_c 8.275257
_cell_angle_alpha 90.000000
_cell_angle_beta 54.111832
_cell_angle_gamma 90.000000
_cell_volume 1306.942546
_symmetry_space_group_name_H-M "P 2/C"
_symmetry_group_IT_number 13
_symmetry_cell_setting 'monoclinic'
loop_
_space_group_symop_operation_xyz
x,y,z
-x,y,1/2-z
-x,-y,-z
x,-y,1/2+z
loop_
_atom_site_type_symbol
_atom_site_label
_atom_site_fract_x
_atom_site_fract_y
_atom_site_fract_z
Si Si1 0.049293 0.926515 0.900467
Si Si2 0.995236 0.349716 0.447203
Si Si3 0.685365 0.596888 0.650875
Si Si4 0.554792 0.074225 0.397147
Si Si5 0.879793 0.206880 0.495863
Si Si6 0.500000 0.835965 0.250000
Si Si7 0.159088 0.524632 0.251229
O O1 0.246687 0.918180 0.759317
O O2 0.000000 0.929471 0.750000
O O3 0.949447 0.860671 0.037181
O O4 0.000000 0.000000 0.000000
O O5 0.181377 0.347412 0.389179
O O6 0.000000 0.354001 0.250000
O O7 0.906336 0.280033 0.558293
O O8 0.910785 0.417935 0.577732
O O9 0.500000 0.622007 0.750000
O O10 0.725004 0.564122 0.451738
O O11 0.735171 0.535660 0.741255
O O12 0.500000 0.085168 0.250000
O O13 0.490413 0.122108 0.587940
O O14 0.500000 0.000000 0.500000
O O15 0.681268 0.200079 0.606018
O O16 0.000000 0.209875 0.250000
O O17 0.000000 0.504842 0.250000
#
# Coordination Sequence:
#
# PCOD9230670 Si02
#       7
#     4   4   4   4   4   2   4
#     4  11  21  41  63  93 133 168 218 278 336 391
#     4  10  21  41  64  85 124 178 214 256 329 391
#     4  11  21  37  61  97 130 161 213 272 319 383
#     4  12  23  39  67 105 134 171 225 280 340 409
#     4  10  22  44  69  90 129 179 222 267 337 406
#     4  12  22  46  70  96 138 176 226 284 336 412
#     4  10  20  37  61  90 127 168 212 259 321 394
#
# _framework density 19.893758999999999
#
# number of rings (size 3 to 8) (size 9 to 14) (size 15 to 20)
#    0.000    1.231    3.846    5.538    0.000    0.000 
#    6.923    7.692    0.000    0.000    0.000    0.000 
#    0.000    0.000    0.000    0.000    0.000    0.000 
#
# Total GULP energy -144762.013731 kJ/mol
# GULP energy per Si atom -5567.769759 kJ/mol
# Density = 1.984848 g / cm^3
# Si number density = 19.893759 Si / 1000 Ang^3
#
#
#
# Elastic Constant Matrix: (Units=GPa)
#
#
# Indices 1 2 3 4 5 6 
#
# 1 142.2758 48.7459 28.3843 0.0000 -13.4427 0.0000
# 2 48.7459 123.5744 11.7325 0.0000 1.6869 0.0000
# 3 28.3843 11.7325 55.4331 0.0000 5.5344 0.0000
# 4 0.0000 0.0000 0.0000 20.8206 0.0000 15.7966
# 5 -13.4427 1.6869 5.5344 0.0000 45.6100 0.0000
# 6 0.0000 0.0000 0.0000 15.7966 0.0000 53.4148
#
#
#
# Elastic Compliance Matrix: (Units=1/GPa)
#
#
# Indices 1 2 3 4 5 6 
#
# 1 0.009377 -0.003324 -0.004440 0.000000 0.003425 0.000000
# 2 -0.003324 0.009437 -0.000165 0.000000 -0.001309 0.000000
# 3 -0.004440 -0.000165 0.020729 0.000000 -0.003818 0.000000
# 4 0.000000 0.000000 0.000000 0.061923 0.000000 -0.018313
# 5 0.003425 -0.001309 -0.003818 0.000000 0.023446 0.000000
# 6 0.000000 0.000000 0.000000 -0.018313 0.000000 0.024137
#
#
# Mechanical properties :
#
#
# Convention : Reuss Voigt Hill
#
# Bulk Modulus (GPa) = 42.21902 55.44542 48.83222
# Shear Modulus (GPa) = 28.93480 39.46379 34.19929
#
# Velocity S-wave (km/s) = 3.81788 4.45874 4.15070
# Velocity P-wave (km/s) = 6.37991 7.37824 6.89716
#
# Compressibility (1/GPa) = 0.02368601
#
# Stress axis : x y z
#
# Youngs Moduli (GPa) = 106.64524 105.96558 48.24121
#
# Poissons Ratio (x) = 0.35224 0.21418
# Poissons Ratio (y) = 0.35450 0.00794
# Poissons Ratio (z) = 0.47349 0.01744
#
# Static dielectric constant tensor:
#      x y z
#    x 1.662120 0.000000 0.035890 
#    y 0.000000 1.848880 0.000000 
#    z 0.035890 0.000000 1.739160 
# 
# From -- ./inp_files/13329.got.cif
#   From: 2010.05.17/outbox.cif.g08.bks.cpg/sg13_7_cif.got.tgz:13329.got - 2010.06.03 16:44:36.
