data_PCOD9230593
_publ_section_title
;
Structure prediction by ZEFSAII (Michael W. Deem and Ramdas Pophale) SiO2 
 PCOD9230593
Probable space group: P 2/C
;
_chemical_formula_sum "Si O2"
_cell_formula_units_Z 28
_cell_length_a 22.462764
_cell_length_b 11.041554
_cell_length_c 11.436381
_cell_angle_alpha 90.000000
_cell_angle_beta 154.090246
_cell_angle_gamma 90.000000
_cell_volume 1239.420418
_symmetry_space_group_name_H-M "P 2/C"
_symmetry_group_IT_number 13
_symmetry_cell_setting 'monoclinic'
loop_
_space_group_symop_operation_xyz
x,y,z
-x,y,1/2-z
-x,-y,-z
x,-y,1/2+z
loop_
_atom_site_type_symbol
_atom_site_label
_atom_site_fract_x
_atom_site_fract_y
_atom_site_fract_z
Si Si1 0.268111 0.795560 0.472592
Si Si2 0.979342 0.130051 0.525499
Si Si3 0.526073 0.874541 0.479915
Si Si4 0.342221 0.538691 0.239926
Si Si5 0.246818 0.799849 0.041815
Si Si6 0.334160 0.452197 0.973060
Si Si7 0.244676 0.997776 0.740960
O O1 0.392710 0.790937 0.783844
O O2 0.278196 0.681771 0.404684
O O3 0.275078 0.916315 0.405537
O O4 0.126282 0.807627 0.292285
O O5 0.884267 0.088317 0.464286
O O6 0.887167 0.207248 0.272817
O O7 0.000000 0.000000 0.500000
O O8 0.377293 0.826997 0.191120
O O9 0.500000 0.000000 0.500000
O O10 0.629039 0.911978 0.562566
O O11 0.500000 0.500000 0.500000
O O12 0.298604 0.676311 0.190195
O O13 0.290251 0.517967 0.015885
O O14 0.293242 0.482755 0.278134
O O15 0.226280 0.908410 0.099735
O O16 0.500000 0.442580 0.250000
#
# Coordination Sequence:
#
# PCOD9230593 Si02
#       7
#     4   4   4   4   4   4   4
#     4  11  22  38  62  89 128 173 219 268 345 406
#     4  10  23  39  58  94 131 173 221 262 323 422
#     4  10  21  32  56  92 125 162 218 270 323 407
#     4  10  21  42  67  97 128 170 229 291 353 411
#     4  11  22  40  62  93 129 174 221 274 347 408
#     4  10  21  41  69  95 129 170 229 293 351 410
#     4  10  20  37  59  86 133 168 216 255 336 397
#
# _framework density 22.591204000000001
#
# number of rings (size 3 to 8) (size 9 to 14) (size 15 to 20)
#    0.000    1.714    1.429    5.143    2.000    8.000 
#   10.286    0.714    0.000    0.000    0.000    0.000 
#    0.000    0.000    0.000    0.000    0.000    0.000 
#
# Total GULP energy -156036.258676 kJ/mol
# GULP energy per Si atom -5572.723524 kJ/mol
# Density = 2.253979 g / cm^3
# Si number density = 22.591204 Si / 1000 Ang^3
#
#
#
# Elastic Constant Matrix: (Units=GPa)
#
#
# Indices 1 2 3 4 5 6 
#
# 1 181.0314 29.2713 28.3981 0.0000 -4.0266 0.0000
# 2 29.2713 38.4274 0.9023 0.0000 -2.1295 0.0000
# 3 28.3981 0.9023 62.7318 0.0000 5.2636 0.0000
# 4 0.0000 0.0000 0.0000 23.7169 0.0000 1.1342
# 5 -4.0266 -2.1295 5.2636 0.0000 33.0753 0.0000
# 6 0.0000 0.0000 0.0000 1.1342 0.0000 35.9429
#
#
#
# Elastic Compliance Matrix: (Units=1/GPa)
#
#
# Indices 1 2 3 4 5 6 
#
# 1 0.006859 -0.005096 -0.003116 0.000000 0.001003 0.000000
# 2 -0.005096 0.029919 0.001791 0.000000 0.001021 0.000000
# 3 -0.003116 0.001791 0.017583 0.000000 -0.003062 0.000000
# 4 0.000000 0.000000 0.000000 0.042228 0.000000 -0.001332
# 5 0.001003 0.001021 -0.003062 0.000000 0.030909 0.000000
# 6 0.000000 0.000000 0.000000 -0.001332 0.000000 0.027864
#
#
# Mechanical properties :
#
#
# Convention : Reuss Voigt Hill
#
# Bulk Modulus (GPa) = 24.08528 44.37044 34.22786
# Shear Modulus (GPa) = 27.46601 33.45494 30.46048
#
# Velocity S-wave (km/s) = 3.49059 3.85240 3.67595
# Velocity P-wave (km/s) = 5.18943 6.28261 5.76200
#
# Compressibility (1/GPa) = 0.04151913
#
# Stress axis : x y z
#
# Youngs Moduli (GPa) = 145.79479 33.42317 56.87455
#
# Poissons Ratio (x) = 0.17032 0.17721
# Poissons Ratio (y) = 0.74296 -0.10186
# Poissons Ratio (z) = 0.45427 -0.05986
#
# Static dielectric constant tensor:
#      x y z
#    x 1.963170 0.000000 -0.078510 
#    y 0.000000 1.898170 0.000000 
#    z -0.078510 0.000000 1.906960 
# 
# From -- ./inp_files/40814.got.cif
#   From: 2010.05.17/outbox.cif.g08.bks.cpg/sg13_21_cif.got.tgz:40814.got - 2010.06.03 16:44:36.
