data_PCOD9230842
_publ_section_title
;
Structure prediction by ZEFSAII (Michael W. Deem and Ramdas Pophale) SiO2 
 PCOD9230842
Probable space group: P 2/C
;
_chemical_formula_sum "Si O2"
_cell_formula_units_Z 22
_cell_length_a 7.311648
_cell_length_b 22.905179
_cell_length_c 7.997970
_cell_angle_alpha 90.000000
_cell_angle_beta 49.361781
_cell_angle_gamma 90.000000
_cell_volume 1016.429493
_symmetry_space_group_name_H-M "P 2/C"
_symmetry_group_IT_number 13
_symmetry_cell_setting 'monoclinic'
loop_
_space_group_symop_operation_xyz
x,y,z
-x,y,1/2-z
-x,-y,-z
x,-y,1/2+z
loop_
_atom_site_type_symbol
_atom_site_label
_atom_site_fract_x
_atom_site_fract_y
_atom_site_fract_z
Si Si1 0.724631 0.584552 0.380993
Si Si2 0.000000 0.764553 0.250000
Si Si3 0.500000 0.487698 0.750000
Si Si4 0.495461 0.702274 0.051822
Si Si5 0.742306 0.801916 0.716276
Si Si6 0.000000 0.024503 0.750000
Si Si7 0.742274 0.070326 0.214161
O O1 0.646269 0.531562 0.545367
O O2 0.693038 0.555298 0.219196
O O3 0.528515 0.636822 0.506307
O O4 0.000000 0.603118 0.250000
O O5 0.241678 0.728931 0.142242
O O6 0.950515 0.797255 0.453942
O O7 0.500000 0.700323 0.250000
O O8 0.703376 0.745317 0.856545
O O9 0.500000 0.803780 0.750000
O O10 0.754547 0.865762 0.790441
O O11 0.787469 0.980227 0.821364
O O12 0.058995 0.061731 0.550801
O O13 0.500000 0.065253 0.250000
#
# Coordination Sequence:
#
# PCOD9230842 Si02
#       7
#     4   2   2   4   4   2   4
#     4  11  22  41  63  90 121 159 197 244 303 359
#     4  10  21  40  60  82 116 163 198 246 306 346
#     4  10  24  40  64  92 122 152 200 248 292 360
#     4  11  23  38  60  89 123 159 203 246 299 361
#     4   9  21  39  61  87 120 161 202 250 302 359
#     4  10  21  34  62  88 114 159 196 246 308 362
#     4  10  20  38  57  87 119 150 200 248 301 359
#
# _framework density 21.644393000000001
#
# number of rings (size 3 to 8) (size 9 to 14) (size 15 to 20)
#    0.000    1.818    1.818    1.636    3.818    2.182 
#    0.000    4.545    0.000    0.000    0.000    0.000 
#    0.000    0.000    0.000    0.000    0.000    0.000 
#
# Total GULP energy -122615.171768 kJ/mol
# GULP energy per Si atom -5573.416899 kJ/mol
# Density = 2.159513 g / cm^3
# Si number density = 21.644393 Si / 1000 Ang^3
#
#
#
# Elastic Constant Matrix: (Units=GPa)
#
#
# Indices 1 2 3 4 5 6 
#
# 1 84.8669 29.1049 1.9497 0.0000 3.5020 0.0000
# 2 29.1049 145.1054 33.9601 0.0000 1.6244 0.0000
# 3 1.9497 33.9601 55.4428 0.0000 2.4101 0.0000
# 4 0.0000 0.0000 0.0000 13.8505 0.0000 -1.3923
# 5 3.5020 1.6244 2.4101 0.0000 23.2142 0.0000
# 6 0.0000 0.0000 0.0000 -1.3923 0.0000 -3.1429
#
#
#
# Elastic Compliance Matrix: (Units=1/GPa)
#
#
# Indices 1 2 3 4 5 6 
#
# 1 0.012815 -0.002875 0.001392 0.000000 -0.001877 0.000000
# 2 -0.002875 0.008690 -0.005238 0.000000 0.000369 0.000000
# 3 0.001392 -0.005238 0.021285 0.000000 -0.002053 0.000000
# 4 0.000000 0.000000 0.000000 0.069122 0.000000 -0.030621
# 5 -0.001877 0.000369 -0.002053 0.000000 0.043547 0.000000
# 6 0.000000 0.000000 0.000000 -0.030621 0.000000 -0.304614
#
#
# Mechanical properties :
#
#
# Convention : Reuss Voigt Hill
#
# Bulk Modulus (GPa) = 34.07385 46.16050 40.11718
# Shear Modulus (GPa) = -39.70440 21.47773 -9.11334
#
# Velocity S-wave (km/s) = -4.28763 3.15350 -2.05417
# Velocity P-wave (km/s) = 2.95550 5.88493 3.59844
#
# Compressibility (1/GPa) = 0.02934802
#
# Stress axis : x y z
#
# Youngs Moduli (GPa) = 78.03592 115.07592 46.98109
#
# Poissons Ratio (x) = 0.33085 -0.06540
# Poissons Ratio (y) = 0.22436 0.24608
# Poissons Ratio (z) = -0.10863 0.60274
#
# Static dielectric constant tensor:
#      x y z
#    x 1.804910 0.000000 0.016170 
#    y 0.000000 1.824020 0.000000 
#    z 0.016170 0.000000 1.889030 
# 
# From -- ./inp_files/13422.got.cif
#   From: 2010.05.17/outbox.cif.g08.bks.cpg/sg13_7_cif.got.tgz:13422.got - 2010.06.03 16:44:36.
