data_PCOD9230903
_publ_section_title
;
Structure prediction by ZEFSAII (Michael W. Deem and Ramdas Pophale) SiO2 
 PCOD9230903
Probable space group: P 2/C
;
_chemical_formula_sum "Si O2"
_cell_formula_units_Z 24
_cell_length_a 19.782842
_cell_length_b 6.940492
_cell_length_c 14.435285
_cell_angle_alpha 90.000000
_cell_angle_beta 142.875365
_cell_angle_gamma 90.000000
_cell_volume 1196.239608
_symmetry_space_group_name_H-M "P 2/C"
_symmetry_group_IT_number 13
_symmetry_cell_setting 'monoclinic'
loop_
_space_group_symop_operation_xyz
x,y,z
-x,y,1/2-z
-x,-y,-z
x,-y,1/2+z
loop_
_atom_site_type_symbol
_atom_site_label
_atom_site_fract_x
_atom_site_fract_y
_atom_site_fract_z
Si Si1 0.772984 0.297457 0.850444
Si Si2 0.187679 0.573846 0.783927
Si Si3 0.574525 0.501873 0.424285
Si Si4 0.474716 0.224782 0.960115
Si Si5 0.880730 0.087743 0.397582
Si Si6 0.951293 0.436513 0.602855
O O1 0.791316 0.436977 0.782250
O O2 0.641172 0.276666 0.719797
O O3 0.813026 0.085269 0.868056
O O4 0.856546 0.399689 0.014011
O O5 0.183587 0.800850 0.754972
O O6 0.060593 0.527932 0.674273
O O7 0.294394 0.511185 0.961508
O O8 0.500000 0.513841 0.250000
O O9 0.537696 0.322622 0.451102
O O10 0.563170 0.674038 0.488241
O O11 0.500000 0.000000 0.000000
O O12 0.903369 0.259597 0.493441
O O13 0.000000 0.000000 0.500000
O O14 0.000000 0.355887 0.750000
#
# Coordination Sequence:
#
# PCOD9230903 Si02
#       6
#     4   4   4   4   4   4
#     4  10  20  38  63  83 115 154 195 240 294 352
#     4  10  20  38  60  84 115 154 194 240 289 358
#     4  10  23  41  64  87 121 163 202 248 307 358
#     4  10  22  42  64  91 119 158 208 253 297 357
#     4  11  18  37  61  83 112 158 193 227 294 356
#     4  11  23  35  55  90 121 148 191 243 295 350
#
# _framework density 20.062868999999999
#
# number of rings (size 3 to 8) (size 9 to 14) (size 15 to 20)
#    0.000    1.667    3.333    2.000    2.333    2.667 
#    0.000    0.000    0.000    0.000    0.000    0.000 
#    0.000    0.000    0.000    0.000    0.000    0.000 
#
# Total GULP energy -133697.764937 kJ/mol
# GULP energy per Si atom -5570.740206 kJ/mol
# Density = 2.001720 g / cm^3
# Si number density = 20.062869 Si / 1000 Ang^3
#
#
#
# Elastic Constant Matrix: (Units=GPa)
#
#
# Indices 1 2 3 4 5 6 
#
# 1 48.0800 16.2733 7.1506 0.0000 14.3949 0.0000
# 2 16.2733 134.3114 19.8047 0.0000 0.1112 0.0000
# 3 7.1506 19.8047 101.3499 0.0000 6.5855 0.0000
# 4 0.0000 0.0000 0.0000 21.6933 0.0000 9.2981
# 5 14.3949 0.1112 6.5855 0.0000 29.3930 0.0000
# 6 0.0000 0.0000 0.0000 9.2981 0.0000 18.3694
#
#
#
# Elastic Compliance Matrix: (Units=1/GPa)
#
#
# Indices 1 2 3 4 5 6 
#
# 1 0.025610 -0.003033 -0.000406 0.000000 -0.012440 0.000000
# 2 -0.003033 0.008028 -0.001471 0.000000 0.001784 0.000000
# 3 -0.000406 -0.001471 0.010320 0.000000 -0.002108 0.000000
# 4 0.000000 0.000000 0.000000 0.058869 0.000000 -0.029798
# 5 -0.012440 0.001784 -0.002108 0.000000 0.040580 0.000000
# 6 0.000000 0.000000 0.000000 -0.029798 0.000000 0.069521
#
#
# Mechanical properties :
#
#
# Convention : Reuss Voigt Hill
#
# Bulk Modulus (GPa) = 29.29195 41.13316 35.21255
# Shear Modulus (GPa) = 21.35596 29.92530 25.64063
#
# Velocity S-wave (km/s) = 3.26613 3.86628 3.57881
# Velocity P-wave (km/s) = 5.37171 6.36219 5.88782
#
# Compressibility (1/GPa) = 0.03413908
#
# Stress axis : x y z
#
# Youngs Moduli (GPa) = 39.04728 124.56044 96.90097
#
# Poissons Ratio (x) = 0.37776 0.03934
# Poissons Ratio (y) = 0.11842 0.14252
# Poissons Ratio (z) = 0.01585 0.18320
#
# Static dielectric constant tensor:
#      x y z
#    x 1.831290 0.000000 0.047330 
#    y 0.000000 1.677430 0.000000 
#    z 0.047330 0.000000 1.859070 
# 
# From -- ./inp_files/56637.got.cif
#   From: 2010.05.17/outbox.cif.g08.bks.cpg/sg13_29_cif.got.tgz:56637.got - 2010.06.03 16:44:36.
