data_PCOD9230467
_publ_section_title
;
Structure prediction by ZEFSAII (Michael W. Deem and Ramdas Pophale) SiO2 
 PCOD9230467
Probable space group: P 2/C
;
_chemical_formula_sum "Si O2"
_cell_formula_units_Z 28
_cell_length_a 11.147716
_cell_length_b 9.329127
_cell_length_c 14.836941
_cell_angle_alpha 90.000000
_cell_angle_beta 115.722039
_cell_angle_gamma 90.000000
_cell_volume 1390.121464
_symmetry_space_group_name_H-M "P 2/C"
_symmetry_group_IT_number 13
_symmetry_cell_setting 'monoclinic'
loop_
_space_group_symop_operation_xyz
x,y,z
-x,y,1/2-z
-x,-y,-z
x,-y,1/2+z
loop_
_atom_site_type_symbol
_atom_site_label
_atom_site_fract_x
_atom_site_fract_y
_atom_site_fract_z
Si Si1 0.141097 0.714708 0.139979
Si Si2 0.804739 0.217721 0.047236
Si Si3 0.648843 0.500519 0.268544
Si Si4 0.930724 0.068872 0.564676
Si Si5 0.936655 0.504156 0.132440
Si Si6 0.274902 0.681471 0.530974
Si Si7 0.557793 0.353505 0.062956
O O1 0.266320 0.641054 0.227967
O O2 0.049060 0.840289 0.151034
O O3 0.038545 0.581423 0.097790
O O4 0.192996 0.766901 0.060272
O O5 0.911290 0.336578 0.113989
O O6 0.659970 0.264086 0.035834
O O7 0.856158 0.060295 0.090330
O O8 0.500000 0.541182 0.250000
O O9 0.710088 0.412075 0.372835
O O10 0.636963 0.398983 0.178600
O O11 0.821896 0.183132 0.494888
O O12 0.000000 0.000000 0.500000
O O13 0.000000 0.535039 0.250000
O O14 0.795843 0.578815 0.065640
O O15 0.422596 0.725847 0.548772
O O16 0.500000 0.500000 0.000000
#
# Coordination Sequence:
#
# PCOD9230467 Si02
#       7
#     4   4   4   4   4   4   4
#     4  10  20  37  60  87 120 157 201 249 303 357
#     4  11  20  38  57  92 122 163 199 251 302 366
#     4  10  20  36  65  95 115 157 208 258 305 358
#     4   9  22  37  61  84 124 162 201 243 302 374
#     4  11  21  35  62  91 119 156 209 257 304 355
#     4  10  21  40  62  91 121 163 202 255 310 360
#     4  11  21  37  64  96 124 150 211 263 301 360
#
# _framework density 20.142123999999999
#
# number of rings (size 3 to 8) (size 9 to 14) (size 15 to 20)
#    0.000    1.714    2.857    2.143    4.000    0.571 
#    0.000    2.857    6.286   20.571    0.000    0.000 
#    0.000    0.000    0.000    0.000    0.000    0.000 
#
# Total GULP energy -156178.347350 kJ/mol
# GULP energy per Si atom -5577.798120 kJ/mol
# Density = 2.009628 g / cm^3
# Si number density = 20.142124 Si / 1000 Ang^3
#
#
#
# Elastic Constant Matrix: (Units=GPa)
#
#
# Indices 1 2 3 4 5 6 
#
# 1 131.3963 61.2097 20.5027 0.0000 12.7920 0.0000
# 2 61.2097 127.1835 30.7477 0.0000 22.4012 0.0000
# 3 20.5027 30.7477 85.9201 0.0000 8.3389 0.0000
# 4 0.0000 0.0000 0.0000 13.2088 0.0000 9.8314
# 5 12.7920 22.4012 8.3389 0.0000 21.5411 0.0000
# 6 0.0000 0.0000 0.0000 9.8314 0.0000 43.2932
#
#
#
# Elastic Compliance Matrix: (Units=1/GPa)
#
#
# Indices 1 2 3 4 5 6 
#
# 1 0.009868 -0.004406 -0.000679 0.000000 -0.001015 0.000000
# 2 -0.004406 0.012172 -0.002421 0.000000 -0.009104 0.000000
# 3 -0.000679 -0.002421 0.012867 0.000000 -0.002060 0.000000
# 4 0.000000 0.000000 0.000000 0.091106 0.000000 -0.020689
# 5 -0.001015 -0.009104 -0.002060 0.000000 0.057291 0.000000
# 6 0.000000 0.000000 0.000000 -0.020689 0.000000 0.027797
#
#
# Mechanical properties :
#
#
# Convention : Reuss Voigt Hill
#
# Bulk Modulus (GPa) = 50.26598 63.26891 56.76744
# Shear Modulus (GPa) = 21.48269 31.07793 26.28031
#
# Velocity S-wave (km/s) = 3.26936 3.93228 3.61604
# Velocity P-wave (km/s) = 6.26589 7.21779 6.75862
#
# Compressibility (1/GPa) = 0.01989417
#
# Stress axis : x y z
#
# Youngs Moduli (GPa) = 101.33817 82.15538 77.71727
#
# Poissons Ratio (x) = 0.36199 0.05280
# Poissons Ratio (y) = 0.44651 0.18815
# Poissons Ratio (z) = 0.06885 0.19889
#
# Static dielectric constant tensor:
#      x y z
#    x 1.776420 0.000000 -0.016940 
#    y 0.000000 1.732140 0.000000 
#    z -0.016940 0.000000 1.734960 
# 
# From -- ./inp_files/50433.got.cif
#   From: 2010.05.17/outbox.cif.g08.bks.cpg/sg13_26_cif.got.tgz:50433.got - 2010.06.03 16:44:36.
