data_PCOD9230675
_publ_section_title
;
Structure prediction by ZEFSAII (Michael W. Deem and Ramdas Pophale) SiO2 
 PCOD9230675
Probable space group: P 2/C
;
_chemical_formula_sum "Si O2"
_cell_formula_units_Z 32
_cell_length_a 13.478114
_cell_length_b 9.661569
_cell_length_c 14.256390
_cell_angle_alpha 90.000000
_cell_angle_beta 57.814057
_cell_angle_gamma 90.000000
_cell_volume 1571.169162
_symmetry_space_group_name_H-M "P 2/C"
_symmetry_group_IT_number 13
_symmetry_cell_setting 'monoclinic'
loop_
_space_group_symop_operation_xyz
x,y,z
-x,y,1/2-z
-x,-y,-z
x,-y,1/2+z
loop_
_atom_site_type_symbol
_atom_site_label
_atom_site_fract_x
_atom_site_fract_y
_atom_site_fract_z
Si Si1 0.330556 0.017618 0.170765
Si Si2 0.864777 0.203045 0.472451
Si Si3 0.244032 0.663617 0.025631
Si Si4 0.872634 0.053439 0.852937
Si Si5 0.922451 0.367314 0.067190
Si Si6 0.628550 0.103491 0.653573
Si Si7 0.559094 0.147149 0.046623
Si Si8 0.129163 0.427003 0.194944
O O1 0.418904 0.146349 0.120040
O O2 0.208396 0.028490 0.180376
O O3 0.318808 0.974711 0.283120
O O4 0.399491 0.896593 0.078303
O O5 0.729348 0.212416 0.574798
O O6 0.875468 0.296661 0.373366
O O7 0.975598 0.249994 0.479007
O O8 0.876721 0.042207 0.441844
O O9 0.183465 0.798804 0.100923
O O10 0.221771 0.534048 0.104947
O O11 0.177612 0.645215 0.960609
O O12 0.377948 0.714523 0.951138
O O13 0.000000 0.071152 0.750000
O O14 0.864551 0.385421 0.199337
O O15 0.000000 0.500000 0.000000
O O16 0.500000 0.157972 0.750000
O O17 0.602403 0.983835 0.589075
O O18 0.000000 0.496519 0.250000
#
# Coordination Sequence:
#
# PCOD9230675 Si02
#       8
#     4   4   4   4   4   4   4   4
#     4   9  19  36  60  85 129 164 200 255 332 373
#     4  11  22  40  58  93 129 166 208 262 329 382
#     4  11  21  39  63  92 130 162 225 258 308 391
#     4  11  23  36  60  97 131 157 209 276 315 377
#     4  11  23  38  63  90 131 181 211 252 326 391
#     4  10  20  37  61  91 124 168 209 258 320 390
#     4   9  19  38  58  91 118 165 211 260 309 381
#     4  10  21  40  60  85 134 177 208 253 326 393
#
# _framework density 20.366997999999999
#
# number of rings (size 3 to 8) (size 9 to 14) (size 15 to 20)
#    0.000    1.750    5.000    1.500    1.750    3.500 
#    0.000    0.000    0.000    3.000    0.000    0.000 
#    0.000    0.000    0.000    0.000    0.000    0.000 
#
# Total GULP energy -178432.590275 kJ/mol
# GULP energy per Si atom -5576.018446 kJ/mol
# Density = 2.032064 g / cm^3
# Si number density = 20.366998 Si / 1000 Ang^3
#
#
#
# Elastic Constant Matrix: (Units=GPa)
#
#
# Indices 1 2 3 4 5 6 
#
# 1 44.7694 6.5727 11.1521 0.0000 14.3809 0.0000
# 2 6.5727 34.3285 3.8359 0.0000 -7.4273 0.0000
# 3 11.1521 3.8359 75.3999 0.0000 3.2262 0.0000
# 4 0.0000 0.0000 0.0000 25.7086 0.0000 -9.0990
# 5 14.3809 -7.4273 3.2262 0.0000 16.5774 0.0000
# 6 0.0000 0.0000 0.0000 -9.0990 0.0000 31.7082
#
#
#
# Elastic Compliance Matrix: (Units=1/GPa)
#
#
# Indices 1 2 3 4 5 6 
#
# 1 0.037995 -0.015415 -0.003156 0.000000 -0.039253 0.000000
# 2 -0.015415 0.038904 -0.001026 0.000000 0.031002 0.000000
# 3 -0.003156 -0.001026 0.013799 0.000000 -0.000407 0.000000
# 4 0.000000 0.000000 0.000000 0.043295 0.000000 0.012424
# 5 -0.039253 0.031002 -0.000407 0.000000 0.108344 0.000000
# 6 0.000000 0.000000 0.000000 0.012424 0.000000 0.035103
#
#
# Mechanical properties :
#
#
# Convention : Reuss Voigt Hill
#
# Bulk Modulus (GPa) = 19.41564 21.95770 20.68667
# Shear Modulus (GPa) = 14.97899 23.66131 19.32015
#
# Velocity S-wave (km/s) = 2.71487 3.41214 3.08328
# Velocity P-wave (km/s) = 4.40238 5.13108 4.78064
#
# Compressibility (1/GPa) = 0.05150487
#
# Stress axis : x y z
#
# Youngs Moduli (GPa) = 26.31943 25.70430 72.46895
#
# Poissons Ratio (x) = 0.39622 0.22870
# Poissons Ratio (y) = 0.40571 0.07434
# Poissons Ratio (z) = 0.08306 0.02637
#
# Static dielectric constant tensor:
#      x y z
#    x 1.807870 0.000000 -0.032220 
#    y 0.000000 1.718880 0.000000 
#    z -0.032220 0.000000 1.789050 
# 
# From -- ./inp_files/53041.got.cif
#   From: 2010.05.17/outbox.cif.g08.bks.cpg/sg13_27_cif.got.tgz:53041.got - 2010.06.03 16:44:36.
