data_PCOD9230782
_publ_section_title
;
Structure prediction by ZEFSAII (Michael W. Deem and Ramdas Pophale) SiO2 
 PCOD9230782
Probable space group: P 2/C
;
_chemical_formula_sum "Si O2"
_cell_formula_units_Z 28
_cell_length_a 7.722293
_cell_length_b 9.035374
_cell_length_c 25.248206
_cell_angle_alpha 90.000000
_cell_angle_beta 43.773220
_cell_angle_gamma 90.000000
_cell_volume 1218.728875
_symmetry_space_group_name_H-M "P 2/C"
_symmetry_group_IT_number 13
_symmetry_cell_setting 'monoclinic'
loop_
_space_group_symop_operation_xyz
x,y,z
-x,y,1/2-z
-x,-y,-z
x,-y,1/2+z
loop_
_atom_site_type_symbol
_atom_site_label
_atom_site_fract_x
_atom_site_fract_y
_atom_site_fract_z
Si Si1 0.395162 0.238445 0.098924
Si Si2 0.465407 0.099939 0.919592
Si Si3 0.521251 0.256186 0.302237
Si Si4 0.767666 0.562451 0.461119
Si Si5 0.057524 0.741355 0.572435
Si Si6 0.624583 0.074803 0.774271
Si Si7 0.936799 0.695544 0.319754
O O1 0.373843 0.304237 0.163451
O O2 0.166298 0.270968 0.108898
O O3 0.418046 0.060699 0.095140
O O4 0.661615 0.300335 0.018071
O O5 0.431703 0.099732 0.864342
O O6 0.662014 0.232710 0.884427
O O7 0.228482 0.136851 0.006705
O O8 0.500000 0.341287 0.250000
O O9 0.228296 0.220864 0.374324
O O10 0.664785 0.100911 0.260312
O O11 0.500000 0.500000 0.500000
O O12 0.891900 0.422676 0.462435
O O13 0.945668 0.606605 0.372613
O O14 0.500000 0.135132 0.750000
O O15 0.876522 0.165364 0.725226
O O16 0.000000 0.614411 0.250000
#
# Coordination Sequence:
#
# PCOD9230782 Si02
#       7
#     4   4   4   4   4   4   4
#     4  10  22  38  65  95 122 170 213 263 328 387
#     4  10  20  37  64  98 119 163 223 265 326 381
#     4  10  24  42  58  94 133 163 216 271 326 382
#     4  10  21  41  63  96 128 170 220 261 327 393
#     4  11  23  41  65  92 129 170 208 276 321 388
#     4   9  21  37  59  94 129 165 205 275 326 384
#     4  10  20  38  65  93 132 168 217 269 323 392
#
# _framework density 22.974758000000001
#
# number of rings (size 3 to 8) (size 9 to 14) (size 15 to 20)
#    0.000    2.000    2.857    0.429    4.000    4.571 
#    5.143    0.714    0.000    0.000    0.000    0.000 
#    0.000    0.000    0.000    0.000    0.000    0.000 
#
# Total GULP energy -156022.042640 kJ/mol
# GULP energy per Si atom -5572.215809 kJ/mol
# Density = 2.292247 g / cm^3
# Si number density = 22.974758 Si / 1000 Ang^3
#
#
#
# Elastic Constant Matrix: (Units=GPa)
#
#
# Indices 1 2 3 4 5 6 
#
# 1 79.5093 3.1151 23.8374 0.0000 15.2927 0.0000
# 2 3.1151 58.4133 8.6761 0.0000 2.8829 0.0000
# 3 23.8374 8.6761 69.7777 0.0000 9.5983 0.0000
# 4 0.0000 0.0000 0.0000 -9.2348 0.0000 -14.6644
# 5 15.2927 2.8829 9.5983 0.0000 42.6371 0.0000
# 6 0.0000 0.0000 0.0000 -14.6644 0.0000 7.8135
#
#
#
# Elastic Compliance Matrix: (Units=1/GPa)
#
#
# Indices 1 2 3 4 5 6 
#
# 1 0.014734 0.000088 -0.004454 0.000000 -0.004288 0.000000
# 2 0.000088 0.017463 -0.002100 0.000000 -0.000740 0.000000
# 3 -0.004454 -0.002100 0.016382 0.000000 -0.001948 0.000000
# 4 0.000000 0.000000 0.000000 -0.027206 0.000000 -0.051060
# 5 -0.004288 -0.000740 -0.001948 0.000000 0.025480 0.000000
# 6 0.000000 0.000000 0.000000 -0.051060 0.000000 0.032154
#
#
# Mechanical properties :
#
#
# Convention : Reuss Voigt Hill
#
# Bulk Modulus (GPa) = 28.05362 30.99526 29.52444
# Shear Modulus (GPa) = 48.15911 19.71463 33.93687
#
# Velocity S-wave (km/s) = 4.58337 2.93251 3.84752
# Velocity P-wave (km/s) = 6.34404 4.99865 5.71110
#
# Compressibility (1/GPa) = 0.03564602
#
# Stress axis : x y z
#
# Youngs Moduli (GPa) = 67.87069 57.26376 61.04264
#
# Poissons Ratio (x) = -0.00501 0.27191
# Poissons Ratio (y) = -0.00594 0.12816
# Poissons Ratio (z) = 0.30233 0.12023
#
# Static dielectric constant tensor:
#      x y z
#    x 1.985230 0.000000 -0.029780 
#    y 0.000000 1.897290 0.000000 
#    z -0.029780 0.000000 2.074420 
# 
# From -- ./inp_files/91429.got.cif
#   From: 2010.05.17/outbox.cif.g08.bks.cpg/sg13_46_cif.got.tgz:91429.got - 2010.06.03 16:44:36.
