data_PCOD9230946
_publ_section_title
;
Structure prediction by ZEFSAII (Michael W. Deem and Ramdas Pophale) SiO2 
 PCOD9230946
Probable space group: P 2/C
;
_chemical_formula_sum "Si O2"
_cell_formula_units_Z 28
_cell_length_a 7.842674
_cell_length_b 18.161131
_cell_length_c 18.948333
_cell_angle_alpha 90.000000
_cell_angle_beta 145.872996
_cell_angle_gamma 90.000000
_cell_volume 1514.131280
_symmetry_space_group_name_H-M "P 2/C"
_symmetry_group_IT_number 13
_symmetry_cell_setting 'monoclinic'
loop_
_space_group_symop_operation_xyz
x,y,z
-x,y,1/2-z
-x,-y,-z
x,-y,1/2+z
loop_
_atom_site_type_symbol
_atom_site_label
_atom_site_fract_x
_atom_site_fract_y
_atom_site_fract_z
Si Si1 0.207014 0.161346 0.500555
Si Si2 0.204794 0.161346 0.999445
Si Si3 0.994547 0.319409 0.398171
Si Si4 0.401861 0.319409 0.101828
Si Si5 0.296279 0.564724 0.898139
Si Si6 0.303536 0.084133 0.250000
Si Si7 0.807670 0.922050 0.250000
O O1 0.530546 0.126659 0.627199
O O2 0.014129 0.154529 0.507065
O O3 0.199811 0.247151 0.477966
O O4 0.028252 0.116430 0.378782
O O5 0.287945 0.247151 0.022034
O O6 0.513124 0.116430 0.121218
O O7 0.021746 0.126659 0.872800
O O8 0.707250 0.298322 0.250000
O O9 0.846899 0.339620 0.423449
O O10 0.167373 0.384465 0.417400
O O11 0.497775 0.384465 0.082600
O O12 0.000000 0.541042 0.750000
O O13 0.500000 0.500000 0.000000
O O14 0.500000 0.110227 0.250000
O O15 0.301914 0.996216 0.250000
O O16 0.000000 0.949632 0.250000
#
# Coordination Sequence:
#
# PCOD9230946 Si02
#       7
#     4   4   4   4   4   4   4
#     4  10  20  38  61  82 108 150 201 246 292 345
#     4  10  20  38  61  82 108 150 201 246 292 345
#     4   9  18  37  64  90 114 151 200 239 281 346
#     4   9  18  37  64  90 114 151 200 239 281 346
#     4  10  22  40  62  92 121 155 184 228 287 347
#     4  10  20  38  62  80 104 149 202 250 293 346
#     4  12  26  36  46  82 124 157 188 244 299 346
#
# _framework density 18.492450999999999
#
# number of rings (size 3 to 8) (size 9 to 14) (size 15 to 20)
#    0.000    2.000    1.429    2.143    2.000    5.143 
#    2.571    0.000    0.000    0.000    0.000    0.000 
#    0.000    0.000    0.000    0.000    0.000    0.000 
#
# Total GULP energy -156286.108469 kJ/mol
# GULP energy per Si atom -5581.646731 kJ/mol
# Density = 1.845036 g / cm^3
# Si number density = 18.492451 Si / 1000 Ang^3
#
#
#
# Elastic Constant Matrix: (Units=GPa)
#
#
# Indices 1 2 3 4 5 6 
#
# 1 57.0884 36.0666 31.4107 0.0000 0.1204 0.0000
# 2 36.0666 99.0763 71.4947 0.0000 -0.2910 0.0000
# 3 31.4107 71.4947 145.0578 0.0000 -0.8427 0.0000
# 4 0.0000 0.0000 0.0000 33.8308 0.0000 0.0083
# 5 0.1204 -0.2910 -0.8427 0.0000 5.5254 0.0000
# 6 0.0000 0.0000 0.0000 0.0083 0.0000 34.8697
#
#
#
# Elastic Compliance Matrix: (Units=1/GPa)
#
#
# Indices 1 2 3 4 5 6 
#
# 1 0.022917 -0.007388 -0.001328 0.000000 -0.001091 0.000000
# 2 -0.007388 0.018047 -0.007295 0.000000 -0.000001 0.000000
# 3 -0.001328 -0.007295 0.010784 0.000000 0.001289 0.000000
# 4 0.000000 0.000000 0.000000 0.029559 0.000000 -0.000007
# 5 -0.001091 -0.000001 0.001289 0.000000 0.181204 0.000000
# 6 0.000000 0.000000 0.000000 -0.000007 0.000000 0.028678
#
#
# Mechanical properties :
#
#
# Convention : Reuss Voigt Hill
#
# Bulk Modulus (GPa) = 50.69103 64.35185 57.52144
# Shear Modulus (GPa) = 15.16141 25.66187 20.41164
#
# Velocity S-wave (km/s) = 2.86644 3.72922 3.32593
# Velocity P-wave (km/s) = 6.19892 7.30871 6.77657
#
# Compressibility (1/GPa) = 0.01972736
#
# Stress axis : x y z
#
# Youngs Moduli (GPa) = 43.63639 55.41194 92.72779
#
# Poissons Ratio (x) = 0.40936 0.12311
# Poissons Ratio (y) = 0.32236 0.67645
# Poissons Ratio (z) = 0.05793 0.40423
#
# Static dielectric constant tensor:
#      x y z
#    x 1.653460 0.000000 0.000200 
#    y 0.000000 1.600190 0.000000 
#    z 0.000200 0.000000 1.628790 
# 
# From -- ./inp_files/76717.got.cif
#   From: 2010.05.17/outbox.cif.g08.bks.cpg/sg13_39_cif.got.tgz:76717.got - 2010.06.03 16:44:36.
