data_PCOD9230570
_publ_section_title
;
Structure prediction by ZEFSAII (Michael W. Deem and Ramdas Pophale) SiO2 
 PCOD9230570
Probable space group: P 2/C
;
_chemical_formula_sum "Si O2"
_cell_formula_units_Z 30
_cell_length_a 23.636807
_cell_length_b 13.090949
_cell_length_c 9.274757
_cell_angle_alpha 90.000000
_cell_angle_beta 152.800822
_cell_angle_gamma 90.000000
_cell_volume 1311.775780
_symmetry_space_group_name_H-M "P 2/C"
_symmetry_group_IT_number 13
_symmetry_cell_setting 'monoclinic'
loop_
_space_group_symop_operation_xyz
x,y,z
-x,y,1/2-z
-x,-y,-z
x,-y,1/2+z
loop_
_atom_site_type_symbol
_atom_site_label
_atom_site_fract_x
_atom_site_fract_y
_atom_site_fract_z
Si Si1 0.796803 0.508327 0.984391
Si Si2 0.000000 0.012777 0.750000
Si Si3 0.534883 0.393590 0.159789
Si Si4 0.772499 0.844489 0.815456
Si Si5 0.306827 0.643283 0.000379
Si Si6 0.831174 0.633084 0.317892
Si Si7 0.590229 0.975719 0.834900
Si Si8 0.177935 0.149932 0.751159
O O1 0.742933 0.426097 0.978533
O O2 0.867439 0.588641 0.244652
O O3 0.702552 0.573783 0.667132
O O4 0.869846 0.443173 0.032150
O O5 0.891798 0.085452 0.559402
O O6 0.929425 0.934778 0.482886
O O7 0.500000 0.393969 0.250000
O O8 0.679434 0.370303 0.473126
O O9 0.500000 0.500000 0.000000
O O10 0.443225 0.321610 0.860627
O O11 0.768063 0.745878 0.703501
O O12 0.654629 0.918473 0.529579
O O13 0.779917 0.811972 0.997461
O O14 0.864354 0.748692 0.425797
O O15 0.500000 0.930240 0.750000
O O16 0.500000 0.000000 0.500000
O O17 0.703650 0.901989 0.054092
#
# Coordination Sequence:
#
# PCOD9230570 Si02
#       8
#     4   2   4   4   4   4   4   4
#     4  10  20  37  58  95 136 179 223 268 321 407
#     4  10  26  52  76  94 126 170 252 304 348 406
#     4  12  20  32  51  89 137 186 225 262 317 396
#     4  11  24  45  72 101 131 183 231 290 352 415
#     4  11  21  36  63  94 137 184 225 271 333 407
#     4  11  21  36  61  94 136 181 223 267 331 405
#     4  11  24  43  67 101 143 174 220 288 358 424
#     4  11  24  45  72 101 131 181 233 290 350 414
#
# _framework density 22.869759999999999
#
# number of rings (size 3 to 8) (size 9 to 14) (size 15 to 20)
#    0.000    1.067    6.667    0.400    1.867    1.600 
#    4.800    0.000    0.000    4.800    0.000    0.000 
#    0.000    0.000    0.000    0.000    0.000    0.000 
#
# Total GULP energy -167537.477212 kJ/mol
# GULP energy per Si atom -5584.582574 kJ/mol
# Density = 2.281771 g / cm^3
# Si number density = 22.869760 Si / 1000 Ang^3
#
#
#
# Elastic Constant Matrix: (Units=GPa)
#
#
# Indices 1 2 3 4 5 6 
#
# 1 76.5619 38.2248 52.0041 0.0000 -21.7946 0.0000
# 2 38.2248 130.7387 36.7958 0.0000 2.2726 0.0000
# 3 52.0041 36.7958 133.2491 0.0000 4.7338 0.0000
# 4 0.0000 0.0000 0.0000 26.1440 0.0000 -9.7741
# 5 -21.7946 2.2726 4.7338 0.0000 34.6207 0.0000
# 6 0.0000 0.0000 0.0000 -9.7741 0.0000 20.8252
#
#
#
# Elastic Compliance Matrix: (Units=1/GPa)
#
#
# Indices 1 2 3 4 5 6 
#
# 1 0.028529 -0.005804 -0.010233 0.000000 0.019740 0.000000
# 2 -0.005804 0.009476 -0.000201 0.000000 -0.004249 0.000000
# 3 -0.010233 -0.000201 0.011840 0.000000 -0.008047 0.000000
# 4 0.000000 0.000000 0.000000 0.046389 0.000000 0.021772
# 5 0.019740 -0.004249 -0.008047 0.000000 0.042691 0.000000
# 6 0.000000 0.000000 0.000000 0.021772 0.000000 0.058237
#
#
# Mechanical properties :
#
#
# Convention : Reuss Voigt Hill
#
# Bulk Modulus (GPa) = 57.57172 66.06657 61.81915
# Shear Modulus (GPa) = 21.23799 30.55297 25.89548
#
# Velocity S-wave (km/s) = 3.05068 3.65904 3.36862
# Velocity P-wave (km/s) = 6.13492 6.84122 6.49767
#
# Compressibility (1/GPa) = 0.01736964
#
# Stress axis : x y z
#
# Youngs Moduli (GPa) = 35.05200 105.52750 84.46236
#
# Poissons Ratio (x) = 0.61252 0.86428
# Poissons Ratio (y) = 0.20346 0.01694
# Poissons Ratio (z) = 0.35868 0.02116
#
# Static dielectric constant tensor:
#      x y z
#    x 1.856830 0.000000 0.043120 
#    y 0.000000 1.902830 0.000000 
#    z 0.043120 0.000000 1.900330 
# 
# From -- ./inp_files/24241.got.cif
#   From: 2010.05.17/outbox.cif.g08.bks.cpg/sg13_13_cif.got.tgz:24241.got - 2010.06.03 16:44:36.
