data_PCOD9230846
_publ_section_title
;
Structure prediction by ZEFSAII (Michael W. Deem and Ramdas Pophale) SiO2 
 PCOD9230846
Probable space group: P 2/C
;
_chemical_formula_sum "Si O2"
_cell_formula_units_Z 20
_cell_length_a 12.959296
_cell_length_b 8.688438
_cell_length_c 21.104923
_cell_angle_alpha 90.000000
_cell_angle_beta 157.881098
_cell_angle_gamma 90.000000
_cell_volume 894.759595
_symmetry_space_group_name_H-M "P 2/C"
_symmetry_group_IT_number 13
_symmetry_cell_setting 'monoclinic'
loop_
_space_group_symop_operation_xyz
x,y,z
-x,y,1/2-z
-x,-y,-z
x,-y,1/2+z
loop_
_atom_site_type_symbol
_atom_site_label
_atom_site_fract_x
_atom_site_fract_y
_atom_site_fract_z
Si Si1 0.500000 0.134247 0.750000
Si Si2 0.807851 0.098351 0.046877
Si Si3 0.000000 0.652437 0.250000
Si Si4 0.302927 0.867245 0.338644
Si Si5 0.206179 0.365618 0.666866
Si Si6 0.196541 0.541105 0.982324
O O1 0.370562 0.046347 0.616635
O O2 0.261039 0.247643 0.640548
O O3 0.862890 0.279148 0.065768
O O4 0.610559 0.083726 0.995987
O O5 0.081664 0.002184 0.208988
O O6 0.752366 0.763018 0.131472
O O7 0.903901 0.549967 0.136646
O O8 0.230114 0.751493 0.239708
O O9 0.947494 0.469609 0.537438
O O10 0.477654 0.470134 0.824427
#
# Coordination Sequence:
#
# PCOD9230846 Si02
#       6
#     2   4   2   4   4   4
#     4   8  18  36  58  78 112 140 170 228 270 302
#     4  10  21  36  55  82 109 140 181 218 262 322
#     4  10  20  38  58  76 110 142 172 228 272 304
#     4   9  21  36  54  81 109 139 182 220 260 321
#     4   9  19  35  55  82 108 139 181 219 261 321
#     4   9  20  35  56  81 107 140 181 218 264 321
#
# _framework density 22.352373
#
# number of rings (size 3 to 8) (size 9 to 14) (size 15 to 20)
#    0.000    3.200    0.000    0.000    0.000   18.400 
#    0.000    0.000    0.000   33.600    0.000    0.000 
#    0.000    0.000    0.000    0.000    0.000    0.000 
#
# Total GULP energy -111624.031321 kJ/mol
# GULP energy per Si atom -5581.201566 kJ/mol
# Density = 2.230150 g / cm^3
# Si number density = 22.352373 Si / 1000 Ang^3
#
#
#
# Elastic Constant Matrix: (Units=GPa)
#
#
# Indices 1 2 3 4 5 6 
#
# 1 142.4846 34.7831 49.4344 0.0000 23.4754 0.0000
# 2 34.7831 63.5848 39.7145 0.0000 18.9941 0.0000
# 3 49.4344 39.7145 77.4783 0.0000 9.7216 0.0000
# 4 0.0000 0.0000 0.0000 18.2326 0.0000 4.6942
# 5 23.4754 18.9941 9.7216 0.0000 46.1761 0.0000
# 6 0.0000 0.0000 0.0000 4.6942 0.0000 1.3827
#
#
#
# Elastic Compliance Matrix: (Units=1/GPa)
#
#
# Indices 1 2 3 4 5 6 
#
# 1 0.009626 -0.001006 -0.005202 0.000000 -0.003385 0.000000
# 2 -0.001006 0.025838 -0.011641 0.000000 -0.007666 0.000000
# 3 -0.005202 -0.011641 0.021837 0.000000 0.002835 0.000000
# 4 0.000000 0.000000 0.000000 0.435640 0.000000 -1.479024
# 5 -0.003385 -0.007666 0.002835 0.000000 0.025934 0.000000
# 6 0.000000 0.000000 0.000000 -1.479024 0.000000 5.744629
#
#
# Mechanical properties :
#
#
# Convention : Reuss Voigt Hill
#
# Bulk Modulus (GPa) = 46.28591 59.04575 52.66583
# Shear Modulus (GPa) = 0.79285 23.79931 12.29608
#
# Velocity S-wave (km/s) = 0.59622 3.26656 2.34797
# Velocity P-wave (km/s) = 4.60720 6.37969 5.56448
#
# Compressibility (1/GPa) = 0.02160485
#
# Stress axis : x y z
#
# Youngs Moduli (GPa) = 103.88277 38.70292 45.79434
#
# Poissons Ratio (x) = 0.03893 0.23821
# Poissons Ratio (y) = 0.10449 0.53307
# Poissons Ratio (z) = 0.54036 0.45052
#
# Static dielectric constant tensor:
#      x y z
#    x 1.902890 0.000000 -0.028460 
#    y 0.000000 1.818580 0.000000 
#    z -0.028460 0.000000 1.834970 
# 
# From -- ./inp_files/42672.got.cif
#   From: 2010.05.17/outbox.cif.g08.bks.cpg/sg13_22_cif.got.tgz:42672.got - 2010.06.03 16:44:36.
