data_PCOD9230102
_publ_section_title
;
Structure prediction by ZEFSAII (Michael W. Deem and Ramdas Pophale) SiO2 
 PCOD9230102
Probable space group: P 2/C
;
_chemical_formula_sum "Si O2"
_cell_formula_units_Z 32
_cell_length_a 14.736869
_cell_length_b 5.365448
_cell_length_c 30.501006
_cell_angle_alpha 90.000000
_cell_angle_beta 137.201339
_cell_angle_gamma 90.000000
_cell_volume 1638.575138
_symmetry_space_group_name_H-M "P 2/C"
_symmetry_group_IT_number 13
_symmetry_cell_setting 'monoclinic'
loop_
_space_group_symop_operation_xyz
x,y,z
-x,y,1/2-z
-x,-y,-z
x,-y,1/2+z
loop_
_atom_site_type_symbol
_atom_site_label
_atom_site_fract_x
_atom_site_fract_y
_atom_site_fract_z
Si Si1 0.751292 0.463992 0.755356
Si Si2 0.087474 0.054499 0.847596
Si Si3 0.118508 0.521286 0.507123
Si Si4 0.725172 0.021935 0.915858
Si Si5 0.564252 0.161217 0.177196
Si Si6 0.198117 0.921313 0.294645
Si Si7 0.642229 0.878628 0.288970
Si Si8 0.033748 0.578060 0.878189
O O1 0.599619 0.549069 0.691593
O O2 0.795017 0.352061 0.724299
O O3 0.738359 0.280828 0.792163
O O4 0.875410 0.631644 0.814728
O O5 0.192251 0.069236 0.844775
O O6 0.071692 0.323762 0.865303
O O7 0.945198 0.990904 0.774257
O O8 0.111008 0.823311 0.888530
O O9 0.222682 0.295113 0.552659
O O10 0.063263 0.479032 0.438945
O O11 0.000000 0.500000 0.500000
O O12 0.180521 0.795927 0.535636
O O13 0.709099 0.029629 0.857209
O O14 0.579712 0.947301 0.883081
O O15 0.677691 0.057781 0.184557
O O16 0.598281 0.091768 0.239590
O O17 0.500000 0.747523 0.250000
#
# Coordination Sequence:
#
# PCOD9230102 Si02
#       8
#     4   4   4   4   4   4   4   4
#     4  10  20  35  62  92 129 157 202 253 322 379
#     4  10  21  37  63  93 128 157 201 253 314 381
#     4  12  27  45  66  88 123 171 221 258 294 360
#     4  11  26  42  64  92 124 169 211 260 310 365
#     4  10  21  37  62  93 129 158 196 259 319 385
#     4   9  20  34  59  98 127 157 194 251 327 380
#     4   9  21  35  56  91 125 162 195 248 315 381
#     4  11  23  40  62  88 123 165 207 259 302 361
#
# _framework density 19.529160999999998
#
# number of rings (size 3 to 8) (size 9 to 14) (size 15 to 20)
#    0.000    1.750    1.250    1.875   10.500    1.500 
#    0.000    0.000    0.000    4.500    0.000    0.000 
#    0.000    0.000    0.000    0.000    0.000    0.000 
#
# Total GULP energy -178200.698246 kJ/mol
# GULP energy per Si atom -5568.771820 kJ/mol
# Density = 1.948471 g / cm^3
# Si number density = 19.529161 Si / 1000 Ang^3
#
#
#
# Elastic Constant Matrix: (Units=GPa)
#
#
# Indices 1 2 3 4 5 6 
#
# 1 112.9491 17.9538 28.4170 0.0000 -17.5887 0.0000
# 2 17.9538 57.5077 11.0284 0.0000 -5.5188 0.0000
# 3 28.4170 11.0284 46.8229 0.0000 -10.0359 0.0000
# 4 0.0000 0.0000 0.0000 26.2841 0.0000 6.8801
# 5 -17.5887 -5.5188 -10.0359 0.0000 25.4673 0.0000
# 6 0.0000 0.0000 0.0000 6.8801 0.0000 4.8616
#
#
#
# Elastic Compliance Matrix: (Units=1/GPa)
#
#
# Indices 1 2 3 4 5 6 
#
# 1 0.011325 -0.002017 -0.005259 0.000000 0.005311 0.000000
# 2 -0.002017 0.018714 -0.002854 0.000000 0.001537 0.000000
# 3 -0.005259 -0.002854 0.026553 0.000000 0.006213 0.000000
# 4 0.000000 0.000000 0.000000 0.060432 0.000000 -0.085524
# 5 0.005311 0.001537 0.006213 0.000000 0.045716 0.000000
# 6 0.000000 0.000000 0.000000 -0.085524 0.000000 0.326728
#
#
# Mechanical properties :
#
#
# Convention : Reuss Voigt Hill
#
# Bulk Modulus (GPa) = 27.52542 36.89758 32.21150
# Shear Modulus (GPa) = 9.58151 21.98129 15.78140
#
# Velocity S-wave (km/s) = 2.21741 3.35858 2.84578
# Velocity P-wave (km/s) = 4.54764 5.82878 5.22760
#
# Compressibility (1/GPa) = 0.03633006
#
# Stress axis : x y z
#
# Youngs Moduli (GPa) = 88.30403 53.43714 37.66073
#
# Poissons Ratio (x) = 0.10779 0.19807
# Poissons Ratio (y) = 0.17812 0.10748
# Poissons Ratio (z) = 0.46442 0.15251
#
# Static dielectric constant tensor:
#      x y z
#    x 1.707660 0.000000 0.035500 
#    y 0.000000 1.817760 0.000000 
#    z 0.035500 0.000000 1.680790 
# 
# From -- ./inp_files/96860.got.cif
#   From: 2010.05.17/outbox.cif.g08.bks.cpg/sg13_49_cif.got.tgz:96860.got - 2010.06.03 16:44:36.
