data_PCOD9230942
_publ_section_title
;
Structure prediction by ZEFSAII (Michael W. Deem and Ramdas Pophale) SiO2 
 PCOD9230942
Probable space group: P 2/C
;
_chemical_formula_sum "Si O2"
_cell_formula_units_Z 30
_cell_length_a 20.094982
_cell_length_b 5.432969
_cell_length_c 28.670958
_cell_angle_alpha 90.000000
_cell_angle_beta 153.676639
_cell_angle_gamma 90.000000
_cell_volume 1388.029391
_symmetry_space_group_name_H-M "P 2/C"
_symmetry_group_IT_number 13
_symmetry_cell_setting 'monoclinic'
loop_
_space_group_symop_operation_xyz
x,y,z
-x,y,1/2-z
-x,-y,-z
x,-y,1/2+z
loop_
_atom_site_type_symbol
_atom_site_label
_atom_site_fract_x
_atom_site_fract_y
_atom_site_fract_z
Si Si1 0.849538 0.402532 0.769331
Si Si2 0.174143 0.262088 0.987839
Si Si3 0.586431 0.631284 0.375983
Si Si4 0.804612 0.882113 0.580597
Si Si5 0.840934 0.884032 0.709240
Si Si6 0.766773 0.613362 0.324737
Si Si7 0.196731 0.119814 0.101965
Si Si8 0.500000 0.024157 0.250000
O O1 0.786473 0.640832 0.702456
O O2 0.788230 0.387709 0.782958
O O3 0.030088 0.430987 0.887859
O O4 0.826661 0.140526 0.728579
O O5 0.206046 0.113445 0.960853
O O6 0.327423 0.406594 0.093957
O O7 0.130324 0.119705 0.007852
O O8 0.688303 0.691261 0.484946
O O9 0.412473 0.607534 0.278443
O O10 0.596478 0.848379 0.344657
O O11 0.771153 0.918141 0.614035
O O12 0.982073 0.828690 0.688231
O O13 0.839429 0.369429 0.393135
O O14 0.828881 0.865919 0.386724
O O15 0.376716 0.137438 0.206451
#
# Coordination Sequence:
#
# PCOD9230942 Si02
#       8
#     4   4   4   4   4   4   4   2
#     4  11  24  44  62  90 127 169 206 261 314 368
#     4  11  22  38  68  93 127 159 219 261 313 370
#     4  11  21  39  62  93 127 162 209 255 311 376
#     4  10  22  38  66  97 118 156 213 270 311 365
#     4  10  23  42  67  90 123 159 213 267 316 356
#     4  11  26  40  61  89 134 170 202 251 315 376
#     4  11  22  39  60  94 126 170 205 252 308 376
#     4  10  20  38  60  94 132 162 204 258 318 364
#
# _framework density 21.613375999999999
#
# number of rings (size 3 to 8) (size 9 to 14) (size 15 to 20)
#    0.000    1.333    2.667    3.200    3.733    2.667 
#    0.000    1.333    0.000    0.000    0.000    0.000 
#    0.000    0.000    0.000    0.000    0.000    0.000 
#
# Total GULP energy -167466.012803 kJ/mol
# GULP energy per Si atom -5582.200427 kJ/mol
# Density = 2.156418 g / cm^3
# Si number density = 21.613376 Si / 1000 Ang^3
#
#
#
# Elastic Constant Matrix: (Units=GPa)
#
#
# Indices 1 2 3 4 5 6 
#
# 1 132.5874 82.7100 30.1498 0.0000 -37.8746 0.0000
# 2 82.7100 138.4105 38.2917 0.0000 -30.6740 0.0000
# 3 30.1498 38.2917 68.8348 0.0000 -26.0560 0.0000
# 4 0.0000 0.0000 0.0000 16.7108 0.0000 2.0651
# 5 -37.8746 -30.6740 -26.0560 0.0000 47.2308 0.0000
# 6 0.0000 0.0000 0.0000 2.0651 0.0000 22.8965
#
#
#
# Elastic Compliance Matrix: (Units=1/GPa)
#
#
# Indices 1 2 3 4 5 6 
#
# 1 0.013571 -0.006715 0.000329 0.000000 0.006703 0.000000
# 2 -0.006715 0.012405 -0.003726 0.000000 0.000616 0.000000
# 3 0.000329 -0.003726 0.019768 0.000000 0.008749 0.000000
# 4 0.000000 0.000000 0.000000 0.060516 0.000000 -0.005458
# 5 0.006703 0.000616 0.008749 0.000000 0.031774 0.000000
# 6 0.000000 0.000000 0.000000 -0.005458 0.000000 0.044167
#
#
# Mechanical properties :
#
#
# Convention : Reuss Voigt Hill
#
# Bulk Modulus (GPa) = 39.18706 71.34841 55.26773
# Shear Modulus (GPa) = 23.70405 29.94635 26.82520
#
# Velocity S-wave (km/s) = 3.31529 3.72633 3.52680
# Velocity P-wave (km/s) = 5.72932 7.18310 6.49700
#
# Compressibility (1/GPa) = 0.02551863
#
# Stress axis : x y z
#
# Youngs Moduli (GPa) = 73.68509 80.61216 50.58601
#
# Poissons Ratio (x) = 0.54133 -0.01662
# Poissons Ratio (y) = 0.49481 0.18850
# Poissons Ratio (z) = -0.02421 0.30039
#
# Static dielectric constant tensor:
#      x y z
#    x 1.773190 0.000000 0.014800 
#    y 0.000000 1.854260 0.000000 
#    z 0.014800 0.000000 1.827670 
# 
# From -- ./inp_files/93410.got.cif
#   From: 2010.05.17/outbox.cif.g08.bks.cpg/sg13_47_cif.got.tgz:93410.got - 2010.06.03 16:44:36.
