data_PCOD9230533
_publ_section_title
;
Structure prediction by ZEFSAII (Michael W. Deem and Ramdas Pophale) SiO2 
 PCOD9230533
Probable space group: P 2/C
;
_chemical_formula_sum "Si O2"
_cell_formula_units_Z 32
_cell_length_a 11.269400
_cell_length_b 11.876066
_cell_length_c 11.741111
_cell_angle_alpha 90.000000
_cell_angle_beta 84.211163
_cell_angle_gamma 90.000000
_cell_volume 1563.371486
_symmetry_space_group_name_H-M "P 2/C"
_symmetry_group_IT_number 13
_symmetry_cell_setting 'monoclinic'
loop_
_space_group_symop_operation_xyz
x,y,z
-x,y,1/2-z
-x,-y,-z
x,-y,1/2+z
loop_
_atom_site_type_symbol
_atom_site_label
_atom_site_fract_x
_atom_site_fract_y
_atom_site_fract_z
Si Si1 0.121883 0.066664 0.973474
Si Si2 0.477661 0.873710 0.542606
Si Si3 0.231902 0.797839 0.662662
Si Si4 0.742406 0.653633 0.410602
Si Si5 0.259864 0.844263 0.912574
Si Si6 0.773525 0.586131 0.993364
Si Si7 0.116291 0.716607 0.317391
Si Si8 0.524905 0.333546 0.613966
O O1 0.120681 0.159159 0.872961
O O2 0.221071 0.971605 0.941916
O O3 0.146777 0.131620 0.088353
O O4 0.000000 0.000000 0.000000
O O5 0.361749 0.853514 0.629662
O O6 0.596820 0.837048 0.597152
O O7 0.457262 0.793489 0.434713
O O8 0.500000 0.000000 0.500000
O O9 0.206338 0.806784 0.797662
O O10 0.231095 0.671903 0.612879
O O11 0.780278 0.758003 0.485776
O O12 0.800347 0.538407 0.447735
O O13 0.776396 0.689807 0.279844
O O14 0.600365 0.631353 0.430761
O O15 0.866605 0.632502 0.077843
O O16 0.641890 0.598256 0.064117
O O17 0.000000 0.703116 0.250000
O O18 0.500000 0.338394 0.750000
#
# Coordination Sequence:
#
# PCOD9230533 Si02
#       8
#     4   4   4   4   4   4   4   4
#     4  11  25  44  66  93 127 167 218 273 328 393
#     4  10  20  37  56  95 131 167 214 261 325 396
#     4  10  23  41  62  94 129 170 210 264 332 386
#     4  11  24  41  68 101 130 170 222 265 328 392
#     4  11  24  37  66  96 128 168 209 266 328 398
#     4  10  23  44  66  96 134 170 219 274 321 389
#     4  11  25  44  70  93 127 173 222 274 330 386
#     4  10  20  37  64  99 129 174 215 261 330 398
#
# _framework density 20.468582000000001
#
# number of rings (size 3 to 8) (size 9 to 14) (size 15 to 20)
#    0.000    1.500    2.500    1.500    5.250    1.500 
#    0.000    0.000    0.000    0.000    0.000    0.000 
#    0.000    0.000    0.000    0.000    0.000    0.000 
#
# Total GULP energy -178742.206565 kJ/mol
# GULP energy per Si atom -5585.693955 kJ/mol
# Density = 2.042200 g / cm^3
# Si number density = 20.468582 Si / 1000 Ang^3
#
#
#
# Elastic Constant Matrix: (Units=GPa)
#
#
# Indices 1 2 3 4 5 6 
#
# 1 64.8779 12.5820 -6.5338 0.0000 13.4022 0.0000
# 2 12.5820 112.9774 39.3187 0.0000 6.8080 0.0000
# 3 -6.5338 39.3187 105.9842 0.0000 16.6692 0.0000
# 4 0.0000 0.0000 0.0000 15.7101 0.0000 -0.7759
# 5 13.4022 6.8080 16.6692 0.0000 22.0056 0.0000
# 6 0.0000 0.0000 0.0000 -0.7759 0.0000 15.3896
#
#
#
# Elastic Compliance Matrix: (Units=1/GPa)
#
#
# Indices 1 2 3 4 5 6 
#
# 1 0.019386 -0.002866 0.004514 0.000000 -0.014339 0.000000
# 2 -0.002866 0.010589 -0.004387 0.000000 0.001792 0.000000
# 3 0.004514 -0.004387 0.013124 0.000000 -0.011333 0.000000
# 4 0.000000 0.000000 0.000000 0.063812 0.000000 0.003217
# 5 -0.014339 0.001792 -0.011333 0.000000 0.062206 0.000000
# 6 0.000000 0.000000 0.000000 0.003217 0.000000 0.065141
#
#
# Mechanical properties :
#
#
# Convention : Reuss Voigt Hill
#
# Bulk Modulus (GPa) = 26.58134 41.61926 34.10030
# Shear Modulus (GPa) = 19.81947 26.51921 23.16934
#
# Velocity S-wave (km/s) = 3.11511 3.60336 3.36809
# Velocity P-wave (km/s) = 5.09442 6.13919 5.64104
#
# Compressibility (1/GPa) = 0.03762037
#
# Stress axis : x y z
#
# Youngs Moduli (GPa) = 51.58364 94.43529 76.19866
#
# Poissons Ratio (x) = 0.27062 -0.34393
# Poissons Ratio (y) = 0.14782 0.33429
# Poissons Ratio (z) = -0.23282 0.41429
#
# Static dielectric constant tensor:
#      x y z
#    x 1.791570 0.000000 -0.003570 
#    y 0.000000 1.704590 0.000000 
#    z -0.003570 0.000000 1.699390 
# 
# From -- ./inp_files/33854.got.cif
#   From: 2010.05.17/outbox.cif.g08.bks.cpg/sg13_17_cif.got.tgz:33854.got - 2010.06.03 16:44:36.
