data_PCOD9230125
_publ_section_title
;
Structure prediction by ZEFSAII (Michael W. Deem and Ramdas Pophale) SiO2 
 PCOD9230125
Probable space group: P 2/C
;
_chemical_formula_sum "Si O2"
_cell_formula_units_Z 28
_cell_length_a 11.308791
_cell_length_b 8.688224
_cell_length_c 19.742394
_cell_angle_alpha 90.000000
_cell_angle_beta 131.520772
_cell_angle_gamma 90.000000
_cell_volume 1452.324937
_symmetry_space_group_name_H-M "P 2/C"
_symmetry_group_IT_number 13
_symmetry_cell_setting 'monoclinic'
loop_
_space_group_symop_operation_xyz
x,y,z
-x,y,1/2-z
-x,-y,-z
x,-y,1/2+z
loop_
_atom_site_type_symbol
_atom_site_label
_atom_site_fract_x
_atom_site_fract_y
_atom_site_fract_z
Si Si1 0.738977 0.608572 0.121913
Si Si2 0.058662 0.248478 0.523143
Si Si3 0.521312 0.612166 0.911241
Si Si4 0.000000 0.625032 0.750000
Si Si5 0.742861 0.244775 0.250950
Si Si6 0.000000 0.856772 0.250000
Si Si7 0.971809 0.020511 0.381104
Si Si8 0.245451 0.541470 0.619767
O O1 0.602832 0.522738 0.114256
O O2 0.841869 0.748491 0.192400
O O3 0.876574 0.481736 0.162399
O O4 0.647049 0.645279 0.018034
O O5 0.072866 0.154678 0.457447
O O6 0.905313 0.356724 0.459764
O O7 0.197816 0.363303 0.597068
O O8 0.028950 0.123566 0.569388
O O9 0.411698 0.758922 0.853353
O O10 0.616630 0.569773 0.880714
O O11 0.893003 0.719173 0.760770
O O12 0.795511 0.093407 0.310254
O O13 0.720086 0.387478 0.293599
O O14 0.015827 0.959032 0.323631
#
# Coordination Sequence:
#
# PCOD9230125 Si02
#       8
#     4   4   4   2   4   2   4   4
#     4   9  21  35  59  88 115 152 196 249 298 346
#     4   9  21  37  60  92 114 152 207 254 297 351
#     4  10  20  37  57  88 124 149 194 256 301 357
#     4   9  19  34  58  86 114 146 204 252 286 344
#     4  10  21  36  58  89 117 160 196 248 305 358
#     4  11  21  38  66  84 118 164 206 244 296 368
#     4  10  21  37  57  86 124 150 197 250 301 359
#     4  10  20  35  66  86 114 155 207 251 295 354
#
# _framework density 19.279433000000001
#
# number of rings (size 3 to 8) (size 9 to 14) (size 15 to 20)
#    0.000    2.286    0.000    1.714   12.000    0.000 
#    2.571    0.714   15.714    0.000    0.000    0.000 
#    0.000    0.000    0.000    0.000    0.000    0.000 
#
# Total GULP energy -156010.896884 kJ/mol
# GULP energy per Si atom -5571.817746 kJ/mol
# Density = 1.923555 g / cm^3
# Si number density = 19.279433 Si / 1000 Ang^3
#
#
#
# Elastic Constant Matrix: (Units=GPa)
#
#
# Indices 1 2 3 4 5 6 
#
# 1 64.6134 -3.8581 12.6714 0.0000 -8.5231 0.0000
# 2 -3.8581 71.3136 21.8721 0.0000 -6.9869 0.0000
# 3 12.6714 21.8721 103.9392 0.0000 -3.0590 0.0000
# 4 0.0000 0.0000 0.0000 21.3219 0.0000 -4.3976
# 5 -8.5231 -6.9869 -3.0590 0.0000 29.8098 0.0000
# 6 0.0000 0.0000 0.0000 -4.3976 0.0000 4.7633
#
#
#
# Elastic Compliance Matrix: (Units=1/GPa)
#
#
# Indices 1 2 3 4 5 6 
#
# 1 0.016726 0.002115 -0.002336 0.000000 0.005038 0.000000
# 2 0.002115 0.015568 -0.003419 0.000000 0.003903 0.000000
# 3 -0.002336 -0.003419 0.010614 0.000000 -0.000380 0.000000
# 4 0.000000 0.000000 0.000000 0.057931 0.000000 0.053483
# 5 0.005038 0.003903 -0.000380 0.000000 0.035862 0.000000
# 6 0.000000 0.000000 0.000000 0.053483 0.000000 0.259317
#
#
# Mechanical properties :
#
#
# Convention : Reuss Voigt Hill
#
# Bulk Modulus (GPa) = 28.06794 33.47077 30.76935
# Shear Modulus (GPa) = 12.04317 25.12438 18.58377
#
# Velocity S-wave (km/s) = 2.50204 3.61386 3.10807
# Velocity P-wave (km/s) = 4.78926 5.90016 5.37350
#
# Compressibility (1/GPa) = 0.03562784
#
# Stress axis : x y z
#
# Youngs Moduli (GPa) = 59.78857 64.23445 94.21479
#
# Poissons Ratio (x) = -0.13585 0.22007
# Poissons Ratio (y) = -0.12645 0.32212
# Poissons Ratio (z) = 0.13965 0.21962
#
# Static dielectric constant tensor:
#      x y z
#    x 1.652360 0.000000 -0.016320 
#    y 0.000000 1.698290 0.000000 
#    z -0.016320 0.000000 1.741120 
# 
# From -- ./inp_files/78121.got.cif
#   From: 2010.05.17/outbox.cif.g08.bks.cpg/sg13_40_cif.got.tgz:78121.got - 2010.06.03 16:44:36.
