data_PCOD9230699
_publ_section_title
;
Structure prediction by ZEFSAII (Michael W. Deem and Ramdas Pophale) SiO2 
 PCOD9230699
Probable space group: P 2/C
;
_chemical_formula_sum "Si O2"
_cell_formula_units_Z 28
_cell_length_a 21.799967
_cell_length_b 8.633751
_cell_length_c 9.585247
_cell_angle_alpha 90.000000
_cell_angle_beta 129.482407
_cell_angle_gamma 90.000000
_cell_volume 1392.433979
_symmetry_space_group_name_H-M "P 2/C"
_symmetry_group_IT_number 13
_symmetry_cell_setting 'monoclinic'
loop_
_space_group_symop_operation_xyz
x,y,z
-x,y,1/2-z
-x,-y,-z
x,-y,1/2+z
loop_
_atom_site_type_symbol
_atom_site_label
_atom_site_fract_x
_atom_site_fract_y
_atom_site_fract_z
Si Si1 0.669966 0.175638 0.679535
Si Si2 0.818669 0.324371 0.031166
Si Si3 0.922737 0.823258 0.454168
Si Si4 0.100884 0.825882 0.610442
Si Si5 0.839271 0.320414 0.566735
Si Si6 0.677503 0.148972 0.356375
Si Si7 0.496378 0.840940 0.909514
O O1 0.737030 0.290428 0.832791
O O2 0.682285 0.139278 0.532625
O O3 0.579896 0.240573 0.565222
O O4 0.677817 0.018152 0.781511
O O5 0.888943 0.283531 0.025816
O O6 0.827720 0.501307 0.088673
O O7 0.830486 0.211520 0.179782
O O8 0.016775 0.814594 0.567691
O O9 0.896944 0.000355 0.446393
O O10 0.881672 0.771460 0.251753
O O11 0.108933 0.705106 0.496857
O O12 0.753200 0.245046 0.416402
O O13 0.591805 0.225778 0.195099
O O14 0.500000 0.876564 0.750000
O O15 0.500000 0.000000 0.000000
#
# Coordination Sequence:
#
# PCOD9230699 Si02
#       7
#     4   4   4   4   4   4   4
#     4  10  20  37  62  89 120 157 201 245 292 351
#     4  12  25  39  59  90 125 157 193 241 300 357
#     4  11  23  45  63  88 113 154 205 247 292 349
#     4  11  25  41  67  86 115 154 201 249 292 349
#     4  12  25  39  59  90 125 157 193 241 300 357
#     4  10  20  37  62  89 120 157 201 245 292 351
#     4   8  16  32  57  88 116 150 196 247 290 338
#
# _framework density 20.108673
#
# number of rings (size 3 to 8) (size 9 to 14) (size 15 to 20)
#    0.000    1.429    1.429    4.286    2.000    5.714 
#    0.000    0.714    0.000    0.000    0.000    0.000 
#    0.000    0.000    0.000    0.000    0.000    0.000 
#
# Total GULP energy -156352.912637 kJ/mol
# GULP energy per Si atom -5584.032594 kJ/mol
# Density = 2.006290 g / cm^3
# Si number density = 20.108673 Si / 1000 Ang^3
#
#
#
# Elastic Constant Matrix: (Units=GPa)
#
#
# Indices 1 2 3 4 5 6 
#
# 1 16.7025 2.7327 20.3851 0.0000 6.2850 0.0000
# 2 2.7327 42.7196 20.3838 0.0000 19.2786 0.0000
# 3 20.3851 20.3838 60.6205 0.0000 23.2246 0.0000
# 4 0.0000 0.0000 0.0000 -2.2005 0.0000 -14.1111
# 5 6.2850 19.2786 23.2246 0.0000 28.6155 0.0000
# 6 0.0000 0.0000 0.0000 -14.1111 0.0000 11.9864
#
#
#
# Elastic Compliance Matrix: (Units=1/GPa)
#
#
# Indices 1 2 3 4 5 6 
#
# 1 0.106710 0.011824 -0.040386 0.000000 0.001374 0.000000
# 2 0.011824 0.035564 -0.008359 0.000000 -0.019772 0.000000
# 3 -0.040386 -0.008359 0.039665 0.000000 -0.017690 0.000000
# 4 0.000000 0.000000 0.000000 -0.053155 0.000000 -0.062577
# 5 0.001374 -0.019772 -0.017690 0.000000 0.062323 0.000000
# 6 0.000000 0.000000 0.000000 -0.062577 0.000000 0.009758
#
#
# Mechanical properties :
#
#
# Convention : Reuss Voigt Hill
#
# Bulk Modulus (GPa) = 9.25108 23.00509 16.12808
# Shear Modulus (GPa) = 16.09065 12.78303 14.43684
#
# Velocity S-wave (km/s) = 2.83182 2.52404 2.68235
# Velocity P-wave (km/s) = 3.91188 4.46762 4.19895
#
# Compressibility (1/GPa) = 0.10809552
#
# Stress axis : x y z
#
# Youngs Moduli (GPa) = 9.37121 28.11863 25.21103
#
# Poissons Ratio (x) = -0.33247 1.01817
# Poissons Ratio (y) = -0.11081 0.21075
# Poissons Ratio (z) = 0.37847 0.23506
#
# Static dielectric constant tensor:
#      x y z
#    x 1.740650 0.000000 0.031840 
#    y 0.000000 1.671690 0.000000 
#    z 0.031840 0.000000 1.722090 
# 
# From -- ./inp_files/22995.got.cif
#   From: 2010.05.17/outbox.cif.g08.bks.cpg/sg13_12_cif.got.tgz:22995.got - 2010.06.03 16:44:36.
