data_PCOD9230048
_publ_section_title
;
Structure prediction by ZEFSAII (Michael W. Deem and Ramdas Pophale) SiO2 
 PCOD9230048
Probable space group: P 2/C
;
_chemical_formula_sum "Si O2"
_cell_formula_units_Z 26
_cell_length_a 22.918473
_cell_length_b 7.364409
_cell_length_c 15.316781
_cell_angle_alpha 90.000000
_cell_angle_beta 32.232580
_cell_angle_gamma 90.000000
_cell_volume 1378.825711
_symmetry_space_group_name_H-M "P 2/C"
_symmetry_group_IT_number 13
_symmetry_cell_setting 'monoclinic'
loop_
_space_group_symop_operation_xyz
x,y,z
-x,y,1/2-z
-x,-y,-z
x,-y,1/2+z
loop_
_atom_site_type_symbol
_atom_site_label
_atom_site_fract_x
_atom_site_fract_y
_atom_site_fract_z
Si Si1 0.755116 0.272120 0.421073
Si Si2 0.595833 0.315701 0.280418
Si Si3 0.084299 0.042920 0.817965
Si Si4 0.182022 0.633766 0.099179
Si Si5 0.000000 0.153437 0.750000
Si Si6 0.407453 0.599212 0.519731
Si Si7 0.439231 0.081101 0.735380
O O1 0.821919 0.106176 0.297685
O O2 0.834250 0.422783 0.361874
O O3 0.686136 0.373920 0.433286
O O4 0.672007 0.183516 0.596035
O O5 0.483156 0.424063 0.404995
O O6 0.630893 0.390566 0.331422
O O7 0.577897 0.100071 0.298192
O O8 0.691633 0.350168 0.088998
O O9 0.144063 0.239120 0.728745
O O10 0.014721 0.033245 0.816537
O O11 0.000000 0.000000 0.000000
O O12 0.106654 0.717512 0.117817
O O13 0.486677 0.772496 0.407128
O O14 0.500000 0.033215 0.750000
#
# Coordination Sequence:
#
# PCOD9230048 Si02
#       7
#     4   4   4   4   2   4   4
#     4  11  22  39  64  93 122 169 210 259 328 379
#     4  11  21  39  59  88 129 169 205 257 320 370
#     4  10  23  43  66  93 125 166 221 269 328 386
#     4  10  22  40  64  89 127 165 207 267 323 377
#     4   8  22  44  64  92 122 168 206 284 314 380
#     4  10  24  35  60  94 128 161 215 258 300 400
#     4  10  20  35  59  87 123 166 204 249 307 382
#
# _framework density 18.856624
#
# number of rings (size 3 to 8) (size 9 to 14) (size 15 to 20)
#    0.923    0.923    3.077    0.462    4.308    1.231 
#    0.000    1.538    0.000    0.000    0.000    0.000 
#    0.000    0.000    0.000    0.000    0.000    0.000 
#
# Total GULP energy -144812.292923 kJ/mol
# GULP energy per Si atom -5569.703574 kJ/mol
# Density = 1.881371 g / cm^3
# Si number density = 18.856624 Si / 1000 Ang^3
#
#
#
# Elastic Constant Matrix: (Units=GPa)
#
#
# Indices 1 2 3 4 5 6 
#
# 1 68.9382 16.0245 18.8699 0.0000 0.8489 0.0000
# 2 16.0245 73.0023 21.9156 0.0000 1.2386 0.0000
# 3 18.8699 21.9156 73.3445 0.0000 9.9204 0.0000
# 4 0.0000 0.0000 0.0000 25.2698 0.0000 -7.5900
# 5 0.8489 1.2386 9.9204 0.0000 20.0859 0.0000
# 6 0.0000 0.0000 0.0000 -7.5900 0.0000 17.8546
#
#
#
# Elastic Compliance Matrix: (Units=1/GPa)
#
#
# Indices 1 2 3 4 5 6 
#
# 1 0.016038 -0.002475 -0.003553 0.000000 0.001230 0.000000
# 2 -0.002475 0.015466 -0.004147 0.000000 0.001199 0.000000
# 3 -0.003553 -0.004147 0.016859 0.000000 -0.007921 0.000000
# 4 0.000000 0.000000 0.000000 0.045365 0.000000 0.019285
# 5 0.001230 0.001199 -0.007921 0.000000 0.053572 0.000000
# 6 0.000000 0.000000 0.000000 0.019285 0.000000 0.064206
#
#
# Mechanical properties :
#
#
# Convention : Reuss Voigt Hill
#
# Bulk Modulus (GPa) = 35.69662 36.54501 36.12081
# Shear Modulus (GPa) = 20.73020 23.20707 21.96864
#
# Velocity S-wave (km/s) = 3.31926 3.51196 3.41696
# Velocity P-wave (km/s) = 5.80186 5.98896 5.89615
#
# Compressibility (1/GPa) = 0.02801386
#
# Stress axis : x y z
#
# Youngs Moduli (GPa) = 62.35023 64.65815 59.31606
#
# Poissons Ratio (x) = 0.16001 0.21076
# Poissons Ratio (y) = 0.15430 0.24597
# Poissons Ratio (z) = 0.22154 0.26812
#
# Static dielectric constant tensor:
#      x y z
#    x 1.685130 0.000000 0.016260 
#    y 0.000000 1.647720 0.000000 
#    z 0.016260 0.000000 1.689040 
# 
# From -- ./inp_files/70897.got.cif
#   From: 2010.05.17/outbox.cif.g08.bks.cpg/sg13_36_cif.got.tgz:70897.got - 2010.06.03 16:44:36.
