data_PCOD9230990
_publ_section_title
;
Structure prediction by ZEFSAII (Michael W. Deem and Ramdas Pophale) SiO2 
 PCOD9230990
Probable space group: P 2/C
;
_chemical_formula_sum "Si O2"
_cell_formula_units_Z 28
_cell_length_a 6.297607
_cell_length_b 11.971553
_cell_length_c 19.263569
_cell_angle_alpha 90.000000
_cell_angle_beta 73.482419
_cell_angle_gamma 90.000000
_cell_volume 1392.387990
_symmetry_space_group_name_H-M "P 2/C"
_symmetry_group_IT_number 13
_symmetry_cell_setting 'monoclinic'
loop_
_space_group_symop_operation_xyz
x,y,z
-x,y,1/2-z
-x,-y,-z
x,-y,1/2+z
loop_
_atom_site_type_symbol
_atom_site_label
_atom_site_fract_x
_atom_site_fract_y
_atom_site_fract_z
Si Si1 0.500000 0.694795 0.250000
Si Si2 0.372034 0.153564 0.452929
Si Si3 0.196201 0.153787 0.690803
Si Si4 0.757958 0.528787 0.140287
Si Si5 0.619050 0.092159 0.570139
Si Si6 0.996488 0.266367 0.573381
Si Si7 0.000000 0.428865 0.250000
Si Si8 0.546891 0.680314 0.827159
O O1 0.695675 0.770070 0.260065
O O2 0.570987 0.616331 0.180655
O O3 0.539198 0.129616 0.501178
O O4 0.176790 0.232122 0.499472
O O5 0.496155 0.213549 0.378731
O O6 0.279820 0.031499 0.441562
O O7 0.396817 0.086011 0.637630
O O8 0.103874 0.231800 0.637312
O O9 0.000000 0.090847 0.750000
O O10 0.888131 0.499410 0.199071
O O11 0.622565 0.418214 0.132098
O O12 0.919532 0.604446 0.078400
O O13 0.786979 0.184469 0.582510
O O14 0.801849 0.359111 0.304184
O O15 0.500000 0.699503 0.750000
#
# Coordination Sequence:
#
# PCOD9230990 Si02
#       8
#     2   4   4   4   4   4   2   4
#     4  12  18  34  60  90 134 152 196 256 304 368
#     4  10  24  44  61  84 123 164 210 248 305 367
#     4  11  20  33  58  95 124 153 200 254 308 362
#     4  11  20  34  61  92 121 158 199 246 312 362
#     4  10  22  42  62  85 122 166 202 254 308 363
#     4  11  22  37  65  91 120 160 199 253 310 363
#     4  10  20  38  62  86 130 168 192 248 312 360
#     4  10  23  41  60  89 119 161 206 251 301 366
#
# _framework density 20.109335999999999
#
# number of rings (size 3 to 8) (size 9 to 14) (size 15 to 20)
#    0.000    1.429    5.000    1.286    0.000    2.857 
#    5.143    1.429    0.000    0.000    0.000    0.000 
#    0.000    0.000    0.000    0.000    0.000    0.000 
#
# Total GULP energy -156215.697156 kJ/mol
# GULP energy per Si atom -5579.132041 kJ/mol
# Density = 2.006357 g / cm^3
# Si number density = 20.109336 Si / 1000 Ang^3
#
#
#
# Elastic Constant Matrix: (Units=GPa)
#
#
# Indices 1 2 3 4 5 6 
#
# 1 74.7457 27.0188 20.4729 0.0000 -10.7076 0.0000
# 2 27.0188 98.6683 46.4910 0.0000 -6.5755 0.0000
# 3 20.4729 46.4910 82.0540 0.0000 -23.5707 0.0000
# 4 0.0000 0.0000 0.0000 16.6541 0.0000 2.5103
# 5 -10.7076 -6.5755 -23.5707 0.0000 25.1070 0.0000
# 6 0.0000 0.0000 0.0000 2.5103 0.0000 6.3546
#
#
#
# Elastic Compliance Matrix: (Units=1/GPa)
#
#
# Indices 1 2 3 4 5 6 
#
# 1 0.015594 -0.003842 -0.000127 0.000000 0.005525 0.000000
# 2 -0.003842 0.015269 -0.009605 0.000000 -0.006657 0.000000
# 3 -0.000127 -0.009605 0.023172 0.000000 0.019184 0.000000
# 4 0.000000 0.000000 0.000000 0.063847 0.000000 -0.025221
# 5 0.005525 -0.006657 0.019184 0.000000 0.058453 0.000000
# 6 0.000000 0.000000 0.000000 -0.025221 0.000000 0.167329
#
#
# Mechanical properties :
#
#
# Convention : Reuss Voigt Hill
#
# Bulk Modulus (GPa) = 37.19274 49.27037 43.23155
# Shear Modulus (GPa) = 13.16577 20.38884 16.77730
#
# Velocity S-wave (km/s) = 2.56150 3.18763 2.89157
# Velocity P-wave (km/s) = 5.22339 6.17272 5.71779
#
# Compressibility (1/GPa) = 0.02688697
#
# Stress axis : x y z
#
# Youngs Moduli (GPa) = 64.12822 65.49142 43.15643
#
# Poissons Ratio (x) = 0.25163 0.00546
# Poissons Ratio (y) = 0.24640 0.41451
# Poissons Ratio (z) = 0.00812 0.62904
#
# Static dielectric constant tensor:
#      x y z
#    x 1.733830 0.000000 -0.037700 
#    y 0.000000 1.693080 0.000000 
#    z -0.037700 0.000000 1.729800 
# 
# From -- ./inp_files/73394.got.cif
#   From: 2010.05.17/outbox.cif.g08.bks.cpg/sg13_37_cif.got.tgz:73394.got - 2010.06.03 16:44:36.
