data_PCOD9230773
_publ_section_title
;
Structure prediction by ZEFSAII (Michael W. Deem and Ramdas Pophale) SiO2 
 PCOD9230773
Probable space group: P 2/C
;
_chemical_formula_sum "Si O2"
_cell_formula_units_Z 28
_cell_length_a 9.181512
_cell_length_b 8.835263
_cell_length_c 19.658015
_cell_angle_alpha 90.000000
_cell_angle_beta 114.382839
_cell_angle_gamma 90.000000
_cell_volume 1452.445607
_symmetry_space_group_name_H-M "P 2/C"
_symmetry_group_IT_number 13
_symmetry_cell_setting 'monoclinic'
loop_
_space_group_symop_operation_xyz
x,y,z
-x,y,1/2-z
-x,-y,-z
x,-y,1/2+z
loop_
_atom_site_type_symbol
_atom_site_label
_atom_site_fract_x
_atom_site_fract_y
_atom_site_fract_z
Si Si1 0.194477 0.681415 0.872214
Si Si2 0.106573 0.428643 0.960035
Si Si3 0.946459 0.192690 0.665071
Si Si4 0.414352 0.265561 0.300977
Si Si5 0.686711 0.997561 0.052246
Si Si6 0.732688 0.170720 0.432551
Si Si7 0.110407 0.868662 0.677690
O O1 0.182846 0.557622 0.928202
O O2 0.309666 0.632006 0.832235
O O3 0.013925 0.739372 0.823175
O O4 0.268857 0.837918 0.913306
O O5 0.022578 0.314174 0.889106
O O6 0.238547 0.327240 0.022853
O O7 0.000000 0.500000 0.000000
O O8 0.000000 0.251660 0.750000
O O9 0.763695 0.129776 0.617544
O O10 0.043188 0.035687 0.675568
O O11 0.500000 0.334545 0.250000
O O12 0.555052 0.178711 0.367560
O O13 0.278131 0.151774 0.247996
O O14 0.762127 0.958793 0.993379
O O15 0.500000 0.000000 0.000000
O O16 0.855339 0.157367 0.394776
#
# Coordination Sequence:
#
# PCOD9230773 Si02
#       7
#     4   4   4   4   4   4   4
#     4  11  21  37  66  86 122 171 212 252 319 388
#     4  11  24  41  61  93 131 172 218 258 322 396
#     4  10  23  39  62  93 128 166 215 276 325 379
#     4  10  21  37  59  94 123 155 208 268 319 379
#     4  10  20  37  64  93 124 162 218 265 326 376
#     4  10  21  38  60  95 124 163 206 273 310 386
#     4  10  20  37  66  92 122 161 215 263 328 374
#
# _framework density 19.277830000000002
#
# number of rings (size 3 to 8) (size 9 to 14) (size 15 to 20)
#    0.000    1.714    2.857    2.143    2.000    3.429 
#    0.000    0.000    0.000    0.000    0.000    0.000 
#    0.000    0.000    0.000    0.000    0.000    0.000 
#
# Total GULP energy -155961.973012 kJ/mol
# GULP energy per Si atom -5570.070465 kJ/mol
# Density = 1.923395 g / cm^3
# Si number density = 19.277830 Si / 1000 Ang^3
#
#
#
# Elastic Constant Matrix: (Units=GPa)
#
#
# Indices 1 2 3 4 5 6 
#
# 1 104.1649 17.9036 51.9716 0.0000 -12.3541 0.0000
# 2 17.9036 58.4568 30.7610 0.0000 -11.3545 0.0000
# 3 51.9716 30.7610 133.3318 0.0000 -10.7487 0.0000
# 4 0.0000 0.0000 0.0000 20.9236 0.0000 -16.8200
# 5 -12.3541 -11.3545 -10.7487 0.0000 52.2401 0.0000
# 6 0.0000 0.0000 0.0000 -16.8200 0.0000 10.8834
#
#
#
# Elastic Compliance Matrix: (Units=1/GPa)
#
#
# Indices 1 2 3 4 5 6 
#
# 1 0.012165 -0.001099 -0.004348 0.000000 0.001743 0.000000
# 2 -0.001099 0.020169 -0.003958 0.000000 0.003309 0.000000
# 3 -0.004348 -0.003958 0.010124 0.000000 0.000195 0.000000
# 4 0.000000 0.000000 0.000000 -0.197190 0.000000 -0.304753
# 5 0.001743 0.003309 0.000195 0.000000 0.020314 0.000000
# 6 0.000000 0.000000 0.000000 -0.304753 0.000000 -0.379106
#
#
# Mechanical properties :
#
#
# Convention : Reuss Voigt Hill
#
# Bulk Modulus (GPa) = 42.28732 55.24732 48.76732
# Shear Modulus (GPa) = -10.27048 29.83057 9.78004
#
# Velocity S-wave (km/s) = -2.31067 3.93797 2.25482
# Velocity P-wave (km/s) = 3.85544 7.02834 5.66842
#
# Compressibility (1/GPa) = 0.02364775
#
# Stress axis : x y z
#
# Youngs Moduli (GPa) = 82.20242 49.58140 98.77936
#
# Poissons Ratio (x) = 0.05451 0.42946
# Poissons Ratio (y) = 0.09037 0.39095
# Poissons Ratio (z) = 0.35739 0.19624
#
# Static dielectric constant tensor:
#      x y z
#    x 1.719360 0.000000 -0.013740 
#    y 0.000000 1.646410 0.000000 
#    z -0.013740 0.000000 1.748410 
# 
# From -- ./inp_files/63867.got.cif
#   From: 2010.05.17/outbox.cif.g08.bks.cpg/sg13_32_cif.got.tgz:63867.got - 2010.06.03 16:44:36.
