data_PCOD9230116
_publ_section_title
;
Structure prediction by ZEFSAII (Michael W. Deem and Ramdas Pophale) SiO2 
 PCOD9230116
Probable space group: P 2/C
;
_chemical_formula_sum "Si O2"
_cell_formula_units_Z 32
_cell_length_a 11.612641
_cell_length_b 7.057105
_cell_length_c 31.987784
_cell_angle_alpha 90.000000
_cell_angle_beta 151.706759
_cell_angle_gamma 90.000000
_cell_volume 1242.526689
_symmetry_space_group_name_H-M "P 2/C"
_symmetry_group_IT_number 13
_symmetry_cell_setting 'monoclinic'
loop_
_space_group_symop_operation_xyz
x,y,z
-x,y,1/2-z
-x,-y,-z
x,-y,1/2+z
loop_
_atom_site_type_symbol
_atom_site_label
_atom_site_fract_x
_atom_site_fract_y
_atom_site_fract_z
Si Si1 0.451814 0.404440 0.578471
Si Si2 0.142269 0.857115 0.449126
Si Si3 0.474336 0.982013 0.624735
Si Si4 0.022484 0.135107 0.302217
Si Si5 0.659429 0.134684 0.836783
Si Si6 0.971942 0.289055 0.111774
Si Si7 0.832080 0.277868 0.635155
Si Si8 0.663078 0.464970 0.727291
O O1 0.467763 0.194687 0.604048
O O2 0.192962 0.411116 0.472302
O O3 0.649058 0.399006 0.604389
O O4 0.509150 0.530961 0.637675
O O5 0.906115 0.781170 0.397347
O O6 0.218932 0.764740 0.429965
O O7 0.364057 0.864056 0.551565
O O8 0.047658 0.073215 0.410208
O O9 0.311291 0.995397 0.614420
O O10 0.745451 0.924466 0.724717
O O11 0.000000 0.229402 0.250000
O O12 0.133019 0.259523 0.374513
O O13 0.158264 0.934035 0.342056
O O14 0.500000 0.036273 0.750000
O O15 0.490391 0.307153 0.798004
O O16 0.227608 0.386455 0.204542
O O17 0.098703 0.369190 0.717907
#
# Coordination Sequence:
#
# PCOD9230116 Si02
#       8
#     4   4   4   4   4   4   4   4
#     4  10  21  39  67  94 133 177 216 262 329 395
#     4  10  22  38  65  98 126 164 227 277 326 376
#     4  10  20  35  63  98 127 165 217 275 322 383
#     4  11  19  35  60  95 135 168 212 263 324 383
#     4  11  19  39  66  87 118 175 222 263 318 402
#     4  10  25  40  59 101 134 162 214 283 327 377
#     4  11  19  37  66  91 127 180 219 250 317 405
#     4  11  22  42  65  91 129 178 218 257 333 397
#
# _framework density 25.753976000000002
#
# number of rings (size 3 to 8) (size 9 to 14) (size 15 to 20)
#    0.000    1.500    5.000    1.500    1.750    3.000 
#    2.250    1.875    0.000    7.500    0.000    0.000 
#    0.000    0.000    0.000    0.000    0.000    0.000 
#
# Total GULP energy -178973.562731 kJ/mol
# GULP energy per Si atom -5592.923835 kJ/mol
# Density = 2.569536 g / cm^3
# Si number density = 25.753976 Si / 1000 Ang^3
#
#
#
# Elastic Constant Matrix: (Units=GPa)
#
#
# Indices 1 2 3 4 5 6 
#
# 1 106.9029 -10.7204 38.3100 0.0000 -20.9735 0.0000
# 2 -10.7204 32.3410 38.0679 0.0000 -17.9648 0.0000
# 3 38.3100 38.0679 159.5992 0.0000 -40.0451 0.0000
# 4 0.0000 0.0000 0.0000 40.7969 0.0000 -6.7003
# 5 -20.9735 -17.9648 -40.0451 0.0000 42.2571 0.0000
# 6 0.0000 0.0000 0.0000 -6.7003 0.0000 24.7245
#
#
#
# Elastic Compliance Matrix: (Units=1/GPa)
#
#
# Indices 1 2 3 4 5 6 
#
# 1 0.014500 0.015714 -0.004915 0.000000 0.009219 0.000000
# 2 0.015714 0.064504 -0.013539 0.000000 0.022391 0.000000
# 3 -0.004915 -0.013539 0.011307 0.000000 0.002520 0.000000
# 4 0.000000 0.000000 0.000000 0.025653 0.000000 0.006952
# 5 0.009219 0.022391 0.002520 0.000000 0.040147 0.000000
# 6 0.000000 0.000000 0.000000 0.006952 0.000000 0.042330
#
#
# Mechanical properties :
#
#
# Convention : Reuss Voigt Hill
#
# Bulk Modulus (GPa) = 11.78839 47.79531 29.79185
# Shear Modulus (GPa) = 21.53308 37.10141 29.31725
#
# Velocity S-wave (km/s) = 2.89469 3.79965 3.37762
# Velocity P-wave (km/s) = 3.96983 6.15212 5.17726
#
# Compressibility (1/GPa) = 0.08482922
#
# Stress axis : x y z
#
# Youngs Moduli (GPa) = 68.96397 15.50291 88.43913
#
# Poissons Ratio (x) = -0.24361 0.43472
# Poissons Ratio (y) = -1.08367 1.19740
# Poissons Ratio (z) = 0.33899 0.20990
#
# Static dielectric constant tensor:
#      x y z
#    x 1.996150 0.000000 -0.033990 
#    y 0.000000 2.137170 0.000000 
#    z -0.033990 0.000000 2.063830 
# 
# From -- ./inp_files/96700.got.cif
#   From: 2010.05.17/outbox.cif.g08.bks.cpg/sg13_49_cif.got.tgz:96700.got - 2010.06.03 16:44:36.
