data_PCOD9230067
_publ_section_title
;
Structure prediction by ZEFSAII (Michael W. Deem and Ramdas Pophale) SiO2 
 PCOD9230067
Probable space group: P 2/C
;
_chemical_formula_sum "Si O2"
_cell_formula_units_Z 24
_cell_length_a 8.378882
_cell_length_b 5.063757
_cell_length_c 26.581155
_cell_angle_alpha 90.000000
_cell_angle_beta 81.312391
_cell_angle_gamma 90.000000
_cell_volume 1114.862040
_symmetry_space_group_name_H-M "P 2/C"
_symmetry_group_IT_number 13
_symmetry_cell_setting 'monoclinic'
loop_
_space_group_symop_operation_xyz
x,y,z
-x,y,1/2-z
-x,-y,-z
x,-y,1/2+z
loop_
_atom_site_type_symbol
_atom_site_label
_atom_site_fract_x
_atom_site_fract_y
_atom_site_fract_z
Si Si1 0.518858 0.692916 0.086877
Si Si2 0.363476 0.807673 0.961082
Si Si3 0.796530 0.980745 0.360158
Si Si4 0.076929 0.836266 0.041928
Si Si5 0.947890 0.465177 0.309529
Si Si6 0.828695 0.541013 0.608800
O O1 0.373730 0.840013 0.121020
O O2 0.668965 0.642470 0.117370
O O3 0.576933 0.894754 0.040858
O O4 0.502124 0.406585 0.061289
O O5 0.241503 0.788029 0.918584
O O6 0.248567 0.731988 0.012629
O O7 0.880045 0.006714 0.410937
O O8 0.895695 0.764666 0.323515
O O9 0.806451 0.261185 0.332363
O O10 0.960193 0.606080 0.067274
O O11 0.000000 0.000000 0.000000
O O12 0.000000 0.428991 0.250000
O O13 0.093596 0.405737 0.341364
#
# Coordination Sequence:
#
# PCOD9230067 Si02
#       6
#     4   4   4   4   4   4
#     4  10  22  38  59  87 133 159 196 251 313 361
#     4  10  20  35  60  86 128 163 205 232 302 362
#     4  11  25  41  63  92 127 158 203 265 310 366
#     4  11  19  37  60  93 124 170 211 245 292 368
#     4  11  24  44  69  88 115 158 214 260 315 370
#     4   9  22  37  64  86 125 160 206 257 295 362
#
# _framework density 21.527328000000001
#
# number of rings (size 3 to 8) (size 9 to 14) (size 15 to 20)
#    1.000    0.667    1.667    3.000    2.333    5.333 
#    0.000    0.833    0.000    0.000    0.000    0.000 
#    0.000    0.000    0.000    0.000    0.000    0.000 
#
# Total GULP energy -133995.034517 kJ/mol
# GULP energy per Si atom -5583.126438 kJ/mol
# Density = 2.147833 g / cm^3
# Si number density = 21.527328 Si / 1000 Ang^3
#
#
#
# Elastic Constant Matrix: (Units=GPa)
#
#
# Indices 1 2 3 4 5 6 
#
# 1 78.0085 5.4623 28.8349 0.0000 -3.4283 0.0000
# 2 5.4623 84.3672 28.0202 0.0000 2.9332 0.0000
# 3 28.8349 28.0202 127.2364 0.0000 -7.0644 0.0000
# 4 0.0000 0.0000 0.0000 19.3025 0.0000 -3.8791
# 5 -3.4283 2.9332 -7.0644 0.0000 15.9195 0.0000
# 6 0.0000 0.0000 0.0000 -3.8791 0.0000 33.7494
#
#
#
# Elastic Compliance Matrix: (Units=1/GPa)
#
#
# Indices 1 2 3 4 5 6 
#
# 1 0.014034 0.000066 -0.003104 0.000000 0.001633 0.000000
# 2 0.000066 0.013004 -0.003087 0.000000 -0.003752 0.000000
# 3 -0.003104 -0.003087 0.009471 0.000000 0.004103 0.000000
# 4 0.000000 0.000000 0.000000 0.053032 0.000000 0.006095
# 5 0.001633 -0.003752 0.004103 0.000000 0.065680 0.000000
# 6 0.000000 0.000000 0.000000 0.006095 0.000000 0.030331
#
#
# Mechanical properties :
#
#
# Convention : Reuss Voigt Hill
#
# Bulk Modulus (GPa) = 41.22455 46.02743 43.62599
# Shear Modulus (GPa) = 24.28507 28.94725 26.61616
#
# Velocity S-wave (km/s) = 3.36237 3.67096 3.52005
# Velocity P-wave (km/s) = 5.85367 6.27656 6.06880
#
# Compressibility (1/GPa) = 0.02425739
#
# Stress axis : x y z
#
# Youngs Moduli (GPa) = 71.25710 76.89695 105.59102
#
# Poissons Ratio (x) = -0.00504 0.32777
# Poissons Ratio (y) = -0.00467 0.32596
# Poissons Ratio (z) = 0.22120 0.23738
#
# Static dielectric constant tensor:
#      x y z
#    x 1.881700 0.000000 0.027730 
#    y 0.000000 1.800590 0.000000 
#    z 0.027730 0.000000 1.740440 
# 
# From -- ./inp_files/84353.got.cif
#   From: 2010.05.17/outbox.cif.g08.bks.cpg/sg13_43_cif.got.tgz:84353.got - 2010.06.03 16:44:36.
