data_PCOD9230298
_publ_section_title
;
Structure prediction by ZEFSAII (Michael W. Deem and Ramdas Pophale) SiO2 
 PCOD9230298
Probable space group: P 2/C
;
_chemical_formula_sum "Si O2"
_cell_formula_units_Z 30
_cell_length_a 13.128026
_cell_length_b 9.106302
_cell_length_c 21.300379
_cell_angle_alpha 90.000000
_cell_angle_beta 143.529796
_cell_angle_gamma 90.000000
_cell_volume 1513.599658
_symmetry_space_group_name_H-M "P 2/C"
_symmetry_group_IT_number 13
_symmetry_cell_setting 'monoclinic'
loop_
_space_group_symop_operation_xyz
x,y,z
-x,y,1/2-z
-x,-y,-z
x,-y,1/2+z
loop_
_atom_site_type_symbol
_atom_site_label
_atom_site_fract_x
_atom_site_fract_y
_atom_site_fract_z
Si Si1 0.802478 0.668058 0.155429
Si Si2 0.000000 0.129822 0.250000
Si Si3 0.728730 0.693803 0.265789
Si Si4 0.331497 0.042645 0.954675
Si Si5 0.632658 0.178569 0.917327
Si Si6 0.945022 0.166559 0.975732
Si Si7 0.857832 0.613854 0.602416
Si Si8 0.904278 0.567460 0.893122
O O1 0.744083 0.683028 0.198349
O O2 0.000000 0.715404 0.250000
O O3 0.806681 0.502519 0.130308
O O4 0.695584 0.782740 0.060699
O O5 0.169130 0.030863 0.338093
O O6 0.026876 0.246884 0.319213
O O7 0.559818 0.786418 0.197970
O O8 0.890442 0.771870 0.380264
O O9 0.735009 0.527190 0.296126
O O10 0.347043 0.967899 0.030640
O O11 0.500000 0.000000 0.000000
O O12 0.772653 0.180293 0.931971
O O13 0.688769 0.313564 0.990131
O O14 0.089287 0.262205 0.084019
O O15 0.000000 0.000000 0.000000
O O16 0.973311 0.540318 0.606189
O O17 0.000000 0.500000 0.000000
#
# Coordination Sequence:
#
# PCOD9230298 Si02
#       8
#     4   2   4   4   4   4   4   4
#     4  12  22  36  63  93 124 164 213 263 319 392
#     4  10  20  36  60  76 126 164 198 256 314 378
#     4  11  21  39  62  88 123 166 205 258 326 377
#     4  11  23  39  56  93 127 165 210 260 326 383
#     4  10  23  41  61  86 130 166 206 269 322 383
#     4  10  23  40  65  91 118 166 217 261 315 388
#     4  10  20  38  57  90 118 161 210 251 316 381
#     4   9  19  36  60  86 115 152 208 253 303 376
#
# _framework density 19.820298999999999
#
# number of rings (size 3 to 8) (size 9 to 14) (size 15 to 20)
#    0.000    1.600    4.000    0.400    1.867    1.600 
#    2.400    0.000    0.000    8.000    0.000    0.000 
#    0.000    0.000    0.000    0.000    0.000    0.000 
#
# Total GULP energy -167227.930448 kJ/mol
# GULP energy per Si atom -5574.264348 kJ/mol
# Density = 1.977519 g / cm^3
# Si number density = 19.820299 Si / 1000 Ang^3
#
#
#
# Elastic Constant Matrix: (Units=GPa)
#
#
# Indices 1 2 3 4 5 6 
#
# 1 53.2739 14.3636 7.1304 0.0000 -12.4055 0.0000
# 2 14.3636 122.8124 33.3948 0.0000 -5.1110 0.0000
# 3 7.1304 33.3948 80.3320 0.0000 2.6054 0.0000
# 4 0.0000 0.0000 0.0000 18.0894 0.0000 -8.7980
# 5 -12.4055 -5.1110 2.6054 0.0000 27.5499 0.0000
# 6 0.0000 0.0000 0.0000 -8.7980 0.0000 25.8182
#
#
#
# Elastic Compliance Matrix: (Units=1/GPa)
#
#
# Indices 1 2 3 4 5 6 
#
# 1 0.021670 -0.001723 -0.001518 0.000000 0.009582 0.000000
# 2 -0.001723 0.009436 -0.003813 0.000000 0.001335 0.000000
# 3 -0.001518 -0.003813 0.014257 0.000000 -0.002739 0.000000
# 4 0.000000 0.000000 0.000000 0.066263 0.000000 0.022580
# 5 0.009582 0.001335 -0.002739 0.000000 0.041119 0.000000
# 6 0.000000 0.000000 0.000000 0.022580 0.000000 0.046427
#
#
# Mechanical properties :
#
#
# Convention : Reuss Voigt Hill
#
# Bulk Modulus (GPa) = 31.99469 40.68846 36.34158
# Shear Modulus (GPa) = 22.35141 27.72680 25.03910
#
# Velocity S-wave (km/s) = 3.36177 3.74426 3.55816
# Velocity P-wave (km/s) = 5.58982 6.26625 5.93768
#
# Compressibility (1/GPa) = 0.03125518
#
# Stress axis : x y z
#
# Youngs Moduli (GPa) = 46.14714 105.97194 70.14039
#
# Poissons Ratio (x) = 0.18258 0.10647
# Poissons Ratio (y) = 0.07951 0.26746
# Poissons Ratio (z) = 0.07005 0.40409
#
# Static dielectric constant tensor:
#      x y z
#    x 1.701040 0.000000 -0.024520 
#    y 0.000000 1.754040 0.000000 
#    z -0.024520 0.000000 1.833140 
# 
# From -- ./inp_files/87321.got.cif
#   From: 2010.05.17/outbox.cif.g08.bks.cpg/sg13_44_cif.got.tgz:87321.got - 2010.06.03 16:44:36.
