data_PCOD9230961
_publ_section_title
;
Structure prediction by ZEFSAII (Michael W. Deem and Ramdas Pophale) SiO2 
 PCOD9230961
Probable space group: P 2/C
;
_chemical_formula_sum "Si O2"
_cell_formula_units_Z 20
_cell_length_a 12.031817
_cell_length_b 6.901959
_cell_length_c 19.363129
_cell_angle_alpha 90.000000
_cell_angle_beta 141.857887
_cell_angle_gamma 90.000000
_cell_volume 993.107688
_symmetry_space_group_name_H-M "P 2/C"
_symmetry_group_IT_number 13
_symmetry_cell_setting 'monoclinic'
loop_
_space_group_symop_operation_xyz
x,y,z
-x,y,1/2-z
-x,-y,-z
x,-y,1/2+z
loop_
_atom_site_type_symbol
_atom_site_label
_atom_site_fract_x
_atom_site_fract_y
_atom_site_fract_z
Si Si1 0.279418 0.801203 0.517134
Si Si2 0.334230 0.278522 0.290882
Si Si3 0.129326 0.326948 0.677410
Si Si4 0.213032 0.024406 0.614836
Si Si5 0.798345 0.017276 0.667116
O O1 0.455385 0.669530 0.611399
O O2 0.297228 0.973216 0.582436
O O3 0.275792 0.898012 0.440133
O O4 0.087975 0.693911 0.435283
O O5 0.201931 0.459732 0.224509
O O6 0.280971 0.136162 0.202118
O O7 0.307518 0.154083 0.347489
O O8 0.180903 0.190803 0.767392
O O9 0.226371 0.232072 0.657987
O O10 0.000000 0.000000 0.500000
O O11 0.000000 0.944722 0.750000
#
# Coordination Sequence:
#
# PCOD9230961 Si02
#       5
#     4   4   4   4   4
#     4  10  20  38  61  88 121 156 197 245 295 352
#     4  11  21  38  62  88 117 155 199 242 294 353
#     4   9  21  40  59  85 121 155 192 241 297 352
#     4   9  20  40  59  80 116 154 193 242 294 349
#     4   9  20  39  60  84 118 156 195 243 296 351
#
# _framework density 20.138802999999999
#
# number of rings (size 3 to 8) (size 9 to 14) (size 15 to 20)
#    0.000    2.400    0.000    2.400    0.000    6.400 
#    0.000   28.000    0.000    0.000    0.000    0.000 
#    0.000    0.000    0.000    0.000    0.000    0.000 
#
# Total GULP energy -111586.188753 kJ/mol
# GULP energy per Si atom -5579.309438 kJ/mol
# Density = 2.009297 g / cm^3
# Si number density = 20.138803 Si / 1000 Ang^3
#
#
#
# Elastic Constant Matrix: (Units=GPa)
#
#
# Indices 1 2 3 4 5 6 
#
# 1 -261.5418 -202.6053 242.9515 0.0000 50.5320 0.0000
# 2 -202.6053 -77.5676 170.2225 0.0000 59.6164 0.0000
# 3 242.9515 170.2225 0.0202 0.0000 -12.9058 0.0000
# 4 0.0000 0.0000 0.0000 10.6556 0.0000 8.8566
# 5 50.5320 59.6164 -12.9058 0.0000 20.8199 0.0000
# 6 0.0000 0.0000 0.0000 8.8566 0.0000 12.9264
#
#
#
# Elastic Compliance Matrix: (Units=1/GPa)
#
#
# Indices 1 2 3 4 5 6 
#
# 1 0.009983 -0.013180 0.000940 0.000000 0.014093 0.000000
# 2 -0.013180 0.017596 0.003819 0.000000 -0.016028 0.000000
# 3 0.000940 0.003819 0.006153 0.000000 -0.009403 0.000000
# 4 0.000000 0.000000 0.000000 0.217988 0.000000 -0.149356
# 5 0.014093 -0.016028 -0.009403 0.000000 0.053891 0.000000
# 6 0.000000 0.000000 0.000000 -0.149356 0.000000 0.179693
#
#
# Mechanical properties :
#
#
# Convention : Reuss Voigt Hill
#
# Bulk Modulus (GPa) = 59.20722 9.11646 34.16184
# Shear Modulus (GPa) = 9.84687 -27.76350 -8.95832
#
# Velocity S-wave (km/s) = 2.21362 -3.71699 -2.11138
# Velocity P-wave (km/s) = 5.99974 3.72622 3.32507
#
# Compressibility (1/GPa) = 0.01688983
#
# Stress axis : x y z
#
# Youngs Moduli (GPa) = 100.16990 56.83236 162.52788
#
# Poissons Ratio (x) = 0.74905 -0.15285
# Poissons Ratio (y) = 1.32024 -0.62064
# Poissons Ratio (z) = -0.09421 -0.21703
#
# Static dielectric constant tensor:
#      x y z
#    x 1.739470 0.000000 0.000000 
#    y 0.000000 1.667570 0.000000 
#    z 0.000000 0.000000 1.714860 
# 
# From -- ./inp_files/72039.got.cif
#   From: 2010.05.17/outbox.cif.g08.bks.cpg/sg13_37_cif.got.tgz:72039.got - 2010.06.03 16:44:36.
