data_PCOD9230874
_publ_section_title
;
Structure prediction by ZEFSAII (Michael W. Deem and Ramdas Pophale) SiO2 
 PCOD9230874
Probable space group: P 2/C
;
_chemical_formula_sum "Si O2"
_cell_formula_units_Z 28
_cell_length_a 9.748349
_cell_length_b 14.472377
_cell_length_c 21.243227
_cell_angle_alpha 90.000000
_cell_angle_beta 151.817873
_cell_angle_gamma 90.000000
_cell_volume 1415.425912
_symmetry_space_group_name_H-M "P 2/C"
_symmetry_group_IT_number 13
_symmetry_cell_setting 'monoclinic'
loop_
_space_group_symop_operation_xyz
x,y,z
-x,y,1/2-z
-x,-y,-z
x,-y,1/2+z
loop_
_atom_site_type_symbol
_atom_site_label
_atom_site_fract_x
_atom_site_fract_y
_atom_site_fract_z
Si Si1 0.131425 0.809795 0.872452
Si Si2 0.036986 0.607627 0.654866
Si Si3 0.452664 0.493817 0.607181
Si Si4 0.500000 0.366905 0.750000
Si Si5 0.163451 0.992528 0.382345
Si Si6 0.500000 0.326569 0.250000
Si Si7 0.799432 0.789668 0.108370
Si Si8 0.132847 0.316469 0.991344
O O1 0.081335 0.911188 0.883272
O O2 0.000000 0.818894 0.750000
O O3 0.998291 0.715534 0.844413
O O4 0.474744 0.795556 0.003845
O O5 0.242636 0.546336 0.783778
O O6 0.240499 0.612045 0.674772
O O7 0.721198 0.564660 0.515224
O O8 0.503213 0.428015 0.687716
O O9 0.227259 0.576096 0.531370
O O10 0.795699 0.308630 0.871109
O O11 0.000000 0.989252 0.250000
O O12 0.500000 0.000000 0.500000
O O13 0.119868 0.889376 0.390478
O O14 0.654422 0.272939 0.369855
O O15 0.814475 0.717793 0.057823
O O16 0.000000 0.770017 0.250000
#
# Coordination Sequence:
#
# PCOD9230874 Si02
#       8
#     4   4   4   2   4   2   4   4
#     4  10  20  38  59  84 115 150 191 238 291 346
#     4  11  22  34  57  81 113 149 195 241 283 333
#     4  11  21  35  53  85 105 150 196 239 279 319
#     4  12  21  36  60  79 110 150 207 250 268 321
#     4   8  16  34  60  83 106 144 192 236 275 338
#     4  10  21  36  56  87 110 148 201 244 276 319
#     4  10  22  38  60  89 118 147 187 235 296 352
#     4  11  22  36  58  85 114 148 196 244 283 330
#
# _framework density 19.782032999999998
#
# number of rings (size 3 to 8) (size 9 to 14) (size 15 to 20)
#    0.000    1.714    2.857    3.857    2.000    0.000 
#    0.000    3.571    0.000    1.714    0.000    0.000 
#    0.000    0.000    0.000    0.000    0.000    0.000 
#
# Total GULP energy -155942.439567 kJ/mol
# GULP energy per Si atom -5569.372842 kJ/mol
# Density = 1.973701 g / cm^3
# Si number density = 19.782033 Si / 1000 Ang^3
#
#
#
# Elastic Constant Matrix: (Units=GPa)
#
#
# Indices 1 2 3 4 5 6 
#
# 1 29.0796 15.4274 18.2606 0.0000 -4.6882 0.0000
# 2 15.4274 70.2595 11.2490 0.0000 -3.9639 0.0000
# 3 18.2606 11.2490 151.1946 0.0000 -7.0427 0.0000
# 4 0.0000 0.0000 0.0000 24.2318 0.0000 14.4267
# 5 -4.6882 -3.9639 -7.0427 0.0000 20.4229 0.0000
# 6 0.0000 0.0000 0.0000 14.4267 0.0000 111.6493
#
#
#
# Elastic Compliance Matrix: (Units=1/GPa)
#
#
# Indices 1 2 3 4 5 6 
#
# 1 0.042502 -0.008281 -0.004205 0.000000 0.006699 0.000000
# 2 -0.008281 0.016141 -0.000146 0.000000 0.001182 0.000000
# 3 -0.004205 -0.000146 0.007202 0.000000 0.001490 0.000000
# 4 0.000000 0.000000 0.000000 0.044707 0.000000 -0.005777
# 5 0.006699 0.001182 0.001490 0.000000 0.051246 0.000000
# 6 0.000000 0.000000 0.000000 -0.005777 0.000000 0.009703
#
#
# Mechanical properties :
#
#
# Convention : Reuss Voigt Hill
#
# Bulk Modulus (GPa) = 24.64168 37.82306 31.23237
# Shear Modulus (GPa) = 23.77632 44.96726 34.37179
#
# Velocity S-wave (km/s) = 3.47063 4.77291 4.17289
# Velocity P-wave (km/s) = 5.34265 7.03816 6.24819
#
# Compressibility (1/GPa) = 0.04058165
#
# Stress axis : x y z
#
# Youngs Moduli (GPa) = 23.52808 61.95271 138.84836
#
# Poissons Ratio (x) = 0.51305 0.58386
# Poissons Ratio (y) = 0.19484 0.02023
# Poissons Ratio (z) = 0.09894 0.00903
#
# Static dielectric constant tensor:
#      x y z
#    x 1.692300 0.000000 -0.021360 
#    y 0.000000 1.795900 0.000000 
#    z -0.021360 0.000000 1.714790 
# 
# From -- ./inp_files/76779.got.cif
#   From: 2010.05.17/outbox.cif.g08.bks.cpg/sg13_39_cif.got.tgz:76779.got - 2010.06.03 16:44:36.
