data_PCOD9230194
_publ_section_title
;
Structure prediction by ZEFSAII (Michael W. Deem and Ramdas Pophale) SiO2 
 PCOD9230194
Probable space group: P 2/C
;
_chemical_formula_sum "Si O2"
_cell_formula_units_Z 26
_cell_length_a 19.454569
_cell_length_b 7.946040
_cell_length_c 9.145784
_cell_angle_alpha 90.000000
_cell_angle_beta 128.587627
_cell_angle_gamma 90.000000
_cell_volume 1105.117641
_symmetry_space_group_name_H-M "P 2/C"
_symmetry_group_IT_number 13
_symmetry_cell_setting 'monoclinic'
loop_
_space_group_symop_operation_xyz
x,y,z
-x,y,1/2-z
-x,-y,-z
x,-y,1/2+z
loop_
_atom_site_type_symbol
_atom_site_label
_atom_site_fract_x
_atom_site_fract_y
_atom_site_fract_z
Si Si1 0.268397 0.927156 0.194266
Si Si2 0.079704 0.741992 0.928067
Si Si3 0.401281 0.652864 0.842842
Si Si4 0.213012 0.682884 0.610045
Si Si5 0.884287 0.527174 0.273051
Si Si6 0.395858 0.021277 0.133922
Si Si7 0.500000 0.409207 0.750000
O O1 0.339844 0.913297 0.420266
O O2 0.231451 0.119371 0.153546
O O3 0.328679 0.895565 0.129765
O O4 0.178010 0.819328 0.072071
O O5 0.085527 0.591677 0.818106
O O6 0.000000 0.850862 0.750000
O O7 0.057732 0.658736 0.056355
O O8 0.304745 0.585459 0.743303
O O9 0.399866 0.826084 0.754847
O O10 0.448487 0.526349 0.795895
O O11 0.439879 0.686043 0.054371
O O12 0.180910 0.649157 0.403211
O O13 0.154429 0.600341 0.657917
O O14 0.500000 0.985318 0.250000
#
# Coordination Sequence:
#
# PCOD9230194 Si02
#       7
#     4   4   4   4   4   4   2
#     4  11  24  43  69  98 136 177 232 278 344 405
#     4  11  23  44  70 104 136 173 218 278 340 415
#     4  10  20  36  59  88 128 166 226 274 338 389
#     4  10  21  41  63  94 130 176 223 276 330 402
#     4  10  22  41  68  98 133 175 218 265 345 410
#     4  11  23  45  61  91 128 180 229 284 331 400
#     4  10  20  36  56  90 126 168 224 278 342 400
#
# _framework density 23.526906
#
# number of rings (size 3 to 8) (size 9 to 14) (size 15 to 20)
#    0.000    1.538    0.769    4.615    0.000    1.231 
#   13.846   10.000    0.000    0.000    0.000    0.000 
#    0.000    0.000    0.000    0.000    0.000    0.000 
#
# Total GULP energy -144970.502241 kJ/mol
# GULP energy per Si atom -5575.788548 kJ/mol
# Density = 2.347336 g / cm^3
# Si number density = 23.526906 Si / 1000 Ang^3
#
#
#
# Elastic Constant Matrix: (Units=GPa)
#
#
# Indices 1 2 3 4 5 6 
#
# 1 118.8062 21.9397 62.1303 0.0000 0.0402 0.0000
# 2 21.9397 50.2230 43.8204 0.0000 2.2614 0.0000
# 3 62.1303 43.8204 231.4497 0.0000 6.7987 0.0000
# 4 0.0000 0.0000 0.0000 9.8649 0.0000 -0.0971
# 5 0.0402 2.2614 6.7987 0.0000 38.4393 0.0000
# 6 0.0000 0.0000 0.0000 -0.0971 0.0000 20.8107
#
#
#
# Elastic Compliance Matrix: (Units=1/GPa)
#
#
# Indices 1 2 3 4 5 6 
#
# 1 0.010045 -0.002451 -0.002248 0.000000 0.000531 0.000000
# 2 -0.002451 0.024463 -0.003952 0.000000 -0.000738 0.000000
# 3 -0.002248 -0.003952 0.005695 0.000000 -0.000772 0.000000
# 4 0.000000 0.000000 0.000000 0.101374 0.000000 0.000473
# 5 0.000531 -0.000738 -0.000772 0.000000 0.026194 0.000000
# 6 0.000000 0.000000 0.000000 0.000473 0.000000 0.048054
#
#
# Mechanical properties :
#
#
# Convention : Reuss Voigt Hill
#
# Bulk Modulus (GPa) = 43.66484 72.91775 58.29130
# Shear Modulus (GPa) = 20.76740 31.99554 26.38147
#
# Velocity S-wave (km/s) = 2.97426 3.69176 3.35226
# Velocity P-wave (km/s) = 5.51315 7.01660 6.30982
#
# Compressibility (1/GPa) = 0.02290172
#
# Stress axis : x y z
#
# Youngs Moduli (GPa) = 99.55091 40.87768 175.59148
#
# Poissons Ratio (x) = 0.10017 0.39476
# Poissons Ratio (y) = 0.24395 0.69396
# Poissons Ratio (z) = 0.22381 0.16155
#
# Static dielectric constant tensor:
#      x y z
#    x 1.993440 0.000000 0.124780 
#    y 0.000000 1.961140 0.000000 
#    z 0.124780 0.000000 1.890920 
# 
# From -- ./inp_files/22851.got.cif
#   From: 2010.05.17/outbox.cif.g08.bks.cpg/sg13_12_cif.got.tgz:22851.got - 2010.06.03 16:44:36.
