data_PCOD9230580
_publ_section_title
;
Structure prediction by ZEFSAII (Michael W. Deem and Ramdas Pophale) SiO2 
 PCOD9230580
Probable space group: P 2/C
;
_chemical_formula_sum "Si O2"
_cell_formula_units_Z 24
_cell_length_a 16.777076
_cell_length_b 6.984504
_cell_length_c 14.844684
_cell_angle_alpha 90.000000
_cell_angle_beta 36.769530
_cell_angle_gamma 90.000000
_cell_volume 1041.256754
_symmetry_space_group_name_H-M "P 2/C"
_symmetry_group_IT_number 13
_symmetry_cell_setting 'monoclinic'
loop_
_space_group_symop_operation_xyz
x,y,z
-x,y,1/2-z
-x,-y,-z
x,-y,1/2+z
loop_
_atom_site_type_symbol
_atom_site_label
_atom_site_fract_x
_atom_site_fract_y
_atom_site_fract_z
Si Si1 0.829125 0.377839 0.677334
Si Si2 0.912631 0.740386 0.905523
Si Si3 0.032797 0.836787 0.119170
Si Si4 0.429104 0.340027 0.502988
Si Si5 0.357496 0.402875 0.896232
Si Si6 0.297907 0.707702 0.792912
O O1 0.887208 0.350750 0.525210
O O2 0.694645 0.262576 0.827018
O O3 0.777054 0.598230 0.722015
O O4 0.940444 0.293590 0.641099
O O5 0.000000 0.638951 0.750000
O O6 0.989774 0.935793 0.858590
O O7 0.765348 0.742924 0.993907
O O8 0.000000 0.776739 0.250000
O O9 0.184754 0.824772 0.946589
O O10 0.500000 0.500000 0.500000
O O11 0.367699 0.452892 0.472259
O O12 0.556676 0.207870 0.362824
O O13 0.500000 0.306215 0.750000
O O14 0.337411 0.541743 0.828514
#
# Coordination Sequence:
#
# PCOD9230580 Si02
#       6
#     4   4   4   4   4   4
#     4  10  20  37  59  83 113 150 190 239 285 337
#     4  10  23  39  55  80 117 156 191 231 284 345
#     4  11  22  37  55  84 119 153 188 231 285 344
#     4   9  18  33  57  86 111 139 186 242 287 331
#     4   9  18  36  57  78 109 147 188 234 282 337
#     4   9  19  34  57  85 111 145 189 235 282 332
#
# _framework density 23.049068999999999
#
# number of rings (size 3 to 8) (size 9 to 14) (size 15 to 20)
#    0.000    2.333    0.000    3.000    0.000    8.000 
#    0.000    6.667    0.000    0.000    0.000    0.000 
#    0.000    0.000    0.000    0.000    0.000    0.000 
#
# Total GULP energy -133650.115195 kJ/mol
# GULP energy per Si atom -5568.754800 kJ/mol
# Density = 2.299661 g / cm^3
# Si number density = 23.049069 Si / 1000 Ang^3
#
#
#
# Elastic Constant Matrix: (Units=GPa)
#
#
# Indices 1 2 3 4 5 6 
#
# 1 80.5212 6.3086 28.8787 0.0000 -6.9124 0.0000
# 2 6.3086 38.2069 8.1249 0.0000 -3.1124 0.0000
# 3 28.8787 8.1249 197.2416 0.0000 -6.3879 0.0000
# 4 0.0000 0.0000 0.0000 48.9936 0.0000 28.6869
# 5 -6.9124 -3.1124 -6.3879 0.0000 31.2966 0.0000
# 6 0.0000 0.0000 0.0000 28.6869 0.0000 29.5371
#
#
#
# Elastic Compliance Matrix: (Units=1/GPa)
#
#
# Indices 1 2 3 4 5 6 
#
# 1 0.013407 -0.001629 -0.001817 0.000000 0.002428 0.000000
# 2 -0.001629 0.026786 -0.000795 0.000000 0.002142 0.000000
# 3 -0.001817 -0.000795 0.005389 0.000000 0.000619 0.000000
# 4 0.000000 0.000000 0.000000 0.047320 0.000000 -0.045958
# 5 0.002428 0.002142 0.000619 0.000000 0.032828 0.000000
# 6 0.000000 0.000000 0.000000 -0.045958 0.000000 0.078491
#
#
# Mechanical properties :
#
#
# Convention : Reuss Voigt Hill
#
# Bulk Modulus (GPa) = 26.95602 44.73268 35.84435
# Shear Modulus (GPa) = 22.21516 40.14262 31.17889
#
# Velocity S-wave (km/s) = 3.10791 4.17779 3.68192
# Velocity P-wave (km/s) = 4.95977 6.53618 5.80176
#
# Compressibility (1/GPa) = 0.03709747
#
# Stress axis : x y z
#
# Youngs Moduli (GPa) = 74.58822 37.33304 185.56962
#
# Poissons Ratio (x) = 0.06083 0.33721
# Poissons Ratio (y) = 0.12154 0.14761
# Poissons Ratio (z) = 0.13554 0.02970
#
# Static dielectric constant tensor:
#      x y z
#    x 1.890920 0.000000 -0.049350 
#    y 0.000000 1.884200 0.000000 
#    z -0.049350 0.000000 1.853940 
# 
# From -- ./inp_files/52902.got.cif
#   From: 2010.05.17/outbox.cif.g08.bks.cpg/sg13_27_cif.got.tgz:52902.got - 2010.06.03 16:44:36.
