data_PCOD9230921
_publ_section_title
;
Structure prediction by ZEFSAII (Michael W. Deem and Ramdas Pophale) SiO2 
 PCOD9230921
Probable space group: P 2/C
;
_chemical_formula_sum "Si O2"
_cell_formula_units_Z 30
_cell_length_a 15.211344
_cell_length_b 11.955226
_cell_length_c 27.057433
_cell_angle_alpha 90.000000
_cell_angle_beta 20.197230
_cell_angle_gamma 90.000000
_cell_volume 1698.827227
_symmetry_space_group_name_H-M "P 2/C"
_symmetry_group_IT_number 13
_symmetry_cell_setting 'monoclinic'
loop_
_space_group_symop_operation_xyz
x,y,z
-x,y,1/2-z
-x,-y,-z
x,-y,1/2+z
loop_
_atom_site_type_symbol
_atom_site_label
_atom_site_fract_x
_atom_site_fract_y
_atom_site_fract_z
Si Si1 0.135451 0.342541 0.890218
Si Si2 0.658998 0.214112 0.286733
Si Si3 0.222987 0.123177 0.672268
Si Si4 0.044563 0.042044 0.031886
Si Si5 0.500000 0.169179 0.750000
Si Si6 0.236868 0.143550 0.161468
Si Si7 0.304191 0.584500 0.806916
Si Si8 0.076510 0.817233 0.077633
O O1 0.324965 0.247715 0.808913
O O2 0.278706 0.457366 0.801638
O O3 0.967865 0.286871 0.935619
O O4 0.959342 0.375703 0.029363
O O5 0.770248 0.211394 0.283479
O O6 0.648213 0.330613 0.262848
O O7 0.364174 0.177870 0.446008
O O8 0.832115 0.129280 0.162822
O O9 0.495513 0.160917 0.507854
O O10 0.000000 0.139642 0.750000
O O11 0.131076 0.185149 0.769743
O O12 0.233554 0.989226 0.676537
O O13 0.322148 0.098170 0.880608
O O14 0.040782 0.933102 0.067514
O O15 0.000000 0.000000 0.000000
O O16 0.000000 0.165347 0.250000
O O17 0.500000 0.589411 0.750000
#
# Coordination Sequence:
#
# PCOD9230921 Si02
#       8
#     4   4   4   4   2   4   4   4
#     4  11  24  39  60  88 119 164 205 254 295 358
#     4  12  23  39  63  88 121 166 208 250 311 367
#     4  10  20  38  60  88 123 158 205 253 305 376
#     4  12  24  36  54  91 132 164 192 241 309 378
#     4  12  22  38  52  84 132 160 196 246 304 350
#     4  10  22  38  61  91 124 160 203 262 312 364
#     4  11  22  42  64  85 119 162 214 253 294 359
#     4  12  23  38  63  90 123 167 203 248 310 375
#
# _framework density 17.659241999999999
#
# number of rings (size 3 to 8) (size 9 to 14) (size 15 to 20)
#    0.000    0.800    7.333    0.800    0.000    1.067 
#    0.000    0.000    0.000    1.600    0.000    0.000 
#    0.000    0.000    0.000    0.000    0.000    0.000 
#
# Total GULP energy -167470.643271 kJ/mol
# GULP energy per Si atom -5582.354776 kJ/mol
# Density = 1.761905 g / cm^3
# Si number density = 17.659242 Si / 1000 Ang^3
#
#
#
# Elastic Constant Matrix: (Units=GPa)
#
#
# Indices 1 2 3 4 5 6 
#
# 1 92.8497 37.3730 35.2916 0.0000 -0.6669 0.0000
# 2 37.3730 84.3030 23.6734 0.0000 4.3782 0.0000
# 3 35.2916 23.6734 101.8663 0.0000 3.0629 0.0000
# 4 0.0000 0.0000 0.0000 21.8245 0.0000 -7.6268
# 5 -0.6669 4.3782 3.0629 0.0000 32.1439 0.0000
# 6 0.0000 0.0000 0.0000 -7.6268 0.0000 6.3866
#
#
#
# Elastic Compliance Matrix: (Units=1/GPa)
#
#
# Indices 1 2 3 4 5 6 
#
# 1 0.014383 -0.005389 -0.003772 0.000000 0.001392 0.000000
# 2 -0.005389 0.014777 -0.001508 0.000000 -0.001981 0.000000
# 3 -0.003772 -0.001508 0.011503 0.000000 -0.000969 0.000000
# 4 0.000000 0.000000 0.000000 0.078637 0.000000 0.093907
# 5 0.001392 -0.001981 -0.000969 0.000000 0.031501 0.000000
# 6 0.000000 0.000000 0.000000 0.093907 0.000000 0.268721
#
#
# Mechanical properties :
#
#
# Convention : Reuss Voigt Hill
#
# Bulk Modulus (GPa) = 51.74572 52.41055 52.07814
# Shear Modulus (GPa) = 11.17810 24.24973 17.71392
#
# Velocity S-wave (km/s) = 2.51866 3.70970 3.17061
# Velocity P-wave (km/s) = 6.15013 6.93487 6.55425
#
# Compressibility (1/GPa) = 0.01932527
#
# Stress axis : x y z
#
# Youngs Moduli (GPa) = 69.52546 67.67115 86.93196
#
# Poissons Ratio (x) = 0.36470 0.32795
# Poissons Ratio (y) = 0.37469 0.13105
# Poissons Ratio (z) = 0.26228 0.10202
#
# Static dielectric constant tensor:
#      x y z
#    x 1.617350 0.000000 -0.041860 
#    y 0.000000 1.605670 0.000000 
#    z -0.041860 0.000000 1.675160 
# 
# From -- ./inp_files/92931.got.cif
#   From: 2010.05.17/outbox.cif.g08.bks.cpg/sg13_47_cif.got.tgz:92931.got - 2010.06.03 16:44:36.
