data_PCOD9230527
_publ_section_title
;
Structure prediction by ZEFSAII (Michael W. Deem and Ramdas Pophale) SiO2 
 PCOD9230527
Probable space group: P 2/C
;
_chemical_formula_sum "Si O2"
_cell_formula_units_Z 30
_cell_length_a 13.920732
_cell_length_b 12.900726
_cell_length_c 25.598929
_cell_angle_alpha 90.000000
_cell_angle_beta 159.130845
_cell_angle_gamma 90.000000
_cell_volume 1637.701069
_symmetry_space_group_name_H-M "P 2/C"
_symmetry_group_IT_number 13
_symmetry_cell_setting 'monoclinic'
loop_
_space_group_symop_operation_xyz
x,y,z
-x,y,1/2-z
-x,-y,-z
x,-y,1/2+z
loop_
_atom_site_type_symbol
_atom_site_label
_atom_site_fract_x
_atom_site_fract_y
_atom_site_fract_z
Si Si1 0.123723 0.838251 0.158687
Si Si2 0.271725 0.794425 0.011529
Si Si3 0.000000 0.073132 0.750000
Si Si4 0.189370 0.099132 0.582687
Si Si5 0.782426 0.612961 0.595016
Si Si6 0.639473 0.194619 0.482623
Si Si7 0.720874 0.380144 0.586500
Si Si8 0.859040 0.049989 0.272692
O O1 0.404953 0.797537 0.324378
O O2 0.128133 0.824104 0.099272
O O3 0.856232 0.792606 0.047331
O O4 0.117111 0.959909 0.172112
O O5 0.192215 0.685694 0.943205
O O6 0.134346 0.884858 0.907628
O O7 0.180865 0.836923 0.023523
O O8 0.180147 0.005468 0.802344
O O9 0.198792 0.135859 0.888980
O O10 0.500000 0.064619 0.750000
O O11 0.000000 0.000000 0.500000
O O12 0.808843 0.488240 0.604159
O O13 0.484533 0.616603 0.469430
O O14 0.000000 0.645909 0.750000
O O15 0.571698 0.306944 0.469782
O O16 0.382751 0.127151 0.337035
O O17 0.000000 0.334851 0.750000
#
# Coordination Sequence:
#
# PCOD9230527 Si02
#       8
#     4   4   2   4   4   4   4   4
#     4  10  21  37  53  78 110 146 186 224 274 334
#     4  11  22  36  55  78 110 146 187 231 280 330
#     4  10  22  32  46  76 116 154 180 220 262 342
#     4  10  21  37  57  78 109 147 188 230 272 330
#     4  10  22  37  57  81 110 146 186 237 283 333
#     4  11  21  34  54  78 109 150 187 225 277 332
#     4  10  20  37  56  79 108 146 191 233 280 333
#     4  11  22  32  50  79 114 150 185 222 272 339
#
# _framework density 18.318363000000002
#
# number of rings (size 3 to 8) (size 9 to 14) (size 15 to 20)
#    0.000    1.600    2.000    3.600    6.533    0.000 
#    0.000    0.000    0.000    0.800    0.000    1.867 
#    0.000    0.000    0.000    0.000    0.000    0.000 
#
# Total GULP energy -167051.192219 kJ/mol
# GULP energy per Si atom -5568.373074 kJ/mol
# Density = 1.827667 g / cm^3
# Si number density = 18.318363 Si / 1000 Ang^3
#
#
#
# Elastic Constant Matrix: (Units=GPa)
#
#
# Indices 1 2 3 4 5 6 
#
# 1 88.8223 28.6841 15.1197 0.0000 -0.7349 0.0000
# 2 28.6841 60.8263 0.4820 0.0000 -11.4952 0.0000
# 3 15.1197 0.4820 44.5144 0.0000 1.7274 0.0000
# 4 0.0000 0.0000 0.0000 18.6329 0.0000 0.8998
# 5 -0.7349 -11.4952 1.7274 0.0000 19.2912 0.0000
# 6 0.0000 0.0000 0.0000 0.8998 0.0000 5.1680
#
#
#
# Elastic Compliance Matrix: (Units=1/GPa)
#
#
# Indices 1 2 3 4 5 6 
#
# 1 0.014422 -0.007416 -0.004684 0.000000 -0.003450 0.000000
# 2 -0.007416 0.022358 0.001777 0.000000 0.012881 0.000000
# 3 -0.004684 0.001777 0.024086 0.000000 -0.001276 0.000000
# 4 0.000000 0.000000 0.000000 0.054124 0.000000 -0.009424
# 5 -0.003450 0.012881 -0.001276 0.000000 0.059495 0.000000
# 6 0.000000 0.000000 0.000000 -0.009424 0.000000 0.195140
#
#
# Mechanical properties :
#
#
# Convention : Reuss Voigt Hill
#
# Bulk Modulus (GPa) = 24.86392 31.41495 28.13944
# Shear Modulus (GPa) = 12.38609 18.61023 15.49816
#
# Velocity S-wave (km/s) = 2.60312 3.19083 2.91184
# Velocity P-wave (km/s) = 4.75791 5.54634 5.16718
#
# Compressibility (1/GPa) = 0.04021891
#
# Stress axis : x y z
#
# Youngs Moduli (GPa) = 69.33740 44.72738 41.51779
#
# Poissons Ratio (x) = 0.33170 0.19449
# Poissons Ratio (y) = 0.51421 -0.07378
# Poissons Ratio (z) = 0.32481 -0.07948
#
# Static dielectric constant tensor:
#      x y z
#    x 1.644800 0.000000 0.002950 
#    y 0.000000 1.674610 0.000000 
#    z 0.002950 0.000000 1.672980 
# 
# From -- ./inp_files/92952.got.cif
#   From: 2010.05.17/outbox.cif.g08.bks.cpg/sg13_47_cif.got.tgz:92952.got - 2010.06.03 16:44:36.
