data_PCOD9230512
_publ_section_title
;
Structure prediction by ZEFSAII (Michael W. Deem and Ramdas Pophale) SiO2 
 PCOD9230512
Probable space group: P 2/C
;
_chemical_formula_sum "Si O2"
_cell_formula_units_Z 24
_cell_length_a 12.720871
_cell_length_b 12.732032
_cell_length_c 9.950385
_cell_angle_alpha 90.000000
_cell_angle_beta 67.006318
_cell_angle_gamma 90.000000
_cell_volume 1483.545472
_symmetry_space_group_name_H-M "P 2/C"
_symmetry_group_IT_number 13
_symmetry_cell_setting 'monoclinic'
loop_
_space_group_symop_operation_xyz
x,y,z
-x,y,1/2-z
-x,-y,-z
x,-y,1/2+z
loop_
_atom_site_type_symbol
_atom_site_label
_atom_site_fract_x
_atom_site_fract_y
_atom_site_fract_z
Si Si1 0.398708 0.302172 0.558710
Si Si2 0.737562 0.593842 0.606435
Si Si3 0.491731 0.899141 0.597588
Si Si4 0.771700 0.656894 0.116970
Si Si5 0.346072 0.287356 0.088113
Si Si6 0.989080 0.396698 0.913385
O O1 0.349270 0.377941 0.469096
O O2 0.410301 0.185670 0.489516
O O3 0.316871 0.304221 0.726845
O O4 0.530451 0.329889 0.525487
O O5 0.751954 0.468800 0.612675
O O6 0.861129 0.642205 0.505656
O O7 0.694560 0.643177 0.766738
O O8 0.500000 0.925759 0.750000
O O9 0.378535 0.829474 0.622907
O O10 0.500000 0.000000 0.500000
O O11 0.742397 0.707580 0.988776
O O12 0.902118 0.672799 0.099189
O O13 0.000000 0.422548 0.750000
O O14 0.000000 0.500000 0.000000
#
# Coordination Sequence:
#
# PCOD9230512 Si02
#       6
#     4   4   4   4   4   4
#     4  10  20  37  52  82 114 139 188 216 276 332
#     4  11  20  36  53  75 121 151 185 223 257 316
#     4  10  22  39  58  80 109 140 179 229 280 334
#     4  11  22  32  54  81 114 154 184 220 258 319
#     4  10  22  35  52  85 111 140 188 216 281 330
#     4  10  22  35  52  74 105 157 201 219 256 305
#
# _framework density 16.177461999999998
#
# number of rings (size 3 to 8) (size 9 to 14) (size 15 to 20)
#    1.000    0.667    3.333    2.000    9.333    4.000 
#    0.000    0.000    0.000    0.000    0.000    7.000 
#    0.000    0.000    0.000    0.000    0.000    0.000 
#
# Total GULP energy -133684.659538 kJ/mol
# GULP energy per Si atom -5570.194147 kJ/mol
# Density = 1.614064 g / cm^3
# Si number density = 16.177462 Si / 1000 Ang^3
#
#
#
# Elastic Constant Matrix: (Units=GPa)
#
#
# Indices 1 2 3 4 5 6 
#
# 1 81.8820 8.1540 21.8614 0.0000 6.0297 0.0000
# 2 8.1540 64.8546 19.4046 0.0000 6.7146 0.0000
# 3 21.8614 19.4046 80.5936 0.0000 14.2652 0.0000
# 4 0.0000 0.0000 0.0000 24.2848 0.0000 8.2195
# 5 6.0297 6.7146 14.2652 0.0000 37.4915 0.0000
# 6 0.0000 0.0000 0.0000 8.2195 0.0000 2.1559
#
#
#
# Elastic Compliance Matrix: (Units=1/GPa)
#
#
# Indices 1 2 3 4 5 6 
#
# 1 0.013210 -0.000593 -0.003306 0.000000 -0.000760 0.000000
# 2 -0.000593 0.016728 -0.003596 0.000000 -0.001533 0.000000
# 3 -0.003306 -0.003596 0.014971 0.000000 -0.004521 0.000000
# 4 0.000000 0.000000 0.000000 -0.141786 0.000000 0.540573
# 5 -0.000760 -0.001533 -0.004521 0.000000 0.028790 0.000000
# 6 0.000000 0.000000 0.000000 0.540573 0.000000 -1.597144
#
#
# Mechanical properties :
#
#
# Convention : Reuss Voigt Hill
#
# Bulk Modulus (GPa) = 33.42247 36.24114 34.83181
# Shear Modulus (GPa) = -3.04828 24.64710 10.79941
#
# Velocity S-wave (km/s) = -1.37418 3.90750 2.58652
# Velocity P-wave (km/s) = 4.26461 6.54285 5.52249
#
# Compressibility (1/GPa) = 0.02991999
#
# Stress axis : x y z
#
# Youngs Moduli (GPa) = 75.69791 59.77953 66.79780
#
# Poissons Ratio (x) = 0.03545 0.22083
# Poissons Ratio (y) = 0.04489 0.24017
# Poissons Ratio (z) = 0.25026 0.21494
#
# Static dielectric constant tensor:
#      x y z
#    x 1.584460 0.000000 0.000390 
#    y 0.000000 1.521920 0.000000 
#    z 0.000390 0.000000 1.541350 
# 
# From -- ./inp_files/16250.got.cif
#   From: 2010.05.17/outbox.cif.g08.bks.cpg/sg13_9_cif.got.tgz:16250.got - 2010.06.03 16:44:36.
