data_PCOD9230131
_publ_section_title
;
Structure prediction by ZEFSAII (Michael W. Deem and Ramdas Pophale) SiO2 
 PCOD9230131
Probable space group: P 2/C
;
_chemical_formula_sum "Si O2"
_cell_formula_units_Z 24
_cell_length_a 13.111621
_cell_length_b 12.387774
_cell_length_c 8.468102
_cell_angle_alpha 90.000000
_cell_angle_beta 105.307849
_cell_angle_gamma 90.000000
_cell_volume 1326.623074
_symmetry_space_group_name_H-M "P 2/C"
_symmetry_group_IT_number 13
_symmetry_cell_setting 'monoclinic'
loop_
_space_group_symop_operation_xyz
x,y,z
-x,y,1/2-z
-x,-y,-z
x,-y,1/2+z
loop_
_atom_site_type_symbol
_atom_site_label
_atom_site_fract_x
_atom_site_fract_y
_atom_site_fract_z
Si Si1 0.605690 0.967276 0.891350
Si Si2 0.685541 0.225098 0.627790
Si Si3 0.895081 0.133169 0.615110
Si Si4 0.501739 0.621554 0.059896
Si Si5 0.814615 0.921288 0.766259
Si Si6 0.331525 0.202521 0.507926
O O1 0.500000 0.944812 0.750000
O O2 0.710936 0.955914 0.825759
O O3 0.605041 0.088966 0.956131
O O4 0.625709 0.881418 0.038362
O O5 0.801397 0.219012 0.601617
O O6 0.610519 0.323089 0.549656
O O7 0.695689 0.225041 0.820809
O O8 0.901875 0.111873 0.430954
O O9 0.000000 0.164729 0.750000
O O10 0.854902 0.021702 0.680431
O O11 0.500000 0.622817 0.250000
O O12 0.404781 0.701042 0.973200
O O13 0.500000 0.500000 0.000000
O O14 0.771071 0.826042 0.637388
#
# Coordination Sequence:
#
# PCOD9230131 Si02
#       6
#     4   4   4   4   4   4
#     4  11  19  29  51  80 107 142 169 206 263 326
#     4  10  20  36  51  76 111 140 177 215 259 315
#     4  11  21  34  50  75 108 145 179 217 260 305
#     4  10  23  37  55  78 109 142 174 216 263 318
#     4  11  20  32  49  77 109 142 176 215 255 322
#     4  11  19  33  53  77 108 141 172 211 268 318
#
# _framework density 18.091047
#
# number of rings (size 3 to 8) (size 9 to 14) (size 15 to 20)
#    0.000    1.333    5.000    3.000    0.000    5.333 
#    0.000    0.000    0.000    0.000    0.000   11.667 
#    0.000    0.000    0.000    0.000    0.000    0.000 
#
# Total GULP energy -134034.978845 kJ/mol
# GULP energy per Si atom -5584.790785 kJ/mol
# Density = 1.804987 g / cm^3
# Si number density = 18.091047 Si / 1000 Ang^3
#
#
#
# Elastic Constant Matrix: (Units=GPa)
#
#
# Indices 1 2 3 4 5 6 
#
# 1 21.2467 7.0681 -2.0997 0.0000 11.6387 0.0000
# 2 7.0681 90.8167 3.5506 0.0000 1.3018 0.0000
# 3 -2.0997 3.5506 75.4989 0.0000 14.0342 0.0000
# 4 0.0000 0.0000 0.0000 24.8344 0.0000 -5.0462
# 5 11.6387 1.3018 14.0342 0.0000 27.3734 0.0000
# 6 0.0000 0.0000 0.0000 -5.0462 0.0000 11.6928
#
#
#
# Elastic Compliance Matrix: (Units=1/GPa)
#
#
# Indices 1 2 3 4 5 6 
#
# 1 0.067445 -0.005101 0.008181 0.000000 -0.032628 0.000000
# 2 -0.005101 0.011419 -0.001084 0.000000 0.002182 0.000000
# 3 0.008181 -0.001084 0.015652 0.000000 -0.011452 0.000000
# 4 0.000000 0.000000 0.000000 0.044137 0.000000 0.019048
# 5 -0.032628 0.002182 -0.011452 0.000000 0.056172 0.000000
# 6 0.000000 0.000000 0.000000 0.019048 0.000000 0.093743
#
#
# Mechanical properties :
#
#
# Convention : Reuss Voigt Hill
#
# Bulk Modulus (GPa) = 10.15162 22.73338 16.44250
# Shear Modulus (GPa) = 15.75227 24.71634 20.23431
#
# Velocity S-wave (km/s) = 2.95400 3.70025 3.34798
# Velocity P-wave (km/s) = 4.15433 5.55420 4.90447
#
# Compressibility (1/GPa) = 0.09850642
#
# Stress axis : x y z
#
# Youngs Moduli (GPa) = 14.82696 87.57083 63.88779
#
# Poissons Ratio (x) = 0.44672 -0.52265
# Poissons Ratio (y) = 0.07564 0.06929
# Poissons Ratio (z) = -0.12129 0.09497
#
# Static dielectric constant tensor:
#      x y z
#    x 1.665300 0.000000 -0.010750 
#    y 0.000000 1.601320 0.000000 
#    z -0.010750 0.000000 1.690950 
# 
# From -- ./inp_files/18478.got.cif
#   From: 2010.05.17/outbox.cif.g08.bks.cpg/sg13_10_cif.got.tgz:18478.got - 2010.06.03 16:44:36.
