data_PCOD9230993
_publ_section_title
;
Structure prediction by ZEFSAII (Michael W. Deem and Ramdas Pophale) SiO2 
 PCOD9230993
Probable space group: P 2/C
;
_chemical_formula_sum "Si O2"
_cell_formula_units_Z 24
_cell_length_a 15.621158
_cell_length_b 5.288631
_cell_length_c 30.932606
_cell_angle_alpha 90.000000
_cell_angle_beta 157.777311
_cell_angle_gamma 90.000000
_cell_volume 966.502592
_symmetry_space_group_name_H-M "P 2/C"
_symmetry_group_IT_number 13
_symmetry_cell_setting 'monoclinic'
loop_
_space_group_symop_operation_xyz
x,y,z
-x,y,1/2-z
-x,-y,-z
x,-y,1/2+z
loop_
_atom_site_type_symbol
_atom_site_label
_atom_site_fract_x
_atom_site_fract_y
_atom_site_fract_z
Si Si1 0.597392 0.015459 0.422971
Si Si2 0.379878 0.034080 0.659635
Si Si3 0.576145 0.808698 0.572568
Si Si4 0.076146 0.691302 0.572568
Si Si5 0.120121 0.534080 0.340365
Si Si6 0.902608 0.515459 0.577029
O O1 0.492449 0.007447 0.325850
O O2 0.419317 0.065033 0.378324
O O3 0.771298 0.254384 0.504790
O O4 0.728703 0.754384 0.495210
O O5 0.500000 0.224933 0.750000
O O6 0.291740 0.834600 0.654739
O O7 0.138608 0.120779 0.527393
O O8 0.361392 0.620779 0.472607
O O9 0.791741 0.665400 0.654739
O O10 0.500000 0.000000 0.500000
O O11 0.000000 0.500000 0.500000
O O12 0.080684 0.565033 0.621676
O O13 0.992449 0.492553 0.325850
O O14 0.000000 0.724933 0.250000
#
# Coordination Sequence:
#
# PCOD9230993 Si02
#       6
#     4   4   4   4   4   4
#     4  10  20  38  62  87 121 163 196 242 303 358
#     4  10  22  38  60  90 119 153 203 250 293 355
#     4  10  20  39  61  82 121 161 194 242 307 355
#     4  10  20  39  61  82 121 161 194 242 307 355
#     4  10  22  38  60  90 119 153 203 250 293 355
#     4  10  20  38  62  87 121 163 196 242 303 358
#
# _framework density 24.831803000000001
#
# number of rings (size 3 to 8) (size 9 to 14) (size 15 to 20)
#    0.000    2.000    3.333    0.000    0.000    2.667 
#    0.000    1.667    0.000    0.000    0.000    0.000 
#    0.000    0.000    0.000    0.000    0.000    0.000 
#
# Total GULP energy -133698.720257 kJ/mol
# GULP energy per Si atom -5570.780011 kJ/mol
# Density = 2.477528 g / cm^3
# Si number density = 24.831803 Si / 1000 Ang^3
#
#
#
# Elastic Constant Matrix: (Units=GPa)
#
#
# Indices 1 2 3 4 5 6 
#
# 1 206.8212 18.8399 53.0247 0.0000 -66.0483 0.0000
# 2 18.8399 80.4515 -13.9723 0.0000 -17.3485 0.0000
# 3 53.0247 -13.9723 72.3562 0.0000 -44.9579 0.0000
# 4 0.0000 0.0000 0.0000 11.6540 0.0000 -5.9658
# 5 -66.0483 -17.3485 -44.9579 0.0000 66.8645 0.0000
# 6 0.0000 0.0000 0.0000 -5.9658 0.0000 34.1669
#
#
#
# Elastic Compliance Matrix: (Units=1/GPa)
#
#
# Indices 1 2 3 4 5 6 
#
# 1 0.007193 -0.000828 -0.001975 0.000000 0.005563 0.000000
# 2 -0.000828 0.016666 0.010311 0.000000 0.010439 0.000000
# 3 -0.001975 0.010311 0.030416 0.000000 0.021176 0.000000
# 4 0.000000 0.000000 0.000000 0.094230 0.000000 0.016453
# 5 0.005563 0.010439 0.021176 0.000000 0.037397 0.000000
# 6 0.000000 0.000000 0.000000 0.016453 0.000000 0.032141
#
#
# Mechanical properties :
#
#
# Convention : Reuss Voigt Hill
#
# Bulk Modulus (GPa) = 14.43172 52.82373 33.62772
# Shear Modulus (GPa) = 22.11181 42.65285 32.38233
#
# Velocity S-wave (km/s) = 2.98730 4.14897 3.61510
# Velocity P-wave (km/s) = 4.20987 6.65363 5.56749
#
# Compressibility (1/GPa) = 0.06929181
#
# Stress axis : x y z
#
# Youngs Moduli (GPa) = 139.01757 60.00372 32.87720
#
# Poissons Ratio (x) = 0.04968 0.06493
# Poissons Ratio (y) = 0.11510 -0.33901
# Poissons Ratio (z) = 0.27456 -0.61871
#
# Static dielectric constant tensor:
#      x y z
#    x 3.061200 -0.000020 4.664370 
#    y -0.000020 1.531010 -0.000090 
#    z 4.664370 -0.000090 24.494470 
# 
# From -- ./inp_files/51844.got.cif
#   From: 2010.05.17/outbox.cif.g08.bks.cpg/sg13_26_cif.got.tgz:51844.got - 2010.06.03 16:44:36.
