data_PCOD9230717
_publ_section_title
;
Structure prediction by ZEFSAII (Michael W. Deem and Ramdas Pophale) SiO2 
 PCOD9230717
Probable space group: P 2/C
;
_chemical_formula_sum "Si O2"
_cell_formula_units_Z 28
_cell_length_a 11.708164
_cell_length_b 9.756563
_cell_length_c 13.901071
_cell_angle_alpha 90.000000
_cell_angle_beta 56.971824
_cell_angle_gamma 90.000000
_cell_volume 1331.332534
_symmetry_space_group_name_H-M "P 2/C"
_symmetry_group_IT_number 13
_symmetry_cell_setting 'monoclinic'
loop_
_space_group_symop_operation_xyz
x,y,z
-x,y,1/2-z
-x,-y,-z
x,-y,1/2+z
loop_
_atom_site_type_symbol
_atom_site_label
_atom_site_fract_x
_atom_site_fract_y
_atom_site_fract_z
Si Si1 0.678455 0.248114 0.943905
Si Si2 0.485232 0.224144 0.869139
Si Si3 0.476348 0.069002 0.148968
Si Si4 0.128317 0.993398 0.080918
Si Si5 0.141970 0.738278 0.714753
Si Si6 0.832032 0.038438 0.162932
Si Si7 0.649977 0.543913 0.966459
O O1 0.626651 0.259804 0.857924
O O2 0.791553 0.135085 0.912148
O O3 0.717056 0.399280 0.962035
O O4 0.540846 0.192918 0.060432
O O5 0.500000 0.210515 0.750000
O O6 0.447870 0.069924 0.919747
O O7 0.378377 0.343010 0.939442
O O8 0.500000 0.099412 0.250000
O O9 0.317032 0.029333 0.220371
O O10 0.151398 0.131626 0.134304
O O11 0.172455 0.000812 0.947351
O O12 0.964696 0.966911 0.148383
O O13 0.135976 0.802897 0.824177
O O14 0.262109 0.630280 0.649341
O O15 0.000000 0.670755 0.750000
O O16 0.500000 0.500000 0.000000
#
# Coordination Sequence:
#
# PCOD9230717 Si02
#       7
#     4   4   4   4   4   4   4
#     4  11  21  39  60  93 125 159 208 262 311 368
#     4  10  22  37  58  89 123 165 203 255 315 370
#     4  11  20  34  62  93 120 159 208 259 315 362
#     4  10  21  38  64  90 124 160 210 266 304 369
#     4  10  21  40  65  88 124 169 206 251 313 378
#     4  10  20  37  62  94 121 160 210 256 318 362
#     4  10  22  40  60  87 129 167 205 253 311 376
#
# _framework density 21.031559999999999
#
# number of rings (size 3 to 8) (size 9 to 14) (size 15 to 20)
#    0.000    1.714    1.429    3.857    2.000    0.571 
#    5.143    5.000    0.000    7.714    0.000    0.000 
#    0.000    0.000    0.000    0.000    0.000    0.000 
#
# Total GULP energy -156042.069985 kJ/mol
# GULP energy per Si atom -5572.931071 kJ/mol
# Density = 2.098369 g / cm^3
# Si number density = 21.031560 Si / 1000 Ang^3
#
#
#
# Elastic Constant Matrix: (Units=GPa)
#
#
# Indices 1 2 3 4 5 6 
#
# 1 112.0987 27.9485 31.4927 0.0000 -12.0921 0.0000
# 2 27.9485 111.9412 20.9373 0.0000 -3.8206 0.0000
# 3 31.4927 20.9373 65.2024 0.0000 -3.1870 0.0000
# 4 0.0000 0.0000 0.0000 28.3615 0.0000 -12.8728
# 5 -12.0921 -3.8206 -3.1870 0.0000 40.5600 0.0000
# 6 0.0000 0.0000 0.0000 -12.8728 0.0000 26.5956
#
#
#
# Elastic Compliance Matrix: (Units=1/GPa)
#
#
# Indices 1 2 3 4 5 6 
#
# 1 0.010947 -0.001783 -0.004581 0.000000 0.002736 0.000000
# 2 -0.001783 0.009812 -0.002279 0.000000 0.000214 0.000000
# 3 -0.004581 -0.002279 0.018274 0.000000 -0.000145 0.000000
# 4 0.000000 0.000000 0.000000 0.045186 0.000000 0.021871
# 5 0.002736 0.000214 -0.000145 0.000000 0.025479 0.000000
# 6 0.000000 0.000000 0.000000 0.021871 0.000000 0.048186
#
#
# Mechanical properties :
#
#
# Convention : Reuss Voigt Hill
#
# Bulk Modulus (GPa) = 45.98346 49.99991 47.99169
# Shear Modulus (GPa) = 27.40916 33.02768 30.21842
#
# Velocity S-wave (km/s) = 3.61396 3.96711 3.79464
# Velocity P-wave (km/s) = 6.27102 6.69398 6.48595
#
# Compressibility (1/GPa) = 0.02174695
#
# Stress axis : x y z
#
# Youngs Moduli (GPa) = 91.34567 101.91602 54.72128
#
# Poissons Ratio (x) = 0.18172 0.25070
# Poissons Ratio (y) = 0.16287 0.12472
# Poissons Ratio (z) = 0.41848 0.23228
#
# Static dielectric constant tensor:
#      x y z
#    x 1.851810 0.000000 -0.038990 
#    y 0.000000 1.804480 0.000000 
#    z -0.038990 0.000000 1.815430 
# 
# From -- ./inp_files/50244.got.cif
#   From: 2010.05.17/outbox.cif.g08.bks.cpg/sg13_26_cif.got.tgz:50244.got - 2010.06.03 16:44:36.
