data_PCOD9230168
_publ_section_title
;
Structure prediction by ZEFSAII (Michael W. Deem and Ramdas Pophale) SiO2 
 PCOD9230168
Probable space group: P 2/C
;
_chemical_formula_sum "Si O2"
_cell_formula_units_Z 32
_cell_length_a 28.387479
_cell_length_b 13.992923
_cell_length_c 9.873864
_cell_angle_alpha 90.000000
_cell_angle_beta 28.019171
_cell_angle_gamma 90.000000
_cell_volume 1842.488930
_symmetry_space_group_name_H-M "P 2/C"
_symmetry_group_IT_number 13
_symmetry_cell_setting 'monoclinic'
loop_
_space_group_symop_operation_xyz
x,y,z
-x,y,1/2-z
-x,-y,-z
x,-y,1/2+z
loop_
_atom_site_type_symbol
_atom_site_label
_atom_site_fract_x
_atom_site_fract_y
_atom_site_fract_z
Si Si1 0.111691 0.101137 0.133436
Si Si2 0.369431 0.706826 0.283701
Si Si3 0.427156 0.489823 0.557892
Si Si4 0.574113 0.987712 0.687338
Si Si5 0.308374 0.205291 0.657539
Si Si6 0.404821 0.299253 0.169234
Si Si7 0.691290 0.178308 0.316175
Si Si8 0.118867 0.087372 0.796488
O O1 0.993913 0.125244 0.441722
O O2 0.128966 0.012289 0.190240
O O3 0.190634 0.183468 0.968704
O O4 0.130762 0.073186 0.927655
O O5 0.353302 0.596659 0.280535
O O6 0.355696 0.767312 0.181787
O O7 0.302294 0.749151 0.574172
O O8 0.482625 0.711663 0.057345
O O9 0.500000 0.500000 0.500000
O O10 0.387466 0.597427 0.643529
O O11 0.500000 0.462052 0.250000
O O12 0.500000 0.978888 0.750000
O O13 0.644209 0.079940 0.491020
O O14 0.640768 0.892620 0.524453
O O15 0.500000 0.000000 0.000000
O O16 0.333822 0.283439 0.479072
O O17 0.381223 0.221576 0.114850
O O18 0.796177 0.156144 0.977813
#
# Coordination Sequence:
#
# PCOD9230168 Si02
#       8
#     4   4   4   4   4   4   4   4
#     4  10  22  40  60  80 109 146 192 244 281 321
#     4  11  23  35  54  83 113 148 187 233 274 334
#     4  10  20  36  56  78 109 148 195 240 277 314
#     4  12  24  32  45  72 115 151 175 205 253 330
#     4  12  22  36  54  80 113 151 187 226 281 333
#     4  11  21  37  56  79 112 154 190 230 274 332
#     4  12  22  36  55  80 113 151 190 224 278 339
#     4  10  22  40  59  82 107 146 195 241 279 326
#
# _framework density 17.367812000000001
#
# number of rings (size 3 to 8) (size 9 to 14) (size 15 to 20)
#    0.000    1.000    2.500    7.500    1.750    0.000 
#    0.000    0.000    0.000    0.000    0.000    5.250 
#    0.000    0.000    0.000    0.000    0.000    0.000 
#
# Total GULP energy -178723.648718 kJ/mol
# GULP energy per Si atom -5585.114022 kJ/mol
# Density = 1.732828 g / cm^3
# Si number density = 17.367812 Si / 1000 Ang^3
#
#
#
# Elastic Constant Matrix: (Units=GPa)
#
#
# Indices 1 2 3 4 5 6 
#
# 1 64.1932 18.2823 25.3458 0.0000 12.1532 0.0000
# 2 18.2823 74.3287 33.3953 0.0000 -3.0529 0.0000
# 3 25.3458 33.3953 101.8576 0.0000 5.7089 0.0000
# 4 0.0000 0.0000 0.0000 23.0577 0.0000 10.8347
# 5 12.1532 -3.0529 5.7089 0.0000 27.7518 0.0000
# 6 0.0000 0.0000 0.0000 10.8347 0.0000 16.5911
#
#
#
# Elastic Compliance Matrix: (Units=1/GPa)
#
#
# Indices 1 2 3 4 5 6 
#
# 1 0.019447 -0.003703 -0.003161 0.000000 -0.008273 0.000000
# 2 -0.003703 0.016706 -0.004805 0.000000 0.004448 0.000000
# 3 -0.003161 -0.004805 0.012273 0.000000 -0.001669 0.000000
# 4 0.000000 0.000000 0.000000 0.062570 0.000000 -0.040861
# 5 -0.008273 0.004448 -0.001669 0.000000 0.040489 0.000000
# 6 0.000000 0.000000 0.000000 -0.040861 0.000000 0.086957
#
#
# Mechanical properties :
#
#
# Convention : Reuss Voigt Hill
#
# Bulk Modulus (GPa) = 39.86010 43.82514 41.84262
# Shear Modulus (GPa) = 18.50865 24.37053 21.43959
#
# Velocity S-wave (km/s) = 3.26803 3.75000 3.51728
# Velocity P-wave (km/s) = 6.10249 6.63613 6.37490
#
# Compressibility (1/GPa) = 0.02508775
#
# Stress axis : x y z
#
# Youngs Moduli (GPa) = 51.42159 59.85827 81.47759
#
# Poissons Ratio (x) = 0.22164 0.25759
# Poissons Ratio (y) = 0.19040 0.39152
# Poissons Ratio (z) = 0.16257 0.28763
#
# Static dielectric constant tensor:
#      x y z
#    x 1.589940 0.000000 0.004940 
#    y 0.000000 1.646290 0.000000 
#    z 0.004940 0.000000 1.590530 
# 
# From -- ./inp_files/24747.got.cif
#   From: 2010.05.17/outbox.cif.g08.bks.cpg/sg13_13_cif.got.tgz:24747.got - 2010.06.03 16:44:36.
