data_PCOD9230121
_publ_section_title
;
Structure prediction by ZEFSAII (Michael W. Deem and Ramdas Pophale) SiO2 
 PCOD9230121
Probable space group: P 2/C
;
_chemical_formula_sum "Si O2"
_cell_formula_units_Z 30
_cell_length_a 27.298670
_cell_length_b 10.901752
_cell_length_c 27.178080
_cell_angle_alpha 90.000000
_cell_angle_beta 10.887268
_cell_angle_gamma 90.000000
_cell_volume 1527.693283
_symmetry_space_group_name_H-M "P 2/C"
_symmetry_group_IT_number 13
_symmetry_cell_setting 'monoclinic'
loop_
_space_group_symop_operation_xyz
x,y,z
-x,y,1/2-z
-x,-y,-z
x,-y,1/2+z
loop_
_atom_site_type_symbol
_atom_site_label
_atom_site_fract_x
_atom_site_fract_y
_atom_site_fract_z
Si Si1 0.967155 0.728128 0.472027
Si Si2 0.851750 0.668116 0.351756
Si Si3 0.035831 0.499655 0.346471
Si Si4 0.543319 0.355519 0.810291
Si Si5 0.500000 0.467960 0.750000
Si Si6 0.985588 0.879589 0.548098
Si Si7 0.438740 0.178463 0.442211
Si Si8 0.489769 0.101490 0.908156
O O1 0.031602 0.586195 0.398178
O O2 0.695214 0.763720 0.714065
O O3 0.959045 0.766716 0.536630
O O4 0.199301 0.802046 0.216090
O O5 0.713160 0.558869 0.517670
O O6 0.651433 0.751895 0.518530
O O7 0.000000 0.736721 0.250000
O O8 0.015169 0.598081 0.147914
O O9 0.810717 0.399840 0.571061
O O10 0.309639 0.436890 0.063765
O O11 0.581216 0.386005 0.715730
O O12 0.476664 0.214259 0.883704
O O13 0.246071 0.879555 0.322502
O O14 0.000000 0.000000 0.500000
O O15 0.744296 0.887139 0.822542
O O16 0.483856 0.033973 0.390793
#
# Coordination Sequence:
#
# PCOD9230121 Si02
#       8
#     4   4   4   4   2   4   4   4
#     4  11  21  38  64  94 117 158 210 261 304 350
#     4  10  20  35  64  94 117 151 210 259 306 358
#     4  10  21  39  60  92 119 160 202 260 297 353
#     4  11  23  40  64  85 130 166 205 240 307 379
#     4  10  20  40  64  88 118 168 210 240 298 382
#     4  12  22  41  67  89 124 166 215 245 308 389
#     4  11  22  36  61  92 129 149 197 268 310 346
#     4  12  24  41  60  96 126 168 202 251 313 372
#
# _framework density 19.637449
#
# number of rings (size 3 to 8) (size 9 to 14) (size 15 to 20)
#    0.000    1.067    4.000    4.400    1.867    0.000 
#    0.000    4.667    2.933    0.000    0.000    0.000 
#    0.000    0.000    0.000    0.000    0.000    0.000 
#
# Total GULP energy -167586.377757 kJ/mol
# GULP energy per Si atom -5586.212592 kJ/mol
# Density = 1.959275 g / cm^3
# Si number density = 19.637449 Si / 1000 Ang^3
#
#
#
# Elastic Constant Matrix: (Units=GPa)
#
#
# Indices 1 2 3 4 5 6 
#
# 1 67.4165 36.0698 27.7411 0.0000 -4.2722 0.0000
# 2 36.0698 102.2100 18.4203 0.0000 3.3342 0.0000
# 3 27.7411 18.4203 122.3682 0.0000 -4.7170 0.0000
# 4 0.0000 0.0000 0.0000 26.4943 0.0000 5.8527
# 5 -4.2722 3.3342 -4.7170 0.0000 27.9846 0.0000
# 6 0.0000 0.0000 0.0000 5.8527 0.0000 35.9273
#
#
#
# Elastic Compliance Matrix: (Units=1/GPa)
#
#
# Indices 1 2 3 4 5 6 
#
# 1 0.019934 -0.006526 -0.003412 0.000000 0.003246 0.000000
# 2 -0.006526 0.012253 -0.000463 0.000000 -0.002534 0.000000
# 3 -0.003412 -0.000463 0.009056 0.000000 0.001061 0.000000
# 4 0.000000 0.000000 0.000000 0.039153 0.000000 -0.006378
# 5 0.003246 -0.002534 0.001061 0.000000 0.036710 0.000000
# 6 0.000000 0.000000 0.000000 -0.006378 0.000000 0.028873
#
#
# Mechanical properties :
#
#
# Convention : Reuss Voigt Hill
#
# Bulk Modulus (GPa) = 48.91728 50.71746 49.81737
# Shear Modulus (GPa) = 28.80289 32.06547 30.43418
#
# Velocity S-wave (km/s) = 3.83395 4.04527 3.94102
# Velocity P-wave (km/s) = 6.67557 6.90666 6.79209
#
# Compressibility (1/GPa) = 0.02044268
#
# Stress axis : x y z
#
# Youngs Moduli (GPa) = 50.16509 81.61421 110.42364
#
# Poissons Ratio (x) = 0.53260 0.37673
# Poissons Ratio (y) = 0.32737 0.05109
# Poissons Ratio (z) = 0.17115 0.03776
#
# Static dielectric constant tensor:
#      x y z
#    x 1.754760 0.000000 -0.022990 
#    y 0.000000 1.706190 0.000000 
#    z -0.022990 0.000000 1.708010 
# 
# From -- ./inp_files/94218.got.cif
#   From: 2010.05.17/outbox.cif.g08.bks.cpg/sg13_48_cif.got.tgz:94218.got - 2010.06.03 16:44:36.
