data_PCOD9230698
_publ_section_title
;
Structure prediction by ZEFSAII (Michael W. Deem and Ramdas Pophale) SiO2 
 PCOD9230698
Probable space group: P 2/C
;
_chemical_formula_sum "Si O2"
_cell_formula_units_Z 22
_cell_length_a 5.686146
_cell_length_b 15.556812
_cell_length_c 13.362491
_cell_angle_alpha 90.000000
_cell_angle_beta 56.740486
_cell_angle_gamma 90.000000
_cell_volume 988.402088
_symmetry_space_group_name_H-M "P 2/C"
_symmetry_group_IT_number 13
_symmetry_cell_setting 'monoclinic'
loop_
_space_group_symop_operation_xyz
x,y,z
-x,y,1/2-z
-x,-y,-z
x,-y,1/2+z
loop_
_atom_site_type_symbol
_atom_site_label
_atom_site_fract_x
_atom_site_fract_y
_atom_site_fract_z
Si Si1 0.246999 0.300747 0.753525
Si Si2 0.940311 0.999600 0.396117
Si Si3 0.468691 0.859301 0.971597
Si Si4 0.563363 0.339134 0.491155
Si Si5 0.941566 0.600703 0.507392
Si Si6 0.500000 0.079357 0.250000
O O1 0.500000 0.250635 0.750000
O O2 0.399006 0.360161 0.634109
O O3 0.000000 0.254589 0.750000
O O4 0.093415 0.354285 0.876418
O O5 0.736501 0.080225 0.427195
O O6 0.240724 0.018973 0.278105
O O7 0.783163 0.909992 0.415209
O O8 0.000000 0.000000 0.500000
O O9 0.415099 0.863446 0.864588
O O10 0.526290 0.763173 0.990355
O O11 0.387868 0.381117 0.440694
O O12 0.889479 0.361193 0.435974
O O13 0.000000 0.500000 0.500000
#
# Coordination Sequence:
#
# PCOD9230698 Si02
#       6
#     4   4   4   4   4   2
#     4   8  16  33  54  80 113 150 190 243 311 362
#     4   9  20  38  61  89 122 173 206 263 319 382
#     4  10  21  38  64  88 129 169 216 263 323 380
#     4  10  21  36  65  89 123 163 210 264 318 378
#     4  10  20  37  62  88 123 163 203 261 333 384
#     4  10  20  38  64  84 132 170 214 260 320 386
#
# _framework density 22.258146
#
# number of rings (size 3 to 8) (size 9 to 14) (size 15 to 20)
#    0.000    2.545    0.000    1.091    5.091    0.000 
#    0.000   16.364   30.000    0.000    0.000    0.000 
#    0.000    0.000    0.000    0.000    0.000    0.000 
#
# Total GULP energy -122536.794001 kJ/mol
# GULP energy per Si atom -5569.854273 kJ/mol
# Density = 2.220749 g / cm^3
# Si number density = 22.258146 Si / 1000 Ang^3
#
#
#
# Elastic Constant Matrix: (Units=GPa)
#
#
# Indices 1 2 3 4 5 6 
#
# 1 218.2829 56.1357 2.8678 0.0000 4.8370 0.0000
# 2 56.1357 135.0348 3.0828 0.0000 8.6102 0.0000
# 3 2.8678 3.0828 37.4269 0.0000 3.8790 0.0000
# 4 0.0000 0.0000 0.0000 10.1342 0.0000 1.8172
# 5 4.8370 8.6102 3.8790 0.0000 24.5001 0.0000
# 6 0.0000 0.0000 0.0000 1.8172 0.0000 19.6332
#
#
#
# Elastic Compliance Matrix: (Units=1/GPa)
#
#
# Indices 1 2 3 4 5 6 
#
# 1 0.005133 -0.002114 -0.000194 0.000000 -0.000240 0.000000
# 2 -0.002114 0.008451 -0.000274 0.000000 -0.002509 0.000000
# 3 -0.000194 -0.000274 0.027188 0.000000 -0.004170 0.000000
# 4 0.000000 0.000000 0.000000 0.100341 0.000000 -0.009287
# 5 -0.000240 -0.002509 -0.004170 0.000000 0.042405 0.000000
# 6 0.000000 0.000000 0.000000 -0.009287 0.000000 0.051794
#
#
# Mechanical properties :
#
#
# Convention : Reuss Voigt Hill
#
# Bulk Modulus (GPa) = 28.08441 57.21301 42.64871
# Shear Modulus (GPa) = 19.81405 32.76404 26.28905
#
# Velocity S-wave (km/s) = 2.98685 3.84083 3.44044
# Velocity P-wave (km/s) = 4.95379 6.74013 5.91479
#
# Compressibility (1/GPa) = 0.03560694
#
# Stress axis : x y z
#
# Youngs Moduli (GPa) = 194.82781 118.33521 36.78038
#
# Poissons Ratio (x) = 0.25016 0.00715
# Poissons Ratio (y) = 0.41187 0.01008
# Poissons Ratio (z) = 0.03786 0.03243
#
# Static dielectric constant tensor:
#      x y z
#    x 1.937840 0.000000 0.002080 
#    y 0.000000 1.747510 0.000000 
#    z 0.002080 0.000000 1.904740 
# 
# From -- ./inp_files/43901.got.cif
#   From: 2010.05.17/outbox.cif.g08.bks.cpg/sg13_22_cif.got.tgz:43901.got - 2010.06.03 16:44:36.
