data_PCOD9230484
_publ_section_title
;
Structure prediction by ZEFSAII (Michael W. Deem and Ramdas Pophale) SiO2 
 PCOD9230484
Probable space group: P 2/C
;
_chemical_formula_sum "Si O2"
_cell_formula_units_Z 30
_cell_length_a 12.050997
_cell_length_b 15.348234
_cell_length_c 11.937635
_cell_angle_alpha 90.000000
_cell_angle_beta 44.540168
_cell_angle_gamma 90.000000
_cell_volume 1548.713551
_symmetry_space_group_name_H-M "P 2/C"
_symmetry_group_IT_number 13
_symmetry_cell_setting 'monoclinic'
loop_
_space_group_symop_operation_xyz
x,y,z
-x,y,1/2-z
-x,-y,-z
x,-y,1/2+z
loop_
_atom_site_type_symbol
_atom_site_label
_atom_site_fract_x
_atom_site_fract_y
_atom_site_fract_z
Si Si1 0.835867 0.933890 0.426003
Si Si2 0.350121 0.904479 0.501342
Si Si3 0.656980 0.616893 0.070993
Si Si4 0.820902 0.770297 0.032124
Si Si5 0.500000 0.447967 0.250000
Si Si6 0.348062 0.824411 0.124119
Si Si7 0.606067 0.313801 0.360625
Si Si8 0.843285 0.159425 0.157939
O O1 0.755207 0.866575 0.398650
O O2 0.865879 0.889509 0.524192
O O3 0.000000 0.963298 0.250000
O O4 0.711235 0.013015 0.523019
O O5 0.294692 0.819845 0.471500
O O6 0.532708 0.894094 0.403096
O O7 0.254277 0.901268 0.686880
O O8 0.500000 0.653104 0.250000
O O9 0.805571 0.668541 0.014121
O O10 0.636592 0.514402 0.108578
O O11 0.648705 0.639946 0.946774
O O12 0.759516 0.786181 0.201005
O O13 0.992502 0.813056 0.903254
O O14 0.562158 0.386652 0.303102
O O15 0.458848 0.749666 0.993027
O O16 0.741965 0.248274 0.219581
#
# Coordination Sequence:
#
# PCOD9230484 Si02
#       8
#     4   4   4   4   2   4   4   4
#     4  12  25  41  59  93 131 166 214 268 325 361
#     4  11  25  40  63  89 120 168 222 268 302 365
#     4  10  20  36  66  94 119 159 211 256 311 376
#     4  12  20  42  63  91 123 167 213 258 313 383
#     4  10  22  38  66  98 128 158 208 274 312 378
#     4  11  22  41  65  88 125 170 214 259 315 379
#     4  11  21  42  64  95 126 164 214 256 317 388
#     4  11  25  40  65  91 128 174 207 260 325 378
#
# _framework density 19.370915
#
# number of rings (size 3 to 8) (size 9 to 14) (size 15 to 20)
#    0.400    0.533    5.333    3.200    1.867    2.667 
#    4.800    0.667    0.000    1.600    0.000    0.000 
#    0.000    0.000    0.000    0.000    0.000    0.000 
#
# Total GULP energy -167602.432924 kJ/mol
# GULP energy per Si atom -5586.747764 kJ/mol
# Density = 1.932683 g / cm^3
# Si number density = 19.370915 Si / 1000 Ang^3
#
#
#
# Elastic Constant Matrix: (Units=GPa)
#
#
# Indices 1 2 3 4 5 6 
#
# 1 75.1385 27.3529 6.6978 0.0000 11.8543 0.0000
# 2 27.3529 77.1553 8.7271 0.0000 18.2241 0.0000
# 3 6.6978 8.7271 32.5738 0.0000 13.8352 0.0000
# 4 0.0000 0.0000 0.0000 146.9590 0.0000 251.3287
# 5 11.8543 18.2241 13.8352 0.0000 25.9560 0.0000
# 6 0.0000 0.0000 0.0000 251.3287 0.0000 496.9384
#
#
#
# Elastic Compliance Matrix: (Units=1/GPa)
#
#
# Indices 1 2 3 4 5 6 
#
# 1 0.015606 -0.004621 -0.000416 0.000000 -0.003661 0.000000
# 2 -0.004621 0.016915 0.000732 0.000000 -0.010156 0.000000
# 3 -0.000416 0.000732 0.039719 0.000000 -0.021495 0.000000
# 4 0.000000 0.000000 0.000000 0.050382 0.000000 -0.025481
# 5 -0.003661 -0.010156 -0.021495 0.000000 0.058787 0.000000
# 6 0.000000 0.000000 0.000000 -0.025481 0.000000 0.014899
#
#
# Mechanical properties :
#
#
# Convention : Reuss Voigt Hill
#
# Bulk Modulus (GPa) = 15.71582 30.04704 22.88143
# Shear Modulus (GPa) = 22.11153 143.44332 82.77743
#
# Velocity S-wave (km/s) = 3.38225 8.61462 6.54413
# Velocity P-wave (km/s) = 4.83565 10.70018 8.30293
#
# Compressibility (1/GPa) = 0.06363015
#
# Stress axis : x y z
#
# Youngs Moduli (GPa) = 64.07994 59.11894 25.17716
#
# Poissons Ratio (x) = 0.27316 0.01047
# Poissons Ratio (y) = 0.29609 -0.01843
# Poissons Ratio (z) = 0.02664 -0.04327
#
# Static dielectric constant tensor:
#      x y z
#    x 1.661800 0.000000 -0.014870 
#    y 0.000000 1.680840 0.000000 
#    z -0.014870 0.000000 1.686540 
# 
# From -- ./inp_files/34760.got.cif
#   From: 2010.05.17/outbox.cif.g08.bks.cpg/sg13_18_cif.got.tgz:34760.got - 2010.06.03 16:44:36.
