data_PCOD9230072
_publ_section_title
;
Structure prediction by ZEFSAII (Michael W. Deem and Ramdas Pophale) SiO2 
 PCOD9230072
Probable space group: P 2/C
;
_chemical_formula_sum "Si O2"
_cell_formula_units_Z 26
_cell_length_a 8.291535
_cell_length_b 20.543740
_cell_length_c 11.807556
_cell_angle_alpha 90.000000
_cell_angle_beta 137.432177
_cell_angle_gamma 90.000000
_cell_volume 1360.561484
_symmetry_space_group_name_H-M "P 2/C"
_symmetry_group_IT_number 13
_symmetry_cell_setting 'monoclinic'
loop_
_space_group_symop_operation_xyz
x,y,z
-x,y,1/2-z
-x,-y,-z
x,-y,1/2+z
loop_
_atom_site_type_symbol
_atom_site_label
_atom_site_fract_x
_atom_site_fract_y
_atom_site_fract_z
Si Si1 0.608327 0.072268 0.553278
Si Si2 0.881756 0.691522 0.811816
Si Si3 0.293583 0.163010 0.240214
Si Si4 0.500000 0.389549 0.250000
Si Si5 0.769066 0.405045 0.918156
Si Si6 0.900521 0.527318 0.081401
Si Si7 0.009336 0.070186 0.564607
O O1 0.413544 0.124312 0.407803
O O2 0.811246 0.071682 0.561301
O O3 0.741100 0.084104 0.742021
O O4 0.500000 0.000000 0.500000
O O5 0.808596 0.766541 0.783209
O O6 0.649247 0.652182 0.735318
O O7 0.000000 0.680908 0.750000
O O8 0.083001 0.661136 0.998598
O O9 0.500000 0.169078 0.250000
O O10 0.079962 0.121217 0.074846
O O11 0.681577 0.433375 0.415410
O O12 0.500000 0.391968 0.750000
O O13 0.874733 0.455482 0.881587
O O14 0.819109 0.452000 0.051648
O O15 0.000000 0.552722 0.250000
O O16 0.000000 0.000000 0.500000
#
# Coordination Sequence:
#
# PCOD9230072 Si02
#       7
#     4   4   4   2   4   4   4
#     4  10  20  35  60  90 118 156 196 249 313 366
#     4  11  24  42  65  90 126 178 209 262 324 377
#     4  10  21  41  60  83 125 167 207 257 313 378
#     4  10  22  44  64  96 130 160 220 262 314 396
#     4  10  22  40  59  97 131 153 222 270 305 398
#     4  10  21  38  67  94 121 172 201 263 340 363
#     4  10  20  35  60  91 119 151 200 252 304 367
#
# _framework density 19.109756999999998
#
# number of rings (size 3 to 8) (size 9 to 14) (size 15 to 20)
#    0.000    1.846    3.077    0.462    2.154    1.846 
#    2.769    0.000    0.000    0.000    0.000    0.000 
#    0.000    0.000    0.000    0.000    0.000    0.000 
#
# Total GULP energy -144842.828851 kJ/mol
# GULP energy per Si atom -5570.878033 kJ/mol
# Density = 1.906626 g / cm^3
# Si number density = 19.109757 Si / 1000 Ang^3
#
#
#
# Elastic Constant Matrix: (Units=GPa)
#
#
# Indices 1 2 3 4 5 6 
#
# 1 55.2999 36.7661 37.0977 0.0000 9.1916 0.0000
# 2 36.7661 149.1809 78.3260 0.0000 12.0134 0.0000
# 3 37.0977 78.3260 160.1758 0.0000 12.7205 0.0000
# 4 0.0000 0.0000 0.0000 21.0899 0.0000 4.2502
# 5 9.1916 12.0134 12.7205 0.0000 29.1814 0.0000
# 6 0.0000 0.0000 0.0000 4.2502 0.0000 23.3365
#
#
#
# Elastic Compliance Matrix: (Units=1/GPa)
#
#
# Indices 1 2 3 4 5 6 
#
# 1 0.023484 -0.003713 -0.003271 0.000000 -0.004443 0.000000
# 2 -0.003713 0.009704 -0.003792 0.000000 -0.001172 0.000000
# 3 -0.003271 -0.003792 0.008959 0.000000 -0.001314 0.000000
# 4 0.000000 0.000000 0.000000 0.049223 0.000000 -0.008965
# 5 -0.004443 -0.001172 -0.001314 0.000000 0.036723 0.000000
# 6 0.000000 0.000000 0.000000 -0.008965 0.000000 0.044484
#
#
# Mechanical properties :
#
#
# Convention : Reuss Voigt Hill
#
# Bulk Modulus (GPa) = 48.55266 74.33735 61.44500
# Shear Modulus (GPa) = 24.87636 28.88599 26.88118
#
# Velocity S-wave (km/s) = 3.61191 3.89213 3.75463
# Velocity P-wave (km/s) = 6.54652 7.69304 7.14282
#
# Compressibility (1/GPa) = 0.02059619
#
# Stress axis : x y z
#
# Youngs Moduli (GPa) = 42.58172 103.05337 111.61486
#
# Poissons Ratio (x) = 0.38261 0.36506
# Poissons Ratio (y) = 0.15809 0.42326
# Poissons Ratio (z) = 0.13927 0.39079
#
# Static dielectric constant tensor:
#      x y z
#    x 1.737190 0.000000 -0.022450 
#    y 0.000000 1.650870 0.000000 
#    z -0.022450 0.000000 1.658170 
# 
# From -- ./inp_files/30825.got.cif
#   From: 2010.05.17/outbox.cif.g08.bks.cpg/sg13_16_cif.got.tgz:30825.got - 2010.06.03 16:44:36.
