data_PCOD9230621
_publ_section_title
;
Structure prediction by ZEFSAII (Michael W. Deem and Ramdas Pophale) SiO2 
 PCOD9230621
Probable space group: P 2/C
;
_chemical_formula_sum "Si O2"
_cell_formula_units_Z 28
_cell_length_a 21.797699
_cell_length_b 12.459017
_cell_length_c 8.196862
_cell_angle_alpha 90.000000
_cell_angle_beta 32.725703
_cell_angle_gamma 90.000000
_cell_volume 1203.461966
_symmetry_space_group_name_H-M "P 2/C"
_symmetry_group_IT_number 13
_symmetry_cell_setting 'monoclinic'
loop_
_space_group_symop_operation_xyz
x,y,z
-x,y,1/2-z
-x,-y,-z
x,-y,1/2+z
loop_
_atom_site_type_symbol
_atom_site_label
_atom_site_fract_x
_atom_site_fract_y
_atom_site_fract_z
Si Si1 0.878757 0.524198 0.518492
Si Si2 0.562147 0.247867 0.940073
Si Si3 0.870343 0.759916 0.399328
Si Si4 0.306155 0.054746 0.704238
Si Si5 0.228284 0.369764 0.943579
Si Si6 0.107624 0.162337 0.277401
Si Si7 0.353998 0.840527 0.744805
O O1 0.891908 0.633731 0.383547
O O2 0.774432 0.447819 0.703180
O O3 0.854025 0.567698 0.752115
O O4 0.000000 0.465763 0.250000
O O5 0.627215 0.135440 0.823935
O O6 0.657589 0.338992 0.716143
O O7 0.500000 0.271130 0.250000
O O8 0.466852 0.228596 0.019126
O O9 0.864003 0.814641 0.594468
O O10 0.752449 0.770928 0.571724
O O11 0.973174 0.818715 0.074511
O O12 0.326010 0.101609 0.480232
O O13 0.358579 0.937788 0.606814
O O14 0.174127 0.058990 0.059274
O O15 0.168599 0.257096 0.039255
#
# Coordination Sequence:
#
# PCOD9230621 Si02
#       7
#     4   4   4   4   4   4   4
#     4  11  21  39  63  95 120 160 206 249 311 376
#     4   9  21  42  60  86 124 161 205 261 301 358
#     4  10  20  37  60  86 126 161 203 250 309 360
#     4  10  21  38  61  88 117 157 209 250 307 359
#     4  10  21  39  63  92 122 158 205 257 304 362
#     4   9  19  39  57  87 125 157 200 261 301 360
#     4  11  22  38  62  89 118 164 202 253 303 368
#
# _framework density 23.266211999999999
#
# number of rings (size 3 to 8) (size 9 to 14) (size 15 to 20)
#    0.000    2.000    2.857    1.714    0.000    4.571 
#    0.000   13.571    0.000    0.000    0.000    0.000 
#    0.000    0.000    0.000    0.000    0.000    0.000 
#
# Total GULP energy -156409.232101 kJ/mol
# GULP energy per Si atom -5586.044004 kJ/mol
# Density = 2.321326 g / cm^3
# Si number density = 23.266212 Si / 1000 Ang^3
#
#
#
# Elastic Constant Matrix: (Units=GPa)
#
#
# Indices 1 2 3 4 5 6 
#
# 1 83.4628 34.9245 10.9321 0.0000 -32.0606 0.0000
# 2 34.9245 43.2728 14.5546 0.0000 -13.8577 0.0000
# 3 10.9321 14.5546 57.9702 0.0000 -13.6080 0.0000
# 4 0.0000 0.0000 0.0000 14.5508 0.0000 -12.1807
# 5 -32.0606 -13.8577 -13.6080 0.0000 42.5197 0.0000
# 6 0.0000 0.0000 0.0000 -12.1807 0.0000 32.8536
#
#
#
# Elastic Compliance Matrix: (Units=1/GPa)
#
#
# Indices 1 2 3 4 5 6 
#
# 1 0.023154 -0.015300 0.002598 0.000000 0.013303 0.000000
# 2 -0.015300 0.037251 -0.006839 0.000000 -0.001585 0.000000
# 3 0.002598 -0.006839 0.019910 0.000000 0.006102 0.000000
# 4 0.000000 0.000000 0.000000 0.099654 0.000000 0.036948
# 5 0.013303 -0.001585 0.006102 0.000000 0.034985 0.000000
# 6 0.000000 0.000000 0.000000 0.036948 0.000000 0.044137
#
#
# Mechanical properties :
#
#
# Convention : Reuss Voigt Hill
#
# Bulk Modulus (GPa) = 24.25390 33.94757 29.10074
# Shear Modulus (GPa) = 16.02991 26.27114 21.15053
#
# Velocity S-wave (km/s) = 2.62769 3.36393 3.01834
# Velocity P-wave (km/s) = 4.43322 5.45075 4.96811
#
# Compressibility (1/GPa) = 0.04123049
#
# Stress axis : x y z
#
# Youngs Moduli (GPa) = 43.18990 26.84524 50.22655
#
# Poissons Ratio (x) = 0.41074 -0.13048
# Poissons Ratio (y) = 0.66082 0.34351
# Poissons Ratio (z) = -0.11220 0.18360
#
# Static dielectric constant tensor:
#      x y z
#    x 1.933550 0.000000 -0.019900 
#    y 0.000000 1.877490 0.000000 
#    z -0.019900 0.000000 1.934180 
# 
# From -- ./inp_files/23611.got.cif
#   From: 2010.05.17/outbox.cif.g08.bks.cpg/sg13_12_cif.got.tgz:23611.got - 2010.06.03 16:44:36.
