data_PCOD9230701
_publ_section_title
;
Structure prediction by ZEFSAII (Michael W. Deem and Ramdas Pophale) SiO2 
 PCOD9230701
Probable space group: P 2/C
;
_chemical_formula_sum "Si O2"
_cell_formula_units_Z 24
_cell_length_a 7.112917
_cell_length_b 20.395430
_cell_length_c 10.619511
_cell_angle_alpha 90.000000
_cell_angle_beta 133.284596
_cell_angle_gamma 90.000000
_cell_volume 1121.478419
_symmetry_space_group_name_H-M "P 2/C"
_symmetry_group_IT_number 13
_symmetry_cell_setting 'monoclinic'
loop_
_space_group_symop_operation_xyz
x,y,z
-x,y,1/2-z
-x,-y,-z
x,-y,1/2+z
loop_
_atom_site_type_symbol
_atom_site_label
_atom_site_fract_x
_atom_site_fract_y
_atom_site_fract_z
Si Si1 0.680564 0.947017 0.944599
Si Si2 0.502786 0.780360 0.395857
Si Si3 0.243726 0.521790 0.456414
Si Si4 0.251774 0.084762 0.450961
Si Si5 0.297722 0.656325 0.393195
Si Si6 0.000000 0.858859 0.250000
Si Si7 0.500000 0.428003 0.750000
O O1 0.500000 0.922337 0.750000
O O2 0.500460 0.934116 0.982614
O O3 0.924362 0.904024 0.095781
O O4 0.750204 0.023139 0.955008
O O5 0.500000 0.757314 0.250000
O O6 0.711395 0.839429 0.495528
O O7 0.498527 0.716896 0.485577
O O8 0.238092 0.815706 0.313639
O O9 0.500000 0.500000 0.500000
O O10 0.285075 0.599903 0.494332
O O11 0.272340 0.474918 0.590451
O O12 0.000000 0.512582 0.250000
O O13 0.000000 0.077934 0.250000
O O14 0.377481 0.616472 0.303448
O O15 0.000000 0.680184 0.250000
#
# Coordination Sequence:
#
# PCOD9230701 Si02
#       7
#     4   4   4   4   4   2   2
#     4  10  21  38  62  88 117 154 196 265 320 350
#     4  11  22  38  62  85 118 174 203 244 314 364
#     4   9  20  36  63  94 124 157 203 258 303 368
#     4  10  22  38  56  90 121 149 212 256 302 379
#     4  10  20  37  62  89 123 164 210 246 301 378
#     4  10  22  40  62  90 120 152 214 256 298 380
#     4  10  20  40  66  96 126 158 204 258 318 356
#
# _framework density 21.400323
#
# number of rings (size 3 to 8) (size 9 to 14) (size 15 to 20)
#    0.000    2.000    2.500    0.500    2.333    6.667 
#    0.000    3.333   14.667    0.000    0.000    0.000 
#    0.000    0.000    0.000    0.000    0.000    0.000 
#
# Total GULP energy -133613.589597 kJ/mol
# GULP energy per Si atom -5567.232900 kJ/mol
# Density = 2.135161 g / cm^3
# Si number density = 21.400323 Si / 1000 Ang^3
#
#
#
# Elastic Constant Matrix: (Units=GPa)
#
#
# Indices 1 2 3 4 5 6 
#
# 1 58.3020 11.5567 -5.6140 0.0000 4.6347 0.0000
# 2 11.5567 139.3657 40.5268 0.0000 2.3747 0.0000
# 3 -5.6140 40.5268 84.6921 0.0000 9.4000 0.0000
# 4 0.0000 0.0000 0.0000 29.4579 0.0000 1.3576
# 5 4.6347 2.3747 9.4000 0.0000 26.5936 0.0000
# 6 0.0000 0.0000 0.0000 1.3576 0.0000 38.4596
#
#
#
# Elastic Compliance Matrix: (Units=1/GPa)
#
#
# Indices 1 2 3 4 5 6 
#
# 1 0.018166 -0.002226 0.002705 0.000000 -0.003923 0.000000
# 2 -0.002226 0.008620 -0.004403 0.000000 0.001174 0.000000
# 3 0.002705 -0.004403 0.014678 0.000000 -0.005267 0.000000
# 4 0.000000 0.000000 0.000000 0.034002 0.000000 -0.001200
# 5 -0.003923 0.001174 -0.005267 0.000000 0.040043 0.000000
# 6 0.000000 0.000000 0.000000 -0.001200 0.000000 0.026044
#
#
# Mechanical properties :
#
#
# Convention : Reuss Voigt Hill
#
# Bulk Modulus (GPa) = 29.74790 41.69985 35.72387
# Shear Modulus (GPa) = 31.13194 34.62825 32.88009
#
# Velocity S-wave (km/s) = 3.81825 4.02695 3.92398
# Velocity P-wave (km/s) = 5.77664 6.41480 6.10406
#
# Compressibility (1/GPa) = 0.03361582
#
# Stress axis : x y z
#
# Youngs Moduli (GPa) = 55.04899 116.00545 68.12835
#
# Poissons Ratio (x) = 0.25823 -0.18427
# Poissons Ratio (y) = 0.12254 0.29996
# Poissons Ratio (z) = -0.14890 0.51076
#
# Static dielectric constant tensor:
#      x y z
#    x 1.874010 0.000000 -0.053250 
#    y 0.000000 1.873000 0.000000 
#    z -0.053250 0.000000 1.694070 
# 
# From -- ./inp_files/30773.got.cif
#   From: 2010.05.17/outbox.cif.g08.bks.cpg/sg13_16_cif.got.tgz:30773.got - 2010.06.03 16:44:36.
