data_PCOD9230925
_publ_section_title
;
Structure prediction by ZEFSAII (Michael W. Deem and Ramdas Pophale) SiO2 
 PCOD9230925
Probable space group: P 2/C
;
_chemical_formula_sum "Si O2"
_cell_formula_units_Z 28
_cell_length_a 6.567386
_cell_length_b 10.123121
_cell_length_c 21.504996
_cell_angle_alpha 90.000000
_cell_angle_beta 90.443467
_cell_angle_gamma 90.000000
_cell_volume 1429.661849
_symmetry_space_group_name_H-M "P 2/C"
_symmetry_group_IT_number 13
_symmetry_cell_setting 'monoclinic'
loop_
_space_group_symop_operation_xyz
x,y,z
-x,y,1/2-z
-x,-y,-z
x,-y,1/2+z
loop_
_atom_site_type_symbol
_atom_site_label
_atom_site_fract_x
_atom_site_fract_y
_atom_site_fract_z
Si Si1 0.283434 0.043468 0.869170
Si Si2 0.391057 0.619497 0.810390
Si Si3 0.000000 0.462531 0.250000
Si Si4 0.500000 0.133474 0.750000
Si Si5 0.564971 0.231704 0.938214
Si Si6 0.333183 0.374921 0.675291
Si Si7 0.884670 0.993692 0.933565
Si Si8 0.532815 0.202636 0.422607
O O1 0.367386 0.051168 0.799103
O O2 0.362306 0.177862 0.902670
O O3 0.388894 0.922395 0.905871
O O4 0.045282 0.023387 0.879507
O O5 0.500000 0.679335 0.750000
O O6 0.152605 0.619606 0.794406
O O7 0.469213 0.468015 0.814484
O O8 0.476229 0.691923 0.870474
O O9 0.855947 0.549791 0.294477
O O10 0.362009 0.234063 0.709156
O O11 0.668434 0.345852 0.897995
O O12 0.718731 0.108817 0.935810
O O13 0.514973 0.257707 0.009315
O O14 0.760591 0.857906 0.923294
O O15 0.000000 0.000000 0.000000
#
# Coordination Sequence:
#
# PCOD9230925 Si02
#       8
#     4   4   2   2   4   4   4   4
#     4  10  21  36  59  90 127 158 203 249 309 367
#     4  10  23  42  62  83 122 162 208 260 312 365
#     4  10  20  42  62  84 112 166 212 258 312 366
#     4  10  20  38  60  90 120 156 204 270 300 362
#     4  10  21  36  59  92 124 159 201 261 307 360
#     4  10  21  39  61  87 119 157 209 259 313 359
#     4  11  19  38  62  90 124 169 199 238 315 376
#     4  11  22  39  60  90 130 160 201 257 308 371
#
# _framework density 19.585052000000001
#
# number of rings (size 3 to 8) (size 9 to 14) (size 15 to 20)
#    0.000    1.714    5.000    0.857    3.000    2.857 
#    0.000    0.714    0.000    0.000    0.000    0.000 
#    0.000    0.000    0.000    0.000    0.000    0.000 
#
# Total GULP energy -156167.175010 kJ/mol
# GULP energy per Si atom -5577.399107 kJ/mol
# Density = 1.954048 g / cm^3
# Si number density = 19.585052 Si / 1000 Ang^3
#
#
#
# Elastic Constant Matrix: (Units=GPa)
#
#
# Indices 1 2 3 4 5 6 
#
# 1 113.7002 18.3655 50.6320 0.0000 -5.0609 0.0000
# 2 18.3655 31.3011 34.5660 0.0000 4.7854 0.0000
# 3 50.6320 34.5660 173.5030 0.0000 -16.9888 0.0000
# 4 0.0000 0.0000 0.0000 25.9715 0.0000 10.5305
# 5 -5.0609 4.7854 -16.9888 0.0000 28.2009 0.0000
# 6 0.0000 0.0000 0.0000 10.5305 0.0000 6.7488
#
#
#
# Elastic Compliance Matrix: (Units=1/GPa)
#
#
# Indices 1 2 3 4 5 6 
#
# 1 0.010442 -0.003962 -0.002134 0.000000 0.001260 0.000000
# 2 -0.003962 0.047167 -0.009664 0.000000 -0.014536 0.000000
# 3 -0.002134 -0.009664 0.008963 0.000000 0.006657 0.000000
# 4 0.000000 0.000000 0.000000 0.104822 0.000000 -0.163559
# 5 0.001260 -0.014536 0.006657 0.000000 0.042163 0.000000
# 6 0.000000 0.000000 0.000000 -0.163559 0.000000 0.403386
#
#
# Mechanical properties :
#
#
# Convention : Reuss Voigt Hill
#
# Bulk Modulus (GPa) = 28.52978 58.40347 43.46663
# Shear Modulus (GPa) = 7.57408 26.51362 17.04385
#
# Velocity S-wave (km/s) = 1.96867 3.68335 2.95320
# Velocity P-wave (km/s) = 4.44593 6.92637 5.81983
#
# Compressibility (1/GPa) = 0.03505110
#
# Stress axis : x y z
#
# Youngs Moduli (GPa) = 95.77087 21.20135 111.56377
#
# Poissons Ratio (x) = 0.08401 0.23811
# Poissons Ratio (y) = 0.37947 1.07814
# Poissons Ratio (z) = 0.20440 0.20489
#
# Static dielectric constant tensor:
#      x y z
#    x 1.711310 0.000000 0.013710 
#    y 0.000000 1.702370 0.000000 
#    z 0.013710 0.000000 1.730680 
# 
# From -- ./inp_files/73426.got.cif
#   From: 2010.05.17/outbox.cif.g08.bks.cpg/sg13_37_cif.got.tgz:73426.got - 2010.06.03 16:44:36.
