data_PCOD9230170
_publ_section_title
;
Structure prediction by ZEFSAII (Michael W. Deem and Ramdas Pophale) SiO2 
 PCOD9230170
Probable space group: P 2/C
;
_chemical_formula_sum "Si O2"
_cell_formula_units_Z 16
_cell_length_a 10.041930
_cell_length_b 16.676524
_cell_length_c 8.548902
_cell_angle_alpha 90.000000
_cell_angle_beta 148.050308
_cell_angle_gamma 90.000000
_cell_volume 757.585964
_symmetry_space_group_name_H-M "P 2/C"
_symmetry_group_IT_number 13
_symmetry_cell_setting 'monoclinic'
loop_
_space_group_symop_operation_xyz
x,y,z
-x,y,1/2-z
-x,-y,-z
x,-y,1/2+z
loop_
_atom_site_type_symbol
_atom_site_label
_atom_site_fract_x
_atom_site_fract_y
_atom_site_fract_z
Si Si1 0.754661 0.022206 0.109928
Si Si2 0.505176 0.684479 0.946481
Si Si3 0.999170 0.590424 0.059859
Si Si4 0.526406 0.134414 0.461486
O O1 0.709414 0.091839 0.190780
O O2 0.000000 0.029154 0.250000
O O3 0.500000 0.026616 0.750000
O O4 0.738334 0.935264 0.178126
O O5 0.500000 0.685003 0.750000
O O6 0.243717 0.642447 0.733510
O O7 0.548985 0.775766 0.046986
O O8 0.743501 0.632706 0.234967
O O9 0.000000 0.588961 0.250000
O O10 0.000000 0.500000 0.000000
O O11 0.500000 0.145356 0.250000
#
# Coordination Sequence:
#
# PCOD9230170 Si02
#       4
#     4   4   4   4
#     4  10  22  37  55  82 117 149 182 230 279 319
#     4   9  19  34  56  81 105 138 182 224 260 318
#     4  10  20  36  56  79 106 136 174 221 273 325
#     4   9  20  37  59  82 110 150 192 225 267 325
#
# _framework density 21.119716
#
# number of rings (size 3 to 8) (size 9 to 14) (size 15 to 20)
#    0.000    2.500    0.000    0.750    0.000   18.000 
#    0.000    3.750    0.000    0.000    0.000    0.000 
#    0.000    0.000    0.000    0.000    0.000    0.000 
#
# Total GULP energy -89232.911025 kJ/mol
# GULP energy per Si atom -5577.056939 kJ/mol
# Density = 2.107165 g / cm^3
# Si number density = 21.119716 Si / 1000 Ang^3
#
#
#
# Elastic Constant Matrix: (Units=GPa)
#
#
# Indices 1 2 3 4 5 6 
#
# 1 63.6532 43.2973 56.7634 0.0000 30.7640 0.0000
# 2 43.2973 217.4261 75.4199 0.0000 24.7650 0.0000
# 3 56.7634 75.4199 152.0166 0.0000 39.2626 0.0000
# 4 0.0000 0.0000 0.0000 1.9938 0.0000 1.0189
# 5 30.7640 24.7650 39.2626 0.0000 34.8567 0.0000
# 6 0.0000 0.0000 0.0000 1.0189 0.0000 27.9625
#
#
#
# Elastic Compliance Matrix: (Units=1/GPa)
#
#
# Indices 1 2 3 4 5 6 
#
# 1 0.032050 -0.002095 -0.005651 0.000000 -0.020433 0.000000
# 2 -0.002095 0.005727 -0.002095 0.000000 0.000140 0.000000
# 3 -0.005651 -0.002095 0.011360 0.000000 -0.006320 0.000000
# 4 0.000000 0.000000 0.000000 0.511081 0.000000 -0.018623
# 5 -0.020433 0.000140 -0.006320 0.000000 0.053743 0.000000
# 6 0.000000 0.000000 0.000000 -0.018623 0.000000 0.036441
#
#
# Mechanical properties :
#
#
# Convention : Reuss Voigt Hill
#
# Bulk Modulus (GPa) = 33.94969 87.11743 60.53356
# Shear Modulus (GPa) = 7.35401 30.13697 18.74549
#
# Velocity S-wave (km/s) = 1.86805 3.78161 2.98246
# Velocity P-wave (km/s) = 4.55660 7.77215 6.37059
#
# Compressibility (1/GPa) = 0.02945535
#
# Stress axis : x y z
#
# Youngs Moduli (GPa) = 31.20167 174.60157 88.02688
#
# Poissons Ratio (x) = 0.36575 0.49741
# Poissons Ratio (y) = 0.06536 0.18446
# Poissons Ratio (z) = 0.17631 0.36587
#
# Static dielectric constant tensor:
#      x y z
#    x 1.781060 0.000000 -0.048700 
#    y 0.000000 1.751640 0.000000 
#    z -0.048700 0.000000 1.807880 
# 
# From -- ./inp_files/26131.got.cif
#   From: 2010.05.17/outbox.cif.g08.bks.cpg/sg13_14_cif.got.tgz:26131.got - 2010.06.03 16:44:36.
