data_PCOD9230770
_publ_section_title
;
Structure prediction by ZEFSAII (Michael W. Deem and Ramdas Pophale) SiO2 
 PCOD9230770
Probable space group: P 2/C
;
_chemical_formula_sum "Si O2"
_cell_formula_units_Z 26
_cell_length_a 22.897252
_cell_length_b 9.670465
_cell_length_c 8.850814
_cell_angle_alpha 90.000000
_cell_angle_beta 139.039557
_cell_angle_gamma 90.000000
_cell_volume 1284.729477
_symmetry_space_group_name_H-M "P 2/C"
_symmetry_group_IT_number 13
_symmetry_cell_setting 'monoclinic'
loop_
_space_group_symop_operation_xyz
x,y,z
-x,y,1/2-z
-x,-y,-z
x,-y,1/2+z
loop_
_atom_site_type_symbol
_atom_site_label
_atom_site_fract_x
_atom_site_fract_y
_atom_site_fract_z
Si Si1 0.209485 0.411861 0.503899
Si Si2 0.500000 0.568859 0.250000
Si Si3 0.946123 0.388171 0.799370
Si Si4 0.500000 0.978427 0.750000
Si Si5 0.000000 0.020902 0.750000
Si Si6 0.429042 0.200709 0.394989
Si Si7 0.675302 0.413593 0.484265
Si Si8 0.934900 0.182731 0.362703
O O1 0.150319 0.550384 0.415510
O O2 0.257957 0.370877 0.752300
O O3 0.280996 0.458832 0.520430
O O4 0.141603 0.294066 0.315498
O O5 0.514237 0.672601 0.420339
O O6 0.584690 0.471797 0.382527
O O7 0.000000 0.375043 0.750000
O O8 0.000000 0.500000 0.000000
O O9 0.965716 0.252001 0.933916
O O10 0.534548 0.880059 0.682064
O O11 0.429817 0.083598 0.529249
O O12 0.941468 0.927942 0.745630
O O13 0.931216 0.109174 0.516305
O O14 0.344409 0.286428 0.167472
#
# Coordination Sequence:
#
# PCOD9230770 Si02
#       8
#     4   2   4   2   2   4   4   4
#     4  11  25  38  65 101 132 161 216 278 333 378
#     4  11  23  42  66  96 131 177 216 280 348 389
#     4  10  20  37  64  92 123 162 203 262 323 383
#     4   9  21  40  72  88 121 171 238 250 310 423
#     4  10  22  40  68  88 128 184 216 242 314 402
#     4  10  21  41  66  93 122 172 221 266 324 400
#     4  12  24  41  64 102 133 169 213 288 340 381
#     4  10  22  41  65  92 126 175 214 260 315 401
#
# _framework density 20.237722000000002
#
# number of rings (size 3 to 8) (size 9 to 14) (size 15 to 20)
#    0.000    1.538    2.308    2.769    8.615    0.000 
#    0.000    1.538    0.000    0.000    0.000    0.000 
#    0.000    0.000    0.000    0.000    0.000    0.000 
#
# Total GULP energy -144869.169209 kJ/mol
# GULP energy per Si atom -5571.891123 kJ/mol
# Density = 2.019166 g / cm^3
# Si number density = 20.237722 Si / 1000 Ang^3
#
#
#
# Elastic Constant Matrix: (Units=GPa)
#
#
# Indices 1 2 3 4 5 6 
#
# 1 51.8575 24.5397 45.6789 0.0000 -1.2251 0.0000
# 2 24.5397 104.2726 67.1068 0.0000 -6.7356 0.0000
# 3 45.6789 67.1068 156.2593 0.0000 -15.4917 0.0000
# 4 0.0000 0.0000 0.0000 65.3291 0.0000 -41.5576
# 5 -1.2251 -6.7356 -15.4917 0.0000 34.3354 0.0000
# 6 0.0000 0.0000 0.0000 -41.5576 0.0000 83.0316
#
#
#
# Elastic Compliance Matrix: (Units=1/GPa)
#
#
# Indices 1 2 3 4 5 6 
#
# 1 0.026421 -0.001727 -0.007246 0.000000 -0.002665 0.000000
# 2 -0.001727 0.013366 -0.005215 0.000000 0.000208 0.000000
# 3 -0.007246 -0.005215 0.011128 0.000000 0.003739 0.000000
# 4 0.000000 0.000000 0.000000 0.022457 0.000000 0.011240
# 5 -0.002665 0.000208 0.003739 0.000000 0.030757 0.000000
# 6 0.000000 0.000000 0.000000 0.011240 0.000000 0.017669
#
#
# Mechanical properties :
#
#
# Convention : Reuss Voigt Hill
#
# Bulk Modulus (GPa) = 44.36655 65.22667 54.79661
# Shear Modulus (GPa) = 31.70842 48.21017 39.95929
#
# Velocity S-wave (km/s) = 3.96257 4.88607 4.44835
# Velocity P-wave (km/s) = 6.55029 8.00823 7.31567
#
# Compressibility (1/GPa) = 0.02253950
#
# Stress axis : x y z
#
# Youngs Moduli (GPa) = 37.84933 74.81586 89.86199
#
# Poissons Ratio (x) = 0.12918 0.65116
# Poissons Ratio (y) = 0.06535 0.46862
# Poissons Ratio (z) = 0.27426 0.39016
#
# Static dielectric constant tensor:
#      x y z
#    x 1.737680 0.000000 -0.036190 
#    y 0.000000 1.784790 0.000000 
#    z -0.036190 0.000000 1.732380 
# 
# From -- ./inp_files/24483.got.cif
#   From: 2010.05.17/outbox.cif.g08.bks.cpg/sg13_13_cif.got.tgz:24483.got - 2010.06.03 16:44:36.
