data_PCOD9230386
_publ_section_title
;
Structure prediction by ZEFSAII (Michael W. Deem and Ramdas Pophale) SiO2 
 PCOD9230386
Probable space group: P 2/C
;
_chemical_formula_sum "Si O2"
_cell_formula_units_Z 26
_cell_length_a 18.853892
_cell_length_b 10.724287
_cell_length_c 13.661603
_cell_angle_alpha 90.000000
_cell_angle_beta 152.211896
_cell_angle_gamma 90.000000
_cell_volume 1287.793235
_symmetry_space_group_name_H-M "P 2/C"
_symmetry_group_IT_number 13
_symmetry_cell_setting 'monoclinic'
loop_
_space_group_symop_operation_xyz
x,y,z
-x,y,1/2-z
-x,-y,-z
x,-y,1/2+z
loop_
_atom_site_type_symbol
_atom_site_label
_atom_site_fract_x
_atom_site_fract_y
_atom_site_fract_z
Si Si1 0.145991 0.102508 0.988808
Si Si2 0.419151 0.289085 0.309671
Si Si3 0.742919 0.716698 0.267710
Si Si4 0.830720 0.823007 0.562226
Si Si5 0.279722 0.430481 0.319901
Si Si6 0.500000 0.484626 0.250000
Si Si7 0.926019 0.793976 0.891428
O O1 0.293368 0.183847 0.144898
O O2 0.107320 0.118346 0.056447
O O3 0.000000 0.149851 0.750000
O O4 0.172571 0.961391 0.987034
O O5 0.590589 0.238248 0.527452
O O6 0.382652 0.362437 0.364884
O O7 0.413729 0.391951 0.218706
O O8 0.725787 0.740884 0.363448
O O9 0.755377 0.570272 0.258384
O O10 0.895752 0.785354 0.417437
O O11 0.826363 0.830196 0.674030
O O12 0.000000 0.769060 0.750000
O O13 0.377141 0.439652 0.537994
O O14 0.132208 0.344487 0.151947
#
# Coordination Sequence:
#
# PCOD9230386 Si02
#       7
#     4   4   4   4   4   2   4
#     4  10  23  42  61  85 123 157 208 253 294 358
#     4  10  23  39  59  92 121 161 199 249 306 354
#     4  10  20  38  62  89 125 152 202 249 298 364
#     4   9  21  39  63  87 120 161 198 250 300 355
#     4  10  22  37  60  90 125 157 201 246 301 367
#     4  10  20  36  62  84 126 162 192 248 312 352
#     4  10  22  40  63  93 115 165 204 243 308 356
#
# _framework density 20.189575999999999
#
# number of rings (size 3 to 8) (size 9 to 14) (size 15 to 20)
#    0.000    2.154    0.000    2.308    8.615    6.154 
#    0.000    0.769    0.000    0.000    0.000    0.000 
#    0.000    0.000    0.000    0.000    0.000    0.000 
#
# Total GULP energy -145113.927973 kJ/mol
# GULP energy per Si atom -5581.304922 kJ/mol
# Density = 2.014362 g / cm^3
# Si number density = 20.189576 Si / 1000 Ang^3
#
#
#
# Elastic Constant Matrix: (Units=GPa)
#
#
# Indices 1 2 3 4 5 6 
#
# 1 91.7070 21.4623 48.8817 0.0000 -12.3765 0.0000
# 2 21.4623 66.2299 58.0991 0.0000 -1.3106 0.0000
# 3 48.8817 58.0991 101.6719 0.0000 -11.3999 0.0000
# 4 0.0000 0.0000 0.0000 19.5136 0.0000 26.4378
# 5 -12.3765 -1.3106 -11.3999 0.0000 42.1337 0.0000
# 6 0.0000 0.0000 0.0000 26.4378 0.0000 -118.7763
#
#
#
# Elastic Compliance Matrix: (Units=1/GPa)
#
#
# Indices 1 2 3 4 5 6 
#
# 1 0.015134 0.002615 -0.008521 0.000000 0.002221 0.000000
# 2 0.002615 0.031347 -0.019568 0.000000 -0.003551 0.000000
# 3 -0.008521 -0.019568 0.025541 0.000000 0.003799 0.000000
# 4 0.000000 0.000000 0.000000 0.039373 0.000000 0.008764
# 5 0.002221 -0.003551 0.003799 0.000000 0.025304 0.000000
# 6 0.000000 0.000000 0.000000 0.008764 0.000000 -0.006468
#
#
# Mechanical properties :
#
#
# Convention : Reuss Voigt Hill
#
# Bulk Modulus (GPa) = 47.45594 57.38835 52.42215
# Shear Modulus (GPa) = 26.56689 -2.68143 11.94273
#
# Velocity S-wave (km/s) = 3.63143 -1.15369 2.43478
# Velocity P-wave (km/s) = 6.41399 5.16834 5.82456
#
# Compressibility (1/GPa) = 0.02107218
#
# Stress axis : x y z
#
# Youngs Moduli (GPa) = 66.07563 31.90056 39.15349
#
# Poissons Ratio (x) = -0.08341 0.33364
# Poissons Ratio (y) = -0.17278 0.76617
# Poissons Ratio (z) = 0.56305 0.62424
#
# Static dielectric constant tensor:
#      x y z
#    x 1.770210 0.000000 -0.013220 
#    y 0.000000 1.689090 0.000000 
#    z -0.013220 0.000000 1.729620 
# 
# From -- ./inp_files/39254.got.cif
#   From: 2010.05.17/outbox.cif.g08.bks.cpg/sg13_20_cif.got.tgz:39254.got - 2010.06.03 16:44:36.
