data_PCOD9230297
_publ_section_title
;
Structure prediction by ZEFSAII (Michael W. Deem and Ramdas Pophale) SiO2 
 PCOD9230297
Probable space group: P 2/C
;
_chemical_formula_sum "Si O2"
_cell_formula_units_Z 30
_cell_length_a 19.122045
_cell_length_b 13.975914
_cell_length_c 18.851520
_cell_angle_alpha 90.000000
_cell_angle_beta 163.275058
_cell_angle_gamma 90.000000
_cell_volume 1449.832035
_symmetry_space_group_name_H-M "P 2/C"
_symmetry_group_IT_number 13
_symmetry_cell_setting 'monoclinic'
loop_
_space_group_symop_operation_xyz
x,y,z
-x,y,1/2-z
-x,-y,-z
x,-y,1/2+z
loop_
_atom_site_type_symbol
_atom_site_label
_atom_site_fract_x
_atom_site_fract_y
_atom_site_fract_z
Si Si1 0.210021 0.045827 0.155107
Si Si2 0.389804 0.311100 0.066515
Si Si3 0.106877 0.216632 0.677180
Si Si4 0.770212 0.394969 0.325532
Si Si5 0.000000 0.548823 0.250000
Si Si6 0.548226 0.137025 0.602985
Si Si7 0.194662 0.420636 0.558543
Si Si8 0.681531 0.327770 0.082216
O O1 0.395806 0.094406 0.389717
O O2 0.344354 0.954427 0.250781
O O3 0.086353 0.133023 0.993377
O O4 0.000000 0.000000 0.000000
O O5 0.500000 0.283877 0.250000
O O6 0.578690 0.366146 0.200293
O O7 0.290456 0.225829 0.921018
O O8 0.169736 0.383034 0.868704
O O9 0.234896 0.191805 0.726997
O O10 0.985727 0.319323 0.546595
O O11 0.835286 0.504464 0.405112
O O12 0.662633 0.371050 0.143842
O O13 0.166060 0.483102 0.460313
O O14 0.380436 0.215187 0.477247
O O15 0.957853 0.351801 0.328665
O O16 0.460154 0.374713 0.823447
#
# Coordination Sequence:
#
# PCOD9230297 Si02
#       8
#     4   4   4   4   2   4   4   4
#     4   9  19  34  60  89 128 164 198 260 339 398
#     4  12  22  38  62  84 129 182 224 268 317 398
#     4  11  19  36  60  91 128 175 205 268 333 399
#     4  12  23  38  60  92 135 171 213 273 330 400
#     4  12  26  44  60  86 126 178 236 264 316 380
#     4  10  20  36  59  93 132 159 207 267 335 404
#     4  12  27  41  63  90 131 181 220 277 321 394
#     4  12  25  40  63  97 134 169 223 266 338 390
#
# _framework density 20.692052
#
# number of rings (size 3 to 8) (size 9 to 14) (size 15 to 20)
#    0.000    0.800    5.333    2.400    1.867    0.000 
#    0.000    0.000    0.000    0.000    0.000    8.400 
#    8.000    0.000    0.000    0.000    0.000    0.000 
#
# Total GULP energy -167588.208585 kJ/mol
# GULP energy per Si atom -5586.273620 kJ/mol
# Density = 2.064496 g / cm^3
# Si number density = 20.692052 Si / 1000 Ang^3
#
#
#
# Elastic Constant Matrix: (Units=GPa)
#
#
# Indices 1 2 3 4 5 6 
#
# 1 18.1829 -22.5937 -0.7176 0.0000 -7.5839 0.0000
# 2 -22.5937 93.6514 28.7914 0.0000 -5.2364 0.0000
# 3 -0.7176 28.7914 97.6795 0.0000 -10.3083 0.0000
# 4 0.0000 0.0000 0.0000 15.8983 0.0000 3.6174
# 5 -7.5839 -5.2364 -10.3083 0.0000 38.6348 0.0000
# 6 0.0000 0.0000 0.0000 3.6174 0.0000 13.5703
#
#
#
# Elastic Compliance Matrix: (Units=1/GPa)
#
#
# Indices 1 2 3 4 5 6 
#
# 1 0.095370 0.025605 -0.004635 0.000000 0.020955 0.000000
# 2 0.025605 0.018634 -0.004638 0.000000 0.006314 0.000000
# 3 -0.004635 -0.004638 0.011739 0.000000 0.001594 0.000000
# 4 0.000000 0.000000 0.000000 0.066961 0.000000 -0.017850
# 5 0.020955 0.006314 0.001594 0.000000 0.031278 0.000000
# 6 0.000000 0.000000 0.000000 -0.017850 0.000000 0.078449
#
#
# Mechanical properties :
#
#
# Convention : Reuss Voigt Hill
#
# Bulk Modulus (GPa) = 6.31287 24.49712 15.40499
# Shear Modulus (GPa) = 15.50054 27.22292 21.36173
#
# Velocity S-wave (km/s) = 2.73995 3.63109 3.21653
# Velocity P-wave (km/s) = 3.61487 5.42626 4.61040
#
# Compressibility (1/GPa) = 0.15840663
#
# Stress axis : x y z
#
# Youngs Moduli (GPa) = 10.48546 53.66499 85.18786
#
# Poissons Ratio (x) = -1.37409 0.39486
# Poissons Ratio (y) = -0.26848 0.39510
# Poissons Ratio (z) = 0.04860 0.24890
#
# Static dielectric constant tensor:
#      x y z
#    x 1.803700 0.000000 0.074980 
#    y 0.000000 1.813310 0.000000 
#    z 0.074980 0.000000 1.860370 
# 
# From -- ./inp_files/70067.got.cif
#   From: 2010.05.17/outbox.cif.g08.bks.cpg/sg13_36_cif.got.tgz:70067.got - 2010.06.03 16:44:36.
