data_PCOD9230071
_publ_section_title
;
Structure prediction by ZEFSAII (Michael W. Deem and Ramdas Pophale) SiO2 
 PCOD9230071
Probable space group: P 2/C
;
_chemical_formula_sum "Si O2"
_cell_formula_units_Z 24
_cell_length_a 5.057631
_cell_length_b 8.378969
_cell_length_c 27.504515
_cell_angle_alpha 90.000000
_cell_angle_beta 72.351433
_cell_angle_gamma 90.000000
_cell_volume 1110.719885
_symmetry_space_group_name_H-M "P 2/C"
_symmetry_group_IT_number 13
_symmetry_cell_setting 'monoclinic'
loop_
_space_group_symop_operation_xyz
x,y,z
-x,y,1/2-z
-x,-y,-z
x,-y,1/2+z
loop_
_atom_site_type_symbol
_atom_site_label
_atom_site_fract_x
_atom_site_fract_y
_atom_site_fract_z
Si Si1 0.627071 0.344436 0.039208
Si Si2 0.734035 0.096762 0.958090
Si Si3 0.252276 0.729060 0.140027
Si Si4 0.654458 0.145355 0.690668
Si Si5 0.220848 0.119126 0.390800
Si Si6 0.048536 0.439696 0.087160
O O1 0.575933 0.202436 0.081966
O O2 0.326345 0.403239 0.040987
O O3 0.804137 0.468570 0.061547
O O4 0.788875 0.254363 0.987560
O O5 0.642737 0.161928 0.910645
O O6 0.005998 0.991864 0.932822
O O7 0.500000 0.000000 0.000000
O O8 0.492632 0.723919 0.166552
O O9 0.140173 0.568457 0.121276
O O10 0.977105 0.809973 0.177830
O O11 0.500000 0.129740 0.750000
O O12 0.647888 0.983949 0.659034
O O13 0.052063 0.275031 0.382229
#
# Coordination Sequence:
#
# PCOD9230071 Si02
#       6
#     4   4   4   4   4   4
#     4  10  20  35  60  89 130 165 202 241 305 372
#     4  11  19  37  60  93 129 172 210 249 302 374
#     4  11  25  41  63  92 127 166 206 262 315 376
#     4  11  24  44  69  88 115 158 217 265 319 374
#     4   9  22  37  64  90 124 160 208 262 304 366
#     4  10  22  38  59  88 131 160 200 250 313 366
#
# _framework density 21.607607000000002
#
# number of rings (size 3 to 8) (size 9 to 14) (size 15 to 20)
#    1.000    0.667    1.667    3.000    2.333    5.333 
#    0.000    0.833    3.667    0.000    0.000    0.000 
#    0.000    0.000    0.000    0.000    0.000    0.000 
#
# Total GULP energy -134001.123918 kJ/mol
# GULP energy per Si atom -5583.380163 kJ/mol
# Density = 2.155843 g / cm^3
# Si number density = 21.607607 Si / 1000 Ang^3
#
#
#
# Elastic Constant Matrix: (Units=GPa)
#
#
# Indices 1 2 3 4 5 6 
#
# 1 84.7863 5.8722 20.3176 0.0000 6.4186 0.0000
# 2 5.8722 76.9805 29.8819 0.0000 -6.5543 0.0000
# 3 20.3176 29.8819 122.9057 0.0000 -17.7797 0.0000
# 4 0.0000 0.0000 0.0000 15.8303 0.0000 1.0538
# 5 6.4186 -6.5543 -17.7797 0.0000 23.5073 0.0000
# 6 0.0000 0.0000 0.0000 1.0538 0.0000 32.2120
#
#
#
# Elastic Compliance Matrix: (Units=1/GPa)
#
#
# Indices 1 2 3 4 5 6 
#
# 1 0.012955 -0.000360 -0.002897 0.000000 -0.005829 0.000000
# 2 -0.000360 0.014403 -0.003197 0.000000 0.001696 0.000000
# 3 -0.002897 -0.003197 0.010530 0.000000 0.007864 0.000000
# 4 0.000000 0.000000 0.000000 0.063308 0.000000 -0.002071
# 5 -0.005829 0.001696 0.007864 0.000000 0.050553 0.000000
# 6 0.000000 0.000000 0.000000 -0.002071 0.000000 0.031112
#
#
# Mechanical properties :
#
#
# Convention : Reuss Voigt Hill
#
# Bulk Modulus (GPa) = 40.03213 44.09066 42.06140
# Shear Modulus (GPa) = 24.49834 29.54998 27.02416
#
# Velocity S-wave (km/s) = 3.37082 3.70208 3.54033
# Velocity P-wave (km/s) = 5.80664 6.22281 6.01832
#
# Compressibility (1/GPa) = 0.02497994
#
# Stress axis : x y z
#
# Youngs Moduli (GPa) = 77.19119 69.42927 94.96495
#
# Poissons Ratio (x) = 0.02498 0.27514
# Poissons Ratio (y) = 0.02778 0.30360
# Poissons Ratio (z) = 0.22365 0.22196
#
# Static dielectric constant tensor:
#      x y z
#    x 1.803070 0.000000 0.014720 
#    y 0.000000 1.888120 0.000000 
#    z 0.014720 0.000000 1.745230 
# 
# From -- ./inp_files/83300.got.cif
#   From: 2010.05.17/outbox.cif.g08.bks.cpg/sg13_42_cif.got.tgz:83300.got - 2010.06.03 16:44:36.
