data_PCOD9230018
_publ_section_title
;
Structure prediction by ZEFSAII (Michael W. Deem and Ramdas Pophale) SiO2 
 PCOD9230018
Probable space group: P 2/C
;
_chemical_formula_sum "Si O2"
_cell_formula_units_Z 28
_cell_length_a 15.977150
_cell_length_b 11.698979
_cell_length_c 19.569936
_cell_angle_alpha 90.000000
_cell_angle_beta 20.138967
_cell_angle_gamma 90.000000
_cell_volume 1259.422802
_symmetry_space_group_name_H-M "P 2/C"
_symmetry_group_IT_number 13
_symmetry_cell_setting 'monoclinic'
loop_
_space_group_symop_operation_xyz
x,y,z
-x,y,1/2-z
-x,-y,-z
x,-y,1/2+z
loop_
_atom_site_type_symbol
_atom_site_label
_atom_site_fract_x
_atom_site_fract_y
_atom_site_fract_z
Si Si1 0.054906 0.880501 0.497419
Si Si2 0.345930 0.728208 0.770701
Si Si3 0.397961 0.481803 0.500465
Si Si4 0.168413 0.881952 0.687265
Si Si5 0.560462 0.713718 0.352709
Si Si6 0.742027 0.879583 0.414360
Si Si7 0.064803 0.324859 0.822653
O O1 0.311616 0.813395 0.290182
O O2 0.852930 0.793014 0.623415
O O3 0.003599 0.899739 0.616172
O O4 0.000000 0.000000 0.500000
O O5 0.447935 0.616311 0.655143
O O6 0.561747 0.820544 0.605379
O O7 0.211198 0.694886 0.944088
O O8 0.500000 0.500000 0.500000
O O9 0.420937 0.597449 0.438704
O O10 0.132747 0.427184 0.719715
O O11 0.356237 0.778944 0.553110
O O12 0.000000 0.858993 0.750000
O O13 0.332307 0.996389 0.554196
O O14 0.786718 0.661361 0.221062
O O15 0.809391 0.788371 0.304707
O O16 0.000000 0.902693 0.250000
#
# Coordination Sequence:
#
# PCOD9230018 Si02
#       7
#     4   4   4   4   4   4   4
#     4  11  22  36  60  89 114 149 199 246 291 347
#     4  10  20  35  58  83 110 143 184 238 288 337
#     4   9  18  33  55  84 111 140 182 233 284 336
#     4  11  23  38  56  80 117 159 191 236 296 353
#     4  10  21  36  57  83 114 149 190 236 283 342
#     4  10  21  36  54  79 111 145 184 230 287 342
#     4   9  19  35  58  84 108 140 186 235 286 340
#
# _framework density 22.232408
#
# number of rings (size 3 to 8) (size 9 to 14) (size 15 to 20)
#    0.000    2.000    0.000    5.143    0.000    9.143 
#    0.000    5.714    0.000    3.429    0.000    0.000 
#    0.000    0.000    0.000    0.000    0.000    0.000 
#
# Total GULP energy -156025.716572 kJ/mol
# GULP energy per Si atom -5572.347020 kJ/mol
# Density = 2.218181 g / cm^3
# Si number density = 22.232408 Si / 1000 Ang^3
#
#
#
# Elastic Constant Matrix: (Units=GPa)
#
#
# Indices 1 2 3 4 5 6 
#
# 1 50.1732 1.7804 18.1733 0.0000 16.2933 0.0000
# 2 1.7804 157.2927 64.0358 0.0000 20.0029 0.0000
# 3 18.1733 64.0358 147.7661 0.0000 25.8350 0.0000
# 4 0.0000 0.0000 0.0000 22.1379 0.0000 10.2732
# 5 16.2933 20.0029 25.8350 0.0000 23.1501 0.0000
# 6 0.0000 0.0000 0.0000 10.2732 0.0000 4.9284
#
#
#
# Elastic Compliance Matrix: (Units=1/GPa)
#
#
# Indices 1 2 3 4 5 6 
#
# 1 0.026667 0.002615 -0.000915 0.000000 -0.020007 0.000000
# 2 0.002615 0.008232 -0.002887 0.000000 -0.005732 0.000000
# 3 -0.000915 -0.002887 0.009420 0.000000 -0.007375 0.000000
# 4 0.000000 0.000000 0.000000 1.382522 0.000000 -2.881870
# 5 -0.020007 -0.005732 -0.007375 0.000000 0.070459 0.000000
# 6 0.000000 0.000000 0.000000 -2.881870 0.000000 6.210172
#
#
# Mechanical properties :
#
#
# Convention : Reuss Voigt Hill
#
# Bulk Modulus (GPa) = 23.84072 58.13456 40.98764
# Shear Modulus (GPa) = 0.64735 28.12611 14.38673
#
# Velocity S-wave (km/s) = 0.54019 3.56068 2.54659
# Velocity P-wave (km/s) = 3.33703 6.56581 5.20796
#
# Compressibility (1/GPa) = 0.04194504
#
# Stress axis : x y z
#
# Youngs Moduli (GPa) = 37.50019 121.47436 106.15229
#
# Poissons Ratio (x) = -0.31764 0.09712
# Poissons Ratio (y) = -0.09806 0.30646
# Poissons Ratio (z) = 0.03431 0.35070
#
# Static dielectric constant tensor:
#      x y z
#    x 1.745770 0.000000 -0.074880 
#    y 0.000000 2.002450 0.000000 
#    z -0.074880 0.000000 1.862040 
# 
# From -- ./inp_files/81034.got.cif
#   From: 2010.05.17/outbox.cif.g08.bks.cpg/sg13_41_cif.got.tgz:81034.got - 2010.06.03 16:44:36.
