data_PCOD9230046
_publ_section_title
;
Structure prediction by ZEFSAII (Michael W. Deem and Ramdas Pophale) SiO2 
 PCOD9230046
Probable space group: P 2/C
;
_chemical_formula_sum "Si O2"
_cell_formula_units_Z 24
_cell_length_a 24.062461
_cell_length_b 8.694722
_cell_length_c 12.192184
_cell_angle_alpha 90.000000
_cell_angle_beta 154.886154
_cell_angle_gamma 90.000000
_cell_volume 1082.608171
_symmetry_space_group_name_H-M "P 2/C"
_symmetry_group_IT_number 13
_symmetry_cell_setting 'monoclinic'
loop_
_space_group_symop_operation_xyz
x,y,z
-x,y,1/2-z
-x,-y,-z
x,-y,1/2+z
loop_
_atom_site_type_symbol
_atom_site_label
_atom_site_fract_x
_atom_site_fract_y
_atom_site_fract_z
Si Si1 0.160414 0.018944 0.115671
Si Si2 0.155556 0.252500 0.916316
Si Si3 0.399790 0.830757 0.435103
Si Si4 0.340318 0.987560 0.623114
Si Si5 0.793996 0.412176 0.903684
Si Si6 0.979990 0.272798 0.053305
O O1 0.275363 0.919167 0.264048
O O2 0.235506 0.070895 0.358629
O O3 0.048759 0.901403 0.956655
O O4 0.125897 0.150241 0.969752
O O5 0.201712 0.413665 0.048377
O O6 0.048761 0.280714 0.628107
O O7 0.263749 0.149106 0.048040
O O8 0.540951 0.895113 0.721038
O O9 0.397492 0.882874 0.304089
O O10 0.352326 0.656376 0.365179
O O11 0.879788 0.322752 0.150073
O O12 0.874534 0.376961 0.934448
#
# Coordination Sequence:
#
# PCOD9230046 Si02
#       6
#     4   4   4   4   4   4
#     4   9  18  35  57  80 106 145 190 232 272 327
#     4  10  20  35  59  86 110 145 192 234 281 336
#     4   9  18  33  54  77 110 148 179 228 283 329
#     4   9  18  34  55  80 108 142 190 231 273 330
#     4  10  20  36  55  80 116 150 182 229 289 339
#     4   9  20  39  55  79 116 149 183 229 284 337
#
# _framework density 22.168686000000001
#
# number of rings (size 3 to 8) (size 9 to 14) (size 15 to 20)
#    0.000    2.667    0.000    1.000    0.000    2.000 
#    0.000   32.500    0.000   18.000    0.000    0.000 
#    0.000    0.000    0.000    0.000    0.000    0.000 
#
# Total GULP energy -133885.279387 kJ/mol
# GULP energy per Si atom -5578.553308 kJ/mol
# Density = 2.211823 g / cm^3
# Si number density = 22.168686 Si / 1000 Ang^3
#
#
#
# Elastic Constant Matrix: (Units=GPa)
#
#
# Indices 1 2 3 4 5 6 
#
# 1 71.5237 40.7003 38.0141 0.0000 -13.6951 0.0000
# 2 40.7003 79.3018 34.9762 0.0000 -11.9279 0.0000
# 3 38.0141 34.9762 72.4533 0.0000 0.5569 0.0000
# 4 0.0000 0.0000 0.0000 24.8182 0.0000 -11.4373
# 5 -13.6951 -11.9279 0.5569 0.0000 39.6223 0.0000
# 6 0.0000 0.0000 0.0000 -11.4373 0.0000 13.5255
#
#
#
# Elastic Compliance Matrix: (Units=1/GPa)
#
#
# Indices 1 2 3 4 5 6 
#
# 1 0.024336 -0.007485 -0.009203 0.000000 0.006288 0.000000
# 2 -0.007485 0.019349 -0.005439 0.000000 0.003314 0.000000
# 3 -0.009203 -0.005439 0.021296 0.000000 -0.005118 0.000000
# 4 0.000000 0.000000 0.000000 0.066021 0.000000 0.055827
# 5 0.006288 0.003314 -0.005118 0.000000 0.028481 0.000000
# 6 0.000000 0.000000 0.000000 0.055827 0.000000 0.121142
#
#
# Mechanical properties :
#
#
# Convention : Reuss Voigt Hill
#
# Bulk Modulus (GPa) = 48.24849 50.07334 49.16091
# Shear Modulus (GPa) = 15.06985 22.89908 18.98446
#
# Velocity S-wave (km/s) = 2.61009 3.21744 2.92954
# Velocity P-wave (km/s) = 5.55832 6.03647 5.80232
#
# Compressibility (1/GPa) = 0.02072604
#
# Stress axis : x y z
#
# Youngs Moduli (GPa) = 41.09089 51.68231 46.95813
#
# Poissons Ratio (x) = 0.38686 0.43217
# Poissons Ratio (y) = 0.30758 0.25539
# Poissons Ratio (z) = 0.37818 0.28109
#
# Static dielectric constant tensor:
#      x y z
#    x 1.881540 0.000000 -0.023750 
#    y 0.000000 1.807900 0.000000 
#    z -0.023750 0.000000 1.891440 
# 
# From -- ./inp_files/41633.got.cif
#   From: 2010.05.17/outbox.cif.g08.bks.cpg/sg13_21_cif.got.tgz:41633.got - 2010.06.03 16:44:36.
