data_PCOD9230538
_publ_section_title
;
Structure prediction by ZEFSAII (Michael W. Deem and Ramdas Pophale) SiO2 
 PCOD9230538
Probable space group: P 2/C
;
_chemical_formula_sum "Si O2"
_cell_formula_units_Z 28
_cell_length_a 7.968360
_cell_length_b 12.360752
_cell_length_c 14.427155
_cell_angle_alpha 90.000000
_cell_angle_beta 73.621166
_cell_angle_gamma 90.000000
_cell_volume 1363.334720
_symmetry_space_group_name_H-M "P 2/C"
_symmetry_group_IT_number 13
_symmetry_cell_setting 'monoclinic'
loop_
_space_group_symop_operation_xyz
x,y,z
-x,y,1/2-z
-x,-y,-z
x,-y,1/2+z
loop_
_atom_site_type_symbol
_atom_site_label
_atom_site_fract_x
_atom_site_fract_y
_atom_site_fract_z
Si Si1 0.350919 0.946797 0.135169
Si Si2 0.811088 0.290727 0.537637
Si Si3 0.829044 0.436421 0.713797
Si Si4 0.432691 0.284477 0.658009
Si Si5 0.091261 0.667139 0.835761
Si Si6 0.154638 0.905979 0.803279
Si Si7 0.768032 0.039213 0.537155
O O1 0.317714 0.817872 0.145148
O O2 0.559652 0.957187 0.093236
O O3 0.295471 0.018462 0.230813
O O4 0.245389 0.994201 0.064600
O O5 0.855179 0.352252 0.625799
O O6 0.598895 0.304271 0.565558
O O7 0.833367 0.161750 0.536404
O O8 0.936964 0.332162 0.436532
O O9 0.674563 0.392068 0.802903
O O10 0.800669 0.555943 0.676329
O O11 0.000000 0.438062 0.750000
O O12 0.500000 0.249546 0.750000
O O13 0.194602 0.780754 0.820871
O O14 0.000000 0.665944 0.750000
O O15 0.000000 0.904037 0.750000
O O16 0.131667 0.964125 0.905622
#
# Coordination Sequence:
#
# PCOD9230538 Si02
#       7
#     4   4   4   4   4   4   4
#     4  10  20  37  57  83 118 152 186 236 291 348
#     4  10  20  39  61  81 114 154 188 234 293 346
#     4  10  21  38  60  86 112 144 195 248 290 338
#     4   9  19  37  62  86 113 151 194 239 290 346
#     4  10  22  38  55  81 118 155 192 238 291 342
#     4  11  22  35  55  84 120 154 188 236 291 344
#     4  10  21  36  59  86 114 151 193 232 290 356
#
# _framework density 20.537876000000001
#
# number of rings (size 3 to 8) (size 9 to 14) (size 15 to 20)
#    0.000    2.000    0.000    5.143    0.000    5.714 
#    0.000    7.143    0.000    0.000    0.000    0.000 
#    0.000    0.000    0.000    0.000    0.000    0.000 
#
# Total GULP energy -156136.835310 kJ/mol
# GULP energy per Si atom -5576.315547 kJ/mol
# Density = 2.049113 g / cm^3
# Si number density = 20.537876 Si / 1000 Ang^3
#
#
#
# Elastic Constant Matrix: (Units=GPa)
#
#
# Indices 1 2 3 4 5 6 
#
# 1 44.8382 48.5820 21.5935 0.0000 -1.4298 0.0000
# 2 48.5820 181.9230 57.0006 0.0000 -11.8389 0.0000
# 3 21.5935 57.0006 100.3910 0.0000 -10.8603 0.0000
# 4 0.0000 0.0000 0.0000 35.8141 0.0000 1.3153
# 5 -1.4298 -11.8389 -10.8603 0.0000 41.8553 0.0000
# 6 0.0000 0.0000 0.0000 1.3153 0.0000 27.5730
#
#
#
# Elastic Compliance Matrix: (Units=1/GPa)
#
#
# Indices 1 2 3 4 5 6 
#
# 1 0.032006 -0.007842 -0.002627 0.000000 -0.001806 0.000000
# 2 -0.007842 0.008643 -0.003071 0.000000 0.001380 0.000000
# 3 -0.002627 -0.003071 0.012518 0.000000 0.002290 0.000000
# 4 0.000000 0.000000 0.000000 0.027971 0.000000 -0.001334
# 5 -0.001806 0.001380 0.002290 0.000000 0.024814 0.000000
# 6 0.000000 0.000000 0.000000 -0.001334 0.000000 0.036331
#
#
# Mechanical properties :
#
#
# Convention : Reuss Voigt Hill
#
# Bulk Modulus (GPa) = 38.33426 64.61159 51.47293
# Shear Modulus (GPa) = 28.08041 34.38022 31.23032
#
# Velocity S-wave (km/s) = 3.70165 4.09588 3.90374
# Velocity P-wave (km/s) = 6.08073 7.34141 6.74061
#
# Compressibility (1/GPa) = 0.02608633
#
# Stress axis : x y z
#
# Youngs Moduli (GPa) = 31.24379 115.70004 79.88608
#
# Poissons Ratio (x) = 0.90726 0.20990
# Poissons Ratio (y) = 0.24500 0.24537
# Poissons Ratio (z) = 0.08209 0.35537
#
# Static dielectric constant tensor:
#      x y z
#    x 1.807360 0.000000 -0.061160 
#    y 0.000000 1.756980 0.000000 
#    z -0.061160 0.000000 1.798150 
# 
# From -- ./inp_files/46871.got.cif
#   From: 2010.05.17/outbox.cif.g08.bks.cpg/sg13_24_cif.got.tgz:46871.got - 2010.06.03 16:44:36.
