data_PCOD9230085
_publ_section_title
;
Structure prediction by ZEFSAII (Michael W. Deem and Ramdas Pophale) SiO2 
 PCOD9230085
Probable space group: P 2/C
;
_chemical_formula_sum "Si O2"
_cell_formula_units_Z 20
_cell_length_a 14.223036
_cell_length_b 8.512339
_cell_length_c 17.060360
_cell_angle_alpha 90.000000
_cell_angle_beta 150.609967
_cell_angle_gamma 90.000000
_cell_volume 1013.658485
_symmetry_space_group_name_H-M "P 2/C"
_symmetry_group_IT_number 13
_symmetry_cell_setting 'monoclinic'
loop_
_space_group_symop_operation_xyz
x,y,z
-x,y,1/2-z
-x,-y,-z
x,-y,1/2+z
loop_
_atom_site_type_symbol
_atom_site_label
_atom_site_fract_x
_atom_site_fract_y
_atom_site_fract_z
Si Si1 0.500000 0.358110 0.750000
Si Si2 0.238363 0.379963 0.851905
Si Si3 0.069297 0.838577 0.716573
Si Si4 0.080398 0.552179 0.974954
Si Si5 0.447799 0.296824 0.540521
Si Si6 0.000000 0.863500 0.250000
O O1 0.307913 0.456946 0.628991
O O2 0.465980 0.259779 0.645560
O O3 0.356128 0.306914 0.864908
O O4 0.040707 0.452268 0.675621
O O5 0.184011 0.245948 0.873668
O O6 0.359770 0.526187 0.972575
O O7 0.000000 0.766066 0.750000
O O8 0.977194 0.733868 0.582828
O O9 0.297164 0.814880 0.886582
O O10 0.002874 0.017505 0.678126
O O11 0.000000 0.500000 0.000000
#
# Coordination Sequence:
#
# PCOD9230085 Si02
#       6
#     2   4   4   4   4   2
#     4  12  18  32  58  86 114 148 182 256 298 318
#     4  10  21  37  58  89 109 153 200 244 287 355
#     4   9  20  38  55  81 114 153 188 237 294 349
#     4  11  21  36  60  87 114 148 201 248 291 345
#     4  10  20  35  61  83 113 149 206 238 289 347
#     4  10  20  36  60  80 120 156 190 240 298 358
#
# _framework density 19.730509000000001
#
# number of rings (size 3 to 8) (size 9 to 14) (size 15 to 20)
#    0.600    1.200    4.000    1.200    2.800    0.800 
#    0.000    1.000    0.000   10.800    0.000    0.000 
#    0.000    0.000    0.000    0.000    0.000    0.000 
#
# Total GULP energy -111442.227863 kJ/mol
# GULP energy per Si atom -5572.111393 kJ/mol
# Density = 1.968560 g / cm^3
# Si number density = 19.730509 Si / 1000 Ang^3
#
#
#
# Elastic Constant Matrix: (Units=GPa)
#
#
# Indices 1 2 3 4 5 6 
#
# 1 88.6750 36.2735 30.6402 0.0000 18.3127 0.0000
# 2 36.2735 81.9022 16.6441 0.0000 8.9035 0.0000
# 3 30.6402 16.6441 88.3216 0.0000 25.4677 0.0000
# 4 0.0000 0.0000 0.0000 3.7300 0.0000 -0.0434
# 5 18.3127 8.9035 25.4677 0.0000 41.1869 0.0000
# 6 0.0000 0.0000 0.0000 -0.0434 0.0000 35.5344
#
#
#
# Elastic Compliance Matrix: (Units=1/GPa)
#
#
# Indices 1 2 3 4 5 6 
#
# 1 0.015532 -0.005824 -0.003240 0.000000 -0.003643 0.000000
# 2 -0.005824 0.014961 -0.000746 0.000000 -0.000183 0.000000
# 3 -0.003240 -0.000746 0.014756 0.000000 -0.007522 0.000000
# 4 0.000000 0.000000 0.000000 0.268099 0.000000 0.000327
# 5 -0.003643 -0.000183 -0.007522 0.000000 0.030590 0.000000
# 6 0.000000 0.000000 0.000000 0.000327 0.000000 0.028142
#
#
# Mechanical properties :
#
#
# Convention : Reuss Voigt Hill
#
# Bulk Modulus (GPa) = 39.02031 47.33494 43.17762
# Shear Modulus (GPa) = 12.49241 27.77967 20.13604
#
# Velocity S-wave (km/s) = 2.51898 3.75634 3.19808
# Velocity P-wave (km/s) = 5.31789 6.54647 5.96390
#
# Compressibility (1/GPa) = 0.02562768
#
# Stress axis : x y z
#
# Youngs Moduli (GPa) = 64.38518 66.84182 67.76924
#
# Poissons Ratio (x) = 0.38930 0.21957
# Poissons Ratio (y) = 0.37499 0.05055
# Poissons Ratio (z) = 0.20861 0.04986
#
# Static dielectric constant tensor:
#      x y z
#    x 1.722510 0.000000 0.009510 
#    y 0.000000 1.725890 0.000000 
#    z 0.009510 0.000000 1.731670 
# 
# From -- ./inp_files/62812.got.cif
#   From: 2010.05.17/outbox.cif.g08.bks.cpg/sg13_32_cif.got.tgz:62812.got - 2010.06.03 16:44:36.
