data_PCOD9230333
_publ_section_title
;
Structure prediction by ZEFSAII (Michael W. Deem and Ramdas Pophale) SiO2 
 PCOD9230333
Probable space group: P 2/C
;
_chemical_formula_sum "Si O2"
_cell_formula_units_Z 28
_cell_length_a 13.655945
_cell_length_b 5.454122
_cell_length_c 28.479804
_cell_angle_alpha 90.000000
_cell_angle_beta 139.138165
_cell_angle_gamma 90.000000
_cell_volume 1387.774272
_symmetry_space_group_name_H-M "P 2/C"
_symmetry_group_IT_number 13
_symmetry_cell_setting 'monoclinic'
loop_
_space_group_symop_operation_xyz
x,y,z
-x,y,1/2-z
-x,-y,-z
x,-y,1/2+z
loop_
_atom_site_type_symbol
_atom_site_label
_atom_site_fract_x
_atom_site_fract_y
_atom_site_fract_z
Si Si1 0.241214 0.404397 0.485419
Si Si2 0.463319 0.294519 0.377643
Si Si3 0.944594 0.687036 0.019779
Si Si4 0.759902 0.912314 0.342295
Si Si5 0.403285 0.748855 0.956426
Si Si6 0.636729 0.417945 0.261624
Si Si7 0.323240 0.027397 0.590270
O O1 0.390544 0.563175 0.549952
O O2 0.098051 0.569942 0.444962
O O3 0.269972 0.273973 0.446155
O O4 0.235710 0.211491 0.525624
O O5 0.359878 0.261393 0.385611
O O6 0.412122 0.413460 0.310533
O O7 0.527048 0.034184 0.383279
O O8 0.073739 0.884541 0.075922
O O9 0.786554 0.794693 0.944742
O O10 0.000000 0.500000 0.000000
O O11 0.728666 0.666042 0.302535
O O12 0.729238 0.168316 0.305843
O O13 0.649253 0.890374 0.347226
O O14 0.500000 0.500000 0.000000
O O15 0.500000 0.000000 0.000000
O O16 0.500000 0.410610 0.250000
#
# Coordination Sequence:
#
# PCOD9230333 Si02
#       7
#     4   4   4   4   4   4   4
#     4  10  21  36  62  88 119 152 195 253 304 351
#     4  10  22  38  58  91 122 157 194 246 303 360
#     4  11  23  37  57  88 119 158 198 248 301 351
#     4  12  25  38  56  86 120 162 199 233 292 362
#     4  10  20  36  60  91 120 149 194 249 306 350
#     4  12  25  38  58  83 124 162 194 235 289 364
#     4  11  20  36  60  85 123 150 194 250 299 355
#
# _framework density 20.176189999999998
#
# number of rings (size 3 to 8) (size 9 to 14) (size 15 to 20)
#    0.000    1.143    4.286    2.571    4.000    0.000 
#    0.000    0.000    0.000    0.857    0.000    0.000 
#    0.000    0.000    0.000    0.000    0.000    0.000 
#
# Total GULP energy -156135.549795 kJ/mol
# GULP energy per Si atom -5576.269636 kJ/mol
# Density = 2.013027 g / cm^3
# Si number density = 20.176190 Si / 1000 Ang^3
#
#
#
# Elastic Constant Matrix: (Units=GPa)
#
#
# Indices 1 2 3 4 5 6 
#
# 1 115.2938 23.0404 26.6684 0.0000 -36.0038 0.0000
# 2 23.0404 88.2147 10.8329 0.0000 -2.7955 0.0000
# 3 26.6684 10.8329 56.6066 0.0000 -21.3771 0.0000
# 4 0.0000 0.0000 0.0000 25.1568 0.0000 -0.4210
# 5 -36.0038 -2.7955 -21.3771 0.0000 35.4975 0.0000
# 6 0.0000 0.0000 0.0000 -0.4210 0.0000 27.8453
#
#
#
# Elastic Compliance Matrix: (Units=1/GPa)
#
#
# Indices 1 2 3 4 5 6 
#
# 1 0.013524 -0.003010 -0.000912 0.000000 0.012931 0.000000
# 2 -0.003010 0.012287 -0.002227 0.000000 -0.003427 0.000000
# 3 -0.000912 -0.002227 0.023436 0.000000 0.013013 0.000000
# 4 0.000000 0.000000 0.000000 0.039761 0.000000 0.000601
# 5 0.012931 -0.003427 0.013013 0.000000 0.048853 0.000000
# 6 0.000000 0.000000 0.000000 0.000601 0.000000 0.035922
#
#
# Mechanical properties :
#
#
# Convention : Reuss Voigt Hill
#
# Bulk Modulus (GPa) = 27.06566 42.35540 34.71053
# Shear Modulus (GPa) = 25.20184 31.00481 28.10332
#
# Velocity S-wave (km/s) = 3.53808 3.92433 3.73620
# Velocity P-wave (km/s) = 5.48948 6.44765 5.98776
#
# Compressibility (1/GPa) = 0.03694719
#
# Stress axis : x y z
#
# Youngs Moduli (GPa) = 73.94244 81.38555 42.66935
#
# Poissons Ratio (x) = 0.24501 0.03892
# Poissons Ratio (y) = 0.22260 0.09504
# Poissons Ratio (z) = 0.06745 0.18127
#
# Static dielectric constant tensor:
#      x y z
#    x 1.718590 0.000000 -0.012430 
#    y 0.000000 1.759850 0.000000 
#    z -0.012430 0.000000 1.755380 
# 
# From -- ./inp_files/80637.got.cif
#   From: 2010.05.17/outbox.cif.g08.bks.cpg/sg13_41_cif.got.tgz:80637.got - 2010.06.03 16:44:36.
