data_PCOD9230001
_publ_section_title
;
Structure prediction by ZEFSAII (Michael W. Deem and Ramdas Pophale) SiO2 
 PCOD9230001
Probable space group: P 2/C
;
_chemical_formula_sum "Si O2"
_cell_formula_units_Z 24
_cell_length_a 8.357728
_cell_length_b 9.468021
_cell_length_c 28.938941
_cell_angle_alpha 90.000000
_cell_angle_beta 147.998179
_cell_angle_gamma 90.000000
_cell_volume 1213.561741
_symmetry_space_group_name_H-M "P 2/C"
_symmetry_group_IT_number 13
_symmetry_cell_setting 'monoclinic'
loop_
_space_group_symop_operation_xyz
x,y,z
-x,y,1/2-z
-x,-y,-z
x,-y,1/2+z
loop_
_atom_site_type_symbol
_atom_site_label
_atom_site_fract_x
_atom_site_fract_y
_atom_site_fract_z
Si Si1 0.377092 0.903990 0.607910
Si Si2 0.861505 0.724384 0.768293
Si Si3 0.283823 0.060012 0.406554
Si Si4 0.739457 0.592925 0.224917
Si Si5 0.846916 0.781603 0.428725
Si Si6 0.150472 0.181618 0.672369
O O1 0.591013 0.834812 0.697963
O O2 0.542857 0.936468 0.599743
O O3 0.112755 0.791227 0.531337
O O4 0.270645 0.056787 0.598261
O O5 0.729363 0.567772 0.740475
O O6 0.000000 0.726249 0.750000
O O7 0.112645 0.787311 0.864927
O O8 0.500000 0.000000 0.500000
O O9 0.022454 0.943503 0.344949
O O10 0.422039 0.667108 0.131415
O O11 0.849524 0.686377 0.294180
O O12 0.000000 0.600207 0.250000
O O13 0.977502 0.771784 0.408802
O O14 0.500000 0.144148 0.750000
#
# Coordination Sequence:
#
# PCOD9230001 Si02
#       6
#     4   4   4   4   4   4
#     4  10  20  37  61  87 115 152 201 246 295 348
#     4   9  20  36  58  84 113 155 196 239 294 357
#     4  11  20  37  63  89 117 149 196 252 295 347
#     4  10  20  37  58  80 116 160 197 233 298 358
#     4  10  20  35  58  86 115 152 195 246 290 353
#     4  10  20  35  57  85 117 151 192 242 295 349
#
# _framework density 19.776496999999999
#
# number of rings (size 3 to 8) (size 9 to 14) (size 15 to 20)
#    0.000    2.000    1.667    3.000    0.000    2.000 
#    0.000    8.333    3.667    0.000    0.000    0.000 
#    0.000    0.000    0.000    0.000    0.000    0.000 
#
# Total GULP energy -133658.239529 kJ/mol
# GULP energy per Si atom -5569.093314 kJ/mol
# Density = 1.973148 g / cm^3
# Si number density = 19.776497 Si / 1000 Ang^3
#
#
#
# Elastic Constant Matrix: (Units=GPa)
#
#
# Indices 1 2 3 4 5 6 
#
# 1 49.3220 25.4695 18.8983 0.0000 -0.6580 0.0000
# 2 25.4695 110.7700 65.5155 0.0000 2.5303 0.0000
# 3 18.8983 65.5155 96.7302 0.0000 -9.5904 0.0000
# 4 0.0000 0.0000 0.0000 24.3562 0.0000 9.9473
# 5 -0.6580 2.5303 -9.5904 0.0000 16.5607 0.0000
# 6 0.0000 0.0000 0.0000 9.9473 0.0000 4.3403
#
#
#
# Elastic Compliance Matrix: (Units=1/GPa)
#
#
# Indices 1 2 3 4 5 6 
#
# 1 0.023151 -0.004529 -0.001375 0.000000 0.000816 0.000000
# 2 -0.004529 0.017232 -0.011739 0.000000 -0.009611 0.000000
# 3 -0.001375 -0.011739 0.019871 0.000000 0.013246 0.000000
# 4 0.000000 0.000000 0.000000 0.641704 0.000000 -1.470690
# 5 0.000816 -0.009611 0.013246 0.000000 0.069556 0.000000
# 6 0.000000 0.000000 0.000000 -1.470690 0.000000 3.601000
#
#
# Mechanical properties :
#
#
# Convention : Reuss Voigt Hill
#
# Bulk Modulus (GPa) = 40.05078 52.95432 46.50255
# Shear Modulus (GPa) = 1.13222 18.84737 9.98979
#
# Velocity S-wave (km/s) = 0.75746 3.09045 2.24996
# Velocity P-wave (km/s) = 4.58919 6.29039 5.50589
#
# Compressibility (1/GPa) = 0.02496830
#
# Stress axis : x y z
#
# Youngs Moduli (GPa) = 43.19437 58.03232 50.32452
#
# Poissons Ratio (x) = 0.26280 0.06920
# Poissons Ratio (y) = 0.19561 0.59077
# Poissons Ratio (z) = 0.05939 0.68126
#
# Static dielectric constant tensor:
#      x y z
#    x 1.730170 0.000000 0.010920 
#    y 0.000000 1.689100 0.000000 
#    z 0.010920 0.000000 1.839300 
# 
# From -- ./inp_files/96021.got.cif
#   From: 2010.05.17/outbox.cif.g08.bks.cpg/sg13_49_cif.got.tgz:96021.got - 2010.06.03 16:44:36.
