data_PCOD9230207
_publ_section_title
;
Structure prediction by ZEFSAII (Michael W. Deem and Ramdas Pophale) SiO2 
 PCOD9230207
Probable space group: P 2/C
;
_chemical_formula_sum "Si O2"
_cell_formula_units_Z 26
_cell_length_a 12.326855
_cell_length_b 8.959985
_cell_length_c 19.044773
_cell_angle_alpha 90.000000
_cell_angle_beta 135.072182
_cell_angle_gamma 90.000000
_cell_volume 1485.499647
_symmetry_space_group_name_H-M "P 2/C"
_symmetry_group_IT_number 13
_symmetry_cell_setting 'monoclinic'
loop_
_space_group_symop_operation_xyz
x,y,z
-x,y,1/2-z
-x,-y,-z
x,-y,1/2+z
loop_
_atom_site_type_symbol
_atom_site_label
_atom_site_fract_x
_atom_site_fract_y
_atom_site_fract_z
Si Si1 0.352847 0.063355 0.973288
Si Si2 0.136370 0.777797 0.268393
Si Si3 0.966774 0.908878 0.658838
Si Si4 0.500000 0.502470 0.750000
Si Si5 0.818569 0.609767 0.352434
Si Si6 0.069566 0.725803 0.570338
Si Si7 0.612751 0.794031 0.859871
O O1 0.272287 0.181095 0.883734
O O2 0.214565 0.946257 0.925387
O O3 0.394430 0.133676 0.067437
O O4 0.500000 0.000000 0.000000
O O5 0.181686 0.678664 0.224306
O O6 0.000000 0.702620 0.250000
O O7 0.060553 0.933867 0.206135
O O8 0.000000 0.834270 0.750000
O O9 0.024206 0.820705 0.617550
O O10 0.354302 0.404471 0.700399
O O11 0.550622 0.622316 0.833174
O O12 0.884016 0.441120 0.384268
O O13 0.926482 0.707668 0.452332
O O14 0.215946 0.789374 0.594256
O O15 0.500000 0.867095 0.750000
#
# Coordination Sequence:
#
# PCOD9230207 Si02
#       7
#     4   4   4   2   4   4   4
#     4  10  21  36  55  83 115 147 183 232 285 333
#     4   9  20  36  54  76 114 143 179 230 283 327
#     4   9  21  37  56  81 113 144 182 234 276 335
#     4   8  20  36  54  78 118 140 190 230 278 326
#     4  10  20  36  57  83 110 147 185 238 275 329
#     4  10  20  37  60  80 111 149 194 224 277 338
#     4   9  20  36  57  77 111 154 183 222 283 340
#
# _framework density 17.50253
#
# number of rings (size 3 to 8) (size 9 to 14) (size 15 to 20)
#    0.462    2.462    0.000    1.846    4.308    4.308 
#    0.000    0.769    0.000    0.000    0.000    0.000 
#    0.000    0.000    0.000    0.000    0.000    0.000 
#
# Total GULP energy -144818.006804 kJ/mol
# GULP energy per Si atom -5569.923339 kJ/mol
# Density = 1.746269 g / cm^3
# Si number density = 17.502530 Si / 1000 Ang^3
#
#
#
# Elastic Constant Matrix: (Units=GPa)
#
#
# Indices 1 2 3 4 5 6 
#
# 1 131.6175 49.1766 110.8083 0.0000 -3.1618 0.0000
# 2 49.1766 27.3431 43.8497 0.0000 -11.6875 0.0000
# 3 110.8083 43.8497 150.7945 0.0000 -5.1105 0.0000
# 4 0.0000 0.0000 0.0000 172.8051 0.0000 -183.7580
# 5 -3.1618 -11.6875 -5.1105 0.0000 35.4705 0.0000
# 6 0.0000 0.0000 0.0000 -183.7580 0.0000 199.9237
#
#
#
# Elastic Compliance Matrix: (Units=1/GPa)
#
#
# Indices 1 2 3 4 5 6 
#
# 1 0.040012 -0.058853 -0.012888 0.000000 -0.017682 0.000000
# 2 -0.058853 0.172448 -0.005177 0.000000 0.050830 0.000000
# 3 -0.012888 -0.005177 0.017596 0.000000 -0.000319 0.000000
# 4 0.000000 0.000000 0.000000 0.256040 0.000000 0.235337
# 5 -0.017682 0.050830 -0.000319 0.000000 0.043319 0.000000
# 6 0.000000 0.000000 0.000000 0.235337 0.000000 0.221309
#
#
# Mechanical properties :
#
#
# Convention : Reuss Voigt Hill
#
# Bulk Modulus (GPa) = 13.11959 79.71383 46.41671
# Shear Modulus (GPa) = 5.37654 88.70122 47.03888
#
# Velocity S-wave (km/s) = 1.75457 7.12665 5.18978
# Velocity P-wave (km/s) = 3.40834 10.64715 7.90502
#
# Compressibility (1/GPa) = 0.07622192
#
# Stress axis : x y z
#
# Youngs Moduli (GPa) = 24.99222 5.79886 56.82954
#
# Poissons Ratio (x) = 0.34128 0.73241
# Poissons Ratio (y) = 1.47086 0.29421
# Poissons Ratio (z) = 0.32209 0.03002
#
# Static dielectric constant tensor:
#      x y z
#    x 1.547510 0.000000 0.029910 
#    y 0.000000 1.596170 0.000000 
#    z 0.029910 0.000000 1.601210 
# 
# From -- ./inp_files/66134.got.cif
#   From: 2010.05.17/outbox.cif.g08.bks.cpg/sg13_34_cif.got.tgz:66134.got - 2010.06.03 16:44:36.
