data_PCOD9230017
_publ_section_title
;
Structure prediction by ZEFSAII (Michael W. Deem and Ramdas Pophale) SiO2 
 PCOD9230017
Probable space group: P 2/C
;
_chemical_formula_sum "Si O2"
_cell_formula_units_Z 20
_cell_length_a 8.448117
_cell_length_b 24.081006
_cell_length_c 9.038787
_cell_angle_alpha 90.000000
_cell_angle_beta 146.393906
_cell_angle_gamma 90.000000
_cell_volume 1017.763184
_symmetry_space_group_name_H-M "P 2/C"
_symmetry_group_IT_number 13
_symmetry_cell_setting 'monoclinic'
loop_
_space_group_symop_operation_xyz
x,y,z
-x,y,1/2-z
-x,-y,-z
x,-y,1/2+z
loop_
_atom_site_type_symbol
_atom_site_label
_atom_site_fract_x
_atom_site_fract_y
_atom_site_fract_z
Si Si1 0.706765 0.966068 0.268674
Si Si2 0.829004 0.148814 0.963851
Si Si3 0.165053 0.272095 0.530539
Si Si4 0.615785 0.554700 0.671834
Si Si5 0.122777 0.618774 0.179134
O O1 0.500000 0.963370 0.250000
O O2 0.818256 0.902291 0.340796
O O3 0.000000 0.000000 0.500000
O O4 0.500000 0.000000 0.000000
O O5 0.500000 0.156916 0.750000
O O6 0.922058 0.209942 0.983356
O O7 0.000000 0.134442 0.250000
O O8 0.500000 0.274571 0.750000
O O9 0.089695 0.321052 0.583458
O O10 0.000000 0.281054 0.250000
O O11 0.500000 0.551844 0.750000
O O12 0.500000 0.500000 0.500000
O O13 0.453342 0.603039 0.455561
O O14 0.946497 0.572502 0.947352
O O15 0.000000 0.617823 0.250000
#
# Coordination Sequence:
#
# PCOD9230017 Si02
#       5
#     4   4   4   4   4
#     4  11  21  36  57  82 113 150 189 234 285 339
#     4   9  18  34  55  79 109 144 181 226 278 327
#     4  10  20  35  58  83 104 138 188 227 262 325
#     4  10  21  36  54  76 105 140 176 214 263 320
#     4  10  21  37  54  78 111 140 167 217 281 321
#
# _framework density 19.650936999999999
#
# number of rings (size 3 to 8) (size 9 to 14) (size 15 to 20)
#    0.000    2.000    0.000    4.800    0.000    2.400 
#    0.000    2.000    0.000    2.400    0.000    0.000 
#    0.000    0.000    0.000    0.000    0.000    0.000 
#
# Total GULP energy -111334.729478 kJ/mol
# GULP energy per Si atom -5566.736474 kJ/mol
# Density = 1.960621 g / cm^3
# Si number density = 19.650937 Si / 1000 Ang^3
#
#
#
# Elastic Constant Matrix: (Units=GPa)
#
#
# Indices 1 2 3 4 5 6 
#
# 1 11.2053 17.1006 19.4361 0.0000 1.9451 0.0000
# 2 17.1006 157.0365 50.8204 0.0000 -30.0721 0.0000
# 3 19.4361 50.8204 165.1948 0.0000 -0.6352 0.0000
# 4 0.0000 0.0000 0.0000 7.2663 0.0000 24.3308
# 5 1.9451 -30.0721 -0.6352 0.0000 26.9127 0.0000
# 6 0.0000 0.0000 0.0000 24.3308 0.0000 -1.6501
#
#
#
# Elastic Compliance Matrix: (Units=1/GPa)
#
#
# Indices 1 2 3 4 5 6 
#
# 1 0.140511 -0.017349 -0.011309 0.000000 -0.029809 0.000000
# 2 -0.017349 0.011382 -0.001407 0.000000 0.013938 0.000000
# 3 -0.011309 -0.001407 0.007815 0.000000 -0.000570 0.000000
# 4 0.000000 0.000000 0.000000 0.002732 0.000000 0.040284
# 5 -0.029809 0.013938 -0.000570 0.000000 0.054873 0.000000
# 6 0.000000 0.000000 0.000000 0.040284 0.000000 -0.012031
#
#
# Mechanical properties :
#
#
# Convention : Reuss Voigt Hill
#
# Bulk Modulus (GPa) = 10.04246 56.46120 33.25183
# Shear Modulus (GPa) = 16.74454 22.91108 19.82781
#
# Velocity S-wave (km/s) = 2.92224 3.41824 3.17992
# Velocity P-wave (km/s) = 4.06294 6.66135 5.51729
#
# Compressibility (1/GPa) = 0.09957717
#
# Stress axis : x y z
#
# Youngs Moduli (GPa) = 7.11686 87.86103 127.96588
#
# Poissons Ratio (x) = 1.52434 1.44720
# Poissons Ratio (y) = 0.12347 0.17999
# Poissons Ratio (z) = 0.08049 0.12358
#
# Static dielectric constant tensor:
#      x y z
#    x 1.654140 0.000000 -0.015010 
#    y 0.000000 1.788080 0.000000 
#    z -0.015010 0.000000 1.696320 
# 
# From -- ./inp_files/13834.got.cif
#   From: 2010.05.17/outbox.cif.g08.bks.cpg/sg13_7_cif.got.tgz:13834.got - 2010.06.03 16:44:36.
