data_PCOD9230595
_publ_section_title
;
Structure prediction by ZEFSAII (Michael W. Deem and Ramdas Pophale) SiO2 
 PCOD9230595
Probable space group: P 2/C
;
_chemical_formula_sum "Si O2"
_cell_formula_units_Z 18
_cell_length_a 7.748617
_cell_length_b 9.869789
_cell_length_c 9.263654
_cell_angle_alpha 90.000000
_cell_angle_beta 99.613772
_cell_angle_gamma 90.000000
_cell_volume 698.508812
_symmetry_space_group_name_H-M "P 2/C"
_symmetry_group_IT_number 13
_symmetry_cell_setting 'monoclinic'
loop_
_space_group_symop_operation_xyz
x,y,z
-x,y,1/2-z
-x,-y,-z
x,-y,1/2+z
loop_
_atom_site_type_symbol
_atom_site_label
_atom_site_fract_x
_atom_site_fract_y
_atom_site_fract_z
Si Si1 0.689030 0.589657 0.340726
Si Si2 0.154365 0.205630 0.857880
Si Si3 0.922487 0.627769 0.896974
Si Si4 0.500000 0.981126 0.750000
Si Si5 0.431033 0.177377 0.510916
O O1 0.500000 0.607417 0.250000
O O2 0.814918 0.662678 0.242609
O O3 0.726698 0.432067 0.360654
O O4 0.669343 0.681405 0.481311
O O5 0.357447 0.173061 0.928323
O O6 0.000000 0.126115 0.750000
O O7 0.072683 0.243971 0.000824
O O8 0.000000 0.642196 0.750000
O O9 0.000000 0.500000 0.000000
O O10 0.597729 0.886866 0.648488
O O11 0.375338 0.077703 0.635004
#
# Coordination Sequence:
#
# PCOD9230595 Si02
#       5
#     4   4   4   2   4
#     4  10  20  37  59  88 117 161 196 243 296 348
#     4  11  21  41  59  86 127 164 195 240 304 350
#     4  12  22  37  58  86 125 169 197 236 293 358
#     4  10  20  42  66  90 118 144 210 248 324 340
#     4  10  22  40  68  89 116 159 194 263 297 363
#
# _framework density 25.769179999999999
#
# number of rings (size 3 to 8) (size 9 to 14) (size 15 to 20)
#    0.000    1.333    7.778    0.000    0.000    5.333 
#    2.000    1.111    0.000    0.000    0.000    0.000 
#    0.000    0.000    0.000    0.000    0.000    0.000 
#
# Total GULP energy -100404.036586 kJ/mol
# GULP energy per Si atom -5578.002033 kJ/mol
# Density = 2.571053 g / cm^3
# Si number density = 25.769180 Si / 1000 Ang^3
#
#
#
# Elastic Constant Matrix: (Units=GPa)
#
#
# Indices 1 2 3 4 5 6 
#
# 1 115.5810 2.3139 28.1112 0.0000 -5.4193 0.0000
# 2 2.3139 48.9170 38.2034 0.0000 -9.2601 0.0000
# 3 28.1112 38.2034 174.8927 0.0000 -26.4797 0.0000
# 4 0.0000 0.0000 0.0000 34.9988 0.0000 -4.9949
# 5 -5.4193 -9.2601 -26.4797 0.0000 21.9529 0.0000
# 6 0.0000 0.0000 0.0000 -4.9949 0.0000 13.3632
#
#
#
# Elastic Compliance Matrix: (Units=1/GPa)
#
#
# Indices 1 2 3 4 5 6 
#
# 1 0.009044 0.000918 -0.001539 0.000000 0.000764 0.000000
# 2 0.000918 0.025157 -0.004896 0.000000 0.004933 0.000000
# 3 -0.001539 -0.004896 0.008153 0.000000 0.007390 0.000000
# 4 0.000000 0.000000 0.000000 0.030182 0.000000 0.011282
# 5 0.000764 0.004933 0.007390 0.000000 0.056735 0.000000
# 6 0.000000 0.000000 0.000000 0.011282 0.000000 0.079049
#
#
# Mechanical properties :
#
#
# Convention : Reuss Voigt Hill
#
# Bulk Modulus (GPa) = 31.92684 52.96085 42.44385
# Shear Modulus (GPa) = 21.75871 32.11379 26.93625
#
# Velocity S-wave (km/s) = 2.90896 3.53400 3.23660
# Velocity P-wave (km/s) = 4.86818 6.10318 5.52032
#
# Compressibility (1/GPa) = 0.03132161
#
# Stress axis : x y z
#
# Youngs Moduli (GPa) = 110.57565 39.75060 122.64824
#
# Poissons Ratio (x) = -0.03651 0.18870
# Poissons Ratio (y) = -0.10156 0.60049
# Poissons Ratio (z) = 0.17013 0.19462
#
# Static dielectric constant tensor:
#      x y z
#    x 2.424590 0.000000 0.167770 
#    y 0.000000 2.437320 0.000000 
#    z 0.167770 0.000000 2.131020 
# 
# From -- ./inp_files/11758.got.cif
#   From: 2010.05.17/outbox.cif.g08.bks.cpg/sg13_6_cif.got.tgz:11758.got - 2010.06.03 16:44:36.
