data_PCOD9230817
_publ_section_title
;
Structure prediction by ZEFSAII (Michael W. Deem and Ramdas Pophale) SiO2 
 PCOD9230817
Probable space group: P 2/C
;
_chemical_formula_sum "Si O2"
_cell_formula_units_Z 20
_cell_length_a 10.269548
_cell_length_b 12.075119
_cell_length_c 10.540976
_cell_angle_alpha 90.000000
_cell_angle_beta 39.694362
_cell_angle_gamma 90.000000
_cell_volume 834.862820
_symmetry_space_group_name_H-M "P 2/C"
_symmetry_group_IT_number 13
_symmetry_cell_setting 'monoclinic'
loop_
_space_group_symop_operation_xyz
x,y,z
-x,y,1/2-z
-x,-y,-z
x,-y,1/2+z
loop_
_atom_site_type_symbol
_atom_site_label
_atom_site_fract_x
_atom_site_fract_y
_atom_site_fract_z
Si Si1 0.809937 0.664853 0.612857
Si Si2 0.765402 0.887551 0.103792
Si Si3 0.164214 0.433808 0.017293
Si Si4 0.876179 0.116135 0.967419
Si Si5 0.383826 0.246162 0.994940
O O1 0.748576 0.544147 0.610550
O O2 0.810294 0.756678 0.502481
O O3 0.029142 0.636444 0.516638
O O4 0.665898 0.722004 0.825361
O O5 0.771825 0.837213 0.958224
O O6 0.595514 0.815891 0.306768
O O7 0.970946 0.878240 0.027901
O O8 0.722468 0.018218 0.119560
O O9 0.000000 0.465265 0.250000
O O10 0.332700 0.359215 0.958624
O O11 0.000000 0.081621 0.750000
#
# Coordination Sequence:
#
# PCOD9230817 Si02
#       5
#     4   4   4   4   4
#     4  10  20  37  70 100 132 175 224 269 326 404
#     4  10  24  42  64  94 130 178 223 274 343 391
#     4   9  18  36  70 103 134 177 221 269 333 404
#     4  11  24  41  67  96 132 173 231 276 325 407
#     4  10  21  43  68  96 138 175 217 275 347 394
#
# _framework density 23.956030999999999
#
# number of rings (size 3 to 8) (size 9 to 14) (size 15 to 20)
#    0.000    2.000    2.000    0.600    5.600    0.800 
#    3.600    4.000    0.000    0.000    0.000    0.000 
#    0.000    0.000    0.000    0.000    0.000    0.000 
#
# Total GULP energy -111649.233538 kJ/mol
# GULP energy per Si atom -5582.461677 kJ/mol
# Density = 2.390151 g / cm^3
# Si number density = 23.956031 Si / 1000 Ang^3
#
#
#
# Elastic Constant Matrix: (Units=GPa)
#
#
# Indices 1 2 3 4 5 6 
#
# 1 47.3832 24.0377 22.7653 0.0000 -2.4357 0.0000
# 2 24.0377 199.1849 64.7483 0.0000 0.4876 0.0000
# 3 22.7653 64.7483 117.6203 0.0000 -4.3316 0.0000
# 4 0.0000 0.0000 0.0000 20.4672 0.0000 4.2257
# 5 -2.4357 0.4876 -4.3316 0.0000 24.7126 0.0000
# 6 0.0000 0.0000 0.0000 4.2257 0.0000 12.9691
#
#
#
# Elastic Compliance Matrix: (Units=1/GPa)
#
#
# Indices 1 2 3 4 5 6 
#
# 1 0.023789 -0.001704 -0.003602 0.000000 0.001747 0.000000
# 2 -0.001704 0.006249 -0.003141 0.000000 -0.000842 0.000000
# 3 -0.003602 -0.003141 0.010988 0.000000 0.001633 0.000000
# 4 0.000000 0.000000 0.000000 0.052382 0.000000 -0.017068
# 5 0.001747 -0.000842 0.001633 0.000000 0.040940 0.000000
# 6 0.000000 0.000000 0.000000 -0.017068 0.000000 0.082668
#
#
# Mechanical properties :
#
#
# Convention : Reuss Voigt Hill
#
# Bulk Modulus (GPa) = 41.43836 65.25453 53.34645
# Shear Modulus (GPa) = 20.66486 28.47226 24.56856
#
# Velocity S-wave (km/s) = 2.94022 3.45123 3.20592
# Velocity P-wave (km/s) = 5.37231 6.57113 6.00173
#
# Compressibility (1/GPa) = 0.02413223
#
# Stress axis : x y z
#
# Youngs Moduli (GPa) = 42.03539 160.01713 91.00466
#
# Poissons Ratio (x) = 0.27272 0.32779
# Poissons Ratio (y) = 0.07164 0.28587
# Poissons Ratio (z) = 0.15141 0.50266
#
# Static dielectric constant tensor:
#      x y z
#    x 1.908950 0.000000 -0.032070 
#    y 0.000000 1.951720 0.000000 
#    z -0.032070 0.000000 2.022970 
# 
# From -- ./inp_files/33598.got.cif
#   From: 2010.05.17/outbox.cif.g08.bks.cpg/sg13_17_cif.got.tgz:33598.got - 2010.06.03 16:44:36.
