data_PCOD9230525
_publ_section_title
;
Structure prediction by ZEFSAII (Michael W. Deem and Ramdas Pophale) SiO2 
 PCOD9230525
Probable space group: P 2/C
;
_chemical_formula_sum "Si O2"
_cell_formula_units_Z 18
_cell_length_a 13.296127
_cell_length_b 12.353345
_cell_length_c 5.335278
_cell_angle_alpha 90.000000
_cell_angle_beta 91.222959
_cell_angle_gamma 90.000000
_cell_volume 876.128565
_symmetry_space_group_name_H-M "P 2/C"
_symmetry_group_IT_number 13
_symmetry_cell_setting 'monoclinic'
loop_
_space_group_symop_operation_xyz
x,y,z
-x,y,1/2-z
-x,-y,-z
x,-y,1/2+z
loop_
_atom_site_type_symbol
_atom_site_label
_atom_site_fract_x
_atom_site_fract_y
_atom_site_fract_z
Si Si1 0.108257 0.299089 0.892611
Si Si2 0.000000 0.425498 0.250000
Si Si3 0.877810 0.944509 0.219798
Si Si4 0.698487 0.377538 0.834804
Si Si5 0.616299 0.377020 0.329478
O O1 0.146158 0.176758 0.871154
O O2 0.186999 0.373967 0.750082
O O3 0.000000 0.298342 0.750000
O O4 0.089759 0.344042 0.172208
O O5 0.000000 0.500000 0.500000
O O6 0.000000 0.951597 0.250000
O O7 0.842706 0.975617 0.496417
O O8 0.635917 0.326629 0.601746
O O9 0.659139 0.500637 0.863016
O O10 0.676582 0.325505 0.101894
O O11 0.500000 0.382507 0.250000
#
# Coordination Sequence:
#
# PCOD9230525 Si02
#       5
#     4   2   4   4   4
#     4  11  26  39  57  83 122 157 204 233 277 349
#     4  12  28  38  52  72 122 168 198 222 262 324
#     4   9  20  36  59  79 103 145 196 250 296 320
#     4  10  21  32  55  77 106 146 185 223 286 329
#     4  10  20  37  56  77 107 143 194 245 275 320
#
# _framework density 20.544929
#
# number of rings (size 3 to 8) (size 9 to 14) (size 15 to 20)
#    0.000    1.778    1.111    3.333   17.111    0.000 
#    0.000    0.000    0.000    0.000    0.000    0.000 
#    0.000   30.222    0.000    0.000    0.000    0.000 
#
# Total GULP energy -100347.706319 kJ/mol
# GULP energy per Si atom -5574.872573 kJ/mol
# Density = 2.049817 g / cm^3
# Si number density = 20.544929 Si / 1000 Ang^3
#
#
#
# Elastic Constant Matrix: (Units=GPa)
#
#
# Indices 1 2 3 4 5 6 
#
# 1 74.8790 5.7718 -4.0787 0.0000 -4.5633 0.0000
# 2 5.7718 63.2958 32.4064 0.0000 1.8264 0.0000
# 3 -4.0787 32.4064 144.5208 0.0000 -9.4372 0.0000
# 4 0.0000 0.0000 0.0000 19.0689 0.0000 6.1528
# 5 -4.5633 1.8264 -9.4372 0.0000 31.2119 0.0000
# 6 0.0000 0.0000 0.0000 6.1528 0.0000 5.6735
#
#
#
# Elastic Compliance Matrix: (Units=1/GPa)
#
#
# Indices 1 2 3 4 5 6 
#
# 1 0.013691 -0.001802 0.000947 0.000000 0.002393 0.000000
# 2 -0.001802 0.018248 -0.004315 0.000000 -0.002636 0.000000
# 3 0.000947 -0.004315 0.008099 0.000000 0.002840 0.000000
# 4 0.000000 0.000000 0.000000 0.080670 0.000000 -0.087485
# 5 0.002393 -0.002636 0.002840 0.000000 0.033402 0.000000
# 6 0.000000 0.000000 0.000000 -0.087485 0.000000 0.271133
#
#
# Mechanical properties :
#
#
# Convention : Reuss Voigt Hill
#
# Bulk Modulus (GPa) = 33.67225 38.98827 36.33026
# Shear Modulus (GPa) = 11.22376 27.76393 19.49384
#
# Velocity S-wave (km/s) = 2.33985 3.68010 3.08367
# Velocity P-wave (km/s) = 4.87083 6.08899 5.51365
#
# Compressibility (1/GPa) = 0.02969804
#
# Stress axis : x y z
#
# Youngs Moduli (GPa) = 73.03936 54.79935 123.47017
#
# Poissons Ratio (x) = 0.09876 -0.11691
# Poissons Ratio (y) = 0.13164 0.53276
# Poissons Ratio (z) = -0.06916 0.23645
#
# Static dielectric constant tensor:
#      x y z
#    x 1.779720 0.000000 0.025220 
#    y 0.000000 1.845600 0.000000 
#    z 0.025220 0.000000 1.877320 
# 
# From -- ./inp_files/3045.got.cif
#   From: 2010.05.17/outbox.cif.g08.bks.cpg/sg13_2_cif.got.tgz:3045.got - 2010.06.03 16:44:36.
