data_PCOD9230583
_publ_section_title
;
Structure prediction by ZEFSAII (Michael W. Deem and Ramdas Pophale) SiO2 
 PCOD9230583
Probable space group: P 2/C
;
_chemical_formula_sum "Si O2"
_cell_formula_units_Z 24
_cell_length_a 22.628952
_cell_length_b 9.291897
_cell_length_c 17.050209
_cell_angle_alpha 90.000000
_cell_angle_beta 20.399447
_cell_angle_gamma 90.000000
_cell_volume 1249.625334
_symmetry_space_group_name_H-M "P 2/C"
_symmetry_group_IT_number 13
_symmetry_cell_setting 'monoclinic'
loop_
_space_group_symop_operation_xyz
x,y,z
-x,y,1/2-z
-x,-y,-z
x,-y,1/2+z
loop_
_atom_site_type_symbol
_atom_site_label
_atom_site_fract_x
_atom_site_fract_y
_atom_site_fract_z
Si Si1 0.341957 0.907906 0.224263
Si Si2 0.327678 0.574839 0.242563
Si Si3 0.312079 0.576674 0.450291
Si Si4 0.000228 0.379971 0.845859
Si Si5 0.012595 0.933851 0.070673
Si Si6 0.170365 0.132689 0.091689
O O1 0.330871 0.741359 0.210927
O O2 0.321227 0.899761 0.343876
O O3 0.181841 0.996090 0.394139
O O4 0.500000 0.000000 0.000000
O O5 0.327878 0.574560 0.336634
O O6 0.155438 0.486868 0.438500
O O7 0.500000 0.500000 0.000000
O O8 0.500000 0.565934 0.250000
O O9 0.219636 0.728836 0.581120
O O10 0.180469 0.454194 0.639038
O O11 0.981902 0.235282 0.919137
O O12 0.000000 0.353772 0.750000
O O13 0.865669 0.999391 0.308021
O O14 0.000000 0.000000 0.000000
O O15 0.000000 0.163856 0.250000
#
# Coordination Sequence:
#
# PCOD9230583 Si02
#       6
#     4   4   4   4   4   4
#     4  10  20  37  59  84 115 153 192 231 285 354
#     4  10  21  37  60  86 113 151 194 232 283 352
#     4  10  21  37  59  86 113 146 188 237 290 337
#     4  10  20  39  61  81 114 156 193 232 287 353
#     4  11  23  37  57  85 113 148 193 241 290 336
#     4   9  19  39  59  78 112 154 189 229 288 354
#
# _framework density 19.205756999999998
#
# number of rings (size 3 to 8) (size 9 to 14) (size 15 to 20)
#    0.000    2.000    0.000    6.000    0.000    6.667 
#    0.000    3.333    0.000    0.000    0.000    0.000 
#    0.000    0.000    0.000    0.000    0.000    0.000 
#
# Total GULP energy -133833.214606 kJ/mol
# GULP energy per Si atom -5576.383942 kJ/mol
# Density = 1.916204 g / cm^3
# Si number density = 19.205757 Si / 1000 Ang^3
#
#
#
# Elastic Constant Matrix: (Units=GPa)
#
#
# Indices 1 2 3 4 5 6 
#
# 1 36.8582 47.5002 17.1072 0.0000 -13.4715 0.0000
# 2 47.5002 187.2613 83.4587 0.0000 -6.6473 0.0000
# 3 17.1072 83.4587 113.7007 0.0000 -1.2684 0.0000
# 4 0.0000 0.0000 0.0000 43.6942 0.0000 6.5742
# 5 -13.4715 -6.6473 -1.2684 0.0000 27.6188 0.0000
# 6 0.0000 0.0000 0.0000 6.5742 0.0000 10.9609
#
#
#
# Elastic Compliance Matrix: (Units=1/GPa)
#
#
# Indices 1 2 3 4 5 6 
#
# 1 0.051042 -0.013165 0.002227 0.000000 0.021830 0.000000
# 2 -0.013165 0.011407 -0.006437 0.000000 -0.003971 0.000000
# 3 0.002227 -0.006437 0.013186 0.000000 0.000143 0.000000
# 4 0.000000 0.000000 0.000000 0.025157 0.000000 -0.015088
# 5 0.021830 -0.003971 0.000143 0.000000 0.045906 0.000000
# 6 0.000000 0.000000 0.000000 -0.015088 0.000000 0.100283
#
#
# Mechanical properties :
#
#
# Convention : Reuss Voigt Hill
#
# Bulk Modulus (GPa) = 24.45786 70.43913 47.44849
# Shear Modulus (GPa) = 16.92858 29.10507 23.01683
#
# Velocity S-wave (km/s) = 2.97211 3.89708 3.46560
# Velocity P-wave (km/s) = 4.95381 7.55019 6.38536
#
# Compressibility (1/GPa) = 0.04088666
#
# Stress axis : x y z
#
# Youngs Moduli (GPa) = 19.59168 87.66383 75.83696
#
# Poissons Ratio (x) = 1.15408 -0.16890
# Poissons Ratio (y) = 0.25792 0.48814
# Poissons Ratio (z) = -0.04363 0.56426
#
# Static dielectric constant tensor:
#      x y z
#    x 1.649450 0.000000 0.026480 
#    y 0.000000 1.725900 0.000000 
#    z 0.026480 0.000000 1.714130 
# 
# From -- ./inp_files/71246.got.cif
#   From: 2010.05.17/outbox.cif.g08.bks.cpg/sg13_36_cif.got.tgz:71246.got - 2010.06.03 16:44:36.
