data_PCOD9230180
_publ_section_title
;
Structure prediction by ZEFSAII (Michael W. Deem and Ramdas Pophale) SiO2 
 PCOD9230180
Probable space group: P 2/C
;
_chemical_formula_sum "Si O2"
_cell_formula_units_Z 28
_cell_length_a 28.128455
_cell_length_b 9.964965
_cell_length_c 8.633378
_cell_angle_alpha 90.000000
_cell_angle_beta 140.113583
_cell_angle_gamma 90.000000
_cell_volume 1551.821652
_symmetry_space_group_name_H-M "P 2/C"
_symmetry_group_IT_number 13
_symmetry_cell_setting 'monoclinic'
loop_
_space_group_symop_operation_xyz
x,y,z
-x,y,1/2-z
-x,-y,-z
x,-y,1/2+z
loop_
_atom_site_type_symbol
_atom_site_label
_atom_site_fract_x
_atom_site_fract_y
_atom_site_fract_z
Si Si1 0.500000 0.650468 0.062618
Si Si2 0.799141 0.147718 0.684071
Si Si3 0.920340 0.350073 0.485905
Si Si4 0.372063 0.146914 0.243730
Si Si5 0.079660 0.649927 0.884205
Si Si6 0.627937 0.853086 0.383417
Si Si7 0.799141 0.147718 0.311635
O O1 0.500000 0.644727 0.250000
O O2 0.571683 0.737185 0.191997
O O3 0.500000 0.500000 0.000000
O O4 0.428317 0.737185 0.833580
O O5 0.713287 0.175148 0.513733
O O6 0.804314 0.148903 0.510785
O O7 0.817184 0.000000 0.792959
O O8 0.855084 0.254647 0.894724
O O9 0.908908 0.500000 0.522271
O O10 0.923149 0.354139 0.307872
O O11 0.855084 0.254647 0.380694
O O12 0.000000 0.303036 0.750000
O O13 0.375224 0.139784 0.438061
O O14 0.392710 1.000000 0.231775
O O15 0.000000 0.696964 0.750000
O O16 0.713287 0.824852 0.552703
#
# Coordination Sequence:
#
# PCOD9230180 Si02
#       7
#     4   4   4   4   4   4   4
#     4  10  21  36  52  78 110 142 179 222 266 314
#     4  10  20  36  56  82 111 142 180 225 271 321
#     4  11  22  38  58  81 109 144 181 222 269 323
#     4   9  19  35  56  79 107 140 179 221 266 318
#     4  11  22  38  58  81 109 144 181 222 269 323
#     4   9  19  35  56  79 107 140 179 221 266 318
#     4  10  20  36  56  82 111 142 180 225 271 321
#
# _framework density 18.043310000000002
#
# number of rings (size 3 to 8) (size 9 to 14) (size 15 to 20)
#    0.000    2.000    0.000    4.714    0.000    4.000 
#    0.000    5.714    0.000    0.000    0.000    0.000 
#    0.000    0.000    0.000    0.000    0.000    0.000 
#
# Total GULP energy -156375.377584 kJ/mol
# GULP energy per Si atom -5584.834914 kJ/mol
# Density = 1.800224 g / cm^3
# Si number density = 18.043310 Si / 1000 Ang^3
#
#
#
# Elastic Constant Matrix: (Units=GPa)
#
#
# Indices 1 2 3 4 5 6 
#
# 1 93.0275 71.6025 57.8421 0.0000 9.6671 0.0000
# 2 71.6025 144.4566 90.9560 0.0000 34.3045 0.0000
# 3 57.8421 90.9560 106.7161 0.0000 14.5953 0.0000
# 4 0.0000 0.0000 0.0000 50.5588 0.0000 9.5711
# 5 9.6671 34.3045 14.5953 0.0000 29.0549 0.0000
# 6 0.0000 0.0000 0.0000 9.5711 0.0000 45.1591
#
#
#
# Elastic Compliance Matrix: (Units=1/GPa)
#
#
# Indices 1 2 3 4 5 6 
#
# 1 0.018972 -0.008042 -0.004149 0.000000 0.005267 0.000000
# 2 -0.008042 0.023707 -0.013298 0.000000 -0.018634 0.000000
# 3 -0.004149 -0.013298 0.022139 0.000000 0.005961 0.000000
# 4 0.000000 0.000000 0.000000 0.020606 0.000000 -0.004367
# 5 0.005267 -0.018634 0.005961 0.000000 0.051672 0.000000
# 6 0.000000 0.000000 0.000000 -0.004367 0.000000 0.023069
#
#
# Mechanical properties :
#
#
# Convention : Reuss Voigt Hill
#
# Bulk Modulus (GPa) = 72.26151 87.22237 79.74194
# Shear Modulus (GPa) = 23.17418 33.20789 28.19103
#
# Velocity S-wave (km/s) = 3.58769 4.29471 3.95702
# Velocity P-wave (km/s) = 7.56954 8.54624 8.07267
#
# Compressibility (1/GPa) = 0.01383863
#
# Stress axis : x y z
#
# Youngs Moduli (GPa) = 52.70949 42.18133 45.16960
#
# Poissons Ratio (x) = 0.33923 0.18741
# Poissons Ratio (y) = 0.42390 0.60069
# Poissons Ratio (z) = 0.21869 0.56095
#
# Static dielectric constant tensor:
#      x y z
#    x 1.615180 0.000000 0.005580 
#    y 0.000000 1.579510 0.000000 
#    z 0.005580 0.000000 1.618330 
# 
# From -- ./inp_files/21122.got.cif
#   From: 2010.05.17/outbox.cif.g08.bks.cpg/sg13_11_cif.got.tgz:21122.got - 2010.06.03 16:44:36.
