data_PCOD9230342
_publ_section_title
;
Structure prediction by ZEFSAII (Michael W. Deem and Ramdas Pophale) SiO2 
 PCOD9230342
Probable space group: P 2/C
;
_chemical_formula_sum "Si O2"
_cell_formula_units_Z 28
_cell_length_a 15.772121
_cell_length_b 6.042227
_cell_length_c 18.152237
_cell_angle_alpha 90.000000
_cell_angle_beta 41.792209
_cell_angle_gamma 90.000000
_cell_volume 1152.849309
_symmetry_space_group_name_H-M "P 2/C"
_symmetry_group_IT_number 13
_symmetry_cell_setting 'monoclinic'
loop_
_space_group_symop_operation_xyz
x,y,z
-x,y,1/2-z
-x,-y,-z
x,-y,1/2+z
loop_
_atom_site_type_symbol
_atom_site_label
_atom_site_fract_x
_atom_site_fract_y
_atom_site_fract_z
Si Si1 0.635292 0.230463 0.937211
Si Si2 0.769568 0.542192 0.227171
Si Si3 0.290633 0.596308 0.387119
Si Si4 0.000000 0.648000 0.750000
Si Si5 0.198638 0.961172 0.555343
Si Si6 0.611078 0.146171 0.329308
Si Si7 0.039208 0.662015 0.086007
Si Si8 0.500000 0.245438 0.250000
O O1 0.719165 0.411104 0.841897
O O2 0.713871 0.118595 0.952375
O O3 0.619833 0.054863 0.880215
O O4 0.499346 0.293836 0.059243
O O5 0.684806 0.640301 0.215010
O O6 0.743703 0.278938 0.236186
O O7 0.906894 0.656057 0.128710
O O8 0.277255 0.806775 0.448297
O O9 0.155241 0.469567 0.474615
O O10 0.391469 0.415112 0.348299
O O11 0.878550 0.804528 0.838980
O O12 0.997957 0.488184 0.820438
O O13 0.095461 0.104895 0.576530
O O14 0.558080 0.112320 0.280961
#
# Coordination Sequence:
#
# PCOD9230342 Si02
#       8
#     4   4   4   2   4   4   4   2
#     4  11  23  39  64  95 128 167 211 266 319 373
#     4  11  23  41  63  90 127 168 214 264 321 380
#     4  10  25  42  63  92 125 166 214 267 318 381
#     4  10  20  36  60  92 124 164 210 258 314 374
#     4  11  23  40  63  95 128 164 213 262 316 383
#     4  10  24  42  64  95 128 167 215 265 317 378
#     4  11  22  39  63  91 128 170 211 263 322 379
#     4  10  22  46  70  88 126 174 212 260 324 380
#
# _framework density 24.287648000000001
#
# number of rings (size 3 to 8) (size 9 to 14) (size 15 to 20)
#    0.000    1.429    0.000    4.714    0.000   13.143 
#    0.000    1.429    0.000    0.000    0.000    0.000 
#    0.000    0.000    0.000    0.000    0.000    0.000 
#
# Total GULP energy -156520.286259 kJ/mol
# GULP energy per Si atom -5590.010224 kJ/mol
# Density = 2.423237 g / cm^3
# Si number density = 24.287648 Si / 1000 Ang^3
#
#
#
# Elastic Constant Matrix: (Units=GPa)
#
#
# Indices 1 2 3 4 5 6 
#
# 1 97.8663 44.5148 17.3260 0.0000 3.1921 0.0000
# 2 44.5148 56.1230 21.5218 0.0000 6.5864 0.0000
# 3 17.3260 21.5218 81.1382 0.0000 10.6976 0.0000
# 4 0.0000 0.0000 0.0000 73.8475 0.0000 11.4584
# 5 3.1921 6.5864 10.6976 0.0000 37.7644 0.0000
# 6 0.0000 0.0000 0.0000 11.4584 0.0000 32.9145
#
#
#
# Elastic Compliance Matrix: (Units=1/GPa)
#
#
# Indices 1 2 3 4 5 6 
#
# 1 0.016015 -0.012749 -0.000159 0.000000 0.000915 0.000000
# 2 -0.012749 0.030138 -0.004904 0.000000 -0.002790 0.000000
# 3 -0.000159 -0.004904 0.014070 0.000000 -0.003117 0.000000
# 4 0.000000 0.000000 0.000000 0.014315 0.000000 -0.004983
# 5 0.000915 -0.002790 -0.003117 0.000000 0.027772 0.000000
# 6 0.000000 0.000000 0.000000 -0.004983 0.000000 0.032117
#
#
# Mechanical properties :
#
#
# Convention : Reuss Voigt Hill
#
# Bulk Modulus (GPa) = 40.65051 44.65031 42.65041
# Shear Modulus (GPa) = 28.05032 39.02293 33.53662
#
# Velocity S-wave (km/s) = 3.40210 4.01271 3.71996
# Velocity P-wave (km/s) = 5.67502 6.31609 6.00412
#
# Compressibility (1/GPa) = 0.02459993
#
# Stress axis : x y z
#
# Youngs Moduli (GPa) = 62.44011 33.18046 71.07183
#
# Poissons Ratio (x) = 0.42303 0.01128
# Poissons Ratio (y) = 0.79607 0.34853
# Poissons Ratio (z) = 0.00991 0.16271
#
# Static dielectric constant tensor:
#      x y z
#    x 1.845030 0.000000 -0.154930 
#    y 0.000000 1.940630 0.000000 
#    z -0.154930 0.000000 1.904160 
# 
# From -- ./inp_files/80654.got.cif
#   From: 2010.05.17/outbox.cif.g08.bks.cpg/sg13_41_cif.got.tgz:80654.got - 2010.06.03 16:44:36.
