data_PCOD9230755
_publ_section_title
;
Structure prediction by ZEFSAII (Michael W. Deem and Ramdas Pophale) SiO2 
 PCOD9230755
Probable space group: P 2/C
;
_chemical_formula_sum "Si O2"
_cell_formula_units_Z 30
_cell_length_a 14.530094
_cell_length_b 20.403489
_cell_length_c 14.455732
_cell_angle_alpha 90.000000
_cell_angle_beta 20.249849
_cell_angle_gamma 90.000000
_cell_volume 1483.313161
_symmetry_space_group_name_H-M "P 2/C"
_symmetry_group_IT_number 13
_symmetry_cell_setting 'monoclinic'
loop_
_space_group_symop_operation_xyz
x,y,z
-x,y,1/2-z
-x,-y,-z
x,-y,1/2+z
loop_
_atom_site_type_symbol
_atom_site_label
_atom_site_fract_x
_atom_site_fract_y
_atom_site_fract_z
Si Si1 0.471477 0.639814 0.673018
Si Si2 0.173990 0.836421 0.276220
Si Si3 0.926991 0.596245 0.919937
Si Si4 0.080343 0.685497 0.392979
Si Si5 0.717960 0.915226 0.778508
Si Si6 0.000000 0.893101 0.250000
Si Si7 0.553851 0.509778 0.057911
Si Si8 0.432034 0.999626 0.406735
O O1 0.500000 0.666723 0.750000
O O2 0.687300 0.660576 0.393633
O O3 0.504329 0.561508 0.646338
O O4 0.191098 0.664439 0.900258
O O5 0.129736 0.762869 0.351164
O O6 0.028855 0.846690 0.312988
O O7 0.004965 0.884055 0.500537
O O8 0.478747 0.861911 0.991566
O O9 0.000000 0.624652 0.750000
O O10 0.151443 0.539598 0.716506
O O11 0.933998 0.650215 0.994050
O O12 0.648000 0.559828 0.202048
O O13 0.670043 0.965044 0.738182
O O14 0.694038 0.954851 0.895797
O O15 0.758107 0.942954 0.454513
O O16 0.500000 0.500000 0.000000
O O17 0.500000 0.960482 0.250000
#
# Coordination Sequence:
#
# PCOD9230755 Si02
#       8
#     4   4   4   4   4   2   4   4
#     4  12  25  40  64  96 128 170 206 272 333 387
#     4  11  24  42  59  93 128 173 203 257 304 384
#     4  12  24  42  68  94 124 180 219 270 321 385
#     4  12  25  44  63  89 135 170 222 258 309 383
#     4  10  23  39  62  88 130 156 202 254 318 358
#     4  10  22  36  66  92 126 162 210 244 320 382
#     4  12  22  43  65  96 133 158 215 281 338 366
#     4  10  20  37  63  95 121 157 201 258 307 379
#
# _framework density 20.224993000000001
#
# number of rings (size 3 to 8) (size 9 to 14) (size 15 to 20)
#    0.000    0.800    4.000    3.600    3.733    1.600 
#    0.000    1.333    0.000    0.000    0.000    0.000 
#    0.000    0.000    0.000    0.000    0.000    0.000 
#
# Total GULP energy -167484.819126 kJ/mol
# GULP energy per Si atom -5582.827304 kJ/mol
# Density = 2.017896 g / cm^3
# Si number density = 20.224993 Si / 1000 Ang^3
#
#
#
# Elastic Constant Matrix: (Units=GPa)
#
#
# Indices 1 2 3 4 5 6 
#
# 1 124.7490 12.1143 33.9501 0.0000 36.1832 0.0000
# 2 12.1143 59.3530 -2.4538 0.0000 10.9877 0.0000
# 3 33.9501 -2.4538 94.1353 0.0000 7.1455 0.0000
# 4 0.0000 0.0000 0.0000 0.0933 0.0000 -9.6432
# 5 36.1832 10.9877 7.1455 0.0000 35.7022 0.0000
# 6 0.0000 0.0000 0.0000 -9.6432 0.0000 4.0112
#
#
#
# Elastic Compliance Matrix: (Units=1/GPa)
#
#
# Indices 1 2 3 4 5 6 
#
# 1 0.012455 -0.000518 -0.003614 0.000000 -0.011740 0.000000
# 2 -0.000518 0.017963 0.001051 0.000000 -0.005213 0.000000
# 3 -0.003614 0.001051 0.011881 0.000000 0.000962 0.000000
# 4 0.000000 0.000000 0.000000 -0.043310 0.000000 -0.104119
# 5 -0.011740 -0.005213 0.000962 0.000000 0.041320 0.000000
# 6 0.000000 0.000000 0.000000 -0.104119 0.000000 -0.001007
#
#
# Mechanical properties :
#
#
# Convention : Reuss Voigt Hill
#
# Bulk Modulus (GPa) = 27.67372 40.60650 34.14011
# Shear Modulus (GPa) = 86.94203 23.60314 55.27258
#
# Velocity S-wave (km/s) = 6.56359 3.41989 5.23337
# Velocity P-wave (km/s) = 8.43526 5.97621 7.30988
#
# Compressibility (1/GPa) = 0.03613537
#
# Stress axis : x y z
#
# Youngs Moduli (GPa) = 80.28732 55.67103 84.16856
#
# Poissons Ratio (x) = 0.02885 0.30422
# Poissons Ratio (y) = 0.04161 -0.08845
# Poissons Ratio (z) = 0.29019 -0.05850
#
# Static dielectric constant tensor:
#      x y z
#    x 1.762960 0.000000 0.025260 
#    y 0.000000 1.806890 0.000000 
#    z 0.025260 0.000000 1.726800 
# 
# From -- ./inp_files/53962.got.cif
#   From: 2010.05.17/outbox.cif.g08.bks.cpg/sg13_27_cif.got.tgz:53962.got - 2010.06.03 16:44:36.
