data_PCOD9230348
_publ_section_title
;
Structure prediction by ZEFSAII (Michael W. Deem and Ramdas Pophale) SiO2 
 PCOD9230348
Probable space group: P 2/C
;
_chemical_formula_sum "Si O2"
_cell_formula_units_Z 26
_cell_length_a 18.665269
_cell_length_b 9.862783
_cell_length_c 13.379870
_cell_angle_alpha 90.000000
_cell_angle_beta 146.604712
_cell_angle_gamma 90.000000
_cell_volume 1355.731173
_symmetry_space_group_name_H-M "P 2/C"
_symmetry_group_IT_number 13
_symmetry_cell_setting 'monoclinic'
loop_
_space_group_symop_operation_xyz
x,y,z
-x,y,1/2-z
-x,-y,-z
x,-y,1/2+z
loop_
_atom_site_type_symbol
_atom_site_label
_atom_site_fract_x
_atom_site_fract_y
_atom_site_fract_z
Si Si1 0.724249 0.839293 0.016058
Si Si2 0.147077 0.948096 0.689379
Si Si3 0.394765 0.399746 0.333332
Si Si4 0.919505 0.406959 0.754496
Si Si5 0.851811 0.631941 0.823078
Si Si6 0.380752 0.912983 0.819955
Si Si7 0.500000 0.335310 0.250000
O O1 0.654234 0.901728 0.837569
O O2 0.606467 0.757384 0.931257
O O3 0.832057 0.722664 0.122255
O O4 0.790914 0.957880 0.154054
O O5 0.158464 0.787613 0.724241
O O6 0.245328 0.962742 0.710591
O O7 0.000000 0.000000 0.500000
O O8 0.500000 0.500000 0.500000
O O9 0.254531 0.422864 0.220603
O O10 0.413172 0.242717 0.385110
O O11 0.416818 0.409181 0.239014
O O12 0.846861 0.533282 0.721649
O O13 0.000000 0.447289 0.750000
O O14 0.015868 0.366711 0.957594
O O15 0.500000 0.000000 0.000000
#
# Coordination Sequence:
#
# PCOD9230348 Si02
#       7
#     4   4   4   4   4   4   2
#     4  11  22  38  67  87 123 169 212 255 329 385
#     4  11  21  39  62  93 127 161 211 266 327 383
#     4  10  20  38  62  87 121 160 211 257 315 376
#     4  11  21  40  61  84 124 169 211 259 319 381
#     4  10  23  39  57  94 128 161 209 272 316 380
#     4  10  23  42  60  91 127 166 214 266 319 389
#     4  10  20  36  60  94 112 162 212 244 308 390
#
# _framework density 19.177841999999998
#
# number of rings (size 3 to 8) (size 9 to 14) (size 15 to 20)
#    0.000    1.538    1.538    5.538    0.000    0.000 
#    2.769    6.154    0.000    0.923    0.000    0.000 
#    0.000    0.000    0.000    0.000    0.000    0.000 
#
# Total GULP energy -144787.933102 kJ/mol
# GULP energy per Si atom -5568.766658 kJ/mol
# Density = 1.913419 g / cm^3
# Si number density = 19.177842 Si / 1000 Ang^3
#
#
#
# Elastic Constant Matrix: (Units=GPa)
#
#
# Indices 1 2 3 4 5 6 
#
# 1 127.6980 37.2353 21.7588 0.0000 8.0661 0.0000
# 2 37.2353 37.6033 3.2404 0.0000 -12.9545 0.0000
# 3 21.7588 3.2404 62.7150 0.0000 -4.2277 0.0000
# 4 0.0000 0.0000 0.0000 37.9858 0.0000 1.8007
# 5 8.0661 -12.9545 -4.2277 0.0000 32.5850 0.0000
# 6 0.0000 0.0000 0.0000 1.8007 0.0000 27.3839
#
#
#
# Elastic Compliance Matrix: (Units=1/GPa)
#
#
# Indices 1 2 3 4 5 6 
#
# 1 0.014642 -0.018011 -0.004920 0.000000 -0.011423 0.000000
# 2 -0.018011 0.053004 0.005277 0.000000 0.026215 0.000000
# 3 -0.004920 0.005277 0.017758 0.000000 0.005620 0.000000
# 4 0.000000 0.000000 0.000000 0.026408 0.000000 -0.001737
# 5 -0.011423 0.026215 0.005620 0.000000 0.044668 0.000000
# 6 0.000000 0.000000 0.000000 -0.001737 0.000000 0.036632
#
#
# Mechanical properties :
#
#
# Convention : Reuss Voigt Hill
#
# Bulk Modulus (GPa) = 19.96044 39.16503 29.56274
# Shear Modulus (GPa) = 20.39830 30.64306 25.52068
#
# Velocity S-wave (km/s) = 3.26489 4.00163 3.65189
# Velocity P-wave (km/s) = 4.96420 6.46661 5.76456
#
# Compressibility (1/GPa) = 0.05009909
#
# Stress axis : x y z
#
# Youngs Moduli (GPa) = 68.29442 18.86639 56.31212
#
# Poissons Ratio (x) = 0.33979 0.27704
# Poissons Ratio (y) = 1.23002 -0.29718
# Poissons Ratio (z) = 0.33598 -0.09956
#
# Static dielectric constant tensor:
#      x y z
#    x 1.726820 0.000000 0.013070 
#    y 0.000000 1.653730 0.000000 
#    z 0.013070 0.000000 1.568950 
# 
# From -- ./inp_files/57322.got.cif
#   From: 2010.05.17/outbox.cif.g08.bks.cpg/sg13_29_cif.got.tgz:57322.got - 2010.06.03 16:44:36.
