data_PCOD9230146
_publ_section_title
;
Structure prediction by ZEFSAII (Michael W. Deem and Ramdas Pophale) SiO2 
 PCOD9230146
Probable space group: P 2/C
;
_chemical_formula_sum "Si O2"
_cell_formula_units_Z 26
_cell_length_a 12.855511
_cell_length_b 14.457808
_cell_length_c 8.151922
_cell_angle_alpha 90.000000
_cell_angle_beta 48.019390
_cell_angle_gamma 90.000000
_cell_volume 1126.309019
_symmetry_space_group_name_H-M "P 2/C"
_symmetry_group_IT_number 13
_symmetry_cell_setting 'monoclinic'
loop_
_space_group_symop_operation_xyz
x,y,z
-x,y,1/2-z
-x,-y,-z
x,-y,1/2+z
loop_
_atom_site_type_symbol
_atom_site_label
_atom_site_fract_x
_atom_site_fract_y
_atom_site_fract_z
Si Si1 0.162305 0.553035 0.120012
Si Si2 0.214100 0.634999 0.417955
Si Si3 0.441403 0.764988 0.084946
Si Si4 0.761270 0.908761 0.072900
Si Si5 0.000000 0.213226 0.250000
Si Si6 0.850330 0.910674 0.353175
Si Si7 0.706747 0.262618 0.116199
O O1 0.192891 0.582047 0.271604
O O2 0.000000 0.562405 0.250000
O O3 0.199655 0.445681 0.063852
O O4 0.244269 0.631349 0.929614
O O5 0.365243 0.682618 0.262097
O O6 0.093353 0.713536 0.547401
O O7 0.382082 0.855345 0.237296
O O8 0.372532 0.754957 0.974889
O O9 0.604350 0.759609 0.874808
O O10 0.837283 0.905377 0.171261
O O11 0.870543 0.854508 0.837885
O O12 0.741535 0.012528 0.031842
O O13 0.828279 0.812853 0.467279
O O14 0.000000 0.947077 0.250000
#
# Coordination Sequence:
#
# PCOD9230146 Si02
#       7
#     4   4   4   4   2   4   4
#     4  11  21  36  55  88 110 145 180 231 271 331
#     4  10  21  36  59  81 112 145 186 221 280 320
#     4   8  18  38  55  78 107 156 180 219 275 331
#     4  10  21  36  59  81 112 145 186 221 280 320
#     4  10  20  36  54  78 110 148 170 226 274 332
#     4  11  21  36  55  88 110 145 180 231 271 331
#     4   9  19  35  57  77 113 145 189 221 268 321
#
# _framework density 23.084249
#
# number of rings (size 3 to 8) (size 9 to 14) (size 15 to 20)
#    0.000    2.154    1.538    2.308    0.000    1.231 
#    0.000    0.000    0.000    1.846    0.000    0.000 
#    0.000    0.000    0.000    0.000    0.000    0.000 
#
# Total GULP energy -145098.548843 kJ/mol
# GULP energy per Si atom -5580.713417 kJ/mol
# Density = 2.303171 g / cm^3
# Si number density = 23.084249 Si / 1000 Ang^3
#
#
#
# Elastic Constant Matrix: (Units=GPa)
#
#
# Indices 1 2 3 4 5 6 
#
# 1 42.9942 4.5929 16.4303 0.0000 9.2720 0.0000
# 2 4.5929 63.7599 -1.4385 0.0000 10.6204 0.0000
# 3 16.4303 -1.4385 82.8810 0.0000 -8.0670 0.0000
# 4 0.0000 0.0000 0.0000 34.1496 0.0000 7.3934
# 5 9.2720 10.6204 -8.0670 0.0000 18.6857 0.0000
# 6 0.0000 0.0000 0.0000 7.3934 0.0000 9.9940
#
#
#
# Elastic Compliance Matrix: (Units=1/GPa)
#
#
# Indices 1 2 3 4 5 6 
#
# 1 0.030215 0.000780 -0.007807 0.000000 -0.018806 0.000000
# 2 0.000780 0.017382 -0.000890 0.000000 -0.010650 0.000000
# 3 -0.007807 -0.000890 0.014639 0.000000 0.010699 0.000000
# 4 0.000000 0.000000 0.000000 0.034867 0.000000 -0.025794
# 5 -0.018806 -0.010650 0.010699 0.000000 0.073521 0.000000
# 6 0.000000 0.000000 0.000000 -0.025794 0.000000 0.119142
#
#
# Mechanical properties :
#
#
# Convention : Reuss Voigt Hill
#
# Bulk Modulus (GPa) = 21.55048 25.42272 23.48660
# Shear Modulus (GPa) = 15.57312 23.90255 19.73783
#
# Velocity S-wave (km/s) = 2.60016 3.22133 2.92727
# Velocity P-wave (km/s) = 4.28606 4.98727 4.64990
#
# Compressibility (1/GPa) = 0.04640268
#
# Stress axis : x y z
#
# Youngs Moduli (GPa) = 33.09649 57.53220 68.31046
#
# Poissons Ratio (x) = -0.04487 0.53328
# Poissons Ratio (y) = -0.02581 0.06077
# Poissons Ratio (z) = 0.25837 0.05118
#
# Static dielectric constant tensor:
#      x y z
#    x 1.066040 0.000000 0.152730 
#    y 0.000000 1.887900 0.000000 
#    z 0.152730 0.000000 1.907970 
# 
# From -- ./inp_files/19856.got.cif
#   From: 2010.05.17/outbox.cif.g08.bks.cpg/sg13_10_cif.got.tgz:19856.got - 2010.06.03 16:44:36.
