data_PCOD9230058
_publ_section_title
;
Structure prediction by ZEFSAII (Michael W. Deem and Ramdas Pophale) SiO2 
 PCOD9230058
Probable space group: P 2/C
;
_chemical_formula_sum "Si O2"
_cell_formula_units_Z 32
_cell_length_a 7.022356
_cell_length_b 10.899845
_cell_length_c 19.098691
_cell_angle_alpha 90.000000
_cell_angle_beta 55.153323
_cell_angle_gamma 90.000000
_cell_volume 1199.727823
_symmetry_space_group_name_H-M "P 2/C"
_symmetry_group_IT_number 13
_symmetry_cell_setting 'monoclinic'
loop_
_space_group_symop_operation_xyz
x,y,z
-x,y,1/2-z
-x,-y,-z
x,-y,1/2+z
loop_
_atom_site_type_symbol
_atom_site_label
_atom_site_fract_x
_atom_site_fract_y
_atom_site_fract_z
Si Si1 0.170834 0.750829 0.506823
Si Si2 0.515914 0.416313 0.627103
Si Si3 0.504686 0.207097 0.135851
Si Si4 0.075535 0.089913 0.815899
Si Si5 0.146521 0.200709 0.313788
Si Si6 0.774899 0.370445 0.992185
Si Si7 0.714341 0.978852 0.506297
Si Si8 0.165893 0.633424 0.308766
O O1 0.420381 0.708787 0.427003
O O2 0.155012 0.896504 0.498834
O O3 0.089844 0.745582 0.604685
O O4 0.986483 0.672330 0.499587
O O5 0.628176 0.514480 0.550767
O O6 0.678595 0.422549 0.661971
O O7 0.263188 0.419760 0.715539
O O8 0.251841 0.235710 0.217015
O O9 0.672887 0.244028 0.164256
O O10 0.585544 0.266433 0.046642
O O11 0.584698 0.069694 0.102765
O O12 0.210112 0.218790 0.797487
O O13 0.000000 0.095860 0.750000
O O14 0.157605 0.948324 0.807258
O O15 0.887825 0.095318 0.918609
O O16 0.902660 0.386973 0.891649
O O17 0.500000 0.000000 0.500000
#
# Coordination Sequence:
#
# PCOD9230058 Si02
#       8
#     4   4   4   4   4   4   4   4
#     4   9  20  35  56  85 122 157 197 245 305 360
#     4  10  22  35  62  93 120 158 200 261 311 370
#     4  10  20  35  59  89 124 161 199 250 310 369
#     4  11  23  38  57  85 128 165 205 258 304 379
#     4   9  21  33  56  89 121 164 198 246 309 374
#     4  10  20  39  60  91 126 155 202 256 313 368
#     4  11  23  37  59  88 125 168 205 252 309 377
#     4  10  21  36  57  90 119 157 201 250 317 369
#
# _framework density 26.672716000000001
#
# number of rings (size 3 to 8) (size 9 to 14) (size 15 to 20)
#    0.000    2.000    1.250    2.250    7.000    7.500 
#    0.000    0.000    0.000    4.500    0.000    8.750 
#    0.000    0.000    0.000    0.000    0.000    0.000 
#
# Total GULP energy -178467.089290 kJ/mol
# GULP energy per Si atom -5577.096540 kJ/mol
# Density = 2.661201 g / cm^3
# Si number density = 26.672716 Si / 1000 Ang^3
#
#
#
# Elastic Constant Matrix: (Units=GPa)
#
#
# Indices 1 2 3 4 5 6 
#
# 1 76.9540 -2.5807 58.7366 0.0000 6.9557 0.0000
# 2 -2.5807 64.3038 37.7975 0.0000 -5.5093 0.0000
# 3 58.7366 37.7975 318.6377 0.0000 -20.9980 0.0000
# 4 0.0000 0.0000 0.0000 11.5948 0.0000 -30.4857
# 5 6.9557 -5.5093 -20.9980 0.0000 50.9179 0.0000
# 6 0.0000 0.0000 0.0000 -30.4857 0.0000 -47.1726
#
#
#
# Elastic Compliance Matrix: (Units=1/GPa)
#
#
# Indices 1 2 3 4 5 6 
#
# 1 0.016016 0.002387 -0.003457 0.000000 -0.003355 0.000000
# 2 0.002387 0.017124 -0.002437 0.000000 0.000522 0.000000
# 3 -0.003457 -0.002437 0.004192 0.000000 0.001937 0.000000
# 4 0.000000 0.000000 0.000000 0.031953 0.000000 -0.020650
# 5 -0.003355 0.000522 0.001937 0.000000 0.020953 0.000000
# 6 0.000000 0.000000 0.000000 -0.020650 0.000000 -0.007854
#
#
# Mechanical properties :
#
#
# Convention : Reuss Voigt Hill
#
# Bulk Modulus (GPa) = 32.98163 71.97805 52.47984
# Shear Modulus (GPa) = 50.24897 27.46415 38.85656
#
# Velocity S-wave (km/s) = 4.34511 3.21233 3.82093
# Velocity P-wave (km/s) = 6.12907 6.38772 6.25973
#
# Compressibility (1/GPa) = 0.03031990
#
# Stress axis : x y z
#
# Youngs Moduli (GPa) = 62.43568 58.39716 238.53219
#
# Poissons Ratio (x) = -0.13940 0.82453
# Poissons Ratio (y) = -0.14904 0.58129
# Poissons Ratio (z) = 0.21582 0.14231
#
# Static dielectric constant tensor:
#      x y z
#    x 2.135900 0.000000 -0.038370 
#    y 0.000000 2.400080 0.000000 
#    z -0.038370 0.000000 2.139900 
# 
# From -- ./inp_files/76447.got.cif
#   From: 2010.05.17/outbox.cif.g08.bks.cpg/sg13_39_cif.got.tgz:76447.got - 2010.06.03 16:44:36.
