data_PCOD9230270
_publ_section_title
;
Structure prediction by ZEFSAII (Michael W. Deem and Ramdas Pophale) SiO2 
 PCOD9230270
Probable space group: P 2/C
;
_chemical_formula_sum "Si O2"
_cell_formula_units_Z 24
_cell_length_a 16.891696
_cell_length_b 9.485048
_cell_length_c 17.102055
_cell_angle_alpha 90.000000
_cell_angle_beta 156.516249
_cell_angle_gamma 90.000000
_cell_volume 1091.886257
_symmetry_space_group_name_H-M "P 2/C"
_symmetry_group_IT_number 13
_symmetry_cell_setting 'monoclinic'
loop_
_space_group_symop_operation_xyz
x,y,z
-x,y,1/2-z
-x,-y,-z
x,-y,1/2+z
loop_
_atom_site_type_symbol
_atom_site_label
_atom_site_fract_x
_atom_site_fract_y
_atom_site_fract_z
Si Si1 0.291227 0.551671 0.387833
Si Si2 0.650788 0.930240 0.578117
Si Si3 0.056362 0.703158 0.638008
Si Si4 0.392036 0.327391 0.821706
Si Si5 0.000000 0.696116 0.250000
Si Si6 0.721637 0.057286 0.481834
Si Si7 0.000000 0.810056 0.750000
O O1 0.177339 0.437716 0.229204
O O2 0.482065 0.464124 0.591955
O O3 0.372487 0.664158 0.398793
O O4 0.136275 0.610498 0.311447
O O5 0.829574 0.846211 0.783118
O O6 0.522294 0.808618 0.418832
O O7 0.500000 0.000000 0.500000
O O8 0.722322 0.039149 0.577018
O O9 0.829533 0.688184 0.409948
O O10 0.075137 0.714692 0.748838
O O11 0.155637 0.804756 0.431240
O O12 0.500000 0.062178 0.250000
O O13 0.839256 0.915277 0.565687
#
# Coordination Sequence:
#
# PCOD9230270 Si02
#       7
#     4   4   4   4   2   4   2
#     4  10  22  38  55  84 116 147 194 242 283 344
#     4  10  21  36  56  85 115 145 190 239 283 341
#     4  10  20  36  59  81 110 152 190 235 288 341
#     4  10  21  38  60  82 113 154 193 235 287 347
#     4  11  23  38  56  82 117 149 186 242 294 341
#     4  10  21  36  55  80 111 147 185 232 290 347
#     4   9  19  36  54  80 111 139 186 236 282 341
#
# _framework density 21.980312000000001
#
# number of rings (size 3 to 8) (size 9 to 14) (size 15 to 20)
#    0.000    2.000    0.000    3.000    0.000    3.333 
#    0.000    5.000    0.000    0.000    0.000    0.000 
#    0.000    0.000    0.000    0.000    0.000    0.000 
#
# Total GULP energy -133856.299741 kJ/mol
# GULP energy per Si atom -5577.345823 kJ/mol
# Density = 2.193028 g / cm^3
# Si number density = 21.980312 Si / 1000 Ang^3
#
#
#
# Elastic Constant Matrix: (Units=GPa)
#
#
# Indices 1 2 3 4 5 6 
#
# 1 92.6082 30.6474 1.8570 0.0000 31.5433 0.0000
# 2 30.6474 81.9520 42.1790 0.0000 10.3124 0.0000
# 3 1.8570 42.1790 178.5282 0.0000 30.2413 0.0000
# 4 0.0000 0.0000 0.0000 26.7348 0.0000 22.4255
# 5 31.5433 10.3124 30.2413 0.0000 26.9646 0.0000
# 6 0.0000 0.0000 0.0000 22.4255 0.0000 36.7706
#
#
#
# Elastic Compliance Matrix: (Units=1/GPa)
#
#
# Indices 1 2 3 4 5 6 
#
# 1 0.025827 -0.009272 0.007949 0.000000 -0.035581 0.000000
# 2 -0.009272 0.017310 -0.005814 0.000000 0.010747 0.000000
# 3 0.007949 -0.005814 0.009988 0.000000 -0.018278 0.000000
# 4 0.000000 0.000000 0.000000 0.076582 0.000000 -0.046705
# 5 -0.035581 0.010747 -0.018278 0.000000 0.095097 0.000000
# 6 0.000000 0.000000 0.000000 -0.046705 0.000000 0.055680
#
#
# Mechanical properties :
#
#
# Convention : Reuss Voigt Hill
#
# Bulk Modulus (GPa) = 25.73918 55.82837 40.78377
# Shear Modulus (GPa) = 16.24921 36.65432 26.45177
#
# Velocity S-wave (km/s) = 2.72189 4.08805 3.47281
# Velocity P-wave (km/s) = 4.64906 6.90922 5.88859
#
# Compressibility (1/GPa) = 0.03885128
#
# Stress axis : x y z
#
# Youngs Moduli (GPa) = 38.71976 57.77158 100.11750
#
# Poissons Ratio (x) = 0.53567 -0.79585
# Poissons Ratio (y) = 0.35902 0.58203
# Poissons Ratio (z) = -0.30779 0.33586
#
# Static dielectric constant tensor:
#      x y z
#    x 1.822860 0.000000 0.034110 
#    y 0.000000 1.832810 0.000000 
#    z 0.034110 0.000000 1.805990 
# 
# From -- ./inp_files/81742.got.cif
#   From: 2010.05.17/outbox.cif.g08.bks.cpg/sg13_41_cif.got.tgz:81742.got - 2010.06.03 16:44:36.
