data_PCOD9230915
_publ_section_title
;
Structure prediction by ZEFSAII (Michael W. Deem and Ramdas Pophale) SiO2 
 PCOD9230915
Probable space group: P 2/C
;
_chemical_formula_sum "Si O2"
_cell_formula_units_Z 18
_cell_length_a 9.548448
_cell_length_b 9.039807
_cell_length_c 14.708446
_cell_angle_alpha 90.000000
_cell_angle_beta 128.980196
_cell_angle_gamma 90.000000
_cell_volume 986.922035
_symmetry_space_group_name_H-M "P 2/C"
_symmetry_group_IT_number 13
_symmetry_cell_setting 'monoclinic'
loop_
_space_group_symop_operation_xyz
x,y,z
-x,y,1/2-z
-x,-y,-z
x,-y,1/2+z
loop_
_atom_site_type_symbol
_atom_site_label
_atom_site_fract_x
_atom_site_fract_y
_atom_site_fract_z
Si Si1 0.000000 0.805691 0.750000
Si Si2 0.744813 0.376191 0.275803
Si Si3 0.706958 0.954407 0.079101
Si Si4 0.212128 0.652960 0.320809
Si Si5 0.342025 0.696939 0.562345
O O1 0.095017 0.704370 0.712685
O O2 0.155162 0.912390 0.853562
O O3 0.734178 0.544916 0.237614
O O4 0.756145 0.362852 0.388771
O O5 0.554663 0.301849 0.169358
O O6 0.741960 0.826638 0.169251
O O7 0.728455 0.859449 0.995129
O O8 0.500000 0.000000 0.000000
O O9 0.305651 0.606641 0.454576
O O10 0.000000 0.642428 0.250000
#
# Coordination Sequence:
#
# PCOD9230915 Si02
#       5
#     2   4   4   4   4
#     4  12  20  36  64  86 118 168 196 242 318 344
#     4  11  21  38  63  87 118 157 206 245 296 361
#     4  10  20  38  61  85 123 159 194 244 306 361
#     4  10  20  38  60  87 119 156 199 250 296 349
#     4   9  22  38  61  86 121 153 200 250 295 353
#
# _framework density 18.238522
#
# number of rings (size 3 to 8) (size 9 to 14) (size 15 to 20)
#    1.333    0.444    4.444    0.667    0.000    1.778 
#    0.000    0.000    9.778    0.000    0.000    0.000 
#    0.000    0.000    0.000    0.000    0.000    0.000 
#
# Total GULP energy -100201.976025 kJ/mol
# GULP energy per Si atom -5566.776446 kJ/mol
# Density = 1.819701 g / cm^3
# Si number density = 18.238522 Si / 1000 Ang^3
#
#
#
# Elastic Constant Matrix: (Units=GPa)
#
#
# Indices 1 2 3 4 5 6 
#
# 1 95.2583 29.0598 16.3353 0.0000 -7.0708 0.0000
# 2 29.0598 71.8303 2.1989 0.0000 -5.2810 0.0000
# 3 16.3353 2.1989 42.9347 0.0000 3.2535 0.0000
# 4 0.0000 0.0000 0.0000 20.1473 0.0000 -12.2755
# 5 -7.0708 -5.2810 3.2535 0.0000 33.3991 0.0000
# 6 0.0000 0.0000 0.0000 -12.2755 0.0000 0.5805
#
#
#
# Elastic Compliance Matrix: (Units=1/GPa)
#
#
# Indices 1 2 3 4 5 6 
#
# 1 0.013025 -0.004939 -0.004888 0.000000 0.002453 0.000000
# 2 -0.004939 0.015993 0.000955 0.000000 0.001390 0.000000
# 3 -0.004888 0.000955 0.025356 0.000000 -0.003354 0.000000
# 4 0.000000 0.000000 0.000000 -0.004176 0.000000 -0.088317
# 5 0.002453 0.001390 -0.003354 0.000000 0.031007 0.000000
# 6 0.000000 0.000000 0.000000 -0.088317 0.000000 -0.144951
#
#
# Mechanical properties :
#
#
# Convention : Reuss Voigt Hill
#
# Bulk Modulus (GPa) = 27.30132 33.91236 30.60684
# Shear Modulus (GPa) = -147.96872 21.65399 -63.15737
#
# Velocity S-wave (km/s) = -9.01698 3.44941 -5.89099
# Velocity P-wave (km/s) = 9.66469 5.87356 5.42713
#
# Compressibility (1/GPa) = 0.03662826
#
# Stress axis : x y z
#
# Youngs Moduli (GPa) = 76.77558 62.52740 39.43782
#
# Poissons Ratio (x) = 0.30885 0.19279
# Poissons Ratio (y) = 0.37923 -0.03766
# Poissons Ratio (z) = 0.37532 -0.05971
#
# Static dielectric constant tensor:
#      x y z
#    x 1.602020 0.000000 0.000010 
#    y 0.000000 1.650390 0.000000 
#    z 0.000010 0.000000 1.650880 
# 
# From -- ./inp_files/62766.got.cif
#   From: 2010.05.17/outbox.cif.g08.bks.cpg/sg13_32_cif.got.tgz:62766.got - 2010.06.03 16:44:36.
