data_PCOD9230335
_publ_section_title
;
Structure prediction by ZEFSAII (Michael W. Deem and Ramdas Pophale) SiO2 
 PCOD9230335
Probable space group: P 2/C
;
_chemical_formula_sum "Si O2"
_cell_formula_units_Z 30
_cell_length_a 5.128789
_cell_length_b 29.979414
_cell_length_c 10.392217
_cell_angle_alpha 90.000000
_cell_angle_beta 66.197867
_cell_angle_gamma 90.000000
_cell_volume 1461.978540
_symmetry_space_group_name_H-M "P 2/C"
_symmetry_group_IT_number 13
_symmetry_cell_setting 'monoclinic'
loop_
_space_group_symop_operation_xyz
x,y,z
-x,y,1/2-z
-x,-y,-z
x,-y,1/2+z
loop_
_atom_site_type_symbol
_atom_site_label
_atom_site_fract_x
_atom_site_fract_y
_atom_site_fract_z
Si Si1 0.664622 0.978595 0.845800
Si Si2 0.756613 0.645080 0.476065
Si Si3 0.327189 0.871831 0.655421
Si Si4 0.773151 0.524938 0.888086
Si Si5 0.500000 0.595420 0.750000
Si Si6 0.647782 0.194406 0.581518
Si Si7 0.290189 0.592572 0.397161
Si Si8 0.154562 0.747848 0.081828
O O1 0.500000 0.992452 0.750000
O O2 0.636203 0.925040 0.866669
O O3 0.000000 0.988496 0.750000
O O4 0.500000 0.000000 0.000000
O O5 0.705944 0.626911 0.629272
O O6 0.494887 0.624715 0.443979
O O7 0.797273 0.697831 0.474924
O O8 0.055798 0.623228 0.377671
O O9 0.500000 0.857953 0.750000
O O10 0.379597 0.847240 0.509541
O O11 0.000000 0.862571 0.750000
O O12 0.661575 0.563042 0.814565
O O13 0.000000 0.500125 0.750000
O O14 0.500000 0.500000 0.000000
O O15 0.872994 0.553374 0.992412
O O16 0.500000 0.185042 0.750000
O O17 0.460680 0.231704 0.548725
O O18 0.957649 0.216764 0.543488
O O19 0.500000 0.571769 0.250000
O O20 0.000000 0.743324 0.250000
#
# Coordination Sequence:
#
# PCOD9230335 Si02
#       8
#     4   4   4   4   2   4   4   4
#     4  10  21  38  61  91 126 171 222 281 335 400
#     4  11  22  41  66  90 131 157 201 248 307 357
#     4  10  21  39  60  84 128 171 210 268 333 386
#     4  11  25  44  67  90 127 163 199 251 296 363
#     4  10  24  44  62  92 124 162 196 250 302 362
#     4  10  21  38  59  90 125 162 213 260 311 379
#     4  11  23  40  66  95 121 158 201 239 298 363
#     4  10  20  36  60  91 121 157 203 257 306 367
#
# _framework density 20.520139
#
# number of rings (size 3 to 8) (size 9 to 14) (size 15 to 20)
#    0.000    1.600    1.333    3.200    0.933    4.267 
#    3.600    2.000    0.000    0.000    0.000    0.000 
#    0.000    0.000    0.000    0.000    0.000    0.000 
#
# Total GULP energy -167339.520478 kJ/mol
# GULP energy per Si atom -5577.984016 kJ/mol
# Density = 2.047343 g / cm^3
# Si number density = 20.520139 Si / 1000 Ang^3
#
#
#
# Elastic Constant Matrix: (Units=GPa)
#
#
# Indices 1 2 3 4 5 6 
#
# 1 118.2730 35.5557 47.3961 0.0000 10.4926 0.0000
# 2 35.5557 58.7961 56.2756 0.0000 5.8195 0.0000
# 3 47.3961 56.2756 142.8983 0.0000 4.7874 0.0000
# 4 0.0000 0.0000 0.0000 24.1098 0.0000 11.3962
# 5 10.4926 5.8195 4.7874 0.0000 26.0981 0.0000
# 6 0.0000 0.0000 0.0000 11.3962 0.0000 9.7920
#
#
#
# Elastic Compliance Matrix: (Units=1/GPa)
#
#
# Indices 1 2 3 4 5 6 
#
# 1 0.010776 -0.004647 -0.001644 0.000000 -0.002995 0.000000
# 2 -0.004647 0.029753 -0.010078 0.000000 -0.002918 0.000000
# 3 -0.001644 -0.010078 0.011485 0.000000 0.000801 0.000000
# 4 0.000000 0.000000 0.000000 0.092196 0.000000 -0.107301
# 5 -0.002995 -0.002918 0.000801 0.000000 0.040025 0.000000
# 6 0.000000 0.000000 0.000000 -0.107301 0.000000 0.227005
#
#
# Mechanical properties :
#
#
# Convention : Reuss Voigt Hill
#
# Bulk Modulus (GPa) = 51.87612 66.49136 59.18374
# Shear Modulus (GPa) = 11.10114 24.04930 17.57522
#
# Velocity S-wave (km/s) = 2.32844 3.42714 2.92975
# Velocity P-wave (km/s) = 5.70651 6.93785 6.35209
#
# Compressibility (1/GPa) = 0.01927669
#
# Stress axis : x y z
#
# Youngs Moduli (GPa) = 92.79478 33.61004 87.06756
#
# Poissons Ratio (x) = 0.15618 0.14313
# Poissons Ratio (y) = 0.43121 0.87748
# Poissons Ratio (z) = 0.15255 0.33873
#
# Static dielectric constant tensor:
#      x y z
#    x 1.749420 0.000000 -0.030440 
#    y 0.000000 1.735930 0.000000 
#    z -0.030440 0.000000 1.826050 
# 
# From -- ./inp_files/26905.got.cif
#   From: 2010.05.17/outbox.cif.g08.bks.cpg/sg13_14_cif.got.tgz:26905.got - 2010.06.03 16:44:36.
