data_PCOD9230820
_publ_section_title
;
Structure prediction by ZEFSAII (Michael W. Deem and Ramdas Pophale) SiO2 
 PCOD9230820
Probable space group: P 2/C
;
_chemical_formula_sum "Si O2"
_cell_formula_units_Z 28
_cell_length_a 15.402720
_cell_length_b 10.581889
_cell_length_c 9.214066
_cell_angle_alpha 90.000000
_cell_angle_beta 70.384702
_cell_angle_gamma 90.000000
_cell_volume 1414.646805
_symmetry_space_group_name_H-M "P 2/C"
_symmetry_group_IT_number 13
_symmetry_cell_setting 'monoclinic'
loop_
_space_group_symop_operation_xyz
x,y,z
-x,y,1/2-z
-x,-y,-z
x,-y,1/2+z
loop_
_atom_site_type_symbol
_atom_site_label
_atom_site_fract_x
_atom_site_fract_y
_atom_site_fract_z
Si Si1 0.252973 0.857082 0.401682
Si Si2 0.355980 0.255118 0.599623
Si Si3 0.122582 0.099391 0.428051
Si Si4 0.500000 0.691173 0.250000
Si Si5 0.723712 0.245939 0.302985
Si Si6 0.391738 0.931474 0.819358
Si Si7 0.000000 0.021785 0.750000
Si Si8 0.394071 0.531481 0.516019
O O1 0.269868 0.771193 0.252698
O O2 0.237750 0.782696 0.558016
O O3 0.182023 0.970540 0.415974
O O4 0.349776 0.931024 0.361562
O O5 0.452601 0.245373 0.636953
O O6 0.359892 0.151679 0.473134
O O7 0.349916 0.393909 0.533466
O O8 0.190996 0.215488 0.353047
O O9 0.063203 0.106254 0.608050
O O10 0.058658 0.066751 0.325848
O O11 0.413939 0.607242 0.356680
O O12 0.650938 0.137631 0.296995
O O13 0.665674 0.375924 0.347442
O O14 0.500000 0.933237 0.750000
O O15 0.500000 0.500000 0.500000
#
# Coordination Sequence:
#
# PCOD9230820 Si02
#       8
#     4   4   4   2   4   4   2   4
#     4  11  23  39  56  85 129 160 197 265 321 385
#     4  11  24  36  57  78 112 164 214 263 310 359
#     4  10  21  39  63 100 126 157 201 256 337 402
#     4  10  20  38  54  76 112 158 232 276 300 330
#     4  11  22  39  57  83 129 161 209 272 307 367
#     4  11  24  33  53  81 118 164 214 256 314 370
#     4  10  20  38  70  96 128 156 198 262 338 420
#     4  10  22  36  58  80 115 170 227 266 298 346
#
# _framework density 19.792926999999999
#
# number of rings (size 3 to 8) (size 9 to 14) (size 15 to 20)
#    0.000    1.429    2.857    3.429    8.000    1.143 
#    0.000    0.000    0.000    0.000    0.000    6.000 
#    0.000    0.000    0.000    0.000    0.000    0.000 
#
# Total GULP energy -156219.022589 kJ/mol
# GULP energy per Si atom -5579.250807 kJ/mol
# Density = 1.974788 g / cm^3
# Si number density = 19.792927 Si / 1000 Ang^3
#
#
#
# Elastic Constant Matrix: (Units=GPa)
#
#
# Indices 1 2 3 4 5 6 
#
# 1 60.9219 1.7722 31.7213 0.0000 -9.7492 0.0000
# 2 1.7722 69.4241 28.5903 0.0000 -15.9303 0.0000
# 3 31.7213 28.5903 117.2943 0.0000 -20.4498 0.0000
# 4 0.0000 0.0000 0.0000 31.2594 0.0000 -6.3615
# 5 -9.7492 -15.9303 -20.4498 0.0000 39.5688 0.0000
# 6 0.0000 0.0000 0.0000 -6.3615 0.0000 22.1650
#
#
#
# Elastic Compliance Matrix: (Units=1/GPa)
#
#
# Indices 1 2 3 4 5 6 
#
# 1 0.019623 0.002404 -0.005364 0.000000 0.003030 0.000000
# 2 0.002404 0.017207 -0.003883 0.000000 0.005513 0.000000
# 3 -0.005364 -0.003883 0.011452 0.000000 0.003033 0.000000
# 4 0.000000 0.000000 0.000000 0.033975 0.000000 0.009751
# 5 0.003030 0.005513 0.003033 0.000000 0.029806 0.000000
# 6 0.000000 0.000000 0.000000 0.009751 0.000000 0.047915
#
#
# Mechanical properties :
#
#
# Convention : Reuss Voigt Hill
#
# Bulk Modulus (GPa) = 28.90720 41.31198 35.10959
# Shear Modulus (GPa) = 26.99847 30.96908 28.98377
#
# Velocity S-wave (km/s) = 3.69731 3.95986 3.83083
# Velocity P-wave (km/s) = 5.73265 6.46721 6.11098
#
# Compressibility (1/GPa) = 0.03459346
#
# Stress axis : x y z
#
# Youngs Moduli (GPa) = 50.96176 58.11597 87.32365
#
# Poissons Ratio (x) = -0.13968 0.46843
# Poissons Ratio (y) = -0.12249 0.33908
# Poissons Ratio (z) = 0.27338 0.22567
#
# Static dielectric constant tensor:
#      x y z
#    x 1.738570 0.000000 -0.003270 
#    y 0.000000 1.721280 0.000000 
#    z -0.003270 0.000000 1.761740 
# 
# From -- ./inp_files/21379.got.cif
#   From: 2010.05.17/outbox.cif.g08.bks.cpg/sg13_11_cif.got.tgz:21379.got - 2010.06.03 16:44:36.
