data_PCOD9230743
_publ_section_title
;
Structure prediction by ZEFSAII (Michael W. Deem and Ramdas Pophale) SiO2 
 PCOD9230743
Probable space group: P 2/C
;
_chemical_formula_sum "Si O2"
_cell_formula_units_Z 28
_cell_length_a 26.395843
_cell_length_b 9.077907
_cell_length_c 9.184665
_cell_angle_alpha 90.000000
_cell_angle_beta 41.523335
_cell_angle_gamma 90.000000
_cell_volume 1458.978857
_symmetry_space_group_name_H-M "P 2/C"
_symmetry_group_IT_number 13
_symmetry_cell_setting 'monoclinic'
loop_
_space_group_symop_operation_xyz
x,y,z
-x,y,1/2-z
-x,-y,-z
x,-y,1/2+z
loop_
_atom_site_type_symbol
_atom_site_label
_atom_site_fract_x
_atom_site_fract_y
_atom_site_fract_z
Si Si1 0.432809 0.137241 0.999807
Si Si2 0.174266 0.148975 0.020175
Si Si3 0.993593 0.157012 0.091517
Si Si4 0.540578 0.805522 0.529263
Si Si5 0.160403 0.172914 0.699785
Si Si6 0.710244 0.347570 0.239737
Si Si7 0.305282 0.344397 0.885996
O O1 0.356838 0.228771 0.141989
O O2 0.424290 0.962147 0.992871
O O3 0.500000 0.191300 0.750000
O O4 0.469913 0.157214 0.077303
O O5 0.091838 0.217944 0.246363
O O6 0.171344 0.983297 0.092166
O O7 0.177448 0.150023 0.836232
O O8 0.244928 0.237295 0.935531
O O9 0.000000 0.131931 0.250000
O O10 0.073018 0.231719 0.875167
O O11 0.000000 0.000000 0.000000
O O12 0.609594 0.723011 0.304054
O O13 0.500000 0.723099 0.750000
O O14 0.216382 0.285320 0.501327
O O15 0.719521 0.363527 0.393192
O O16 0.691163 0.502828 0.207877
#
# Coordination Sequence:
#
# PCOD9230743 Si02
#       7
#     4   4   4   4   4   4   4
#     4  10  21  43  63  89 116 151 192 245 294 352
#     4  10  20  37  63  91 123 155 197 243 294 349
#     4   8  16  32  57  90 120 150 191 240 292 346
#     4  10  23  39  67  90 117 148 195 241 299 355
#     4  10  20  37  63  92 121 157 195 244 294 350
#     4  12  26  41  60  83 123 159 204 245 297 353
#     4  12  26  42  57  87 120 162 201 246 296 354
#
# _framework density 19.191504999999999
#
# number of rings (size 3 to 8) (size 9 to 14) (size 15 to 20)
#    0.000    1.714    1.429    2.571    4.000    2.286 
#    0.000    0.714    0.000    0.000    0.000    0.000 
#    0.000    0.000    0.000    0.000    0.000    0.000 
#
# Total GULP energy -156137.431117 kJ/mol
# GULP energy per Si atom -5576.336826 kJ/mol
# Density = 1.914782 g / cm^3
# Si number density = 19.191505 Si / 1000 Ang^3
#
#
#
# Elastic Constant Matrix: (Units=GPa)
#
#
# Indices 1 2 3 4 5 6 
#
# 1 60.7846 4.9627 22.2170 0.0000 9.0050 0.0000
# 2 4.9627 39.1719 13.2350 0.0000 -0.3827 0.0000
# 3 22.2170 13.2350 120.4098 0.0000 6.0428 0.0000
# 4 0.0000 0.0000 0.0000 13.5852 0.0000 13.7106
# 5 9.0050 -0.3827 6.0428 0.0000 29.6615 0.0000
# 6 0.0000 0.0000 0.0000 13.7106 0.0000 9.5542
#
#
#
# Elastic Compliance Matrix: (Units=1/GPa)
#
#
# Indices 1 2 3 4 5 6 
#
# 1 0.018397 -0.001368 -0.002994 0.000000 -0.004993 0.000000
# 2 -0.001368 0.026641 -0.002742 0.000000 0.001318 0.000000
# 3 -0.002994 -0.002742 0.009209 0.000000 -0.001003 0.000000
# 4 0.000000 0.000000 0.000000 -0.164208 0.000000 0.235642
# 5 -0.004993 0.001318 -0.001003 0.000000 0.035451 0.000000
# 6 0.000000 0.000000 0.000000 0.235642 0.000000 -0.233487
#
#
# Mechanical properties :
#
#
# Convention : Reuss Voigt Hill
#
# Bulk Modulus (GPa) = 24.97501 33.46618 29.22059
# Shear Modulus (GPa) = -17.82895 22.55696 2.36400
#
# Velocity S-wave (km/s) = -3.05126 3.43207 1.11107
# Velocity P-wave (km/s) = 0.79262 5.76033 4.11155
#
# Compressibility (1/GPa) = 0.04004003
#
# Stress axis : x y z
#
# Youngs Moduli (GPa) = 54.35646 37.53596 108.58915
#
# Poissons Ratio (x) = 0.05135 0.32506
# Poissons Ratio (y) = 0.07436 0.29775
# Poissons Ratio (z) = 0.16272 0.10292
#
# Static dielectric constant tensor:
#      x y z
#    x 1.674500 0.000000 -0.012410 
#    y 0.000000 1.638130 0.000000 
#    z -0.012410 0.000000 1.683270 
# 
# From -- ./inp_files/24520.got.cif
#   From: 2010.05.17/outbox.cif.g08.bks.cpg/sg13_13_cif.got.tgz:24520.got - 2010.06.03 16:44:36.
