data_PCOD9230086
_publ_section_title
;
Structure prediction by ZEFSAII (Michael W. Deem and Ramdas Pophale) SiO2 
 PCOD9230086
Probable space group: P 2/C
;
_chemical_formula_sum "Si O2"
_cell_formula_units_Z 28
_cell_length_a 11.296315
_cell_length_b 7.766869
_cell_length_c 20.399114
_cell_angle_alpha 90.000000
_cell_angle_beta 133.856402
_cell_angle_gamma 90.000000
_cell_volume 1290.555380
_symmetry_space_group_name_H-M "P 2/C"
_symmetry_group_IT_number 13
_symmetry_cell_setting 'monoclinic'
loop_
_space_group_symop_operation_xyz
x,y,z
-x,y,1/2-z
-x,-y,-z
x,-y,1/2+z
loop_
_atom_site_type_symbol
_atom_site_label
_atom_site_fract_x
_atom_site_fract_y
_atom_site_fract_z
Si Si1 0.818806 0.835374 0.995319
Si Si2 0.551741 0.306530 0.152893
Si Si3 0.399460 0.740284 0.973872
Si Si4 0.146540 0.819632 0.072261
Si Si5 0.723926 0.050047 0.743615
Si Si6 0.449880 0.344039 0.636275
Si Si7 0.763317 0.091413 0.614165
O O1 0.850248 0.822562 0.085581
O O2 0.962454 0.749076 0.007739
O O3 0.635582 0.763701 0.915456
O O4 0.828011 0.033758 0.973408
O O5 0.604584 0.349854 0.098073
O O6 0.552911 0.485907 0.190930
O O7 0.662627 0.146829 0.217573
O O8 0.268646 0.893964 0.918756
O O9 0.384089 0.640827 0.035851
O O10 0.580662 0.825459 0.045885
O O11 0.176915 0.914949 0.152972
O O12 0.289345 0.682774 0.117604
O O13 0.564194 0.175229 0.684898
O O14 0.816022 0.091709 0.710242
#
# Coordination Sequence:
#
# PCOD9230086 Si02
#       7
#     4   4   4   4   4   4   4
#     4  10  20  37  57  80 108 153 186 219 275 332
#     4  10  20  35  61  84 107 144 189 230 277 331
#     4   8  14  29  53  86 107 131 183 236 271 319
#     4  11  22  36  54  79 120 148 178 228 277 333
#     4  10  21  38  55  84 114 139 184 239 276 324
#     4  11  19  34  58  83 111 144 181 233 284 327
#     4   8  14  31  58  76 105 144 185 223 273 327
#
# _framework density 21.696086000000001
#
# number of rings (size 3 to 8) (size 9 to 14) (size 15 to 20)
#    0.000    2.286    2.857    2.571    0.000    1.143 
#    5.143    0.000    0.000    0.000    0.000    4.000 
#    0.000    0.000    0.000    0.000    0.000    0.000 
#
# Total GULP energy -156155.653945 kJ/mol
# GULP energy per Si atom -5576.987641 kJ/mol
# Density = 2.164671 g / cm^3
# Si number density = 21.696086 Si / 1000 Ang^3
#
#
#
# Elastic Constant Matrix: (Units=GPa)
#
#
# Indices 1 2 3 4 5 6 
#
# 1 94.7300 6.6612 14.4383 0.0000 -17.8074 0.0000
# 2 6.6612 55.0161 -6.0364 0.0000 -7.7712 0.0000
# 3 14.4383 -6.0364 46.8912 0.0000 -17.3926 0.0000
# 4 0.0000 0.0000 0.0000 5.4152 0.0000 -0.0769
# 5 -17.8074 -7.7712 -17.3926 0.0000 24.2420 0.0000
# 6 0.0000 0.0000 0.0000 -0.0769 0.0000 20.5850
#
#
#
# Elastic Compliance Matrix: (Units=1/GPa)
#
#
# Indices 1 2 3 4 5 6 
#
# 1 0.012267 -0.000382 -0.000721 0.000000 0.008371 0.000000
# 2 -0.000382 0.020585 0.006964 0.000000 0.011315 0.000000
# 3 -0.000721 0.006964 0.031444 0.000000 0.024262 0.000000
# 4 0.000000 0.000000 0.000000 0.184674 0.000000 0.000690
# 5 0.008371 0.011315 0.024262 0.000000 0.068434 0.000000
# 6 0.000000 0.000000 0.000000 0.000690 0.000000 0.048582
#
#
# Mechanical properties :
#
#
# Convention : Reuss Voigt Hill
#
# Bulk Modulus (GPa) = 13.15482 25.19592 19.17537
# Shear Modulus (GPa) = 13.17167 22.15339 17.66253
#
# Velocity S-wave (km/s) = 2.46661 3.19890 2.85632
# Velocity P-wave (km/s) = 3.76678 5.02815 4.44246
#
# Compressibility (1/GPa) = 0.07601778
#
# Stress axis : x y z
#
# Youngs Moduli (GPa) = 81.52184 48.57864 31.80276
#
# Poissons Ratio (x) = 0.01856 0.02294
# Poissons Ratio (y) = 0.03114 -0.22149
# Poissons Ratio (z) = 0.05881 -0.33833
#
# Static dielectric constant tensor:
#      x y z
#    x 1.830480 0.000000 -0.019860 
#    y 0.000000 1.801670 0.000000 
#    z -0.019860 0.000000 1.828020 
# 
# From -- ./inp_files/78086.got.cif
#   From: 2010.05.17/outbox.cif.g08.bks.cpg/sg13_40_cif.got.tgz:78086.got - 2010.06.03 16:44:36.
