data_PCOD9230030
_publ_section_title
;
Structure prediction by ZEFSAII (Michael W. Deem and Ramdas Pophale) SiO2 
 PCOD9230030
Probable space group: P 2/C
;
_chemical_formula_sum "Si O2"
_cell_formula_units_Z 22
_cell_length_a 12.136362
_cell_length_b 7.616513
_cell_length_c 12.409735
_cell_angle_alpha 90.000000
_cell_angle_beta 119.455407
_cell_angle_gamma 90.000000
_cell_volume 998.837999
_symmetry_space_group_name_H-M "P 2/C"
_symmetry_group_IT_number 13
_symmetry_cell_setting 'monoclinic'
loop_
_space_group_symop_operation_xyz
x,y,z
-x,y,1/2-z
-x,-y,-z
x,-y,1/2+z
loop_
_atom_site_type_symbol
_atom_site_label
_atom_site_fract_x
_atom_site_fract_y
_atom_site_fract_z
Si Si1 0.282915 0.475936 0.944726
Si Si2 0.830378 0.184661 0.741815
Si Si3 0.914040 0.342675 0.002469
Si Si4 0.000000 0.124407 0.250000
Si Si5 0.452339 0.902777 0.337437
Si Si6 0.452665 0.275344 0.409747
O O1 0.175375 0.344896 0.846190
O O2 0.217021 0.582126 0.009647
O O3 0.334593 0.595715 0.870159
O O4 0.414135 0.377897 0.042310
O O5 0.684627 0.161775 0.698639
O O6 0.895060 0.223900 0.887198
O O7 0.884496 0.009544 0.714546
O O8 0.977206 0.240214 0.132907
O O9 0.000000 0.500000 0.000000
O O10 0.500000 0.825897 0.250000
O O11 0.541427 0.830108 0.473845
O O12 0.442655 0.113113 0.325318
#
# Coordination Sequence:
#
# PCOD9230030 Si02
#       6
#     4   4   4   2   4   4
#     4  10  21  40  61  88 126 159 203 255 303 366
#     4  11  24  40  63  91 123 165 207 251 311 368
#     4  12  25  42  66  91 119 160 210 258 310 366
#     4  12  26  46  64  86 126 160 204 262 310 372
#     4  10  20  35  58  89 121 158 203 248 306 368
#     4   9  20  37  59  87 123 162 195 247 309 362
#
# _framework density 22.025593000000001
#
# number of rings (size 3 to 8) (size 9 to 14) (size 15 to 20)
#    0.000    1.455    0.000    4.909    0.000    5.818 
#    0.000    1.818    0.000    0.000    0.000    0.000 
#    0.000    0.000    0.000    0.000    0.000    0.000 
#
# Total GULP energy -122867.627462 kJ/mol
# GULP energy per Si atom -5584.892157 kJ/mol
# Density = 2.197546 g / cm^3
# Si number density = 22.025593 Si / 1000 Ang^3
#
#
#
# Elastic Constant Matrix: (Units=GPa)
#
#
# Indices 1 2 3 4 5 6 
#
# 1 83.0887 14.8670 -0.1344 0.0000 -18.5006 0.0000
# 2 14.8670 90.4423 18.8210 0.0000 -1.3145 0.0000
# 3 -0.1344 18.8210 58.1661 0.0000 -10.6545 0.0000
# 4 0.0000 0.0000 0.0000 45.9801 0.0000 -12.1415
# 5 -18.5006 -1.3145 -10.6545 0.0000 24.3784 0.0000
# 6 0.0000 0.0000 0.0000 -12.1415 0.0000 42.3280
#
#
#
# Elastic Compliance Matrix: (Units=1/GPa)
#
#
# Indices 1 2 3 4 5 6 
#
# 1 0.015508 -0.003073 0.003430 0.000000 0.013102 0.000000
# 2 -0.003073 0.012492 -0.004732 0.000000 -0.003726 0.000000
# 3 0.003430 -0.004732 0.020829 0.000000 0.011451 0.000000
# 4 0.000000 0.000000 0.000000 0.023531 0.000000 0.006750
# 5 0.013102 -0.003726 0.011451 0.000000 0.055767 0.000000
# 6 0.000000 0.000000 0.000000 0.006750 0.000000 0.025561
#
#
# Mechanical properties :
#
#
# Convention : Reuss Voigt Hill
#
# Bulk Modulus (GPa) = 24.94989 33.20047 29.07518
# Shear Modulus (GPa) = 28.44193 35.74688 32.09441
#
# Velocity S-wave (km/s) = 3.59738 4.03298 3.82139
# Velocity P-wave (km/s) = 5.34857 6.06571 5.71839
#
# Compressibility (1/GPa) = 0.04008034
#
# Stress axis : x y z
#
# Youngs Moduli (GPa) = 64.48275 80.04878 48.01068
#
# Poissons Ratio (x) = 0.24596 -0.16468
# Poissons Ratio (y) = 0.19813 0.22718
# Poissons Ratio (z) = -0.22118 0.37878
#
# Static dielectric constant tensor:
#      x y z
#    x 1.788020 0.000000 0.011170 
#    y 0.000000 1.871940 0.000000 
#    z 0.011170 0.000000 1.838900 
# 
# From -- ./inp_files/32682.got.cif
#   From: 2010.05.17/outbox.cif.g08.bks.cpg/sg13_17_cif.got.tgz:32682.got - 2010.06.03 16:44:36.
