data_PCOD9230287
_publ_section_title
;
Structure prediction by ZEFSAII (Michael W. Deem and Ramdas Pophale) SiO2 
 PCOD9230287
Probable space group: P 2/C
;
_chemical_formula_sum "Si O2"
_cell_formula_units_Z 28
_cell_length_a 12.008105
_cell_length_b 5.105041
_cell_length_c 24.027568
_cell_angle_alpha 90.000000
_cell_angle_beta 109.625375
_cell_angle_gamma 90.000000
_cell_volume 1387.370255
_symmetry_space_group_name_H-M "P 2/C"
_symmetry_group_IT_number 13
_symmetry_cell_setting 'monoclinic'
loop_
_space_group_symop_operation_xyz
x,y,z
-x,y,1/2-z
-x,-y,-z
x,-y,1/2+z
loop_
_atom_site_type_symbol
_atom_site_label
_atom_site_fract_x
_atom_site_fract_y
_atom_site_fract_z
Si Si1 0.158635 0.888917 0.078399
Si Si2 0.097340 0.756138 0.473083
Si Si3 0.744814 0.760297 0.686600
Si Si4 0.107787 0.720987 0.900072
Si Si5 0.150704 0.774808 0.678917
Si Si6 0.614504 0.750801 0.200913
Si Si7 0.347479 0.372152 0.669096
O O1 0.141948 0.966360 0.140056
O O2 0.281632 0.742775 0.104020
O O3 0.157085 0.147833 0.040201
O O4 0.044190 0.726280 0.040373
O O5 0.146517 0.510681 0.448043
O O6 0.104785 0.012610 0.434980
O O7 0.809473 0.767065 0.638797
O O8 0.832041 0.822007 0.753068
O O9 0.701247 0.466388 0.690553
O O10 0.639558 0.973600 0.675186
O O11 0.976167 0.644693 0.855839
O O12 0.265190 0.615844 0.674854
O O13 0.643218 0.791538 0.271318
O O14 0.485324 0.617448 0.176672
#
# Coordination Sequence:
#
# PCOD9230287 Si02
#       7
#     4   4   4   4   4   4   4
#     4  10  20  36  60  86 123 140 199 245 298 339
#     4  10  23  36  59  88 115 160 186 241 295 342
#     4  11  22  39  57  85 121 159 190 233 284 365
#     4  11  22  39  58  84 124 154 195 230 290 356
#     4  10  21  35  60  92 114 150 189 247 306 341
#     4  10  23  36  59  86 117 155 192 233 301 338
#     4  10  20  36  59  87 120 144 192 252 292 347
#
# _framework density 20.182068999999998
#
# number of rings (size 3 to 8) (size 9 to 14) (size 15 to 20)
#    0.000    1.714    2.857    1.286    4.000    2.857 
#    0.000    2.857    0.000    5.143    0.000    0.000 
#    0.000    0.000    0.000    0.000    0.000    0.000 
#
# Total GULP energy -156117.336738 kJ/mol
# GULP energy per Si atom -5575.619169 kJ/mol
# Density = 2.013613 g / cm^3
# Si number density = 20.182069 Si / 1000 Ang^3
#
#
#
# Elastic Constant Matrix: (Units=GPa)
#
#
# Indices 1 2 3 4 5 6 
#
# 1 65.8427 11.7047 35.8456 0.0000 -4.5476 0.0000
# 2 11.7047 73.0148 14.6634 0.0000 -4.4569 0.0000
# 3 35.8456 14.6634 86.7230 0.0000 -4.6715 0.0000
# 4 0.0000 0.0000 0.0000 33.4427 0.0000 -1.7147
# 5 -4.5476 -4.4569 -4.6715 0.0000 32.8597 0.0000
# 6 0.0000 0.0000 0.0000 -1.7147 0.0000 17.0068
#
#
#
# Elastic Compliance Matrix: (Units=1/GPa)
#
#
# Indices 1 2 3 4 5 6 
#
# 1 0.019838 -0.001513 -0.007867 0.000000 0.001422 0.000000
# 2 -0.001513 0.014376 -0.001725 0.000000 0.001495 0.000000
# 3 -0.007867 -0.001725 0.015119 0.000000 0.000827 0.000000
# 4 0.000000 0.000000 0.000000 0.030057 0.000000 0.003030
# 5 0.001422 0.001495 0.000827 0.000000 0.030950 0.000000
# 6 0.000000 0.000000 0.000000 0.003030 0.000000 0.059105
#
#
# Mechanical properties :
#
#
# Convention : Reuss Voigt Hill
#
# Bulk Modulus (GPa) = 36.86996 38.88977 37.87986
# Shear Modulus (GPa) = 24.91324 27.55296 26.23310
#
# Velocity S-wave (km/s) = 3.51725 3.69890 3.60922
# Velocity P-wave (km/s) = 5.89941 6.12811 6.01485
#
# Compressibility (1/GPa) = 0.02712235
#
# Stress axis : x y z
#
# Youngs Moduli (GPa) = 50.40847 69.55997 66.14239
#
# Poissons Ratio (x) = 0.10527 0.52036
# Poissons Ratio (y) = 0.07629 0.11407
# Poissons Ratio (z) = 0.39657 0.11997
#
# Static dielectric constant tensor:
#      x y z
#    x 1.738880 0.000000 0.042390 
#    y 0.000000 1.780550 0.000000 
#    z 0.042390 0.000000 1.734750 
# 
# From -- ./inp_files/77548.got.cif
#   From: 2010.05.17/outbox.cif.g08.bks.cpg/sg13_39_cif.got.tgz:77548.got - 2010.06.03 16:44:36.
