data_PCOD9230632
_publ_section_title
;
Structure prediction by ZEFSAII (Michael W. Deem and Ramdas Pophale) SiO2 
 PCOD9230632
Probable space group: P 2/C
;
_chemical_formula_sum "Si O2"
_cell_formula_units_Z 24
_cell_length_a 12.324430
_cell_length_b 12.278175
_cell_length_c 11.077107
_cell_angle_alpha 90.000000
_cell_angle_beta 132.970606
_cell_angle_gamma 90.000000
_cell_volume 1226.484704
_symmetry_space_group_name_H-M "P 2/C"
_symmetry_group_IT_number 13
_symmetry_cell_setting 'monoclinic'
loop_
_space_group_symop_operation_xyz
x,y,z
-x,y,1/2-z
-x,-y,-z
x,-y,1/2+z
loop_
_atom_site_type_symbol
_atom_site_label
_atom_site_fract_x
_atom_site_fract_y
_atom_site_fract_z
Si Si1 0.427504 0.361822 0.566312
Si Si2 0.905095 0.993561 0.552557
Si Si3 0.668195 0.392103 0.543544
Si Si4 0.932790 0.616708 0.427709
Si Si5 0.161737 0.759533 0.932627
Si Si6 0.141666 0.232480 0.951997
O O1 0.500000 0.332344 0.750000
O O2 0.541975 0.356639 0.542211
O O3 0.374579 0.488101 0.535353
O O4 0.291338 0.279339 0.442891
O O5 0.818600 0.878976 0.493746
O O6 0.000000 0.992439 0.750000
O O7 0.818888 0.107857 0.491162
O O8 0.000000 0.000000 0.500000
O O9 0.821092 0.400171 0.733208
O O10 0.716473 0.301594 0.483234
O O11 0.841409 0.666836 0.467823
O O12 0.000000 0.500000 0.500000
O O13 0.063422 0.702455 0.500583
O O14 0.000000 0.757363 0.750000
O O15 0.000000 0.228583 0.750000
#
# Coordination Sequence:
#
# PCOD9230632 Si02
#       6
#     4   4   4   4   4   4
#     4  11  22  39  59  85 123 161 195 241 308 369
#     4  10  20  37  60  90 121 158 201 258 312 354
#     4  10  22  38  56  83 120 164 193 238 307 368
#     4  11  19  32  59  89 119 150 198 250 296 356
#     4  11  22  37  59  91 117 154 205 254 296 358
#     4   9  19  35  57  84 116 153 196 244 298 357
#
# _framework density 19.568118999999999
#
# number of rings (size 3 to 8) (size 9 to 14) (size 15 to 20)
#    0.000    1.667    3.333    2.000    0.000    1.333 
#    0.000    0.833    0.000    1.000    0.000    0.000 
#    0.000    0.000    0.000    0.000    0.000    0.000 
#
# Total GULP energy -133800.375309 kJ/mol
# GULP energy per Si atom -5575.015638 kJ/mol
# Density = 1.952358 g / cm^3
# Si number density = 19.568119 Si / 1000 Ang^3
#
#
#
# Elastic Constant Matrix: (Units=GPa)
#
#
# Indices 1 2 3 4 5 6 
#
# 1 120.8797 55.0409 9.2110 0.0000 13.3965 0.0000
# 2 55.0409 109.0006 1.3132 0.0000 21.3616 0.0000
# 3 9.2110 1.3132 35.7785 0.0000 4.8872 0.0000
# 4 0.0000 0.0000 0.0000 -8.3899 0.0000 20.8023
# 5 13.3965 21.3616 4.8872 0.0000 25.0810 0.0000
# 6 0.0000 0.0000 0.0000 20.8023 0.0000 4.9557
#
#
#
# Elastic Compliance Matrix: (Units=1/GPa)
#
#
# Indices 1 2 3 4 5 6 
#
# 1 0.010997 -0.005363 -0.002523 0.000000 -0.000815 0.000000
# 2 -0.005363 0.013656 0.002134 0.000000 -0.009182 0.000000
# 3 -0.002523 0.002134 0.029367 0.000000 -0.006192 0.000000
# 4 0.000000 0.000000 0.000000 -0.010448 0.000000 0.043858
# 5 -0.000815 -0.009182 -0.006192 0.000000 0.049333 0.000000
# 6 0.000000 0.000000 0.000000 0.043858 0.000000 0.017689
#
#
# Mechanical properties :
#
#
# Convention : Reuss Voigt Hill
#
# Bulk Modulus (GPa) = 23.52093 44.08767 33.80430
# Shear Modulus (GPa) = 36.69174 17.66893 27.18033
#
# Velocity S-wave (km/s) = 4.33491 3.00816 3.73099
# Velocity P-wave (km/s) = 6.09109 5.88597 5.98941
#
# Compressibility (1/GPa) = 0.04251533
#
# Stress axis : x y z
#
# Youngs Moduli (GPa) = 90.93185 73.22674 34.05202
#
# Poissons Ratio (x) = 0.39272 0.08592
# Poissons Ratio (y) = 0.48768 -0.07266
# Poissons Ratio (z) = 0.22943 -0.15625
#
# Static dielectric constant tensor:
#      x y z
#    x 1.687280 0.000000 -0.091280 
#    y 0.000000 1.708270 0.000000 
#    z -0.091280 0.000000 1.712520 
# 
# From -- ./inp_files/33087.got.cif
#   From: 2010.05.17/outbox.cif.g08.bks.cpg/sg13_17_cif.got.tgz:33087.got - 2010.06.03 16:44:36.
