data_PCOD9230805
_publ_section_title
;
Structure prediction by ZEFSAII (Michael W. Deem and Ramdas Pophale) SiO2 
 PCOD9230805
Probable space group: P 2/C
;
_chemical_formula_sum "Si O2"
_cell_formula_units_Z 22
_cell_length_a 5.031093
_cell_length_b 13.466449
_cell_length_c 18.166560
_cell_angle_alpha 90.000000
_cell_angle_beta 115.180816
_cell_angle_gamma 90.000000
_cell_volume 1113.838195
_symmetry_space_group_name_H-M "P 2/C"
_symmetry_group_IT_number 13
_symmetry_cell_setting 'monoclinic'
loop_
_space_group_symop_operation_xyz
x,y,z
-x,y,1/2-z
-x,-y,-z
x,-y,1/2+z
loop_
_atom_site_type_symbol
_atom_site_label
_atom_site_fract_x
_atom_site_fract_y
_atom_site_fract_z
Si Si1 0.813827 0.646843 0.822307
Si Si2 0.500000 0.049410 0.250000
Si Si3 0.651968 0.863121 0.197081
Si Si4 0.000000 0.460953 0.750000
Si Si5 0.012968 0.618241 0.002380
Si Si6 0.337348 0.678798 0.398846
Si Si7 0.000000 0.806900 0.750000
O O1 0.500000 0.673631 0.750000
O O2 0.885203 0.537150 0.799218
O O3 0.053592 0.726104 0.821113
O O4 0.819343 0.651075 0.910180
O O5 0.762145 0.120296 0.257379
O O6 0.482473 0.968898 0.180736
O O7 0.500000 0.809937 0.250000
O O8 0.632500 0.790954 0.126187
O O9 0.000000 0.881623 0.250000
O O10 0.236202 0.390206 0.817973
O O11 0.351886 0.645440 0.033044
O O12 0.899694 0.663777 0.065138
O O13 0.000000 0.500000 0.000000
#
# Coordination Sequence:
#
# PCOD9230805 Si02
#       7
#     4   2   4   2   4   4   2
#     4  11  25  42  66  95 129 175 230 259 315 389
#     4  10  20  40  68  98 126 152 232 272 336 374
#     4  10  20  37  66  98 124 162 214 265 330 389
#     4  11  24  37  66  94 136 171 222 259 310 394
#     4  12  26  42  61  93 140 181 211 262 320 376
#     4  12  25  40  65  96 136 172 213 264 325 382
#     4  11  22  39  70  96 118 173 218 283 308 394
#
# _framework density 19.751521
#
# number of rings (size 3 to 8) (size 9 to 14) (size 15 to 20)
#    0.545    0.364    4.545    2.727    5.091    0.000 
#    0.000    0.000    0.000    6.545    0.000    0.000 
#    0.000    0.000    0.000    0.000    0.000    0.000 
#
# Total GULP energy -122584.178824 kJ/mol
# GULP energy per Si atom -5572.008128 kJ/mol
# Density = 1.970657 g / cm^3
# Si number density = 19.751521 Si / 1000 Ang^3
#
#
#
# Elastic Constant Matrix: (Units=GPa)
#
#
# Indices 1 2 3 4 5 6 
#
# 1 79.2882 20.8429 3.1016 0.0000 -7.1818 0.0000
# 2 20.8429 114.0429 31.9148 0.0000 -8.5841 0.0000
# 3 3.1016 31.9148 78.4550 0.0000 -2.4866 0.0000
# 4 0.0000 0.0000 0.0000 -1.8350 0.0000 -5.3589
# 5 -7.1818 -8.5841 -2.4866 0.0000 37.4687 0.0000
# 6 0.0000 0.0000 0.0000 -5.3589 0.0000 36.4115
#
#
#
# Elastic Compliance Matrix: (Units=1/GPa)
#
#
# Indices 1 2 3 4 5 6 
#
# 1 0.013420 -0.002447 0.000530 0.000000 0.002047 0.000000
# 2 -0.002447 0.010494 -0.004119 0.000000 0.001662 0.000000
# 3 0.000530 -0.004119 0.014405 0.000000 0.000114 0.000000
# 4 0.000000 0.000000 0.000000 -0.381142 0.000000 -0.056095
# 5 0.002047 0.001662 0.000114 0.000000 0.027470 0.000000
# 6 0.000000 0.000000 0.000000 -0.056095 0.000000 0.019208
#
#
# Mechanical properties :
#
#
# Convention : Reuss Voigt Hill
#
# Bulk Modulus (GPa) = 38.10205 42.61164 40.35685
# Shear Modulus (GPa) = -18.16040 28.80416 5.32188
#
# Velocity S-wave (km/s) = -3.03552 3.82295 1.64325
# Velocity P-wave (km/s) = 2.65456 6.41149 4.90683
#
# Compressibility (1/GPa) = 0.02624531
#
# Stress axis : x y z
#
# Youngs Moduli (GPa) = 74.51497 95.29521 69.42260
#
# Poissons Ratio (x) = 0.23318 -0.03677
# Poissons Ratio (y) = 0.18233 0.28598
# Poissons Ratio (z) = -0.03947 0.39255
#
# Static dielectric constant tensor:
#      x y z
#    x 1.745010 0.000000 -0.021190 
#    y 0.000000 1.721890 0.000000 
#    z -0.021190 0.000000 1.696680 
# 
# From -- ./inp_files/61221.got.cif
#   From: 2010.05.17/outbox.cif.g08.bks.cpg/sg13_31_cif.got.tgz:61221.got - 2010.06.03 16:44:36.
