data_PCOD9230892
_publ_section_title
;
Structure prediction by ZEFSAII (Michael W. Deem and Ramdas Pophale) SiO2 
 PCOD9230892
Probable space group: P 2/C
;
_chemical_formula_sum "Si O2"
_cell_formula_units_Z 18
_cell_length_a 5.209491
_cell_length_b 9.329190
_cell_length_c 17.345677
_cell_angle_alpha 90.000000
_cell_angle_beta 84.464693
_cell_angle_gamma 90.000000
_cell_volume 839.074670
_symmetry_space_group_name_H-M "P 2/C"
_symmetry_group_IT_number 13
_symmetry_cell_setting 'monoclinic'
loop_
_space_group_symop_operation_xyz
x,y,z
-x,y,1/2-z
-x,-y,-z
x,-y,1/2+z
loop_
_atom_site_type_symbol
_atom_site_label
_atom_site_fract_x
_atom_site_fract_y
_atom_site_fract_z
Si Si1 0.257904 0.904390 0.982906
Si Si2 0.000000 0.318817 0.250000
Si Si3 0.356800 0.458923 0.829397
Si Si4 0.381680 0.270049 0.115211
Si Si5 0.065981 0.661602 0.472913
O O1 0.367257 0.830636 0.901097
O O2 0.184498 0.760225 0.031996
O O3 0.500000 0.000000 0.000000
O O4 0.000000 0.000000 0.000000
O O5 0.850034 0.426847 0.197387
O O6 0.797996 0.231383 0.307291
O O7 0.500000 0.399037 0.750000
O O8 0.542157 0.564564 0.871981
O O9 0.229240 0.347590 0.890438
O O10 0.222158 0.271688 0.040367
O O11 0.000000 0.500000 0.500000
#
# Coordination Sequence:
#
# PCOD9230892 Si02
#       5
#     4   2   4   4   4
#     4  12  26  43  66  99 137 180 230 284 344 415
#     4  10  20  38  60 106 142 170 222 288 344 406
#     4  10  22  36  64 104 138 170 221 293 343 404
#     4  11  21  39  69 100 136 176 229 278 347 406
#     4  12  22  40  71 104 129 177 233 283 343 410
#
# _framework density 21.452203000000001
#
# number of rings (size 3 to 8) (size 9 to 14) (size 15 to 20)
#    0.000    0.889    6.667    0.667    0.000    0.000 
#    0.000    0.000    4.889    0.000    0.000    0.000 
#    0.000    0.000    0.000    0.000    0.000    0.000 
#
# Total GULP energy -100419.874125 kJ/mol
# GULP energy per Si atom -5578.881896 kJ/mol
# Density = 2.140338 g / cm^3
# Si number density = 21.452203 Si / 1000 Ang^3
#
#
#
# Elastic Constant Matrix: (Units=GPa)
#
#
# Indices 1 2 3 4 5 6 
#
# 1 125.7840 46.6683 63.8174 0.0000 -36.8730 0.0000
# 2 46.6683 100.2634 36.1123 0.0000 -22.2791 0.0000
# 3 63.8174 36.1123 146.1107 0.0000 -47.8322 0.0000
# 4 0.0000 0.0000 0.0000 13.9868 0.0000 -16.8976
# 5 -36.8730 -22.2791 -47.8322 0.0000 61.0394 0.0000
# 6 0.0000 0.0000 0.0000 -16.8976 0.0000 44.0219
#
#
#
# Elastic Compliance Matrix: (Units=1/GPa)
#
#
# Indices 1 2 3 4 5 6 
#
# 1 0.011911 -0.003645 -0.003203 0.000000 0.003355 0.000000
# 2 -0.003645 0.012360 -0.000951 0.000000 0.001565 0.000000
# 3 -0.003203 -0.000951 0.010399 0.000000 0.005867 0.000000
# 4 0.000000 0.000000 0.000000 0.133320 0.000000 0.051174
# 5 0.003355 0.001565 0.005867 0.000000 0.023578 0.000000
# 6 0.000000 0.000000 0.000000 0.051174 0.000000 0.042359
#
#
# Mechanical properties :
#
#
# Convention : Reuss Voigt Hill
#
# Bulk Modulus (GPa) = 52.43217 73.92824 63.18021
# Shear Modulus (GPa) = 19.54021 38.84698 29.19359
#
# Velocity S-wave (km/s) = 3.02134 4.26004 3.69299
# Velocity P-wave (km/s) = 6.05523 7.66380 6.90651
#
# Compressibility (1/GPa) = 0.01907226
#
# Stress axis : x y z
#
# Youngs Moduli (GPa) = 83.95495 80.90368 96.16459
#
# Poissons Ratio (x) = 0.29489 0.30805
# Poissons Ratio (y) = 0.30601 0.09143
# Poissons Ratio (z) = 0.26894 0.07692
#
# Static dielectric constant tensor:
#      x y z
#    x 1.928920 0.000000 -0.013020 
#    y 0.000000 1.779070 0.000000 
#    z -0.013020 0.000000 1.802960 
# 
# From -- ./inp_files/60334.got.cif
#   From: 2010.05.17/outbox.cif.g08.bks.cpg/sg13_31_cif.got.tgz:60334.got - 2010.06.03 16:44:36.
