data_PCOD9230718
_publ_section_title
;
Structure prediction by ZEFSAII (Michael W. Deem and Ramdas Pophale) SiO2 
 PCOD9230718
Probable space group: P 2/C
;
_chemical_formula_sum "Si O2"
_cell_formula_units_Z 24
_cell_length_a 23.103638
_cell_length_b 6.918950
_cell_length_c 8.164905
_cell_angle_alpha 90.000000
_cell_angle_beta 49.788431
_cell_angle_gamma 90.000000
_cell_volume 996.724136
_symmetry_space_group_name_H-M "P 2/C"
_symmetry_group_IT_number 13
_symmetry_cell_setting 'monoclinic'
loop_
_space_group_symop_operation_xyz
x,y,z
-x,y,1/2-z
-x,-y,-z
x,-y,1/2+z
loop_
_atom_site_type_symbol
_atom_site_label
_atom_site_fract_x
_atom_site_fract_y
_atom_site_fract_z
Si Si1 0.500000 0.166449 0.250000
Si Si2 0.225971 0.699958 0.565212
Si Si3 0.110958 0.348662 0.780171
Si Si4 0.784682 0.948409 0.587589
Si Si5 0.634327 0.201686 0.201586
Si Si6 0.000000 0.413577 0.250000
Si Si7 0.374496 0.412749 0.613667
O O1 0.566091 0.077202 0.243134
O O2 0.454475 0.302797 0.461250
O O3 0.174753 0.513741 0.696082
O O4 0.311380 0.646708 0.360006
O O5 0.197526 0.825707 0.461327
O O6 0.220623 0.843294 0.729061
O O7 0.153585 0.168153 0.627359
O O8 0.055741 0.449299 0.750072
O O9 0.054517 0.297450 0.030130
O O10 0.702445 0.917620 0.652825
O O11 0.612313 0.359878 0.379902
O O12 0.657420 0.332264 0.001561
#
# Coordination Sequence:
#
# PCOD9230718 Si02
#       7
#     2   4   4   4   4   2   4
#     4   8  22  34  62  92 138 174 224 280 342 398
#     4  12  26  43  71 101 133 177 232 278 330 398
#     4  11  24  48  70 105 134 178 214 275 328 404
#     4  12  26  43  71 101 133 177 232 278 330 398
#     4  10  20  37  62  94 131 173 221 278 331 394
#     4  10  24  44  76  96 142 174 214 262 344 400
#     4  10  20  37  62  94 131 173 221 278 331 394
#
# _framework density 24.078878
#
# number of rings (size 3 to 8) (size 9 to 14) (size 15 to 20)
#    1.000    0.333    3.333    2.500    4.667    0.000 
#    0.000    5.833    0.000    0.000    0.000    0.000 
#    0.000    0.000    0.000    0.000    0.000    0.000 
#
# Total GULP energy -133953.022063 kJ/mol
# GULP energy per Si atom -5581.375919 kJ/mol
# Density = 2.402407 g / cm^3
# Si number density = 24.078878 Si / 1000 Ang^3
#
#
#
# Elastic Constant Matrix: (Units=GPa)
#
#
# Indices 1 2 3 4 5 6 
#
# 1 86.1104 0.6111 22.7500 0.0000 -16.5617 0.0000
# 2 0.6111 51.6554 19.6835 0.0000 -5.8483 0.0000
# 3 22.7500 19.6835 135.8627 0.0000 -16.8626 0.0000
# 4 0.0000 0.0000 0.0000 22.1093 0.0000 2.4434
# 5 -16.5617 -5.8483 -16.8626 0.0000 35.0647 0.0000
# 6 0.0000 0.0000 0.0000 2.4434 0.0000 5.7632
#
#
#
# Elastic Compliance Matrix: (Units=1/GPa)
#
#
# Indices 1 2 3 4 5 6 
#
# 1 0.013118 0.001111 -0.001665 0.000000 0.005581 0.000000
# 2 0.001111 0.020733 -0.002867 0.000000 0.002604 0.000000
# 3 -0.001665 -0.002867 0.008399 0.000000 0.002774 0.000000
# 4 0.000000 0.000000 0.000000 0.047453 0.000000 -0.020119
# 5 0.005581 0.002604 0.002774 0.000000 0.032923 0.000000
# 6 0.000000 0.000000 0.000000 -0.020119 0.000000 0.182046
#
#
# Mechanical properties :
#
#
# Convention : Reuss Voigt Hill
#
# Bulk Modulus (GPa) = 28.24117 39.96863 34.10490
# Shear Modulus (GPa) = 15.46473 27.95968 21.71221
#
# Velocity S-wave (km/s) = 2.53702 3.41129 3.00611
# Velocity P-wave (km/s) = 4.50955 5.67018 5.12284
#
# Compressibility (1/GPa) = 0.03540930
#
# Stress axis : x y z
#
# Youngs Moduli (GPa) = 76.22919 48.23209 119.06416
#
# Poissons Ratio (x) = -0.05359 0.19824
# Poissons Ratio (y) = -0.08470 0.34131
# Poissons Ratio (z) = 0.12692 0.13826
#
# Static dielectric constant tensor:
#      x y z
#    x 1.976990 0.000000 0.053940 
#    y 0.000000 1.894960 0.000000 
#    z 0.053940 0.000000 1.951080 
# 
# From -- ./inp_files/23858.got.cif
#   From: 2010.05.17/outbox.cif.g08.bks.cpg/sg13_12_cif.got.tgz:23858.got - 2010.06.03 16:44:36.
