data_PCOD9230043
_publ_section_title
;
Structure prediction by ZEFSAII (Michael W. Deem and Ramdas Pophale) SiO2 
 PCOD9230043
Probable space group: P 2/C
;
_chemical_formula_sum "Si O2"
_cell_formula_units_Z 24
_cell_length_a 8.761758
_cell_length_b 7.174574
_cell_length_c 20.011314
_cell_angle_alpha 90.000000
_cell_angle_beta 85.297501
_cell_angle_gamma 90.000000
_cell_volume 1253.714350
_symmetry_space_group_name_H-M "P 2/C"
_symmetry_group_IT_number 13
_symmetry_cell_setting 'monoclinic'
loop_
_space_group_symop_operation_xyz
x,y,z
-x,y,1/2-z
-x,-y,-z
x,-y,1/2+z
loop_
_atom_site_type_symbol
_atom_site_label
_atom_site_fract_x
_atom_site_fract_y
_atom_site_fract_z
Si Si1 0.140732 0.988186 0.074313
Si Si2 0.882753 0.045478 0.694023
Si Si3 0.302564 0.278741 0.351636
Si Si4 0.484258 0.982789 0.081622
Si Si5 0.950640 0.303528 0.028931
Si Si6 0.393704 0.691717 0.317581
O O1 0.303646 0.995087 0.103735
O O2 0.992419 0.958939 0.125572
O O3 0.141129 0.821986 0.020934
O O4 0.101691 0.182614 0.039882
O O5 0.771742 0.221111 0.692563
O O6 0.000000 0.051719 0.750000
O O7 0.774092 0.862211 0.699243
O O8 0.160203 0.330428 0.404384
O O9 0.379154 0.469525 0.325494
O O10 0.421505 0.151142 0.388416
O O11 0.547630 0.796809 0.116945
O O12 0.500000 0.000000 0.000000
O O13 0.000000 0.500000 0.000000
O O14 0.500000 0.736957 0.250000
#
# Coordination Sequence:
#
# PCOD9230043 Si02
#       6
#     4   4   4   4   4   4
#     4  10  21  37  59  89 117 158 206 248 303 370
#     4  10  22  42  65  87 123 166 211 257 311 376
#     4  10  23  40  62  92 125 163 208 259 312 376
#     4  11  23  41  65  92 129 168 210 257 317 372
#     4  10  20  35  59  85 120 156 200 253 306 355
#     4  11  25  42  63  93 129 166 209 261 317 379
#
# _framework density 19.143118000000001
#
# number of rings (size 3 to 8) (size 9 to 14) (size 15 to 20)
#    0.000    1.667    1.667    2.000    4.667    6.667 
#    0.000    3.333    0.000    0.000    0.000    0.000 
#    0.000    0.000    0.000    0.000    0.000    0.000 
#
# Total GULP energy -133935.866045 kJ/mol
# GULP energy per Si atom -5580.661085 kJ/mol
# Density = 1.909955 g / cm^3
# Si number density = 19.143118 Si / 1000 Ang^3
#
#
#
# Elastic Constant Matrix: (Units=GPa)
#
#
# Indices 1 2 3 4 5 6 
#
# 1 115.6211 39.3087 18.3096 0.0000 24.9552 0.0000
# 2 39.3087 106.7773 21.0079 0.0000 12.2062 0.0000
# 3 18.3096 21.0079 64.8331 0.0000 12.1504 0.0000
# 4 0.0000 0.0000 0.0000 12.8086 0.0000 -6.0423
# 5 24.9552 12.2062 12.1504 0.0000 38.6239 0.0000
# 6 0.0000 0.0000 0.0000 -6.0423 0.0000 5.5722
#
#
#
# Elastic Compliance Matrix: (Units=1/GPa)
#
#
# Indices 1 2 3 4 5 6 
#
# 1 0.011181 -0.003246 -0.001003 0.000000 -0.005883 0.000000
# 2 -0.003246 0.011137 -0.002577 0.000000 -0.000611 0.000000
# 3 -0.001003 -0.002577 0.017288 0.000000 -0.003976 0.000000
# 4 0.000000 0.000000 0.000000 0.159832 0.000000 0.173316
# 5 -0.005883 -0.000611 -0.003976 0.000000 0.031136 0.000000
# 6 0.000000 0.000000 0.000000 0.173316 0.000000 0.367402
#
#
# Mechanical properties :
#
#
# Convention : Reuss Voigt Hill
#
# Bulk Modulus (GPa) = 38.53237 49.38709 43.95973
# Shear Modulus (GPa) = 8.06086 25.30795 16.68441
#
# Velocity S-wave (km/s) = 2.05426 3.63993 2.95543
# Velocity P-wave (km/s) = 5.07926 6.59699 5.88724
#
# Compressibility (1/GPa) = 0.02595221
#
# Stress axis : x y z
#
# Youngs Moduli (GPa) = 89.43567 89.78774 57.84414
#
# Poissons Ratio (x) = 0.29148 0.05804
# Poissons Ratio (y) = 0.29034 0.14909
# Poissons Ratio (z) = 0.08973 0.23142
#
# Static dielectric constant tensor:
#      x y z
#    x 1.672460 0.000000 -0.024640 
#    y 0.000000 1.645120 0.000000 
#    z -0.024640 0.000000 1.759200 
# 
# From -- ./inp_files/84335.got.cif
#   From: 2010.05.17/outbox.cif.g08.bks.cpg/sg13_43_cif.got.tgz:84335.got - 2010.06.03 16:44:36.
