data_PCOD9230979
_publ_section_title
;
Structure prediction by ZEFSAII (Michael W. Deem and Ramdas Pophale) SiO2 
 PCOD9230979
Probable space group: P 2/C
;
_chemical_formula_sum "Si O2"
_cell_formula_units_Z 20
_cell_length_a 8.883681
_cell_length_b 16.913836
_cell_length_c 7.887952
_cell_angle_alpha 90.000000
_cell_angle_beta 132.982526
_cell_angle_gamma 90.000000
_cell_volume 867.062229
_symmetry_space_group_name_H-M "P 2/C"
_symmetry_group_IT_number 13
_symmetry_cell_setting 'monoclinic'
loop_
_space_group_symop_operation_xyz
x,y,z
-x,y,1/2-z
-x,-y,-z
x,-y,1/2+z
loop_
_atom_site_type_symbol
_atom_site_label
_atom_site_fract_x
_atom_site_fract_y
_atom_site_fract_z
Si Si1 0.840995 0.599296 0.274458
Si Si2 0.491667 0.872792 0.042619
Si Si3 0.157845 0.008200 0.771449
Si Si4 0.472247 0.302890 0.423104
Si Si5 0.281970 0.564279 0.981683
O O1 0.687543 0.672970 0.174524
O O2 0.891077 0.575334 0.505684
O O3 0.000000 0.620595 0.250000
O O4 0.736439 0.519953 0.121073
O O5 0.500000 0.859325 0.250000
O O6 0.440554 0.789707 0.917663
O O7 0.706857 0.913125 0.149591
O O8 0.309706 0.934943 0.869168
O O9 0.500000 0.674740 0.750000
O O10 0.906421 0.004983 0.563633
O O11 0.305123 0.360102 0.378616
O O12 0.500000 0.560972 0.250000
#
# Coordination Sequence:
#
# PCOD9230979 Si02
#       5
#     4   4   4   4   4
#     4  11  21  37  62  90 123 161 215 266 321 380
#     4  11  24  43  69  96 135 174 215 273 335 389
#     4  11  24  44  71 100 131 170 219 267 329 404
#     4  11  24  41  60  88 126 170 215 261 329 387
#     4  10  20  38  62  84 121 168 209 260 320 388
#
# _framework density 23.066396999999998
#
# number of rings (size 3 to 8) (size 9 to 14) (size 15 to 20)
#    0.000    1.200    2.000    6.600    2.800    0.800 
#    0.000    1.000    0.000    0.000    0.000    0.000 
#    0.000    0.000    0.000    0.000    0.000    0.000 
#
# Total GULP energy -111562.356321 kJ/mol
# GULP energy per Si atom -5578.117816 kJ/mol
# Density = 2.301390 g / cm^3
# Si number density = 23.066397 Si / 1000 Ang^3
#
#
#
# Elastic Constant Matrix: (Units=GPa)
#
#
# Indices 1 2 3 4 5 6 
#
# 1 155.5566 51.1227 -1.5684 0.0000 3.6325 0.0000
# 2 51.1227 107.1214 3.6384 0.0000 4.1584 0.0000
# 3 -1.5684 3.6384 49.0659 0.0000 -1.8176 0.0000
# 4 0.0000 0.0000 0.0000 29.6031 0.0000 -9.5018
# 5 3.6325 4.1584 -1.8176 0.0000 34.6287 0.0000
# 6 0.0000 0.0000 0.0000 -9.5018 0.0000 31.2783
#
#
#
# Elastic Compliance Matrix: (Units=1/GPa)
#
#
# Indices 1 2 3 4 5 6 
#
# 1 0.007641 -0.003651 0.000502 0.000000 -0.000337 0.000000
# 2 -0.003651 0.011150 -0.000981 0.000000 -0.001007 0.000000
# 3 0.000502 -0.000981 0.020512 0.000000 0.001142 0.000000
# 4 0.000000 0.000000 0.000000 0.037430 0.000000 0.011371
# 5 -0.000337 -0.001007 0.001142 0.000000 0.029094 0.000000
# 6 0.000000 0.000000 0.000000 0.011371 0.000000 0.035425
#
#
# Mechanical properties :
#
#
# Convention : Reuss Voigt Hill
#
# Bulk Modulus (GPa) = 32.21140 46.45880 39.33510
# Shear Modulus (GPa) = 31.27768 36.33878 33.80823
#
# Velocity S-wave (km/s) = 3.68636 3.97344 3.83259
# Velocity P-wave (km/s) = 5.66692 6.42152 6.05599
#
# Compressibility (1/GPa) = 0.03104491
#
# Stress axis : x y z
#
# Youngs Moduli (GPa) = 130.86881 89.68697 48.75236
#
# Poissons Ratio (x) = 0.32742 -0.02450
# Poissons Ratio (y) = 0.47776 0.04782
# Poissons Ratio (z) = -0.06576 0.08797
#
# Static dielectric constant tensor:
#      x y z
#    x 2.094000 0.000000 -0.209360 
#    y 0.000000 1.785120 0.000000 
#    z -0.209360 0.000000 2.288280 
# 
# From -- ./inp_files/29066.got.cif
#   From: 2010.05.17/outbox.cif.g08.bks.cpg/sg13_15_cif.got.tgz:29066.got - 2010.06.03 16:44:36.
