data_PCOD9230781
_publ_section_title
;
Structure prediction by ZEFSAII (Michael W. Deem and Ramdas Pophale) SiO2 
 PCOD9230781
Probable space group: P 2/C
;
_chemical_formula_sum "Si O2"
_cell_formula_units_Z 16
_cell_length_a 7.704201
_cell_length_b 9.705762
_cell_length_c 8.517397
_cell_angle_alpha 90.000000
_cell_angle_beta 90.208095
_cell_angle_gamma 90.000000
_cell_volume 636.885364
_symmetry_space_group_name_H-M "P 2/C"
_symmetry_group_IT_number 13
_symmetry_cell_setting 'monoclinic'
loop_
_space_group_symop_operation_xyz
x,y,z
-x,y,1/2-z
-x,-y,-z
x,-y,1/2+z
loop_
_atom_site_type_symbol
_atom_site_label
_atom_site_fract_x
_atom_site_fract_y
_atom_site_fract_z
Si Si1 0.210627 0.697362 0.771939
Si Si2 0.806042 0.450566 0.536815
Si Si3 0.692217 0.793376 0.216466
Si Si4 0.798708 0.958620 0.525518
O O1 0.278024 0.591631 0.904350
O O2 0.274555 0.631913 0.609251
O O3 0.000000 0.691763 0.750000
O O4 0.238517 0.851407 0.832515
O O5 0.806818 0.338568 0.675687
O O6 0.000000 0.500000 0.500000
O O7 0.500000 0.743301 0.250000
O O8 0.751287 0.878624 0.367765
O O9 0.700782 0.901790 0.072158
O O10 0.000000 0.000000 0.500000
#
# Coordination Sequence:
#
# PCOD9230781 Si02
#       4
#     4   4   4   4
#     4  10  20  37  64  97 127 165 223 285 329 387
#     4  10  21  40  65  94 130 178 227 278 336 410
#     4  12  26  45  67 101 142 180 223 289 356 404
#     4  12  24  42  69 100 134 181 233 280 335 417
#
# _framework density 25.122261000000002
#
# number of rings (size 3 to 8) (size 9 to 14) (size 15 to 20)
#    0.000    1.000    0.000    9.000    0.000    6.000 
#    0.000    6.250    0.000    0.000    0.000    0.000 
#    0.000    0.000    0.000    0.000    0.000    0.000 
#
# Total GULP energy -89527.318510 kJ/mol
# GULP energy per Si atom -5595.457407 kJ/mol
# Density = 2.506508 g / cm^3
# Si number density = 25.122261 Si / 1000 Ang^3
#
#
#
# Elastic Constant Matrix: (Units=GPa)
#
#
# Indices 1 2 3 4 5 6 
#
# 1 78.6087 34.9305 30.8689 0.0000 -15.9943 0.0000
# 2 34.9305 193.0943 42.3904 0.0000 -13.8487 0.0000
# 3 30.8689 42.3904 85.4885 0.0000 -6.4664 0.0000
# 4 0.0000 0.0000 0.0000 56.5711 0.0000 -2.7063
# 5 -15.9943 -13.8487 -6.4664 0.0000 16.9513 0.0000
# 6 0.0000 0.0000 0.0000 -2.7063 0.0000 9.0478
#
#
#
# Elastic Compliance Matrix: (Units=1/GPa)
#
#
# Indices 1 2 3 4 5 6 
#
# 1 0.018043 -0.001179 -0.004856 0.000000 0.014209 0.000000
# 2 -0.001179 0.006130 -0.002388 0.000000 0.002985 0.000000
# 3 -0.004856 -0.002388 0.014561 0.000000 -0.000978 0.000000
# 4 0.000000 0.000000 0.000000 0.017933 0.000000 0.005364
# 5 0.014209 0.002985 -0.000978 0.000000 0.074465 0.000000
# 6 0.000000 0.000000 0.000000 0.005364 0.000000 0.112128
#
#
# Mechanical properties :
#
#
# Convention : Reuss Voigt Hill
#
# Bulk Modulus (GPa) = 45.68608 63.73014 54.70811
# Shear Modulus (GPa) = 18.69835 33.11416 25.90625
#
# Velocity S-wave (km/s) = 2.73114 3.63453 3.21473
# Velocity P-wave (km/s) = 5.30758 6.56019 5.96685
#
# Compressibility (1/GPa) = 0.02188850
#
# Stress axis : x y z
#
# Youngs Moduli (GPa) = 55.42327 163.11914 68.67581
#
# Poissons Ratio (x) = 0.19230 0.33347
# Poissons Ratio (y) = 0.06534 0.16402
# Poissons Ratio (z) = 0.26912 0.38959
#
# Static dielectric constant tensor:
#      x y z
#    x 1.954520 0.000000 -0.014930 
#    y 0.000000 1.946880 0.000000 
#    z -0.014930 0.000000 2.089830 
# 
# From -- ./inp_files/10838.got.cif
#   From: 2010.05.17/outbox.cif.g08.bks.cpg/sg13_6_cif.got.tgz:10838.got - 2010.06.03 16:44:36.
