data_PCOD9230302
_publ_section_title
;
Structure prediction by ZEFSAII (Michael W. Deem and Ramdas Pophale) SiO2 
 PCOD9230302
Probable space group: P 2/C
;
_chemical_formula_sum "Si O2"
_cell_formula_units_Z 24
_cell_length_a 14.283897
_cell_length_b 8.774037
_cell_length_c 14.029582
_cell_angle_alpha 90.000000
_cell_angle_beta 140.885876
_cell_angle_gamma 90.000000
_cell_volume 1109.248313
_symmetry_space_group_name_H-M "P 2/C"
_symmetry_group_IT_number 13
_symmetry_cell_setting 'monoclinic'
loop_
_space_group_symop_operation_xyz
x,y,z
-x,y,1/2-z
-x,-y,-z
x,-y,1/2+z
loop_
_atom_site_type_symbol
_atom_site_label
_atom_site_fract_x
_atom_site_fract_y
_atom_site_fract_z
Si Si1 0.296683 0.149006 0.532105
Si Si2 0.858159 0.677234 0.746539
Si Si3 0.500000 0.587689 0.250000
Si Si4 0.969307 0.659960 0.327214
Si Si5 0.500000 0.902721 0.750000
Si Si6 0.900773 0.850579 0.444524
Si Si7 0.293364 0.654369 0.681561
O O1 0.174029 0.195118 0.358289
O O2 0.393267 0.302141 0.607735
O O3 0.232967 0.119190 0.588405
O O4 0.408145 0.009454 0.604512
O O5 0.730008 0.672994 0.724692
O O6 0.891139 0.502458 0.743851
O O7 0.001511 0.733141 0.917072
O O8 0.604354 0.487049 0.265731
O O9 0.130217 0.637150 0.504600
O O10 0.000000 0.737753 0.250000
O O11 0.873288 0.763509 0.323294
O O12 0.379787 0.797331 0.706570
O O13 0.000000 0.000000 0.500000
#
# Coordination Sequence:
#
# PCOD9230302 Si02
#       7
#     4   4   2   4   2   4   4
#     4  11  22  39  60  88 120 160 203 243 302 360
#     4  11  22  38  64  90 119 153 199 256 306 355
#     4  10  20  36  60  82 120 160 198 244 284 364
#     4  11  22  39  65  93 120 152 197 256 309 353
#     4  10  24  42  58  80 128 172 202 242 290 370
#     4  11  23  39  61  88 120 154 197 254 305 357
#     4  10  21  40  60  88 122 160 200 244 303 358
#
# _framework density 21.636274
#
# number of rings (size 3 to 8) (size 9 to 14) (size 15 to 20)
#    0.000    1.333    0.000    8.500    0.000    4.000 
#    0.000    6.667    0.000    0.000    0.000    0.000 
#    0.000    0.000    0.000    0.000    0.000    0.000 
#
# Total GULP energy -134015.701526 kJ/mol
# GULP energy per Si atom -5583.987564 kJ/mol
# Density = 2.158703 g / cm^3
# Si number density = 21.636274 Si / 1000 Ang^3
#
#
#
# Elastic Constant Matrix: (Units=GPa)
#
#
# Indices 1 2 3 4 5 6 
#
# 1 108.3916 19.7358 25.2293 0.0000 -2.1730 0.0000
# 2 19.7358 94.4797 6.5992 0.0000 4.3462 0.0000
# 3 25.2293 6.5992 45.8966 0.0000 -7.3882 0.0000
# 4 0.0000 0.0000 0.0000 -17.3924 0.0000 -63.7180
# 5 -2.1730 4.3462 -7.3882 0.0000 35.9197 0.0000
# 6 0.0000 0.0000 0.0000 -63.7180 0.0000 -184.9173
#
#
#
# Elastic Compliance Matrix: (Units=1/GPa)
#
#
# Indices 1 2 3 4 5 6 
#
# 1 0.010902 -0.001860 -0.005774 0.000000 -0.000303 0.000000
# 2 -0.001860 0.011106 -0.000837 0.000000 -0.001628 0.000000
# 3 -0.005774 -0.000837 0.025900 0.000000 0.005079 0.000000
# 4 0.000000 0.000000 0.000000 0.219144 0.000000 -0.075512
# 5 -0.000303 -0.001628 0.005079 0.000000 0.029063 0.000000
# 6 0.000000 0.000000 0.000000 -0.075512 0.000000 0.020612
#
#
# Mechanical properties :
#
#
# Convention : Reuss Voigt Hill
#
# Bulk Modulus (GPa) = 32.29270 39.09959 35.69614
# Shear Modulus (GPa) = 14.53523 -20.13111 -2.79794
#
# Velocity S-wave (km/s) = 2.59472 -3.05361 -1.13841
# Velocity P-wave (km/s) = 4.89228 2.38282 3.84787
#
# Compressibility (1/GPa) = 0.03096675
#
# Stress axis : x y z
#
# Youngs Moduli (GPa) = 91.72223 90.03989 38.60973
#
# Poissons Ratio (x) = 0.16749 0.22295
# Poissons Ratio (y) = 0.17062 0.03230
# Poissons Ratio (z) = 0.52964 0.07532
#
# Static dielectric constant tensor:
#      x y z
#    x 1.560440 0.000000 0.499490 
#    y 0.000000 1.807730 0.000000 
#    z 0.499490 0.000000 0.974300 
# 
# From -- ./inp_files/49591.got.cif
#   From: 2010.05.17/outbox.cif.g08.bks.cpg/sg13_25_cif.got.tgz:49591.got - 2010.06.03 16:44:36.
