data_PCOD9230795
_publ_section_title
;
Structure prediction by ZEFSAII (Michael W. Deem and Ramdas Pophale) SiO2 
 PCOD9230795
Probable space group: P 2/C
;
_chemical_formula_sum "Si O2"
_cell_formula_units_Z 16
_cell_length_a 9.926529
_cell_length_b 9.067630
_cell_length_c 13.779131
_cell_angle_alpha 90.000000
_cell_angle_beta 29.133144
_cell_angle_gamma 90.000000
_cell_volume 603.809525
_symmetry_space_group_name_H-M "P 2/C"
_symmetry_group_IT_number 13
_symmetry_cell_setting 'monoclinic'
loop_
_space_group_symop_operation_xyz
x,y,z
-x,y,1/2-z
-x,-y,-z
x,-y,1/2+z
loop_
_atom_site_type_symbol
_atom_site_label
_atom_site_fract_x
_atom_site_fract_y
_atom_site_fract_z
Si Si1 0.204512 0.596949 0.806855
Si Si2 0.677952 0.958533 0.956007
Si Si3 0.343703 0.636749 0.451899
Si Si4 0.703784 0.924021 0.686042
O O1 0.489135 0.505952 0.613621
O O2 0.262056 0.747719 0.826953
O O3 0.000000 0.500000 0.000000
O O4 0.986765 0.623640 0.857034
O O5 0.000000 0.991193 0.750000
O O6 0.605996 0.786932 0.022292
O O7 0.367911 0.041938 0.142701
O O8 0.637463 0.034970 0.101757
O O9 0.500000 0.662532 0.250000
O O10 0.000000 0.000000 0.500000
#
# Coordination Sequence:
#
# PCOD9230795 Si02
#       4
#     4   4   4   4
#     4  10  20  37  65  99 126 159 214 274 322 380
#     4  12  26  43  62  93 135 174 215 270 331 388
#     4  10  21  41  66  94 128 168 217 270 320 387
#     4  12  23  41  69  96 125 171 223 272 323 387
#
# _framework density 26.498424
#
# number of rings (size 3 to 8) (size 9 to 14) (size 15 to 20)
#    0.000    1.000    0.000   10.500    0.000    2.000 
#    0.000    6.250    0.000    0.000    0.000    0.000 
#    0.000    0.000    0.000    0.000    0.000    0.000 
#
# Total GULP energy -89346.232799 kJ/mol
# GULP energy per Si atom -5584.139550 kJ/mol
# Density = 2.643811 g / cm^3
# Si number density = 26.498424 Si / 1000 Ang^3
#
#
#
# Elastic Constant Matrix: (Units=GPa)
#
#
# Indices 1 2 3 4 5 6 
#
# 1 291.2558 84.0311 103.4176 0.0000 -41.9769 0.0000
# 2 84.0311 234.6716 89.1062 0.0000 -25.4561 0.0000
# 3 103.4176 89.1062 215.1427 0.0000 -11.1157 0.0000
# 4 0.0000 0.0000 0.0000 40.8391 0.0000 -7.7144
# 5 -41.9769 -25.4561 -11.1157 0.0000 89.2020 0.0000
# 6 0.0000 0.0000 0.0000 -7.7144 0.0000 53.5240
#
#
#
# Elastic Compliance Matrix: (Units=1/GPa)
#
#
# Indices 1 2 3 4 5 6 
#
# 1 0.004527 -0.000765 -0.001772 0.000000 0.001691 0.000000
# 2 -0.000765 0.005314 -0.001785 0.000000 0.000934 0.000000
# 3 -0.001772 -0.001785 0.006210 0.000000 -0.000569 0.000000
# 4 0.000000 0.000000 0.000000 0.025172 0.000000 0.003628
# 5 0.001691 0.000934 -0.000569 0.000000 0.012202 0.000000
# 6 0.000000 0.000000 0.000000 0.003628 0.000000 0.019206
#
#
# Mechanical properties :
#
#
# Convention : Reuss Voigt Hill
#
# Bulk Modulus (GPa) = 135.00147 143.79780 139.39963
# Shear Modulus (GPa) = 59.70601 67.68072 63.69336
#
# Velocity S-wave (km/s) = 4.75193 5.05933 4.90804
# Velocity P-wave (km/s) = 9.00918 9.40816 9.21083
#
# Compressibility (1/GPa) = 0.00740733
#
# Stress axis : x y z
#
# Youngs Moduli (GPa) = 220.89796 188.17198 161.03589
#
# Poissons Ratio (x) = 0.14390 0.28535
# Poissons Ratio (y) = 0.16893 0.28748
# Poissons Ratio (z) = 0.39143 0.33592
#
# Static dielectric constant tensor:
#      x y z
#    x 2.835830 0.000000 0.416350 
#    y 0.000000 1.974380 0.000000 
#    z 0.416350 0.000000 2.072120 
# 
# From -- ./inp_files/79492.got.cif
#   From: 2010.05.17/outbox.cif.g08.bks.cpg/sg13_40_cif.got.tgz:79492.got - 2010.06.03 16:44:36.
