data_PCOD9230928
_publ_section_title
;
Structure prediction by ZEFSAII (Michael W. Deem and Ramdas Pophale) SiO2 
 PCOD9230928
Probable space group: P 2/C
;
_chemical_formula_sum "Si O2"
_cell_formula_units_Z 24
_cell_length_a 8.898904
_cell_length_b 10.092159
_cell_length_c 12.343848
_cell_angle_alpha 90.000000
_cell_angle_beta 89.412170
_cell_angle_gamma 90.000000
_cell_volume 1108.532203
_symmetry_space_group_name_H-M "P 2/C"
_symmetry_group_IT_number 13
_symmetry_cell_setting 'monoclinic'
loop_
_space_group_symop_operation_xyz
x,y,z
-x,y,1/2-z
-x,-y,-z
x,-y,1/2+z
loop_
_atom_site_type_symbol
_atom_site_label
_atom_site_fract_x
_atom_site_fract_y
_atom_site_fract_z
Si Si1 0.326851 0.154700 0.951487
Si Si2 0.885743 0.430795 0.847774
Si Si3 0.343563 0.778712 0.107944
Si Si4 0.192633 0.872413 0.892285
Si Si5 0.065811 0.693194 0.543014
Si Si6 0.341581 0.945227 0.691291
O O1 0.372328 0.111196 0.072486
O O2 0.209093 0.270024 0.970687
O O3 0.476848 0.201426 0.890092
O O4 0.236690 0.027068 0.907420
O O5 0.727265 0.353747 0.841255
O O6 0.000000 0.398430 0.750000
O O7 0.886115 0.588565 0.865940
O O8 0.952551 0.374383 0.959401
O O9 0.276741 0.907670 0.170065
O O10 0.292616 0.797406 0.982527
O O11 0.023110 0.823276 0.913951
O O12 0.240182 0.852613 0.767600
O O13 0.500000 0.955741 0.750000
#
# Coordination Sequence:
#
# PCOD9230928 Si02
#       6
#     4   4   4   4   4   4
#     4  11  21  36  62  97 124 154 203 257 320 370
#     4  10  24  44  61  81 120 172 214 246 300 367
#     4  10  21  38  60  87 124 161 200 257 303 372
#     4  10  20  38  60  90 127 155 196 251 324 369
#     4  10  24  42  61  87 125 159 207 265 295 369
#     4  11  19  34  62  92 124 160 191 251 323 377
#
# _framework density 21.650248999999999
#
# number of rings (size 3 to 8) (size 9 to 14) (size 15 to 20)
#    0.000    1.667    3.333    1.500    4.667    0.667 
#    0.000    0.000    0.000    1.000    0.000    0.000 
#    0.000    0.000    0.000    0.000    0.000    0.000 
#
# Total GULP energy -133900.302044 kJ/mol
# GULP energy per Si atom -5579.179252 kJ/mol
# Density = 2.160097 g / cm^3
# Si number density = 21.650249 Si / 1000 Ang^3
#
#
#
# Elastic Constant Matrix: (Units=GPa)
#
#
# Indices 1 2 3 4 5 6 
#
# 1 89.8589 52.7883 17.6839 0.0000 -25.1069 0.0000
# 2 52.7883 77.0296 20.9370 0.0000 -13.6049 0.0000
# 3 17.6839 20.9370 74.9523 0.0000 -18.2105 0.0000
# 4 0.0000 0.0000 0.0000 9.6950 0.0000 4.7569
# 5 -25.1069 -13.6049 -18.2105 0.0000 40.2932 0.0000
# 6 0.0000 0.0000 0.0000 4.7569 0.0000 -11.5049
#
#
#
# Elastic Compliance Matrix: (Units=1/GPa)
#
#
# Indices 1 2 3 4 5 6 
#
# 1 0.021280 -0.013202 0.000905 0.000000 0.009211 0.000000
# 2 -0.013202 0.022650 -0.003766 0.000000 -0.002281 0.000000
# 3 0.000905 -0.003766 0.015736 0.000000 0.006404 0.000000
# 4 0.000000 0.000000 0.000000 0.085750 0.000000 0.035455
# 5 0.009211 -0.002281 0.006404 0.000000 0.032682 0.000000
# 6 0.000000 0.000000 0.000000 0.035455 0.000000 -0.072260
#
#
# Mechanical properties :
#
#
# Convention : Reuss Voigt Hill
#
# Bulk Modulus (GPa) = 36.31131 47.18434 41.74783
# Shear Modulus (GPa) = 33.98022 17.72543 25.85282
#
# Velocity S-wave (km/s) = 3.96600 2.86443 3.45934
# Velocity P-wave (km/s) = 6.14657 5.72548 5.93976
#
# Compressibility (1/GPa) = 0.02753963
#
# Stress axis : x y z
#
# Youngs Moduli (GPa) = 46.99319 44.14954 63.54711
#
# Poissons Ratio (x) = 0.58287 -0.05752
# Poissons Ratio (y) = 0.62041 0.23934
# Poissons Ratio (z) = -0.04253 0.16628
#
# Static dielectric constant tensor:
#      x y z
#    x 1.800120 0.000000 0.016110 
#    y 0.000000 1.830690 0.000000 
#    z 0.016110 0.000000 1.868670 
# 
# From -- ./inp_files/32601.got.cif
#   From: 2010.05.17/outbox.cif.g08.bks.cpg/sg13_17_cif.got.tgz:32601.got - 2010.06.03 16:44:36.
