data_PCOD9230981
_publ_section_title
;
Structure prediction by ZEFSAII (Michael W. Deem and Ramdas Pophale) SiO2 
 PCOD9230981
Probable space group: P 2/C
;
_chemical_formula_sum "Si O2"
_cell_formula_units_Z 28
_cell_length_a 8.635116
_cell_length_b 10.533826
_cell_length_c 16.130949
_cell_angle_alpha 90.000000
_cell_angle_beta 120.462528
_cell_angle_gamma 90.000000
_cell_volume 1264.741607
_symmetry_space_group_name_H-M "P 2/C"
_symmetry_group_IT_number 13
_symmetry_cell_setting 'monoclinic'
loop_
_space_group_symop_operation_xyz
x,y,z
-x,y,1/2-z
-x,-y,-z
x,-y,1/2+z
loop_
_atom_site_type_symbol
_atom_site_label
_atom_site_fract_x
_atom_site_fract_y
_atom_site_fract_z
Si Si1 0.532432 0.465514 0.356194
Si Si2 0.369184 0.108279 0.996507
Si Si3 0.104080 0.402444 0.968528
Si Si4 0.375508 0.262696 0.538994
Si Si5 0.169852 0.605162 0.850867
Si Si6 0.009818 0.159918 0.658483
Si Si7 0.206054 0.025574 0.588128
O O1 0.500000 0.463675 0.250000
O O2 0.705591 0.386226 0.433763
O O3 0.574962 0.609667 0.397958
O O4 0.350758 0.416178 0.348625
O O5 0.457417 0.229325 0.975949
O O6 0.326030 0.089332 0.082753
O O7 0.176914 0.086516 0.902723
O O8 0.500000 0.000000 0.000000
O O9 0.133619 0.475763 0.890583
O O10 0.004545 0.274052 0.913327
O O11 0.000000 0.500000 0.000000
O O12 0.211271 0.293122 0.432977
O O13 0.309261 0.147018 0.577159
O O14 0.000000 0.638626 0.750000
O O15 0.000000 0.207311 0.750000
O O16 0.171237 0.067135 0.674032
O O17 0.000000 0.000000 0.500000
#
# Coordination Sequence:
#
# PCOD9230981 Si02
#       7
#     4   4   4   4   4   4   4
#     4  11  23  38  59  92 128 162 205 249 297 366
#     4   9  19  38  60  81 114 156 196 252 311 353
#     4  11  22  37  59  89 126 162 196 244 303 359
#     4  10  20  38  62  85 115 159 200 243 305 366
#     4  11  22  37  57  85 120 159 200 244 296 363
#     4  11  21  36  63  93 119 156 204 249 299 364
#     4   9  20  38  60  85 115 150 194 253 306 351
#
# _framework density 22.138909999999999
#
# number of rings (size 3 to 8) (size 9 to 14) (size 15 to 20)
#    0.000    1.714    0.000    6.429    0.000    3.429 
#    0.000    8.571    0.000   10.286    0.000    0.000 
#    0.000    0.000    0.000    0.000    0.000    0.000 
#
# Total GULP energy -156132.343327 kJ/mol
# GULP energy per Si atom -5576.155119 kJ/mol
# Density = 2.208852 g / cm^3
# Si number density = 22.138910 Si / 1000 Ang^3
#
#
#
# Elastic Constant Matrix: (Units=GPa)
#
#
# Indices 1 2 3 4 5 6 
#
# 1 127.9142 21.6657 26.9332 0.0000 -13.1813 0.0000
# 2 21.6657 50.7846 0.3565 0.0000 -19.2895 0.0000
# 3 26.9332 0.3565 82.1513 0.0000 -19.5491 0.0000
# 4 0.0000 0.0000 0.0000 10.7362 0.0000 -6.6144
# 5 -13.1813 -19.2895 -19.5491 0.0000 31.9039 0.0000
# 6 0.0000 0.0000 0.0000 -6.6144 0.0000 43.6167
#
#
#
# Elastic Compliance Matrix: (Units=1/GPa)
#
#
# Indices 1 2 3 4 5 6 
#
# 1 0.009104 -0.004100 -0.003116 0.000000 -0.000627 0.000000
# 2 -0.004100 0.028693 0.005789 0.000000 0.019201 0.000000
# 3 -0.003116 0.005789 0.016034 0.000000 0.012037 0.000000
# 4 0.000000 0.000000 0.000000 0.102742 0.000000 0.015581
# 5 -0.000627 0.019201 0.012037 0.000000 0.050070 0.000000
# 6 0.000000 0.000000 0.000000 0.015581 0.000000 0.025290
#
#
# Mechanical properties :
#
#
# Convention : Reuss Voigt Hill
#
# Bulk Modulus (GPa) = 19.61727 39.86232 29.73979
# Shear Modulus (GPa) = 19.85872 31.37766 25.61819
#
# Velocity S-wave (km/s) = 2.99825 3.76880 3.40539
# Velocity P-wave (km/s) = 4.56796 6.08137 5.37817
#
# Compressibility (1/GPa) = 0.05097549
#
# Stress axis : x y z
#
# Youngs Moduli (GPa) = 109.84547 34.85196 62.36911
#
# Poissons Ratio (x) = 0.14290 0.19435
# Poissons Ratio (y) = 0.45038 -0.36105
# Poissons Ratio (z) = 0.34229 -0.20176
#
# Static dielectric constant tensor:
#      x y z
#    x 1.878870 0.000000 -0.033200 
#    y 0.000000 1.887180 0.000000 
#    z -0.033200 0.000000 1.817420 
# 
# From -- ./inp_files/47325.got.cif
#   From: 2010.05.17/outbox.cif.g08.bks.cpg/sg13_24_cif.got.tgz:47325.got - 2010.06.03 16:44:36.
