data_PCOD9230159
_publ_section_title
;
Structure prediction by ZEFSAII (Michael W. Deem and Ramdas Pophale) SiO2 
 PCOD9230159
Probable space group: P 2/C
;
_chemical_formula_sum "Si O2"
_cell_formula_units_Z 32
_cell_length_a 32.975358
_cell_length_b 8.510491
_cell_length_c 12.165035
_cell_angle_alpha 90.000000
_cell_angle_beta 151.646435
_cell_angle_gamma 90.000000
_cell_volume 1621.324190
_symmetry_space_group_name_H-M "P 2/C"
_symmetry_group_IT_number 13
_symmetry_cell_setting 'monoclinic'
loop_
_space_group_symop_operation_xyz
x,y,z
-x,y,1/2-z
-x,-y,-z
x,-y,1/2+z
loop_
_atom_site_type_symbol
_atom_site_label
_atom_site_fract_x
_atom_site_fract_y
_atom_site_fract_z
Si Si1 0.191185 0.903244 0.345108
Si Si2 0.322680 0.095926 0.951312
Si Si3 0.179430 0.212153 0.452113
Si Si4 0.096331 0.674618 0.972477
Si Si5 0.469721 0.819939 0.937967
Si Si6 0.359904 0.262597 0.564182
Si Si7 0.768665 0.441844 0.104679
Si Si8 0.668227 0.306807 0.234752
O O1 0.258209 0.918140 0.402622
O O2 0.114340 0.804152 0.109884
O O3 0.246154 0.800513 0.562817
O O4 0.161886 0.062791 0.332374
O O5 0.269970 0.170024 0.726315
O O6 0.403936 0.200532 0.180453
O O7 0.354475 0.918034 0.009713
O O8 0.116426 0.246948 0.402762
O O9 0.185612 0.364379 0.390440
O O10 0.166339 0.540699 0.165567
O O11 0.000000 0.616338 0.750000
O O12 0.410359 0.789803 0.902103
O O13 0.555279 0.721141 0.160326
O O14 0.500000 0.000000 0.000000
O O15 0.277827 0.305950 0.438943
O O16 0.356777 0.363250 0.445662
O O17 0.695491 0.556791 0.883462
#
# Coordination Sequence:
#
# PCOD9230159 Si02
#       8
#     4   4   4   4   4   4   4   4
#     4   9  18  36  62  86 115 153 202 246 296 372
#     4   9  18  34  58  88 118 150 204 255 294 349
#     4  11  20  39  67  89 115 166 207 243 317 370
#     4  10  24  43  61  92 129 152 195 262 317 379
#     4   9  20  34  55  87 122 159 208 261 299 344
#     4  11  19  35  60  82 118 162 207 254 299 356
#     4  11  24  39  62  87 121 167 205 243 314 391
#     4  10  20  36  55  85 123 162 202 252 310 353
#
# _framework density 19.736954000000001
#
# number of rings (size 3 to 8) (size 9 to 14) (size 15 to 20)
#    0.000    2.000    2.500    1.875    0.000    1.500 
#    0.000    2.500    0.000    0.000    0.000    0.000 
#    0.000    0.000    0.000    0.000    0.000    0.000 
#
# Total GULP energy -178418.823142 kJ/mol
# GULP energy per Si atom -5575.588223 kJ/mol
# Density = 1.969203 g / cm^3
# Si number density = 19.736954 Si / 1000 Ang^3
#
#
#
# Elastic Constant Matrix: (Units=GPa)
#
#
# Indices 1 2 3 4 5 6 
#
# 1 49.5703 14.4400 26.5952 0.0000 -4.1474 0.0000
# 2 14.4400 51.5619 12.1096 0.0000 -0.0406 0.0000
# 3 26.5952 12.1096 75.5121 0.0000 3.9718 0.0000
# 4 0.0000 0.0000 0.0000 12.4984 0.0000 2.8515
# 5 -4.1474 -0.0406 3.9718 0.0000 20.1021 0.0000
# 6 0.0000 0.0000 0.0000 2.8515 0.0000 21.7497
#
#
#
# Elastic Compliance Matrix: (Units=1/GPa)
#
#
# Indices 1 2 3 4 5 6 
#
# 1 0.027288 -0.005494 -0.009120 0.000000 0.007421 0.000000
# 2 -0.005494 0.021269 -0.001433 0.000000 -0.000807 0.000000
# 3 -0.009120 -0.001433 0.016960 0.000000 -0.005235 0.000000
# 4 0.000000 0.000000 0.000000 0.082477 0.000000 -0.010813
# 5 0.007421 -0.000807 -0.005235 0.000000 0.052310 0.000000
# 6 0.000000 0.000000 0.000000 -0.010813 0.000000 0.047395
#
#
# Mechanical properties :
#
#
# Convention : Reuss Voigt Hill
#
# Bulk Modulus (GPa) = 29.92058 31.43710 30.67884
# Shear Modulus (GPa) = 17.18601 19.10334 18.14468
#
# Velocity S-wave (km/s) = 2.95405 3.11448 3.03533
# Velocity P-wave (km/s) = 5.17956 5.37549 5.27844
#
# Compressibility (1/GPa) = 0.03342181
#
# Stress axis : x y z
#
# Youngs Moduli (GPa) = 36.64660 47.01722 58.96185
#
# Poissons Ratio (x) = 0.25832 0.53772
# Poissons Ratio (y) = 0.20135 0.08451
# Poissons Ratio (z) = 0.33421 0.06739
#
# Static dielectric constant tensor:
#      x y z
#    x 1.703120 0.000000 -0.022610 
#    y 0.000000 1.724860 0.000000 
#    z -0.022610 0.000000 1.703300 
# 
# From -- ./inp_files/42779.got.cif
#   From: 2010.05.17/outbox.cif.g08.bks.cpg/sg13_22_cif.got.tgz:42779.got - 2010.06.03 16:44:36.
