data_PCOD9230339
_publ_section_title
;
Structure prediction by ZEFSAII (Michael W. Deem and Ramdas Pophale) SiO2 
 PCOD9230339
Probable space group: P 2/C
;
_chemical_formula_sum "Si O2"
_cell_formula_units_Z 30
_cell_length_a 23.373511
_cell_length_b 6.719206
_cell_length_c 12.746850
_cell_angle_alpha 90.000000
_cell_angle_beta 37.521268
_cell_angle_gamma 90.000000
_cell_volume 1219.275714
_symmetry_space_group_name_H-M "P 2/C"
_symmetry_group_IT_number 13
_symmetry_cell_setting 'monoclinic'
loop_
_space_group_symop_operation_xyz
x,y,z
-x,y,1/2-z
-x,-y,-z
x,-y,1/2+z
loop_
_atom_site_type_symbol
_atom_site_label
_atom_site_fract_x
_atom_site_fract_y
_atom_site_fract_z
Si Si1 0.322109 0.761020 0.734774
Si Si2 0.122666 0.886772 0.041267
Si Si3 0.500000 0.088136 0.250000
Si Si4 0.158516 0.771028 0.357527
Si Si5 0.293841 0.888965 0.553425
Si Si6 0.283667 0.656576 0.363401
Si Si7 0.519386 0.270164 0.000069
Si Si8 0.984970 0.798119 0.089534
O O1 0.234016 0.894648 0.893382
O O2 0.305462 0.737681 0.634597
O O3 0.310195 0.576687 0.832050
O O4 0.428251 0.837177 0.586048
O O5 0.098552 0.100727 0.029560
O O6 0.076521 0.835906 0.217182
O O7 0.083701 0.745599 0.003281
O O8 0.518765 0.226249 0.122997
O O9 0.401059 0.968504 0.377191
O O10 0.221528 0.652362 0.348024
O O11 0.083693 0.673720 0.386963
O O12 0.225951 0.927855 0.192748
O O13 0.252124 0.763637 0.516225
O O14 0.379504 0.766498 0.194029
O O15 0.500000 0.500000 0.000000
O O16 0.000000 0.000000 0.000000
#
# Coordination Sequence:
#
# PCOD9230339 Si02
#       8
#     4   4   2   4   4   4   4   4
#     4  10  24  41  61  89 133 172 217 266 325 386
#     4   9  19  36  59  88 122 164 213 265 324 385
#     4  12  24  40  68  94 130 174 222 268 312 374
#     4  10  20  36  60  92 121 161 217 271 321 384
#     4  11  24  38  63  94 126 168 222 272 319 378
#     4  11  23  41  61  92 132 170 216 265 328 388
#     4  10  24  40  61  91 131 171 212 256 327 382
#     4   9  18  34  59  89 122 159 206 268 331 384
#
# _framework density 24.604769999999998
#
# number of rings (size 3 to 8) (size 9 to 14) (size 15 to 20)
#    0.000    1.867    1.333    1.600    5.600    6.400 
#    0.000    0.667    0.000   14.400    0.000    0.000 
#    0.000    0.000    0.000    0.000    0.000    0.000 
#
# Total GULP energy -167137.582860 kJ/mol
# GULP energy per Si atom -5571.252762 kJ/mol
# Density = 2.454877 g / cm^3
# Si number density = 24.604770 Si / 1000 Ang^3
#
#
#
# Elastic Constant Matrix: (Units=GPa)
#
#
# Indices 1 2 3 4 5 6 
#
# 1 166.0964 8.4753 30.3323 0.0000 -2.0696 0.0000
# 2 8.4753 39.2022 -5.4614 0.0000 11.4572 0.0000
# 3 30.3323 -5.4614 56.1560 0.0000 3.5869 0.0000
# 4 0.0000 0.0000 0.0000 16.7409 0.0000 6.9330
# 5 -2.0696 11.4572 3.5869 0.0000 58.8133 0.0000
# 6 0.0000 0.0000 0.0000 6.9330 0.0000 31.7901
#
#
#
# Elastic Compliance Matrix: (Units=1/GPa)
#
#
# Indices 1 2 3 4 5 6 
#
# 1 0.006882 -0.002320 -0.004003 0.000000 0.000938 0.000000
# 2 -0.002320 0.028336 0.004384 0.000000 -0.005869 0.000000
# 3 -0.004003 0.004384 0.020539 0.000000 -0.002247 0.000000
# 4 0.000000 0.000000 0.000000 0.065664 0.000000 -0.014320
# 5 0.000938 -0.005869 -0.002247 0.000000 0.018316 0.000000
# 6 0.000000 0.000000 0.000000 -0.014320 0.000000 0.034579
#
#
# Mechanical properties :
#
#
# Convention : Reuss Voigt Hill
#
# Bulk Modulus (GPa) = 19.27519 36.46078 27.86798
# Shear Modulus (GPa) = 25.57706 36.67610 31.12658
#
# Velocity S-wave (km/s) = 3.22765 3.86503 3.56063
# Velocity P-wave (km/s) = 4.66275 5.89650 5.31554
#
# Compressibility (1/GPa) = 0.05188016
#
# Stress axis : x y z
#
# Youngs Moduli (GPa) = 145.31531 35.29050 48.68700
#
# Poissons Ratio (x) = 0.08186 0.19487
# Poissons Ratio (y) = 0.33706 -0.21342
# Poissons Ratio (z) = 0.58163 -0.15470
#
# Static dielectric constant tensor:
#      x y z
#    x 2.101290 0.000000 -0.089360 
#    y 0.000000 2.066660 0.000000 
#    z -0.089360 0.000000 1.975210 
# 
# From -- ./inp_files/41613.got.cif
#   From: 2010.05.17/outbox.cif.g08.bks.cpg/sg13_21_cif.got.tgz:41613.got - 2010.06.03 16:44:36.
