data_PCOD9230473
_publ_section_title
;
Structure prediction by ZEFSAII (Michael W. Deem and Ramdas Pophale) SiO2 
 PCOD9230473
Probable space group: P 2/C
;
_chemical_formula_sum "Si O2"
_cell_formula_units_Z 28
_cell_length_a 16.148440
_cell_length_b 7.973774
_cell_length_c 22.144311
_cell_angle_alpha 90.000000
_cell_angle_beta 152.234384
_cell_angle_gamma 90.000000
_cell_volume 1328.336447
_symmetry_space_group_name_H-M "P 2/C"
_symmetry_group_IT_number 13
_symmetry_cell_setting 'monoclinic'
loop_
_space_group_symop_operation_xyz
x,y,z
-x,y,1/2-z
-x,-y,-z
x,-y,1/2+z
loop_
_atom_site_type_symbol
_atom_site_label
_atom_site_fract_x
_atom_site_fract_y
_atom_site_fract_z
Si Si1 0.172736 0.837516 0.544049
Si Si2 0.000000 0.045738 0.250000
Si Si3 0.258150 0.803776 0.461454
Si Si4 0.408611 0.925766 0.880987
Si Si5 0.000000 0.469406 0.750000
Si Si6 0.238253 0.857320 0.176355
Si Si7 0.835954 0.539100 0.437769
Si Si8 0.060160 0.288136 0.188366
O O1 0.220165 0.865715 0.504701
O O2 0.241249 0.646551 0.600298
O O3 0.960354 0.841035 0.422270
O O4 0.241710 0.988184 0.630838
O O5 0.039800 0.157393 0.333208
O O6 0.832757 0.925579 0.147118
O O7 0.460493 0.805890 0.572775
O O8 0.146157 0.635870 0.380494
O O9 0.229089 0.816129 0.773944
O O10 0.365537 0.086615 0.811936
O O11 0.500000 0.000000 0.000000
O O12 0.892841 0.571306 0.731863
O O13 0.279515 0.681969 0.169841
O O14 0.000000 0.500000 0.500000
O O15 0.931508 0.631075 0.555957
#
# Coordination Sequence:
#
# PCOD9230473 Si02
#       8
#     4   2   4   4   2   4   4   4
#     4  10  20  41  70  96 124 174 232 267 313 395
#     4  10  20  36  66  86 122 174 222 262 304 404
#     4  11  22  39  64  94 130 174 217 266 331 390
#     4  12  25  40  62  98 137 172 208 274 348 397
#     4  10  24  40  66  96 122 176 220 270 322 396
#     4  10  22  40  66  98 131 171 215 275 329 383
#     4  10  20  37  69  96 122 169 226 268 310 389
#     4  11  21  41  64  94 130 163 223 271 324 388
#
# _framework density 21.078997999999999
#
# number of rings (size 3 to 8) (size 9 to 14) (size 15 to 20)
#    0.000    1.429    2.857    4.286    2.000    1.143 
#    0.000    1.429    0.000    6.857    0.000    0.000 
#    0.000    0.000    0.000    0.000    0.000    0.000 
#
# Total GULP energy -156066.098313 kJ/mol
# GULP energy per Si atom -5573.789225 kJ/mol
# Density = 2.103102 g / cm^3
# Si number density = 21.078998 Si / 1000 Ang^3
#
#
#
# Elastic Constant Matrix: (Units=GPa)
#
#
# Indices 1 2 3 4 5 6 
#
# 1 81.2786 40.4984 19.4592 0.0000 -19.8666 0.0000
# 2 40.4984 131.1816 41.3174 0.0000 -16.5344 0.0000
# 3 19.4592 41.3174 49.1286 0.0000 -23.8673 0.0000
# 4 0.0000 0.0000 0.0000 5.9081 0.0000 -7.8636
# 5 -19.8666 -16.5344 -23.8673 0.0000 35.0732 0.0000
# 6 0.0000 0.0000 0.0000 -7.8636 0.0000 29.9288
#
#
#
# Elastic Compliance Matrix: (Units=1/GPa)
#
#
# Indices 1 2 3 4 5 6 
#
# 1 0.016112 -0.004318 0.001038 0.000000 0.007797 0.000000
# 2 -0.004318 0.011585 -0.009811 0.000000 -0.003661 0.000000
# 3 0.001038 -0.009811 0.039189 0.000000 0.022631 0.000000
# 4 0.000000 0.000000 0.000000 0.260282 0.000000 0.068387
# 5 0.007797 -0.003661 0.022631 0.000000 0.046603 0.000000
# 6 0.000000 0.000000 0.000000 0.068387 0.000000 0.051381
#
#
# Mechanical properties :
#
#
# Convention : Reuss Voigt Hill
#
# Bulk Modulus (GPa) = 24.56823 51.57099 38.06961
# Shear Modulus (GPa) = 10.75494 24.86960 17.81227
#
# Velocity S-wave (km/s) = 2.26126 3.43859 2.91008
# Velocity P-wave (km/s) = 4.30097 6.34696 5.42136
#
# Compressibility (1/GPa) = 0.04070298
#
# Stress axis : x y z
#
# Youngs Moduli (GPa) = 62.06419 86.31965 25.51723
#
# Poissons Ratio (x) = 0.37275 -0.02648
# Poissons Ratio (y) = 0.26801 0.25035
# Poissons Ratio (z) = -0.06440 0.84689
#
# Static dielectric constant tensor:
#      x y z
#    x 1.833060 0.000000 0.011430 
#    y 0.000000 1.821660 0.000000 
#    z 0.011430 0.000000 1.828950 
# 
# From -- ./inp_files/80061.got.cif
#   From: 2010.05.17/outbox.cif.g08.bks.cpg/sg13_41_cif.got.tgz:80061.got - 2010.06.03 16:44:36.
