data_PCOD9230469
_publ_section_title
;
Structure prediction by ZEFSAII (Michael W. Deem and Ramdas Pophale) SiO2 
 PCOD9230469
Probable space group: P 2/C
;
_chemical_formula_sum "Si O2"
_cell_formula_units_Z 32
_cell_length_a 14.130427
_cell_length_b 8.951406
_cell_length_c 23.846148
_cell_angle_alpha 90.000000
_cell_angle_beta 28.237138
_cell_angle_gamma 90.000000
_cell_volume 1427.045551
_symmetry_space_group_name_H-M "P 2/C"
_symmetry_group_IT_number 13
_symmetry_cell_setting 'monoclinic'
loop_
_space_group_symop_operation_xyz
x,y,z
-x,y,1/2-z
-x,-y,-z
x,-y,1/2+z
loop_
_atom_site_type_symbol
_atom_site_label
_atom_site_fract_x
_atom_site_fract_y
_atom_site_fract_z
Si Si1 0.484222 0.440112 0.570039
Si Si2 0.885418 0.229521 0.701074
Si Si3 0.267079 0.631451 0.759311
Si Si4 0.358828 0.963463 0.719518
Si Si5 0.152921 0.385756 0.894450
Si Si6 0.913798 0.297734 0.357852
Si Si7 0.786891 0.026160 0.961409
Si Si8 0.209595 0.926591 0.410373
O O1 0.500000 0.500000 0.500000
O O2 0.288679 0.331698 0.680772
O O3 0.444033 0.589347 0.625772
O O4 0.690541 0.363059 0.479840
O O5 0.931263 0.303694 0.616902
O O6 0.093842 0.175811 0.618649
O O7 0.791161 0.069288 0.735454
O O8 0.283962 0.798121 0.771562
O O9 0.301872 0.504999 0.788623
O O10 0.064270 0.633416 0.826509
O O11 0.549671 0.957042 0.579086
O O12 0.363640 0.036659 0.779024
O O13 0.206499 0.254815 0.909629
O O14 0.000000 0.500000 0.000000
O O15 0.000000 0.326403 0.250000
O O16 0.882328 0.120117 0.383196
O O17 0.779993 0.990247 0.032331
O O18 0.000000 0.000000 0.500000
#
# Coordination Sequence:
#
# PCOD9230469 Si02
#       8
#     4   4   4   4   4   4   4   4
#     4  11  24  47  69  98 139 177 223 289 348 409
#     4  10  22  41  70  95 131 176 228 274 339 405
#     4  11  24  42  69  98 140 173 226 286 337 408
#     4  11  22  41  66 101 133 179 228 276 338 404
#     4  10  20  36  65  96 134 176 214 272 347 399
#     4  12  24  44  72  99 129 184 225 280 360 400
#     4  12  23  42  72  99 136 178 236 282 335 414
#     4  11  20  40  68  95 138 185 222 278 338 404
#
# _framework density 22.423952
#
# number of rings (size 3 to 8) (size 9 to 14) (size 15 to 20)
#    0.000    1.000    6.250    1.875    0.000    2.000 
#    2.250    1.875    2.750    0.000    0.000    0.000 
#    0.000    0.000    0.000    0.000    0.000    0.000 
#
# Total GULP energy -178299.345513 kJ/mol
# GULP energy per Si atom -5571.854547 kJ/mol
# Density = 2.237291 g / cm^3
# Si number density = 22.423952 Si / 1000 Ang^3
#
#
#
# Elastic Constant Matrix: (Units=GPa)
#
#
# Indices 1 2 3 4 5 6 
#
# 1 10.1422 2.0852 9.7117 0.0000 -3.2689 0.0000
# 2 2.0852 123.4400 21.8274 0.0000 -7.9898 0.0000
# 3 9.7117 21.8274 113.4144 0.0000 -2.1966 0.0000
# 4 0.0000 0.0000 0.0000 35.8699 0.0000 -4.6878
# 5 -3.2689 -7.9898 -2.1966 0.0000 27.9637 0.0000
# 6 0.0000 0.0000 0.0000 -4.6878 0.0000 18.0733
#
#
#
# Elastic Compliance Matrix: (Units=1/GPa)
#
#
# Indices 1 2 3 4 5 6 
#
# 1 0.111515 0.000589 -0.009421 0.000000 0.012464 0.000000
# 2 0.000589 0.008536 -0.001647 0.000000 0.002378 0.000000
# 3 -0.009421 -0.001647 0.009926 0.000000 -0.000792 0.000000
# 4 0.000000 0.000000 0.000000 0.028857 0.000000 0.007485
# 5 0.012464 0.002378 -0.000792 0.000000 0.037835 0.000000
# 6 0.000000 0.000000 0.000000 0.007485 0.000000 0.057272
#
#
# Mechanical properties :
#
#
# Convention : Reuss Voigt Hill
#
# Bulk Modulus (GPa) = 9.17278 34.91615 22.04447
# Shear Modulus (GPa) = 16.06485 30.60621 23.33553
#
# Velocity S-wave (km/s) = 2.67950 3.69845 3.22941
# Velocity P-wave (km/s) = 3.69763 5.81745 4.87418
#
# Compressibility (1/GPa) = 0.10901821
#
# Stress axis : x y z
#
# Youngs Moduli (GPa) = 8.96741 117.14571 100.74931
#
# Poissons Ratio (x) = -0.06898 0.94916
# Poissons Ratio (y) = -0.00528 0.16596
# Poissons Ratio (z) = 0.08448 0.19297
#
# Static dielectric constant tensor:
#      x y z
#    x 1.870640 0.000000 -0.107200 
#    y 0.000000 1.736460 0.000000 
#    z -0.107200 0.000000 1.851090 
# 
# From -- ./inp_files/87410.got.cif
#   From: 2010.05.17/outbox.cif.g08.bks.cpg/sg13_44_cif.got.tgz:87410.got - 2010.06.03 16:44:36.
