data_PCOD9230970
_publ_section_title
;
Structure prediction by ZEFSAII (Michael W. Deem and Ramdas Pophale) SiO2 
 PCOD9230970
Probable space group: P 2/C
;
_chemical_formula_sum "Si O2"
_cell_formula_units_Z 28
_cell_length_a 12.356381
_cell_length_b 11.879457
_cell_length_c 8.533885
_cell_angle_alpha 90.000000
_cell_angle_beta 107.198057
_cell_angle_gamma 90.000000
_cell_volume 1196.655569
_symmetry_space_group_name_H-M "P 2/C"
_symmetry_group_IT_number 13
_symmetry_cell_setting 'monoclinic'
loop_
_space_group_symop_operation_xyz
x,y,z
-x,y,1/2-z
-x,-y,-z
x,-y,1/2+z
loop_
_atom_site_type_symbol
_atom_site_label
_atom_site_fract_x
_atom_site_fract_y
_atom_site_fract_z
Si Si1 0.537950 0.719816 0.587482
Si Si2 0.348236 0.838790 0.344359
Si Si3 0.127677 0.144641 0.253654
Si Si4 0.108243 0.564450 0.474357
Si Si5 0.234439 0.387727 0.321476
Si Si6 0.893293 0.817468 0.113439
Si Si7 0.658169 0.932679 0.510094
O O1 0.500000 0.701732 0.750000
O O2 0.431457 0.736769 0.426038
O O3 0.634310 0.629683 0.580883
O O4 0.604616 0.839167 0.601902
O O5 0.218654 0.810093 0.327929
O O6 0.641290 0.885558 0.327880
O O7 0.383515 0.942175 0.473599
O O8 0.170455 0.269261 0.321157
O O9 0.210633 0.062768 0.382146
O O10 0.000000 0.132994 0.250000
O O11 0.135933 0.131476 0.069670
O O12 0.161576 0.484870 0.368065
O O13 0.215904 0.587395 0.632023
O O14 0.071089 0.689155 0.412148
O O15 0.000000 0.500000 0.500000
O O16 0.000000 0.870116 0.250000
#
# Coordination Sequence:
#
# PCOD9230970 Si02
#       7
#     4   4   4   4   4   4   4
#     4  11  23  44  65  89 126 169 217 272 324 383
#     4  12  24  43  65  93 127 168 217 271 331 394
#     4  10  20  38  61  93 132 168 210 270 330 388
#     4  11  21  39  66  97 131 171 215 265 324 393
#     4  10  22  38  63  95 128 170 217 265 322 387
#     4  11  23  39  63  96 131 171 217 272 328 395
#     4  11  24  41  67  95 123 169 219 267 325 402
#
# _framework density 23.398546
#
# number of rings (size 3 to 8) (size 9 to 14) (size 15 to 20)
#    0.000    1.143    0.000    9.000    0.000    4.000 
#    0.000    7.143    0.000    1.714    0.000    1.000 
#    0.000    0.000    0.000    0.000    0.000    0.000 
#
# Total GULP energy -156598.651685 kJ/mol
# GULP energy per Si atom -5592.808989 kJ/mol
# Density = 2.334529 g / cm^3
# Si number density = 23.398546 Si / 1000 Ang^3
#
#
#
# Elastic Constant Matrix: (Units=GPa)
#
#
# Indices 1 2 3 4 5 6 
#
# 1 99.5459 -9.9227 31.6114 0.0000 19.9350 0.0000
# 2 -9.9227 27.5743 12.9228 0.0000 -10.4614 0.0000
# 3 31.6114 12.9228 127.5768 0.0000 16.6135 0.0000
# 4 0.0000 0.0000 0.0000 24.4556 0.0000 -0.1029
# 5 19.9350 -10.4614 16.6135 0.0000 45.4882 0.0000
# 6 0.0000 0.0000 0.0000 -0.1029 0.0000 -21.4827
#
#
#
# Elastic Compliance Matrix: (Units=1/GPa)
#
#
# Indices 1 2 3 4 5 6 
#
# 1 0.012102 0.004600 -0.003057 0.000000 -0.003129 0.000000
# 2 0.004600 0.045491 -0.007190 0.000000 0.011072 0.000000
# 3 -0.003057 -0.007190 0.009833 0.000000 -0.003905 0.000000
# 4 0.000000 0.000000 0.000000 0.040890 0.000000 -0.000196
# 5 -0.003129 0.011072 -0.003905 0.000000 0.027327 0.000000
# 6 0.000000 0.000000 0.000000 -0.000196 0.000000 -0.046548
#
#
# Mechanical properties :
#
#
# Convention : Reuss Voigt Hill
#
# Bulk Modulus (GPa) = 17.81498 35.99113 26.90306
# Shear Modulus (GPa) = 41.98233 24.36460 33.17346
#
# Velocity S-wave (km/s) = 4.24043 3.23040 3.76940
# Velocity P-wave (km/s) = 5.62185 5.41564 5.51971
#
# Compressibility (1/GPa) = 0.05613254
#
# Stress axis : x y z
#
# Youngs Moduli (GPa) = 82.63383 21.98235 101.70149
#
# Poissons Ratio (x) = -0.10113 0.31091
# Poissons Ratio (y) = -0.38015 0.73120
# Poissons Ratio (z) = 0.25262 0.15805
#
# Static dielectric constant tensor:
#      x y z
#    x 1.914830 0.000000 0.042490 
#    y 0.000000 1.961250 0.000000 
#    z 0.042490 0.000000 1.930650 
# 
# From -- ./inp_files/33308.got.cif
#   From: 2010.05.17/outbox.cif.g08.bks.cpg/sg13_17_cif.got.tgz:33308.got - 2010.06.03 16:44:36.
