data_PCOD9230963
_publ_section_title
;
Structure prediction by ZEFSAII (Michael W. Deem and Ramdas Pophale) SiO2 
 PCOD9230963
Probable space group: P 2/C
;
_chemical_formula_sum "Si O2"
_cell_formula_units_Z 32
_cell_length_a 13.262900
_cell_length_b 8.681376
_cell_length_c 13.803464
_cell_angle_alpha 90.000000
_cell_angle_beta 76.573437
_cell_angle_gamma 90.000000
_cell_volume 1545.894760
_symmetry_space_group_name_H-M "P 2/C"
_symmetry_group_IT_number 13
_symmetry_cell_setting 'monoclinic'
loop_
_space_group_symop_operation_xyz
x,y,z
-x,y,1/2-z
-x,-y,-z
x,-y,1/2+z
loop_
_atom_site_type_symbol
_atom_site_label
_atom_site_fract_x
_atom_site_fract_y
_atom_site_fract_z
Si Si1 0.029196 0.993434 0.133145
Si Si2 0.210396 0.223095 0.034023
Si Si3 0.179386 0.235129 0.663434
Si Si4 0.709359 0.720331 0.689550
Si Si5 0.406794 0.311300 0.090922
Si Si6 0.878608 0.425375 0.289068
Si Si7 0.638004 0.359553 0.002095
Si Si8 0.800364 0.951627 0.148475
O O1 0.080090 0.823999 0.125102
O O2 0.000000 0.033433 0.250000
O O3 0.920423 0.000386 0.102533
O O4 0.123478 0.100828 0.083275
O O5 0.321685 0.202283 0.059593
O O6 0.162520 0.376180 0.094502
O O7 0.225232 0.189177 0.917783
O O8 0.148284 0.396427 0.717672
O O9 0.279547 0.260715 0.575823
O O10 0.202260 0.112365 0.742108
O O11 0.619330 0.696726 0.789459
O O12 0.812272 0.669148 0.725255
O O13 0.684957 0.621874 0.599410
O O14 0.728464 0.898238 0.655076
O O15 0.526020 0.280781 0.041039
O O16 0.381836 0.480748 0.051106
O O17 0.000000 0.398681 0.250000
#
# Coordination Sequence:
#
# PCOD9230963 Si02
#       8
#     4   4   4   4   4   4   4   4
#     4  10  20  38  61  88 133 178 206 252 324 389
#     4  11  21  39  63  94 122 172 217 256 316 383
#     4  11  22  40  60  95 129 168 213 263 320 372
#     4  11  23  43  67  95 123 172 215 258 316 391
#     4  10  23  43  66  93 126 162 215 271 328 370
#     4  11  22  38  63  96 132 165 215 270 311 374
#     4  11  23  43  67  93 123 169 210 272 328 369
#     4  11  24  40  63  93 137 174 207 256 322 394
#
# _framework density 20.699985000000002
#
# number of rings (size 3 to 8) (size 9 to 14) (size 15 to 20)
#    0.000    1.250    2.500    6.750    1.750    1.000 
#    0.000    9.375    0.000    0.000    0.000    0.000 
#    0.000    0.000    0.000    0.000    0.000    0.000 
#
# Total GULP energy -178628.041124 kJ/mol
# GULP energy per Si atom -5582.126285 kJ/mol
# Density = 2.065287 g / cm^3
# Si number density = 20.699985 Si / 1000 Ang^3
#
#
#
# Elastic Constant Matrix: (Units=GPa)
#
#
# Indices 1 2 3 4 5 6 
#
# 1 116.4939 10.6412 51.1769 0.0000 -25.4691 0.0000
# 2 10.6412 54.5344 10.6145 0.0000 -3.4180 0.0000
# 3 51.1769 10.6145 85.5798 0.0000 -15.4673 0.0000
# 4 0.0000 0.0000 0.0000 16.9433 0.0000 -6.9889
# 5 -25.4691 -3.4180 -15.4673 0.0000 27.8424 0.0000
# 6 0.0000 0.0000 0.0000 -6.9889 0.0000 27.0212
#
#
#
# Elastic Compliance Matrix: (Units=1/GPa)
#
#
# Indices 1 2 3 4 5 6 
#
# 1 0.013302 -0.000832 -0.006303 0.000000 0.008564 0.000000
# 2 -0.000832 0.018874 -0.001737 0.000000 0.000591 0.000000
# 3 -0.006303 -0.001737 0.016217 0.000000 0.003030 0.000000
# 4 0.000000 0.000000 0.000000 0.066069 0.000000 0.017088
# 5 0.008564 0.000591 0.003030 0.000000 0.045506 0.000000
# 6 0.000000 0.000000 0.000000 0.017088 0.000000 0.041428
#
#
# Mechanical properties :
#
#
# Convention : Reuss Voigt Hill
#
# Bulk Modulus (GPa) = 32.62679 44.60812 38.61746
# Shear Modulus (GPa) = 21.80008 26.63975 24.21991
#
# Velocity S-wave (km/s) = 3.24874 3.59129 3.42430
# Velocity P-wave (km/s) = 5.46520 6.22841 5.85925
#
# Compressibility (1/GPa) = 0.03064966
#
# Stress axis : x y z
#
# Youngs Moduli (GPa) = 75.17891 52.98165 61.66185
#
# Poissons Ratio (x) = 0.04407 0.38868
# Poissons Ratio (y) = 0.06254 0.10709
# Poissons Ratio (z) = 0.47388 0.09201
#
# Static dielectric constant tensor:
#      x y z
#    x 1.734050 0.000000 0.001270 
#    y 0.000000 1.767260 0.000000 
#    z 0.001270 0.000000 1.773180 
# 
# From -- ./inp_files/50338.got.cif
#   From: 2010.05.17/outbox.cif.g08.bks.cpg/sg13_26_cif.got.tgz:50338.got - 2010.06.03 16:44:36.
