data_PCOD9230572
_publ_section_title
;
Structure prediction by ZEFSAII (Michael W. Deem and Ramdas Pophale) SiO2 
 PCOD9230572
Probable space group: P 2/C
;
_chemical_formula_sum "Si O2"
_cell_formula_units_Z 32
_cell_length_a 13.003914
_cell_length_b 7.279229
_cell_length_c 14.919607
_cell_angle_alpha 90.000000
_cell_angle_beta 118.611210
_cell_angle_gamma 90.000000
_cell_volume 1239.814214
_symmetry_space_group_name_H-M "P 2/C"
_symmetry_group_IT_number 13
_symmetry_cell_setting 'monoclinic'
loop_
_space_group_symop_operation_xyz
x,y,z
-x,y,1/2-z
-x,-y,-z
x,-y,1/2+z
loop_
_atom_site_type_symbol
_atom_site_label
_atom_site_fract_x
_atom_site_fract_y
_atom_site_fract_z
Si Si1 0.460644 0.064749 0.081436
Si Si2 0.214453 0.988065 0.557960
Si Si3 0.893703 0.460276 0.137669
Si Si4 0.546483 0.482269 0.370764
Si Si5 0.702222 0.103007 0.226371
Si Si6 0.698687 0.520361 0.183255
Si Si7 0.799960 0.603283 0.419531
Si Si8 0.878410 0.012886 0.158157
O O1 0.436553 0.282994 0.078218
O O2 0.574239 0.022572 0.189989
O O3 0.341532 0.978162 0.066524
O O4 0.500000 0.000000 0.000000
O O5 0.167750 0.182868 0.571260
O O6 0.139057 0.918850 0.444325
O O7 0.231047 0.867871 0.652709
O O8 0.781163 0.559633 0.134285
O O9 0.881837 0.235581 0.142696
O O10 0.000000 0.506092 0.250000
O O11 0.889975 0.488192 0.028456
O O12 0.500000 0.447913 0.250000
O O13 0.435912 0.588737 0.369071
O O14 0.672044 0.576508 0.413627
O O15 0.681316 0.299823 0.173916
O O16 0.776257 0.984044 0.187885
O O17 0.772078 0.551213 0.305310
O O18 0.000000 0.957155 0.250000
#
# Coordination Sequence:
#
# PCOD9230572 Si02
#       8
#     4   4   4   4   4   4   4   4
#     4  11  20  35  56  84 111 148 183 219 271 339
#     4  11  21  35  57  85 113 140 186 232 272 325
#     4   9  19  36  57  77 106 148 188 223 270 331
#     4   9  19  36  56  78 113 147 179 214 273 338
#     4  10  20  37  59  80 111 150 182 222 277 337
#     4   9  19  37  57  78 108 147 182 215 275 337
#     4  10  21  36  55  85 111 141 183 230 273 320
#     4   9  19  37  57  80 109 146 189 227 275 336
#
# _framework density 25.810317000000001
#
# number of rings (size 3 to 8) (size 9 to 14) (size 15 to 20)
#    0.000    2.250    1.250    2.625    1.750    4.500 
#    2.250    0.000    0.000    5.250    0.000    0.000 
#    0.000    0.000    0.000    0.000    0.000    0.000 
#
# Total GULP energy -178894.060820 kJ/mol
# GULP energy per Si atom -5590.439401 kJ/mol
# Density = 2.575157 g / cm^3
# Si number density = 25.810317 Si / 1000 Ang^3
#
#
#
# Elastic Constant Matrix: (Units=GPa)
#
#
# Indices 1 2 3 4 5 6 
#
# 1 25.4797 -2.2658 5.3239 0.0000 -3.5637 0.0000
# 2 -2.2658 63.5331 1.8218 0.0000 -5.0224 0.0000
# 3 5.3239 1.8218 145.0978 0.0000 10.5089 0.0000
# 4 0.0000 0.0000 0.0000 33.5970 0.0000 -12.9197
# 5 -3.5637 -5.0224 10.5089 0.0000 35.2136 0.0000
# 6 0.0000 0.0000 0.0000 -12.9197 0.0000 20.7887
#
#
#
# Elastic Compliance Matrix: (Units=1/GPa)
#
#
# Indices 1 2 3 4 5 6 
#
# 1 0.040493 0.001887 -0.001866 0.000000 0.004924 0.000000
# 2 0.001887 0.016027 -0.000460 0.000000 0.002614 0.000000
# 3 -0.001866 -0.000460 0.007139 0.000000 -0.002385 0.000000
# 4 0.000000 0.000000 0.000000 0.039112 0.000000 0.024307
# 5 0.004924 0.002614 -0.002385 0.000000 0.029981 0.000000
# 6 0.000000 0.000000 0.000000 0.024307 0.000000 0.063209
#
#
# Mechanical properties :
#
#
# Convention : Reuss Voigt Hill
#
# Bulk Modulus (GPa) = 15.92833 27.09672 21.51253
# Shear Modulus (GPa) = 22.96040 33.20191 28.08116
#
# Velocity S-wave (km/s) = 2.98582 3.59051 3.30204
# Velocity P-wave (km/s) = 4.25106 5.26405 4.78444
#
# Compressibility (1/GPa) = 0.06278120
#
# Stress axis : x y z
#
# Youngs Moduli (GPa) = 24.69539 62.39494 140.07800
#
# Poissons Ratio (x) = -0.11773 0.26140
# Poissons Ratio (y) = -0.04660 0.06441
# Poissons Ratio (z) = 0.04608 0.02869
#
# Static dielectric constant tensor:
#      x y z
#    x 2.052190 0.000000 0.001070 
#    y 0.000000 2.005850 0.000000 
#    z 0.001070 0.000000 2.074130 
# 
# From -- ./inp_files/53091.got.cif
#   From: 2010.05.17/outbox.cif.g08.bks.cpg/sg13_27_cif.got.tgz:53091.got - 2010.06.03 16:44:36.
