data_PCOD9230285
_publ_section_title
;
Structure prediction by ZEFSAII (Michael W. Deem and Ramdas Pophale) SiO2 
 PCOD9230285
Probable space group: P 2/C
;
_chemical_formula_sum "Si O2"
_cell_formula_units_Z 28
_cell_length_a 9.791837
_cell_length_b 13.987477
_cell_length_c 24.181677
_cell_angle_alpha 90.000000
_cell_angle_beta 24.990208
_cell_angle_gamma 90.000000
_cell_volume 1399.197533
_symmetry_space_group_name_H-M "P 2/C"
_symmetry_group_IT_number 13
_symmetry_cell_setting 'monoclinic'
loop_
_space_group_symop_operation_xyz
x,y,z
-x,y,1/2-z
-x,-y,-z
x,-y,1/2+z
loop_
_atom_site_type_symbol
_atom_site_label
_atom_site_fract_x
_atom_site_fract_y
_atom_site_fract_z
Si Si1 0.781978 0.549891 0.034710
Si Si2 0.910809 0.547617 0.698309
Si Si3 0.588133 0.722128 0.281844
Si Si4 0.154944 0.250697 0.136340
Si Si5 0.757505 0.914098 0.284734
Si Si6 0.759343 0.953313 0.946860
Si Si7 0.837584 0.357888 0.868374
O O1 0.442604 0.493086 0.158266
O O2 0.683860 0.657214 0.088791
O O3 0.000000 0.500000 0.000000
O O4 0.976964 0.548280 0.906423
O O5 0.929372 0.657847 0.708290
O O6 0.161119 0.473262 0.635036
O O7 0.500000 0.735451 0.250000
O O8 0.665057 0.817175 0.287805
O O9 0.920169 0.663434 0.169750
O O10 0.176618 0.157982 0.089585
O O11 0.000000 0.210841 0.250000
O O12 0.509147 0.301151 0.001226
O O13 0.425687 0.959606 0.427881
O O14 0.000000 0.900823 0.250000
O O15 0.929350 0.983790 0.178538
O O16 0.500000 0.000000 0.000000
O O17 0.000000 0.327253 0.750000
#
# Coordination Sequence:
#
# PCOD9230285 Si02
#       7
#     4   4   4   4   4   4   4
#     4  11  22  40  59  83 120 164 203 239 290 361
#     4  11  22  36  58  89 121 156 199 249 293 346
#     4  11  23  39  62  87 116 161 206 242 292 362
#     4  12  22  34  56  91 123 150 190 250 303 344
#     4  10  20  39  64  89 116 151 197 248 297 350
#     4  10  20  36  59  87 115 150 192 241 299 358
#     4  11  21  38  60  88 124 162 198 241 296 361
#
# _framework density 20.011469999999999
#
# number of rings (size 3 to 8) (size 9 to 14) (size 15 to 20)
#    0.000    1.143    0.000   10.714    0.000    0.000 
#    0.000    0.714    0.000    1.714    0.000    0.000 
#    0.000    0.000    0.000    0.000    0.000    0.000 
#
# Total GULP energy -156187.853008 kJ/mol
# GULP energy per Si atom -5578.137607 kJ/mol
# Density = 1.996592 g / cm^3
# Si number density = 20.011470 Si / 1000 Ang^3
#
#
#
# Elastic Constant Matrix: (Units=GPa)
#
#
# Indices 1 2 3 4 5 6 
#
# 1 71.9989 13.0710 17.1363 0.0000 5.0995 0.0000
# 2 13.0710 116.8811 15.3278 0.0000 -8.9087 0.0000
# 3 17.1363 15.3278 73.9856 0.0000 11.3035 0.0000
# 4 0.0000 0.0000 0.0000 36.9739 0.0000 1.5630
# 5 5.0995 -8.9087 11.3035 0.0000 29.5242 0.0000
# 6 0.0000 0.0000 0.0000 1.5630 0.0000 18.8816
#
#
#
# Elastic Compliance Matrix: (Units=1/GPa)
#
#
# Indices 1 2 3 4 5 6 
#
# 1 0.014972 -0.001444 -0.002875 0.000000 -0.001921 0.000000
# 2 -0.001444 0.009301 -0.002187 0.000000 0.003893 0.000000
# 3 -0.002875 -0.002187 0.015571 0.000000 -0.006125 0.000000
# 4 0.000000 0.000000 0.000000 0.027141 0.000000 -0.002247
# 5 -0.001921 0.003893 -0.006125 0.000000 0.037722 0.000000
# 6 0.000000 0.000000 0.000000 -0.002247 0.000000 0.053147
#
#
# Mechanical properties :
#
#
# Convention : Reuss Voigt Hill
#
# Bulk Modulus (GPa) = 37.27014 39.32620 38.29817
# Shear Modulus (GPa) = 27.80719 31.56464 29.68591
#
# Velocity S-wave (km/s) = 3.73173 3.97587 3.85573
# Velocity P-wave (km/s) = 6.10185 6.38523 6.24515
#
# Compressibility (1/GPa) = 0.02683113
#
# Stress axis : x y z
#
# Youngs Moduli (GPa) = 66.79339 107.51849 64.22202
#
# Poissons Ratio (x) = 0.15522 0.18465
# Poissons Ratio (y) = 0.09643 0.14047
# Poissons Ratio (z) = 0.19204 0.23517
#
# Static dielectric constant tensor:
#      x y z
#    x 1.525240 0.000000 0.013290 
#    y 0.000000 1.787450 0.000000 
#    z 0.013290 0.000000 1.740090 
# 
# From -- ./inp_files/76690.got.cif
#   From: 2010.05.17/outbox.cif.g08.bks.cpg/sg13_39_cif.got.tgz:76690.got - 2010.06.03 16:44:36.
