data_PCOD9230854
_publ_section_title
;
Structure prediction by ZEFSAII (Michael W. Deem and Ramdas Pophale) SiO2 
 PCOD9230854
Probable space group: P 2/C
;
_chemical_formula_sum "Si O2"
_cell_formula_units_Z 22
_cell_length_a 11.820301
_cell_length_b 10.459449
_cell_length_c 13.308944
_cell_angle_alpha 90.000000
_cell_angle_beta 49.040211
_cell_angle_gamma 90.000000
_cell_volume 1242.583461
_symmetry_space_group_name_H-M "P 2/C"
_symmetry_group_IT_number 13
_symmetry_cell_setting 'monoclinic'
loop_
_space_group_symop_operation_xyz
x,y,z
-x,y,1/2-z
-x,-y,-z
x,-y,1/2+z
loop_
_atom_site_type_symbol
_atom_site_label
_atom_site_fract_x
_atom_site_fract_y
_atom_site_fract_z
Si Si1 0.057016 0.086378 0.605613
Si Si2 0.829642 0.662796 0.392150
Si Si3 0.835575 0.459348 0.558939
Si Si4 0.596119 0.413759 0.866795
Si Si5 0.500000 0.235746 0.750000
Si Si6 0.176287 0.158993 0.927087
O O1 0.170969 0.205668 0.544598
O O2 0.000000 0.067467 0.750000
O O3 0.919116 0.132389 0.617163
O O4 0.121145 0.952791 0.531294
O O5 0.798459 0.544278 0.483743
O O6 0.710556 0.664375 0.371546
O O7 0.000000 0.649334 0.250000
O O8 0.710208 0.479156 0.719267
O O9 0.845961 0.307659 0.530886
O O10 0.000000 0.500000 0.500000
O O11 0.493825 0.326423 0.852941
O O12 0.500000 0.500000 0.000000
O O13 0.354398 0.151630 0.816011
#
# Coordination Sequence:
#
# PCOD9230854 Si02
#       6
#     4   4   4   4   2   4
#     4  10  20  38  58  84 112 150 197 242 284 339
#     4  11  20  36  62  86 114 154 198 242 294 347
#     4  11  19  37  61  89 114 151 196 243 287 343
#     4  11  22  37  57  88 123 153 189 245 301 349
#     4  10  20  40  56  80 120 158 186 230 306 350
#     4  10  21  37  59  82 116 151 190 238 291 345
#
# _framework density 17.705048000000001
#
# number of rings (size 3 to 8) (size 9 to 14) (size 15 to 20)
#    0.000    1.455    3.636    5.455    0.000    0.727 
#    3.273    5.455    0.000    0.000    0.000    0.000 
#    0.000    0.000    0.000    0.000    0.000    0.000 
#
# Total GULP energy -122586.913077 kJ/mol
# GULP energy per Si atom -5572.132413 kJ/mol
# Density = 1.766475 g / cm^3
# Si number density = 17.705048 Si / 1000 Ang^3
#
#
#
# Elastic Constant Matrix: (Units=GPa)
#
#
# Indices 1 2 3 4 5 6 
#
# 1 100.4777 48.7868 29.5173 0.0000 8.7339 0.0000
# 2 48.7868 131.8656 68.6797 0.0000 9.4143 0.0000
# 3 29.5173 68.6797 90.6196 0.0000 8.2501 0.0000
# 4 0.0000 0.0000 0.0000 29.9658 0.0000 0.7132
# 5 8.7339 9.4143 8.2501 0.0000 34.9781 0.0000
# 6 0.0000 0.0000 0.0000 0.7132 0.0000 33.7138
#
#
#
# Elastic Compliance Matrix: (Units=1/GPa)
#
#
# Indices 1 2 3 4 5 6 
#
# 1 0.012287 -0.003995 -0.000810 0.000000 -0.001802 0.000000
# 2 -0.003995 0.013874 -0.009161 0.000000 -0.000576 0.000000
# 3 -0.000810 -0.009161 0.018394 0.000000 -0.001671 0.000000
# 4 0.000000 0.000000 0.000000 0.033388 0.000000 -0.000706
# 5 -0.001802 -0.000576 -0.001671 0.000000 0.029588 0.000000
# 6 0.000000 0.000000 0.000000 -0.000706 0.000000 0.029676
#
#
# Mechanical properties :
#
#
# Convention : Reuss Voigt Hill
#
# Bulk Modulus (GPa) = 60.16131 68.54785 64.35458
# Shear Modulus (GPa) = 29.29409 31.46346 30.37877
#
# Velocity S-wave (km/s) = 4.07204 4.22013 4.14675
# Velocity P-wave (km/s) = 7.49415 7.90864 7.70418
#
# Compressibility (1/GPa) = 0.01662198
#
# Stress axis : x y z
#
# Youngs Moduli (GPa) = 81.38704 72.07598 54.36414
#
# Poissons Ratio (x) = 0.28796 0.04405
# Poissons Ratio (y) = 0.32516 0.49805
# Poissons Ratio (z) = 0.06594 0.66032
#
# Static dielectric constant tensor:
#      x y z
#    x 1.621840 0.000000 -0.011470 
#    y 0.000000 1.622310 0.000000 
#    z -0.011470 0.000000 1.618100 
# 
# From -- ./inp_files/33084.got.cif
#   From: 2010.05.17/outbox.cif.g08.bks.cpg/sg13_17_cif.got.tgz:33084.got - 2010.06.03 16:44:36.
