data_PCOD9230732
_publ_section_title
;
Structure prediction by ZEFSAII (Michael W. Deem and Ramdas Pophale) SiO2 
 PCOD9230732
Probable space group: P 2/C
;
_chemical_formula_sum "Si O2"
_cell_formula_units_Z 24
_cell_length_a 11.056332
_cell_length_b 12.376639
_cell_length_c 16.437580
_cell_angle_alpha 90.000000
_cell_angle_beta 151.593104
_cell_angle_gamma 90.000000
_cell_volume 1070.070238
_symmetry_space_group_name_H-M "P 2/C"
_symmetry_group_IT_number 13
_symmetry_cell_setting 'monoclinic'
loop_
_space_group_symop_operation_xyz
x,y,z
-x,y,1/2-z
-x,-y,-z
x,-y,1/2+z
loop_
_atom_site_type_symbol
_atom_site_label
_atom_site_fract_x
_atom_site_fract_y
_atom_site_fract_z
Si Si1 0.630917 0.474153 0.239984
Si Si2 0.314633 0.855379 0.935270
Si Si3 0.898077 0.112663 0.473395
Si Si4 0.435768 0.930399 0.585182
Si Si5 0.267696 0.379543 0.451776
Si Si6 0.920292 0.669219 0.482474
O O1 0.500000 0.457195 0.250000
O O2 0.799410 0.369877 0.324450
O O3 0.816040 0.578237 0.359495
O O4 0.430014 0.511604 0.054447
O O5 0.460781 0.893173 0.940721
O O6 0.379794 0.729313 0.980665
O O7 0.000000 0.862490 0.750000
O O8 0.408049 0.939071 0.060174
O O9 0.826891 0.106744 0.526865
O O10 0.644478 0.117769 0.269109
O O11 0.069565 0.214209 0.551282
O O12 0.000000 0.000000 0.500000
O O13 0.000000 0.400685 0.250000
O O14 0.235682 0.341727 0.527054
#
# Coordination Sequence:
#
# PCOD9230732 Si02
#       6
#     4   4   4   4   4   4
#     4   9  21  39  62  87 115 161 204 254 310 363
#     4  10  20  39  58  82 127 165 195 241 306 381
#     4  11  22  36  59  94 120 155 205 253 292 368
#     4  10  22  35  57  89 120 165 193 246 311 352
#     4  10  20  37  63  88 114 161 206 253 305 366
#     4  10  21  39  61  85 123 159 200 255 312 356
#
# _framework density 22.428433999999999
#
# number of rings (size 3 to 8) (size 9 to 14) (size 15 to 20)
#    0.000    2.000    0.000    4.000    4.667    0.667 
#    0.000    0.000    0.000    1.000    0.000    0.000 
#    0.000    0.000    0.000    0.000    0.000    0.000 
#
# Total GULP energy -133838.010168 kJ/mol
# GULP energy per Si atom -5576.583757 kJ/mol
# Density = 2.237739 g / cm^3
# Si number density = 22.428434 Si / 1000 Ang^3
#
#
#
# Elastic Constant Matrix: (Units=GPa)
#
#
# Indices 1 2 3 4 5 6 
#
# 1 104.0046 14.7971 -3.8760 0.0000 5.2038 0.0000
# 2 14.7971 75.7192 8.0297 0.0000 9.3761 0.0000
# 3 -3.8760 8.0297 37.0288 0.0000 -5.9349 0.0000
# 4 0.0000 0.0000 0.0000 26.6397 0.0000 -2.7746
# 5 5.2038 9.3761 -5.9349 0.0000 24.2766 0.0000
# 6 0.0000 0.0000 0.0000 -2.7746 0.0000 10.2349
#
#
#
# Elastic Compliance Matrix: (Units=1/GPa)
#
#
# Indices 1 2 3 4 5 6 
#
# 1 0.009996 -0.001959 0.001300 0.000000 -0.001068 0.000000
# 2 -0.001959 0.014855 -0.004453 0.000000 -0.006406 0.000000
# 3 0.001300 -0.004453 0.029494 0.000000 0.008652 0.000000
# 4 0.000000 0.000000 0.000000 0.038629 0.000000 0.010472
# 5 -0.001068 -0.006406 0.008652 0.000000 0.046010 0.000000
# 6 0.000000 0.000000 0.000000 0.010472 0.000000 0.100544
#
#
# Mechanical properties :
#
#
# Convention : Reuss Voigt Hill
#
# Bulk Modulus (GPa) = 22.66513 28.29491 25.48002
# Shear Modulus (GPa) = 18.90654 25.41701 22.16178
#
# Velocity S-wave (km/s) = 2.90655 3.37003 3.14683
# Velocity P-wave (km/s) = 4.62509 5.27123 4.95870
#
# Compressibility (1/GPa) = 0.04412063
#
# Stress axis : x y z
#
# Youngs Moduli (GPa) = 100.04451 67.31750 33.90479
#
# Poissons Ratio (x) = 0.13187 -0.04407
# Poissons Ratio (y) = 0.19598 0.15098
# Poissons Ratio (z) = -0.13004 0.29977
#
# Static dielectric constant tensor:
#      x y z
#    x 1.908870 0.000000 0.074930 
#    y 0.000000 1.811470 0.000000 
#    z 0.074930 0.000000 1.897910 
# 
# From -- ./inp_files/66717.got.cif
#   From: 2010.05.17/outbox.cif.g08.bks.cpg/sg13_34_cif.got.tgz:66717.got - 2010.06.03 16:44:36.
