data_PCOD9230523
_publ_section_title
;
Structure prediction by ZEFSAII (Michael W. Deem and Ramdas Pophale) SiO2 
 PCOD9230523
Probable space group: P 2/C
;
_chemical_formula_sum "Si O2"
_cell_formula_units_Z 32
_cell_length_a 20.267016
_cell_length_b 14.867275
_cell_length_c 8.501666
_cell_angle_alpha 90.000000
_cell_angle_beta 43.813623
_cell_angle_gamma 90.000000
_cell_volume 1773.490301
_symmetry_space_group_name_H-M "P 2/C"
_symmetry_group_IT_number 13
_symmetry_cell_setting 'monoclinic'
loop_
_space_group_symop_operation_xyz
x,y,z
-x,y,1/2-z
-x,-y,-z
x,-y,1/2+z
loop_
_atom_site_type_symbol
_atom_site_label
_atom_site_fract_x
_atom_site_fract_y
_atom_site_fract_z
Si Si1 0.329388 0.014171 0.344448
Si Si2 0.397655 0.866178 0.459544
Si Si3 0.885312 0.727349 0.906925
Si Si4 0.106960 0.368557 0.616568
Si Si5 0.805746 0.214700 0.213632
Si Si6 0.101240 0.548101 0.480011
Si Si7 0.932811 0.955876 0.484908
Si Si8 0.207894 0.098367 0.815098
O O1 0.244751 0.066980 0.581396
O O2 0.388503 0.954115 0.363438
O O3 0.285603 0.940388 0.301145
O O4 0.385895 0.090200 0.152391
O O5 0.500000 0.824051 0.250000
O O6 0.307610 0.801203 0.583415
O O7 0.860001 0.741624 0.768849
O O8 0.000000 0.735886 0.750000
O O9 0.849202 0.629010 0.014810
O O10 0.824314 0.800331 0.107970
O O11 0.167703 0.278107 0.480746
O O12 0.141326 0.448778 0.440031
O O13 0.098747 0.414632 0.804912
O O14 0.000000 0.343827 0.750000
O O15 0.847005 0.112967 0.157318
O O16 0.000000 0.543075 0.750000
O O17 0.886024 0.041590 0.483339
O O18 0.000000 0.000000 0.500000
O O19 0.000000 0.903211 0.250000
#
# Coordination Sequence:
#
# PCOD9230523 Si02
#       8
#     4   4   4   4   4   4   4   4
#     4  10  20  37  56  75 107 145 189 243 285 331
#     4  11  23  40  60  80 106 148 199 250 297 334
#     4  11  21  34  52  80 116 157 188 224 276 330
#     4  11  21  37  57  84 117 154 192 233 282 337
#     4  12  23  37  55  82 117 151 194 241 284 341
#     4  10  21  36  57  81 117 155 195 233 271 338
#     4  12  23  32  48  74 115 159 188 218 269 332
#     4  11  19  33  51  74 114 148 188 227 268 331
#
# _framework density 18.043516
#
# number of rings (size 3 to 8) (size 9 to 14) (size 15 to 20)
#    0.000    1.000    3.750    7.125    1.750    0.000 
#    0.000    0.000    0.000    0.000    0.000    3.500 
#    0.000    0.000    0.000    0.000    0.000    0.000 
#
# Total GULP energy -178237.632633 kJ/mol
# GULP energy per Si atom -5569.926020 kJ/mol
# Density = 1.800245 g / cm^3
# Si number density = 18.043516 Si / 1000 Ang^3
#
#
#
# Elastic Constant Matrix: (Units=GPa)
#
#
# Indices 1 2 3 4 5 6 
#
# 1 47.3827 7.6398 32.6477 0.0000 0.0579 0.0000
# 2 7.6398 90.8771 21.5859 0.0000 -5.6639 0.0000
# 3 32.6477 21.5859 85.6175 0.0000 -7.1367 0.0000
# 4 0.0000 0.0000 0.0000 25.9216 0.0000 5.8622
# 5 0.0579 -5.6639 -7.1367 0.0000 28.3460 0.0000
# 6 0.0000 0.0000 0.0000 5.8622 0.0000 2.3495
#
#
#
# Elastic Compliance Matrix: (Units=1/GPa)
#
#
# Indices 1 2 3 4 5 6 
#
# 1 0.028856 0.000069 -0.011261 0.000000 -0.002880 0.000000
# 2 0.000069 0.011779 -0.002860 0.000000 0.001633 0.000000
# 3 -0.011261 -0.002860 0.017006 0.000000 0.003733 0.000000
# 4 0.000000 0.000000 0.000000 0.088538 0.000000 -0.220916
# 5 -0.002880 0.001633 0.003733 0.000000 0.036551 0.000000
# 6 0.000000 0.000000 0.000000 -0.220916 0.000000 0.976847
#
#
# Mechanical properties :
#
#
# Convention : Reuss Voigt Hill
#
# Bulk Modulus (GPa) = 33.85453 38.62492 36.23972
# Shear Modulus (GPa) = 4.17527 22.12367 13.14947
#
# Velocity S-wave (km/s) = 1.52283 3.50541 2.70249
# Velocity P-wave (km/s) = 4.67926 6.15117 5.46500
#
# Compressibility (1/GPa) = 0.02953815
#
# Stress axis : x y z
#
# Youngs Moduli (GPa) = 34.65465 84.89549 58.80218
#
# Poissons Ratio (x) = -0.00589 0.66217
# Poissons Ratio (y) = -0.00241 0.16818
# Poissons Ratio (z) = 0.39025 0.24281
#
# Static dielectric constant tensor:
#      x y z
#    x 1.660850 0.000000 0.033240 
#    y 0.000000 1.634110 0.000000 
#    z 0.033240 0.000000 1.666650 
# 
# From -- ./inp_files/23537.got.cif
#   From: 2010.05.17/outbox.cif.g08.bks.cpg/sg13_12_cif.got.tgz:23537.got - 2010.06.03 16:44:36.
