data_PCOD9230831
_publ_section_title
;
Structure prediction by ZEFSAII (Michael W. Deem and Ramdas Pophale) SiO2 
 PCOD9230831
Probable space group: P 2/C
;
_chemical_formula_sum "Si O2"
_cell_formula_units_Z 26
_cell_length_a 5.545766
_cell_length_b 10.972228
_cell_length_c 19.332735
_cell_angle_alpha 90.000000
_cell_angle_beta 71.682458
_cell_angle_gamma 90.000000
_cell_volume 1116.777221
_symmetry_space_group_name_H-M "P 2/C"
_symmetry_group_IT_number 13
_symmetry_cell_setting 'monoclinic'
loop_
_space_group_symop_operation_xyz
x,y,z
-x,y,1/2-z
-x,-y,-z
x,-y,1/2+z
loop_
_atom_site_type_symbol
_atom_site_label
_atom_site_fract_x
_atom_site_fract_y
_atom_site_fract_z
Si Si1 0.436897 0.416956 0.572577
Si Si2 0.920197 0.962099 0.119817
Si Si3 0.500000 0.030428 0.750000
Si Si4 0.017030 0.640272 0.471774
Si Si5 0.711983 0.412604 0.290657
Si Si6 0.271667 0.856136 0.650956
Si Si7 0.731945 0.869218 0.520302
O O1 0.500000 0.500000 0.500000
O O2 0.684374 0.333663 0.562558
O O3 0.405528 0.504078 0.639655
O O4 0.165261 0.359182 0.578766
O O5 0.726790 0.897930 0.190203
O O6 0.789152 0.012926 0.062335
O O7 0.010875 0.081222 0.153142
O O8 0.170041 0.897924 0.065775
O O9 0.394934 0.944735 0.697646
O O10 0.000000 0.500000 0.500000
O O11 0.888378 0.747527 0.528538
O O12 0.500000 0.410574 0.250000
O O13 0.746933 0.276424 0.315880
O O14 0.000000 0.456687 0.250000
O O15 0.442220 0.844622 0.565971
#
# Coordination Sequence:
#
# PCOD9230831 Si02
#       7
#     4   4   2   4   4   4   4
#     4  10  22  40  63  93 127 175 220 263 334 397
#     4  10  22  38  62  91 129 173 208 286 327 408
#     4  10  20  38  56  88 124 166 220 252 336 404
#     4  10  21  38  63  94 124 170 214 272 325 391
#     4  12  25  40  67 101 138 177 221 291 350 407
#     4  11  21  37  61  93 132 168 213 272 348 402
#     4  10  23  38  62  97 127 161 233 268 339 393
#
# _framework density 23.281279999999999
#
# number of rings (size 3 to 8) (size 9 to 14) (size 15 to 20)
#    0.000    1.538    0.769    4.615    8.615    0.000 
#    0.000    0.000    5.077    0.000    0.000    0.000 
#    0.000    0.000    0.000    0.000    0.000    0.000 
#
# Total GULP energy -145034.609312 kJ/mol
# GULP energy per Si atom -5578.254204 kJ/mol
# Density = 2.322829 g / cm^3
# Si number density = 23.281280 Si / 1000 Ang^3
#
#
#
# Elastic Constant Matrix: (Units=GPa)
#
#
# Indices 1 2 3 4 5 6 
#
# 1 123.5966 4.5161 38.9848 0.0000 -14.2305 0.0000
# 2 4.5161 50.2215 20.5154 0.0000 6.6957 0.0000
# 3 38.9848 20.5154 162.4964 0.0000 -30.3504 0.0000
# 4 0.0000 0.0000 0.0000 6.4287 0.0000 -6.0627
# 5 -14.2305 6.6957 -30.3504 0.0000 34.3201 0.0000
# 6 0.0000 0.0000 0.0000 -6.0627 0.0000 11.5638
#
#
#
# Elastic Compliance Matrix: (Units=1/GPa)
#
#
# Indices 1 2 3 4 5 6 
#
# 1 0.008893 -0.000436 -0.001646 0.000000 0.002317 0.000000
# 2 -0.000436 0.022872 -0.004372 0.000000 -0.008510 0.000000
# 3 -0.001646 -0.004372 0.008544 0.000000 0.007726 0.000000
# 4 0.000000 0.000000 0.000000 0.307681 0.000000 0.161312
# 5 0.002317 -0.008510 0.007726 0.000000 0.038591 0.000000
# 6 0.000000 0.000000 0.000000 0.161312 0.000000 0.171050
#
#
# Mechanical properties :
#
#
# Convention : Reuss Voigt Hill
#
# Bulk Modulus (GPa) = 36.49679 51.59412 44.04545
# Shear Modulus (GPa) = 8.62557 28.61574 18.62065
#
# Velocity S-wave (km/s) = 1.92691 3.50970 2.83116
# Velocity P-wave (km/s) = 4.54545 6.21557 5.44493
#
# Compressibility (1/GPa) = 0.02739967
#
# Stress axis : x y z
#
# Youngs Moduli (GPa) = 112.45287 43.72226 117.04294
#
# Poissons Ratio (x) = 0.01908 0.19260
# Poissons Ratio (y) = 0.04907 0.51175
# Poissons Ratio (z) = 0.18505 0.19117
#
# Static dielectric constant tensor:
#      x y z
#    x -2.626930 0.000000 -0.285670 
#    y 0.000000 1.934380 0.000000 
#    z -0.285670 0.000000 1.884410 
# 
# From -- ./inp_files/73523.got.cif
#   From: 2010.05.17/outbox.cif.g08.bks.cpg/sg13_37_cif.got.tgz:73523.got - 2010.06.03 16:44:36.
