data_PCOD9230673
_publ_section_title
;
Structure prediction by ZEFSAII (Michael W. Deem and Ramdas Pophale) SiO2 
 PCOD9230673
Probable space group: P 2/C
;
_chemical_formula_sum "Si O2"
_cell_formula_units_Z 20
_cell_length_a 9.846718
_cell_length_b 5.177095
_cell_length_c 24.291373
_cell_angle_alpha 90.000000
_cell_angle_beta 37.652271
_cell_angle_gamma 90.000000
_cell_volume 756.444155
_symmetry_space_group_name_H-M "P 2/C"
_symmetry_group_IT_number 13
_symmetry_cell_setting 'monoclinic'
loop_
_space_group_symop_operation_xyz
x,y,z
-x,y,1/2-z
-x,-y,-z
x,-y,1/2+z
loop_
_atom_site_type_symbol
_atom_site_label
_atom_site_fract_x
_atom_site_fract_y
_atom_site_fract_z
Si Si1 0.158110 0.678231 0.279224
Si Si2 0.244801 0.482795 0.637267
Si Si3 0.338960 0.825465 0.516920
Si Si4 0.260784 0.424209 0.356317
Si Si5 0.354220 0.915024 0.390745
O O1 0.211802 0.475406 0.212556
O O2 0.125773 0.552081 0.349372
O O3 0.373798 0.873176 0.206777
O O4 0.913317 0.751002 0.334658
O O5 0.187432 0.703827 0.612458
O O6 0.503309 0.412761 0.552441
O O7 0.285747 0.958814 0.476167
O O8 0.500000 0.000000 0.500000
O O9 0.500000 0.427107 0.250000
O O10 0.256881 0.637589 0.405011
O O11 0.252218 0.139379 0.385059
#
# Coordination Sequence:
#
# PCOD9230673 Si02
#       5
#     4   4   4   4   4
#     4   9  19  40  64  93 121 158 213 263 309 361
#     4   9  20  41  61  91 125 158 211 262 314 363
#     4  10  22  38  62  87 123 170 205 255 314 378
#     4  10  20  37  61  91 122 160 201 252 305 366
#     4  10  22  38  64  89 122 163 205 248 309 369
#
# _framework density 26.439489999999999
#
# number of rings (size 3 to 8) (size 9 to 14) (size 15 to 20)
#    0.000    2.400    0.000    1.800   11.200    0.000 
#   10.800    4.000    0.000    0.000    0.000    0.000 
#    0.000    0.000    0.000    0.000    0.000    0.000 
#
# Total GULP energy -111359.721070 kJ/mol
# GULP energy per Si atom -5567.986054 kJ/mol
# Density = 2.637931 g / cm^3
# Si number density = 26.439490 Si / 1000 Ang^3
#
#
#
# Elastic Constant Matrix: (Units=GPa)
#
#
# Indices 1 2 3 4 5 6 
#
# 1 118.6532 30.9311 36.1561 0.0000 35.1323 0.0000
# 2 30.9311 116.6753 43.2010 0.0000 11.5149 0.0000
# 3 36.1561 43.2010 91.4904 0.0000 36.9892 0.0000
# 4 0.0000 0.0000 0.0000 10.2611 0.0000 -12.6074
# 5 35.1323 11.5149 36.9892 0.0000 56.8914 0.0000
# 6 0.0000 0.0000 0.0000 -12.6074 0.0000 9.5089
#
#
#
# Elastic Compliance Matrix: (Units=1/GPa)
#
#
# Indices 1 2 3 4 5 6 
#
# 1 0.010943 -0.001923 -0.001142 0.000000 -0.005626 0.000000
# 2 -0.001923 0.010817 -0.005348 0.000000 0.002476 0.000000
# 3 -0.001142 -0.005348 0.017886 0.000000 -0.009841 0.000000
# 4 0.000000 0.000000 0.000000 -0.154932 0.000000 -0.205416
# 5 -0.005626 0.002476 -0.009841 0.000000 0.026949 0.000000
# 6 0.000000 0.000000 0.000000 -0.205416 0.000000 -0.167187
#
#
# Mechanical properties :
#
#
# Convention : Reuss Voigt Hill
#
# Bulk Modulus (GPa) = 43.82439 60.82168 52.32304
# Shear Modulus (GPa) = -21.63642 29.76766 4.06562
#
# Velocity S-wave (km/s) = -2.86376 3.35905 1.24139
# Velocity P-wave (km/s) = 2.38254 6.17239 4.67840
#
# Compressibility (1/GPa) = 0.02281834
#
# Stress axis : x y z
#
# Youngs Moduli (GPa) = 91.38254 92.45043 55.91105
#
# Poissons Ratio (x) = 0.17778 0.06385
# Poissons Ratio (y) = 0.17572 0.29904
# Poissons Ratio (z) = 0.10436 0.49447
#
# Static dielectric constant tensor:
#      x y z
#    x 2.269560 0.000000 -0.079040 
#    y 0.000000 2.568480 0.000000 
#    z -0.079040 0.000000 2.369290 
# 
# From -- ./inp_files/85492.got.cif
#   From: 2010.05.17/outbox.cif.g08.bks.cpg/sg13_43_cif.got.tgz:85492.got - 2010.06.03 16:44:36.
