data_PCOD9230667
_publ_section_title
;
Structure prediction by ZEFSAII (Michael W. Deem and Ramdas Pophale) SiO2 
 PCOD9230667
Probable space group: P 2/C
;
_chemical_formula_sum "Si O2"
_cell_formula_units_Z 28
_cell_length_a 9.814461
_cell_length_b 20.018142
_cell_length_c 16.230545
_cell_angle_alpha 90.000000
_cell_angle_beta 151.661951
_cell_angle_gamma 90.000000
_cell_volume 1513.622865
_symmetry_space_group_name_H-M "P 2/C"
_symmetry_group_IT_number 13
_symmetry_cell_setting 'monoclinic'
loop_
_space_group_symop_operation_xyz
x,y,z
-x,y,1/2-z
-x,-y,-z
x,-y,1/2+z
loop_
_atom_site_type_symbol
_atom_site_label
_atom_site_fract_x
_atom_site_fract_y
_atom_site_fract_z
Si Si1 0.382613 0.878135 0.096243
Si Si2 0.296768 0.145899 0.904419
Si Si3 0.702223 0.542833 0.047883
Si Si4 0.184427 0.551333 0.044767
Si Si5 0.669559 0.350168 0.253320
Si Si6 0.134292 0.781964 0.734308
Si Si7 0.744692 0.002546 0.562356
O O1 0.500000 0.866498 0.250000
O O2 0.607688 0.867373 0.140027
O O3 0.110217 0.829830 0.935034
O O4 0.302772 0.956749 0.041358
O O5 0.215211 0.081943 0.920043
O O6 0.000000 0.187173 0.750000
O O7 0.581900 0.176261 0.093952
O O8 0.000000 0.564839 0.250000
O O9 0.500000 0.500000 0.000000
O O10 0.779721 0.488172 0.020581
O O11 0.525488 0.603478 0.911291
O O12 0.500000 0.564361 0.250000
O O13 0.000000 0.500000 0.000000
O O14 0.978293 0.614448 0.928324
O O15 0.500000 0.346655 0.250000
O O16 0.751557 0.278716 0.259768
O O17 0.000000 0.757378 0.750000
O O18 0.000000 0.969590 0.750000
O O19 0.500000 0.000000 0.500000
#
# Coordination Sequence:
#
# PCOD9230667 Si02
#       7
#     4   4   4   4   4   4   4
#     4  10  20  37  61  90 124 159 208 257 304 365
#     4   9  19  39  63  87 120 163 207 253 307 366
#     4  12  23  38  65  97 125 151 201 256 302 365
#     4  12  21  42  65  90 126 162 197 252 313 358
#     4  12  26  43  63  92 125 167 205 253 318 368
#     4  10  24  44  62  84 126 170 210 251 309 381
#     4   9  16  32  59  87 117 159 199 248 308 360
#
# _framework density 18.498663000000001
#
# number of rings (size 3 to 8) (size 9 to 14) (size 15 to 20)
#    0.000    1.429    4.286    2.143    2.000    2.286 
#    0.000   15.000    0.000    0.000    0.000    0.000 
#    0.000    0.000    0.000    0.000    0.000    0.000 
#
# Total GULP energy -155895.352409 kJ/mol
# GULP energy per Si atom -5567.691157 kJ/mol
# Density = 1.845656 g / cm^3
# Si number density = 18.498663 Si / 1000 Ang^3
#
#
#
# Elastic Constant Matrix: (Units=GPa)
#
#
# Indices 1 2 3 4 5 6 
#
# 1 131.5681 64.8962 73.1715 0.0000 -0.4465 0.0000
# 2 64.8962 90.9549 52.4790 0.0000 -4.8791 0.0000
# 3 73.1715 52.4790 171.3924 0.0000 8.5159 0.0000
# 4 0.0000 0.0000 0.0000 18.3026 0.0000 2.7539
# 5 -0.4465 -4.8791 8.5159 0.0000 32.3786 0.0000
# 6 0.0000 0.0000 0.0000 2.7539 0.0000 31.0594
#
#
#
# Elastic Compliance Matrix: (Units=1/GPa)
#
#
# Indices 1 2 3 4 5 6 
#
# 1 0.013120 -0.007452 -0.003316 0.000000 -0.000070 0.000000
# 2 -0.007452 0.017906 -0.002463 0.000000 0.003243 0.000000
# 3 -0.003316 -0.002463 0.008131 0.000000 -0.002555 0.000000
# 4 0.000000 0.000000 0.000000 0.055376 0.000000 -0.004910
# 5 -0.000070 0.003243 -0.002555 0.000000 0.032044 0.000000
# 6 0.000000 0.000000 0.000000 -0.004910 0.000000 0.032632
#
#
# Mechanical properties :
#
#
# Convention : Reuss Voigt Hill
#
# Bulk Modulus (GPa) = 78.76033 86.11207 82.43620
# Shear Modulus (GPa) = 26.32927 29.90603 28.11765
#
# Velocity S-wave (km/s) = 3.77677 4.02513 3.90293
# Velocity P-wave (km/s) = 7.85412 8.26158 8.06043
#
# Compressibility (1/GPa) = 0.01269675
#
# Stress axis : x y z
#
# Youngs Moduli (GPa) = 76.21815 55.84725 122.98101
#
# Poissons Ratio (x) = 0.41615 0.40784
# Poissons Ratio (y) = 0.56795 0.30285
# Poissons Ratio (z) = 0.25276 0.13753
#
# Static dielectric constant tensor:
#      x y z
#    x 1.609510 0.000000 0.021450 
#    y 0.000000 1.721900 0.000000 
#    z 0.021450 0.000000 1.715310 
# 
# From -- ./inp_files/48265.got.cif
#   From: 2010.05.17/outbox.cif.g08.bks.cpg/sg13_25_cif.got.tgz:48265.got - 2010.06.03 16:44:36.
