data_PCOD9230124
_publ_section_title
;
Structure prediction by ZEFSAII (Michael W. Deem and Ramdas Pophale) SiO2 
 PCOD9230124
Probable space group: P 2/C
;
_chemical_formula_sum "Si O2"
_cell_formula_units_Z 24
_cell_length_a 11.039583
_cell_length_b 8.479762
_cell_length_c 23.932309
_cell_angle_alpha 90.000000
_cell_angle_beta 28.124084
_cell_angle_gamma 90.000000
_cell_volume 1056.074401
_symmetry_space_group_name_H-M "P 2/C"
_symmetry_group_IT_number 13
_symmetry_cell_setting 'monoclinic'
loop_
_space_group_symop_operation_xyz
x,y,z
-x,y,1/2-z
-x,-y,-z
x,-y,1/2+z
loop_
_atom_site_type_symbol
_atom_site_label
_atom_site_fract_x
_atom_site_fract_y
_atom_site_fract_z
Si Si1 0.583445 0.583146 0.049896
Si Si2 0.307372 0.075834 0.948471
Si Si3 0.867869 0.253082 0.582876
Si Si4 0.619907 0.581545 0.643047
Si Si5 0.853315 0.616990 0.358111
Si Si6 0.866992 0.893616 0.196099
O O1 0.680823 0.746135 0.033718
O O2 0.471204 0.477962 0.147295
O O3 0.414436 0.636416 0.065292
O O4 0.807191 0.476138 0.933295
O O5 0.206399 0.109179 0.927130
O O6 0.608201 0.020649 0.823849
O O7 0.100495 0.988774 0.072014
O O8 0.754661 0.418830 0.608032
O O9 0.173062 0.287255 0.459348
O O10 0.769375 0.214995 0.684621
O O11 0.500000 0.641341 0.750000
O O12 0.008780 0.775396 0.309166
O O13 0.000000 0.522310 0.250000
#
# Coordination Sequence:
#
# PCOD9230124 Si02
#       6
#     4   4   4   4   4   4
#     4  10  22  44  65 102 128 177 230 286 349 406
#     4  11  25  43  67  96 141 180 232 278 348 412
#     4  10  21  38  62  95 135 177 218 280 350 407
#     4  10  20  35  66 101 135 166 223 289 350 414
#     4  11  23  43  72  92 136 180 230 288 343 406
#     4  12  24  46  65  98 138 189 225 286 339 416
#
# _framework density 22.725670000000001
#
# number of rings (size 3 to 8) (size 9 to 14) (size 15 to 20)
#    0.000    1.333    3.333    3.000    0.000    2.000 
#    6.000    0.000    0.000    0.000    0.000    0.000 
#    0.000    0.000    0.000    0.000    0.000    0.000 
#
# Total GULP energy -133735.083141 kJ/mol
# GULP energy per Si atom -5572.295131 kJ/mol
# Density = 2.267395 g / cm^3
# Si number density = 22.725670 Si / 1000 Ang^3
#
#
#
# Elastic Constant Matrix: (Units=GPa)
#
#
# Indices 1 2 3 4 5 6 
#
# 1 86.0277 13.7221 30.3096 0.0000 8.2352 0.0000
# 2 13.7221 27.4749 42.6379 0.0000 -6.9526 0.0000
# 3 30.3096 42.6379 154.4796 0.0000 3.9944 0.0000
# 4 0.0000 0.0000 0.0000 -25.5033 0.0000 19.9311
# 5 8.2352 -6.9526 3.9944 0.0000 40.3258 0.0000
# 6 0.0000 0.0000 0.0000 19.9311 0.0000 21.3858
#
#
#
# Elastic Compliance Matrix: (Units=1/GPa)
#
#
# Indices 1 2 3 4 5 6 
#
# 1 0.013267 -0.006447 -0.000727 0.000000 -0.003749 0.000000
# 2 -0.006447 0.074089 -0.019599 0.000000 0.016032 0.000000
# 3 -0.000727 -0.019599 0.012140 0.000000 -0.004433 0.000000
# 4 0.000000 0.000000 0.000000 -0.022687 0.000000 0.021144
# 5 -0.003749 0.016032 -0.004433 0.000000 0.028767 0.000000
# 6 0.000000 0.000000 0.000000 0.021144 0.000000 0.027055
#
#
# Mechanical properties :
#
#
# Convention : Reuss Voigt Hill
#
# Bulk Modulus (GPa) = 21.76245 49.03571 35.39908
# Shear Modulus (GPa) = 24.81471 19.32917 22.07194
#
# Velocity S-wave (km/s) = 3.30801 2.91957 3.11984
# Velocity P-wave (km/s) = 4.91808 5.74363 5.34681
#
# Compressibility (1/GPa) = 0.04595072
#
# Stress axis : x y z
#
# Youngs Moduli (GPa) = 75.37228 13.49732 82.37232
#
# Poissons Ratio (x) = 0.08702 0.05986
# Poissons Ratio (y) = 0.48595 1.61440
# Poissons Ratio (z) = 0.05477 0.26453
#
# Static dielectric constant tensor:
#      x y z
#    x 2.048280 0.000000 -0.056770 
#    y 0.000000 1.816570 0.000000 
#    z -0.056770 0.000000 1.991120 
# 
# From -- ./inp_files/86256.got.cif
#   From: 2010.05.17/outbox.cif.g08.bks.cpg/sg13_44_cif.got.tgz:86256.got - 2010.06.03 16:44:36.
