data_PCOD9230845
_publ_section_title
;
Structure prediction by ZEFSAII (Michael W. Deem and Ramdas Pophale) SiO2 
 PCOD9230845
Probable space group: P 2/C
;
_chemical_formula_sum "Si O2"
_cell_formula_units_Z 26
_cell_length_a 14.992365
_cell_length_b 14.130683
_cell_length_c 9.458180
_cell_angle_alpha 90.000000
_cell_angle_beta 142.850262
_cell_angle_gamma 90.000000
_cell_volume 1210.057488
_symmetry_space_group_name_H-M "P 2/C"
_symmetry_group_IT_number 13
_symmetry_cell_setting 'monoclinic'
loop_
_space_group_symop_operation_xyz
x,y,z
-x,y,1/2-z
-x,-y,-z
x,-y,1/2+z
loop_
_atom_site_type_symbol
_atom_site_label
_atom_site_fract_x
_atom_site_fract_y
_atom_site_fract_z
Si Si1 0.831519 0.209578 0.527745
Si Si2 0.000000 0.916406 0.750000
Si Si3 0.789323 0.067236 0.222330
Si Si4 0.257697 0.862398 0.276655
Si Si5 0.348992 0.234637 0.636990
Si Si6 0.407494 0.633631 0.774177
Si Si7 0.628019 0.430170 0.797255
O O1 0.836810 0.121901 0.424047
O O2 0.778780 0.178278 0.617197
O O3 0.707139 0.285363 0.324834
O O4 0.000000 0.246372 0.750000
O O5 0.089738 0.969671 0.740049
O O6 0.887201 0.858143 0.508755
O O7 0.702565 0.973113 0.157071
O O8 0.714774 0.149107 0.035900
O O9 0.371514 0.805043 0.324125
O O10 0.500000 0.256093 0.750000
O O11 0.271936 0.338195 0.541507
O O12 0.500000 0.659324 0.750000
O O13 0.311088 0.535997 0.639701
O O14 0.535906 0.604338 0.045111
O O15 0.500000 0.446274 0.750000
#
# Coordination Sequence:
#
# PCOD9230845 Si02
#       7
#     4   2   4   4   4   4   4
#     4  12  23  36  60  96 129 153 196 264 312 344
#     4  10  20  38  58  76 106 158 214 236 268 350
#     4  11  23  37  59  85 117 165 206 241 294 363
#     4  11  23  37  59  86 120 162 204 245 292 360
#     4  10  21  39  61  85 119 157 202 249 299 359
#     4  10  21  38  65  91 117 157 206 248 299 365
#     4   9  18  38  66  85 111 159 209 245 284 367
#
# _framework density 21.48658
#
# number of rings (size 3 to 8) (size 9 to 14) (size 15 to 20)
#    0.000    1.538    1.538    5.077    2.154    0.615 
#    0.000    3.077    6.769   10.154    0.000    0.000 
#    0.000    0.000    0.000    0.000    0.000    0.000 
#
# Total GULP energy -144808.520764 kJ/mol
# GULP energy per Si atom -5569.558491 kJ/mol
# Density = 2.143768 g / cm^3
# Si number density = 21.486580 Si / 1000 Ang^3
#
#
#
# Elastic Constant Matrix: (Units=GPa)
#
#
# Indices 1 2 3 4 5 6 
#
# 1 105.7197 30.0588 14.2944 0.0000 -31.1535 0.0000
# 2 30.0588 141.0486 11.4170 0.0000 7.3247 0.0000
# 3 14.2944 11.4170 44.8880 0.0000 -20.1468 0.0000
# 4 0.0000 0.0000 0.0000 -21.0254 0.0000 -55.9586
# 5 -31.1535 7.3247 -20.1468 0.0000 34.8795 0.0000
# 6 0.0000 0.0000 0.0000 -55.9586 0.0000 -33.1075
#
#
#
# Elastic Compliance Matrix: (Units=1/GPa)
#
#
# Indices 1 2 3 4 5 6 
#
# 1 0.015070 -0.004373 0.003735 0.000000 0.016536 0.000000
# 2 -0.004373 0.008836 -0.004645 0.000000 -0.008444 0.000000
# 3 0.003735 -0.004645 0.032676 0.000000 0.023185 0.000000
# 4 0.000000 0.000000 0.000000 0.013595 0.000000 -0.022978
# 5 0.016536 -0.008444 0.023185 0.000000 0.058605 0.000000
# 6 0.000000 0.000000 0.000000 -0.022978 0.000000 0.008634
#
#
# Mechanical properties :
#
#
# Convention : Reuss Voigt Hill
#
# Bulk Modulus (GPa) = 21.73128 44.79963 33.26546
# Shear Modulus (GPa) = 30.61485 11.87506 21.24495
#
# Velocity S-wave (km/s) = 3.77879 2.35345 3.14786
# Velocity P-wave (km/s) = 5.40138 5.31792 5.35981
#
# Compressibility (1/GPa) = 0.04601662
#
# Stress axis : x y z
#
# Youngs Moduli (GPa) = 66.35728 113.17268 30.60361
#
# Poissons Ratio (x) = 0.49485 -0.11430
# Poissons Ratio (y) = 0.29015 0.14215
# Poissons Ratio (z) = -0.24783 0.52567
#
# Static dielectric constant tensor:
#      x y z
#    x 1.661190 0.000000 0.205730 
#    y 0.000000 1.908510 0.000000 
#    z 0.205730 0.000000 1.688510 
# 
# From -- ./inp_files/19934.got.cif
#   From: 2010.05.17/outbox.cif.g08.bks.cpg/sg13_10_cif.got.tgz:19934.got - 2010.06.03 16:44:36.
