data_PCOD9230633
_publ_section_title
;
Structure prediction by ZEFSAII (Michael W. Deem and Ramdas Pophale) SiO2 
 PCOD9230633
Probable space group: P 2/C
;
_chemical_formula_sum "Si O2"
_cell_formula_units_Z 24
_cell_length_a 5.762927
_cell_length_b 11.133532
_cell_length_c 22.943701
_cell_angle_alpha 90.000000
_cell_angle_beta 52.811117
_cell_angle_gamma 90.000000
_cell_volume 1172.750415
_symmetry_space_group_name_H-M "P 2/C"
_symmetry_group_IT_number 13
_symmetry_cell_setting 'monoclinic'
loop_
_space_group_symop_operation_xyz
x,y,z
-x,y,1/2-z
-x,-y,-z
x,-y,1/2+z
loop_
_atom_site_type_symbol
_atom_site_label
_atom_site_fract_x
_atom_site_fract_y
_atom_site_fract_z
Si Si1 0.426840 0.170426 0.459253
Si Si2 0.731140 0.403117 0.440878
Si Si3 0.200561 0.284244 0.944938
Si Si4 0.156308 0.157593 0.788912
Si Si5 0.790417 0.575974 0.172787
Si Si6 0.414015 0.923786 0.086349
O O1 0.596929 0.294091 0.423851
O O2 0.533586 0.116533 0.504921
O O3 0.096578 0.210991 0.517604
O O4 0.472326 0.054319 0.411983
O O5 0.500000 0.500000 0.500000
O O6 0.830072 0.343796 0.486939
O O7 0.966681 0.474467 0.367748
O O8 0.249737 0.384625 0.888506
O O9 0.459139 0.188148 0.896753
O O10 0.500000 0.131976 0.750000
O O11 0.117820 0.298800 0.810409
O O12 0.000000 0.135981 0.750000
O O13 0.935113 0.080681 0.862256
O O14 0.500000 0.536258 0.250000
#
# Coordination Sequence:
#
# PCOD9230633 Si02
#       6
#     4   4   4   4   4   4
#     4  10  21  36  61  88 116 161 207 261 317 378
#     4  11  22  38  60  86 126 162 214 260 321 384
#     4  11  20  39  63  91 123 163 209 273 318 378
#     4  11  23  41  63  92 128 167 209 267 329 384
#     4  11  22  38  62  93 121 164 210 264 323 385
#     4  10  20  37  60  91 118 151 214 260 313 380
#
# _framework density 20.464711000000001
#
# number of rings (size 3 to 8) (size 9 to 14) (size 15 to 20)
#    0.000    1.333    3.333    4.000    0.000    0.000 
#    0.000    0.833    0.000    0.000    0.000    0.000 
#    0.000    0.000    0.000    0.000    0.000    0.000 
#
# Total GULP energy -133716.365986 kJ/mol
# GULP energy per Si atom -5571.515249 kJ/mol
# Density = 2.041813 g / cm^3
# Si number density = 20.464711 Si / 1000 Ang^3
#
#
#
# Elastic Constant Matrix: (Units=GPa)
#
#
# Indices 1 2 3 4 5 6 
#
# 1 47.7958 13.9462 18.3781 0.0000 -19.6821 0.0000
# 2 13.9462 96.8929 26.0752 0.0000 -41.4614 0.0000
# 3 18.3781 26.0752 81.3806 0.0000 -44.0295 0.0000
# 4 0.0000 0.0000 0.0000 9.4125 0.0000 18.0566
# 5 -19.6821 -41.4614 -44.0295 0.0000 40.2452 0.0000
# 6 0.0000 0.0000 0.0000 18.0566 0.0000 -34.1424
#
#
#
# Elastic Compliance Matrix: (Units=1/GPa)
#
#
# Indices 1 2 3 4 5 6 
#
# 1 0.027533 0.005229 0.005652 0.000000 0.025035 0.000000
# 2 0.005229 0.024260 0.014584 0.000000 0.043506 0.000000
# 3 0.005652 0.014584 0.039116 0.000000 0.060583 0.000000
# 4 0.000000 0.000000 0.000000 0.052737 0.000000 0.027891
# 5 0.025035 0.043506 0.060583 0.000000 0.148192 0.000000
# 6 0.000000 0.000000 0.000000 0.027891 0.000000 -0.014539
#
#
# Mechanical properties :
#
#
# Convention : Reuss Voigt Hill
#
# Bulk Modulus (GPa) = 7.05027 38.09646 22.57336
# Shear Modulus (GPa) = 18.27157 14.28104 16.27630
#
# Velocity S-wave (km/s) = 2.99127 2.64453 2.82323
# Velocity P-wave (km/s) = 3.92210 5.28969 4.65637
#
# Compressibility (1/GPa) = 0.14183859
#
# Stress axis : x y z
#
# Youngs Moduli (GPa) = 36.32021 41.22057 25.56477
#
# Poissons Ratio (x) = -0.21554 -0.14449
# Poissons Ratio (y) = -0.18992 -0.37284
# Poissons Ratio (z) = -0.20528 -0.60116
#
# Static dielectric constant tensor:
#      x y z
#    x 1.832140 0.000000 0.052410 
#    y 0.000000 1.790250 0.000000 
#    z 0.052410 0.000000 1.822790 
# 
# From -- ./inp_files/61094.got.cif
#   From: 2010.05.17/outbox.cif.g08.bks.cpg/sg13_31_cif.got.tgz:61094.got - 2010.06.03 16:44:36.
