data_PCOD9230985
_publ_section_title
;
Structure prediction by ZEFSAII (Michael W. Deem and Ramdas Pophale) SiO2 
 PCOD9230985
Probable space group: P 2/C
;
_chemical_formula_sum "Si O2"
_cell_formula_units_Z 28
_cell_length_a 7.061537
_cell_length_b 10.926422
_cell_length_c 20.886088
_cell_angle_alpha 90.000000
_cell_angle_beta 118.707901
_cell_angle_gamma 90.000000
_cell_volume 1413.427339
_symmetry_space_group_name_H-M "P 2/C"
_symmetry_group_IT_number 13
_symmetry_cell_setting 'monoclinic'
loop_
_space_group_symop_operation_xyz
x,y,z
-x,y,1/2-z
-x,-y,-z
x,-y,1/2+z
loop_
_atom_site_type_symbol
_atom_site_label
_atom_site_fract_x
_atom_site_fract_y
_atom_site_fract_z
Si Si1 0.463011 0.509202 0.417434
Si Si2 0.700927 0.475134 0.330461
Si Si3 0.908328 0.825802 0.046555
Si Si4 0.467373 0.756544 0.925269
Si Si5 0.046778 0.659592 0.331345
Si Si6 0.878452 0.893322 0.547961
Si Si7 0.336857 0.818212 0.667927
O O1 0.500000 0.500000 0.500000
O O2 0.654322 0.519907 0.395959
O O3 0.374125 0.373152 0.387194
O O4 0.292794 0.614225 0.375748
O O5 0.500000 0.501607 0.250000
O O6 0.719508 0.327329 0.335625
O O7 0.902378 0.546493 0.333583
O O8 0.993751 0.771307 0.126486
O O9 0.819564 0.963965 0.037239
O O10 0.707510 0.740330 0.993322
O O11 0.075861 0.838145 0.015187
O O12 0.305419 0.817217 0.947596
O O13 0.521792 0.837323 0.872805
O O14 0.000000 0.687820 0.250000
O O15 0.107904 0.883641 0.622260
O O16 0.500000 0.853569 0.750000
#
# Coordination Sequence:
#
# PCOD9230985 Si02
#       7
#     4   4   4   4   4   4   4
#     4  11  22  37  61  94 119 153 209 246 302 371
#     4  10  21  39  60  85 123 159 193 249 308 368
#     4  10  23  40  60  87 120 155 209 254 289 364
#     4  10  20  38  62  86 114 154 199 251 295 354
#     4  12  24  40  61  88 127 164 194 249 314 372
#     4  10  21  41  63  86 115 162 204 250 308 341
#     4   9  20  38  58  88 120 147 199 252 294 361
#
# _framework density 19.810002999999998
#
# number of rings (size 3 to 8) (size 9 to 14) (size 15 to 20)
#    0.000    1.714    2.857    1.286    2.000    1.143 
#    2.571    0.714    0.000    0.000    0.000    0.000 
#    0.000    0.000    0.000    0.000    0.000    0.000 
#
# Total GULP energy -156138.160145 kJ/mol
# GULP energy per Si atom -5576.362862 kJ/mol
# Density = 1.976491 g / cm^3
# Si number density = 19.810003 Si / 1000 Ang^3
#
#
#
# Elastic Constant Matrix: (Units=GPa)
#
#
# Indices 1 2 3 4 5 6 
#
# 1 56.4238 12.3154 10.1774 0.0000 -27.7525 0.0000
# 2 12.3154 49.8505 1.1519 0.0000 -12.3522 0.0000
# 3 10.1774 1.1519 119.9670 0.0000 -22.6894 0.0000
# 4 0.0000 0.0000 0.0000 18.8814 0.0000 1.3617
# 5 -27.7525 -12.3522 -22.6894 0.0000 23.8826 0.0000
# 6 0.0000 0.0000 0.0000 1.3617 0.0000 9.8177
#
#
#
# Elastic Compliance Matrix: (Units=1/GPa)
#
#
# Indices 1 2 3 4 5 6 
#
# 1 0.047228 0.004217 0.008222 0.000000 0.064874 0.000000
# 2 0.004217 0.024004 0.003275 0.000000 0.020427 0.000000
# 3 0.008222 0.003275 0.011866 0.000000 0.022522 0.000000
# 4 0.000000 0.000000 0.000000 0.053497 0.000000 -0.007420
# 5 0.064874 0.020427 0.022522 0.000000 0.149219 0.000000
# 6 0.000000 0.000000 0.000000 -0.007420 0.000000 0.102886
#
#
# Mechanical properties :
#
#
# Convention : Reuss Voigt Hill
#
# Bulk Modulus (GPa) = 8.73151 30.39232 19.56191
# Shear Modulus (GPa) = 12.64389 24.02276 18.33332
#
# Velocity S-wave (km/s) = 2.52912 3.48610 3.04543
# Velocity P-wave (km/s) = 3.59802 5.61953 4.71831
#
# Compressibility (1/GPa) = 0.11452771
#
# Stress axis : x y z
#
# Youngs Moduli (GPa) = 21.17381 41.65984 84.27273
#
# Poissons Ratio (x) = -0.17568 -0.69293
# Poissons Ratio (y) = -0.08929 -0.27600
# Poissons Ratio (z) = -0.17410 -0.13644
#
# Static dielectric constant tensor:
#      x y z
#    x 1.709670 0.000000 -0.025320 
#    y 0.000000 1.692870 0.000000 
#    z -0.025320 0.000000 1.756310 
# 
# From -- ./inp_files/73593.got.cif
#   From: 2010.05.17/outbox.cif.g08.bks.cpg/sg13_37_cif.got.tgz:73593.got - 2010.06.03 16:44:36.
