data_PCOD9230164
_publ_section_title
;
Structure prediction by ZEFSAII (Michael W. Deem and Ramdas Pophale) SiO2 
 PCOD9230164
Probable space group: P 2/C
;
_chemical_formula_sum "Si O2"
_cell_formula_units_Z 28
_cell_length_a 12.559538
_cell_length_b 13.409465
_cell_length_c 9.103588
_cell_angle_alpha 90.000000
_cell_angle_beta 122.935028
_cell_angle_gamma 90.000000
_cell_volume 1286.792542
_symmetry_space_group_name_H-M "P 2/C"
_symmetry_group_IT_number 13
_symmetry_cell_setting 'monoclinic'
loop_
_space_group_symop_operation_xyz
x,y,z
-x,y,1/2-z
-x,-y,-z
x,-y,1/2+z
loop_
_atom_site_type_symbol
_atom_site_label
_atom_site_fract_x
_atom_site_fract_y
_atom_site_fract_z
Si Si1 0.485316 0.386682 0.884928
Si Si2 0.582210 0.209270 0.110699
Si Si3 0.293467 0.532689 0.417014
Si Si4 0.297782 0.122982 0.897961
Si Si5 0.197301 0.278450 0.018073
Si Si6 0.351858 0.072859 0.607167
Si Si7 0.062845 0.593402 0.638709
O O1 0.500000 0.322616 0.750000
O O2 0.340720 0.410124 0.807170
O O3 0.539435 0.322900 0.056529
O O4 0.577615 0.480217 0.933197
O O5 0.694028 0.219370 0.310822
O O6 0.446131 0.156852 0.035293
O O7 0.641618 0.158640 0.011064
O O8 0.241289 0.613896 0.488904
O O9 0.197112 0.449395 0.294837
O O10 0.292740 0.103007 0.719191
O O11 0.195454 0.205295 0.875338
O O12 0.285290 0.021468 0.980933
O O13 0.085869 0.313153 0.045954
O O14 0.500000 0.046799 0.750000
O O15 0.000000 0.616802 0.750000
O O16 0.000000 0.500000 0.500000
#
# Coordination Sequence:
#
# PCOD9230164 Si02
#       7
#     4   4   4   4   4   4   4
#     4  11  22  33  55  90 133 169 203 253 308 383
#     4  11  21  34  57  92 131 173 212 248 310 388
#     4  11  24  38  60  88 128 168 218 255 319 373
#     4  11  21  36  61  89 136 169 213 254 317 391
#     4  12  23  39  60  89 120 168 214 263 317 374
#     4  10  20  36  55  94 132 179 205 254 313 387
#     4  12  26  47  66  86 122 169 223 279 321 367
#
# _framework density 21.759530999999999
#
# number of rings (size 3 to 8) (size 9 to 14) (size 15 to 20)
#    0.000    0.857    4.286    6.000    2.000    0.000 
#    0.000    0.000    0.000    0.000    0.000    4.000 
#    0.000    0.143    0.000    0.000    0.000    0.000 
#
# Total GULP energy -156126.600629 kJ/mol
# GULP energy per Si atom -5575.950022 kJ/mol
# Density = 2.171001 g / cm^3
# Si number density = 21.759531 Si / 1000 Ang^3
#
#
#
# Elastic Constant Matrix: (Units=GPa)
#
#
# Indices 1 2 3 4 5 6 
#
# 1 123.7771 36.3112 31.1135 0.0000 -42.8946 0.0000
# 2 36.3112 93.8085 11.3034 0.0000 -22.1864 0.0000
# 3 31.1135 11.3034 46.6275 0.0000 -22.9186 0.0000
# 4 0.0000 0.0000 0.0000 28.6334 0.0000 -11.1163
# 5 -42.8946 -22.1864 -22.9186 0.0000 38.0808 0.0000
# 6 0.0000 0.0000 0.0000 -11.1163 0.0000 23.6498
#
#
#
# Elastic Compliance Matrix: (Units=1/GPa)
#
#
# Indices 1 2 3 4 5 6 
#
# 1 0.013713 -0.001978 -0.002336 0.000000 0.012888 0.000000
# 2 -0.001978 0.012669 0.001110 0.000000 0.005820 0.000000
# 3 -0.002336 0.001110 0.030902 0.000000 0.016614 0.000000
# 4 0.000000 0.000000 0.000000 0.042720 0.000000 0.020080
# 5 0.012888 0.005820 0.016614 0.000000 0.054167 0.000000
# 6 0.000000 0.000000 0.000000 0.020080 0.000000 0.051722
#
#
# Mechanical properties :
#
#
# Convention : Reuss Voigt Hill
#
# Bulk Modulus (GPa) = 19.65612 46.85213 33.25412
# Shear Modulus (GPa) = 21.80934 30.43847 26.12391
#
# Velocity S-wave (km/s) = 3.16933 3.74419 3.46869
# Velocity P-wave (km/s) = 4.73770 6.34590 5.59983
#
# Compressibility (1/GPa) = 0.05087475
#
# Stress axis : x y z
#
# Youngs Moduli (GPa) = 72.92455 78.93500 32.36000
#
# Poissons Ratio (x) = 0.15617 0.07559
# Poissons Ratio (y) = 0.14428 -0.03592
# Poissons Ratio (z) = 0.17035 -0.08761
#
# Static dielectric constant tensor:
#      x y z
#    x 1.876400 0.000000 -0.097080 
#    y 0.000000 1.839120 0.000000 
#    z -0.097080 0.000000 1.922100 
# 
# From -- ./inp_files/16875.got.cif
#   From: 2010.05.17/outbox.cif.g08.bks.cpg/sg13_9_cif.got.tgz:16875.got - 2010.06.03 16:44:36.
