data_PCOD9230847
_publ_section_title
;
Structure prediction by ZEFSAII (Michael W. Deem and Ramdas Pophale) SiO2 
 PCOD9230847
Probable space group: P 2/C
;
_chemical_formula_sum "Si O2"
_cell_formula_units_Z 24
_cell_length_a 22.146391
_cell_length_b 11.462752
_cell_length_c 22.486329
_cell_angle_alpha 90.000000
_cell_angle_beta 12.654006
_cell_angle_gamma 90.000000
_cell_volume 1250.487928
_symmetry_space_group_name_H-M "P 2/C"
_symmetry_group_IT_number 13
_symmetry_cell_setting 'monoclinic'
loop_
_space_group_symop_operation_xyz
x,y,z
-x,y,1/2-z
-x,-y,-z
x,-y,1/2+z
loop_
_atom_site_type_symbol
_atom_site_label
_atom_site_fract_x
_atom_site_fract_y
_atom_site_fract_z
Si Si1 0.000000 0.073020 0.750000
Si Si2 0.383985 0.250142 0.543526
Si Si3 0.215504 0.502573 0.238881
Si Si4 0.204853 0.861668 0.419023
Si Si5 0.500000 0.911528 0.250000
Si Si6 0.842692 0.133239 0.031303
Si Si7 0.659097 0.746751 0.907052
O O1 0.920284 0.139869 0.886814
O O2 0.268558 0.992391 0.503974
O O3 0.236435 0.376978 0.682666
O O4 0.578083 0.242538 0.415488
O O5 0.124774 0.163106 0.794788
O O6 0.591665 0.216806 0.291031
O O7 0.216789 0.382228 0.201494
O O8 0.000000 0.500000 0.500000
O O9 0.500000 0.500000 0.000000
O O10 0.324714 0.841856 0.369857
O O11 0.887015 0.835058 0.712433
O O12 0.243541 0.000116 0.371669
O O13 0.377784 0.777833 0.210356
#
# Coordination Sequence:
#
# PCOD9230847 Si02
#       7
#     2   4   4   4   2   4   4
#     4  10  20  38  58  78 110 154 198 226 264 342
#     4  11  22  36  57  85 117 151 186 233 285 336
#     4  10  20  38  58  78 110 155 198 222 260 338
#     4  11  22  36  57  85 115 147 184 230 283 336
#     4  10  20  38  58  78 110 154 196 224 266 342
#     4  11  22  36  57  85 115 149 187 233 286 337
#     4  11  22  36  57  85 115 148 184 230 282 334
#
# _framework density 19.192506999999999
#
# number of rings (size 3 to 8) (size 9 to 14) (size 15 to 20)
#    0.000    1.333    0.000   10.000    0.000    4.000 
#    0.000    0.000    0.000    4.000    0.000    2.333 
#    0.000    0.000    0.000    0.000    0.000    0.000 
#
# Total GULP energy -133839.209898 kJ/mol
# GULP energy per Si atom -5576.633746 kJ/mol
# Density = 1.914882 g / cm^3
# Si number density = 19.192507 Si / 1000 Ang^3
#
#
#
# Elastic Constant Matrix: (Units=GPa)
#
#
# Indices 1 2 3 4 5 6 
#
# 1 62.8879 30.7106 10.8501 0.0000 3.5476 0.0000
# 2 30.7106 76.6558 12.0706 0.0000 7.2383 0.0000
# 3 10.8501 12.0706 108.1151 0.0000 2.3240 0.0000
# 4 0.0000 0.0000 0.0000 26.3795 0.0000 15.8344
# 5 3.5476 7.2383 2.3240 0.0000 38.8402 0.0000
# 6 0.0000 0.0000 0.0000 15.8344 0.0000 -18.3887
#
#
#
# Elastic Compliance Matrix: (Units=1/GPa)
#
#
# Indices 1 2 3 4 5 6 
#
# 1 0.019906 -0.007770 -0.001124 0.000000 -0.000303 0.000000
# 2 -0.007770 0.016536 -0.001017 0.000000 -0.002311 0.000000
# 3 -0.001124 -0.001017 0.009482 0.000000 -0.000275 0.000000
# 4 0.000000 0.000000 0.000000 0.024991 0.000000 0.021520
# 5 -0.000303 -0.002311 -0.000275 0.000000 0.026221 0.000000
# 6 0.000000 0.000000 0.000000 0.021520 0.000000 -0.035851
#
#
# Mechanical properties :
#
#
# Convention : Reuss Voigt Hill
#
# Bulk Modulus (GPa) = 38.30810 39.43574 38.87192
# Shear Modulus (GPa) = 55.67440 22.30135 38.98787
#
# Velocity S-wave (km/s) = 5.39179 3.41248 4.51201
# Velocity P-wave (km/s) = 7.66584 6.00989 6.88781
#
# Compressibility (1/GPa) = 0.02610414
#
# Stress axis : x y z
#
# Youngs Moduli (GPa) = 50.23491 60.47260 105.46718
#
# Poissons Ratio (x) = 0.46985 0.11852
# Poissons Ratio (y) = 0.39030 0.10724
# Poissons Ratio (z) = 0.05645 0.06149
#
# Static dielectric constant tensor:
#      x y z
#    x 1.688150 0.000000 0.012110 
#    y 0.000000 1.795080 0.000000 
#    z 0.012110 0.000000 1.669740 
# 
# From -- ./inp_files/89036.got.cif
#   From: 2010.05.17/outbox.cif.g08.bks.cpg/sg13_45_cif.got.tgz:89036.got - 2010.06.03 16:44:36.
