data_PCOD9230408
_publ_section_title
;
Structure prediction by ZEFSAII (Michael W. Deem and Ramdas Pophale) SiO2 
 PCOD9230408
Probable space group: P 2/C
;
_chemical_formula_sum "Si O2"
_cell_formula_units_Z 28
_cell_length_a 12.813499
_cell_length_b 8.412045
_cell_length_c 11.321264
_cell_angle_alpha 90.000000
_cell_angle_beta 99.170989
_cell_angle_gamma 90.000000
_cell_volume 1204.694452
_symmetry_space_group_name_H-M "P 2/C"
_symmetry_group_IT_number 13
_symmetry_cell_setting 'monoclinic'
loop_
_space_group_symop_operation_xyz
x,y,z
-x,y,1/2-z
-x,-y,-z
x,-y,1/2+z
loop_
_atom_site_type_symbol
_atom_site_label
_atom_site_fract_x
_atom_site_fract_y
_atom_site_fract_z
Si Si1 0.500000 0.648537 0.750000
Si Si2 0.825801 0.025355 0.563249
Si Si3 0.159759 0.623975 0.695827
Si Si4 0.718359 0.149296 0.859468
Si Si5 0.340241 0.876025 0.804173
Si Si6 0.325801 0.525355 0.063249
Si Si7 0.000000 0.148536 0.250000
Si Si8 0.781641 0.649296 0.140532
O O1 0.442548 0.767359 0.831416
O O2 0.583862 0.543286 0.836328
O O3 0.819642 0.936215 0.437330
O O4 0.711548 0.974197 0.598278
O O5 0.916138 0.956715 0.663672
O O6 0.829044 0.215203 0.564071
O O7 0.250000 0.750000 0.750000
O O8 0.211548 0.525802 0.598278
O O9 0.147247 0.495246 0.799319
O O10 0.057452 0.732642 0.668585
O O11 0.670956 0.284797 0.935928
O O12 0.750000 0.250000 0.750000
O O13 0.647248 0.004754 0.799319
O O14 0.319641 0.436216 0.937330
#
# Coordination Sequence:
#
# PCOD9230408 Si02
#       8
#     2   4   4   4   4   4   2   4
#     4  10  20  36  62  92 120 158 206 252 302 358
#     4  10  20  38  59  86 122 160 201 252 301 357
#     4   9  19  37  58  85 118 155 198 245 298 354
#     4  10  21  40  64  88 123 165 201 247 307 361
#     4   9  19  37  58  85 118 155 198 245 298 354
#     4  10  20  38  59  86 122 160 201 252 301 357
#     4  10  20  36  62  92 120 158 206 252 302 358
#     4  10  21  40  64  88 123 165 201 247 307 361
#
# _framework density 23.242407
#
# number of rings (size 3 to 8) (size 9 to 14) (size 15 to 20)
#    0.000    2.286    0.000    3.429    0.000    1.143 
#    0.000   35.714    0.000    0.000    0.000    0.000 
#    0.000    0.000    0.000    0.000    0.000    0.000 
#
# Total GULP energy -156196.801909 kJ/mol
# GULP energy per Si atom -5578.457211 kJ/mol
# Density = 2.318951 g / cm^3
# Si number density = 23.242407 Si / 1000 Ang^3
#
#
#
# Elastic Constant Matrix: (Units=GPa)
#
#
# Indices 1 2 3 4 5 6 
#
# 1 57.1767 32.7598 9.4795 0.0000 3.6879 0.0000
# 2 32.7598 195.5267 51.0240 0.0000 14.9734 0.0000
# 3 9.4795 51.0240 97.6361 0.0000 15.6804 0.0000
# 4 0.0000 0.0000 0.0000 42.8373 0.0000 -5.0623
# 5 3.6879 14.9734 15.6804 0.0000 26.2422 0.0000
# 6 0.0000 0.0000 0.0000 -5.0623 0.0000 14.9309
#
#
#
# Elastic Compliance Matrix: (Units=1/GPa)
#
#
# Indices 1 2 3 4 5 6 
#
# 1 0.019368 -0.003155 -0.000093 0.000000 -0.000867 0.000000
# 2 -0.003155 0.006504 -0.002841 0.000000 -0.001571 0.000000
# 3 -0.000093 -0.002841 0.012691 0.000000 -0.005949 0.000000
# 4 0.000000 0.000000 0.000000 0.024319 0.000000 0.008245
# 5 -0.000867 -0.001571 -0.005949 0.000000 0.042679 0.000000
# 6 0.000000 0.000000 0.000000 0.008245 0.000000 0.069771
#
#
# Mechanical properties :
#
#
# Convention : Reuss Voigt Hill
#
# Bulk Modulus (GPa) = 37.89607 59.65180 48.77393
# Shear Modulus (GPa) = 25.47063 33.94050 29.70556
#
# Velocity S-wave (km/s) = 3.31398 3.82551 3.57890
# Velocity P-wave (km/s) = 5.56627 6.72559 6.17320
#
# Compressibility (1/GPa) = 0.02638796
#
# Stress axis : x y z
#
# Youngs Moduli (GPa) = 51.63069 153.73979 78.79523
#
# Poissons Ratio (x) = 0.48498 0.00731
# Poissons Ratio (y) = 0.16287 0.22383
# Poissons Ratio (z) = 0.00479 0.43673
#
# Static dielectric constant tensor:
#      x y z
#    x 1.937750 0.000000 -0.136880 
#    y 0.000000 1.863740 0.000000 
#    z -0.136880 0.000000 2.025480 
# 
# From -- ./inp_files/36262.got.cif
#   From: 2010.05.17/outbox.cif.g08.bks.cpg/sg13_19_cif.got.tgz:36262.got - 2010.06.03 16:44:36.
