data_PCOD9230274
_publ_section_title
;
Structure prediction by ZEFSAII (Michael W. Deem and Ramdas Pophale) SiO2 
 PCOD9230274
Probable space group: P 2/C
;
_chemical_formula_sum "Si O2"
_cell_formula_units_Z 24
_cell_length_a 20.146715
_cell_length_b 9.610967
_cell_length_c 15.869746
_cell_angle_alpha 90.000000
_cell_angle_beta 23.422232
_cell_angle_gamma 90.000000
_cell_volume 1221.469914
_symmetry_space_group_name_H-M "P 2/C"
_symmetry_group_IT_number 13
_symmetry_cell_setting 'monoclinic'
loop_
_space_group_symop_operation_xyz
x,y,z
-x,y,1/2-z
-x,-y,-z
x,-y,1/2+z
loop_
_atom_site_type_symbol
_atom_site_label
_atom_site_fract_x
_atom_site_fract_y
_atom_site_fract_z
Si Si1 0.566861 0.153754 0.909452
Si Si2 0.497899 0.643633 0.354186
Si Si3 0.782195 0.323313 0.894795
Si Si4 0.116934 0.412294 0.300540
Si Si5 0.926204 0.153837 0.577329
Si Si6 0.576206 0.655641 0.786096
O O1 0.562494 0.215063 0.820605
O O2 0.749614 0.153885 0.736264
O O3 0.452306 0.259631 0.096557
O O4 0.500000 0.000000 0.000000
O O5 0.500000 0.646813 0.250000
O O6 0.307891 0.614564 0.604145
O O7 0.601382 0.509804 0.266060
O O8 0.862774 0.477853 0.799542
O O9 0.893827 0.221096 0.708050
O O10 0.602605 0.333292 0.055035
O O11 0.724796 0.284680 0.055246
O O12 0.000000 0.500000 0.500000
O O13 0.038133 0.259742 0.391890
O O14 0.000000 0.000000 0.500000
#
# Coordination Sequence:
#
# PCOD9230274 Si02
#       6
#     4   4   4   4   4   4
#     4  11  24  39  58  91 123 163 208 248 304 376
#     4  11  20  39  66  91 117 157 210 259 305 368
#     4   8  15  32  58  88 106 152 198 244 302 358
#     4   9  17  33  61  86 116 152 193 249 314 358
#     4  10  20  36  59  84 124 164 195 246 311 370
#     4   9  16  35  61  85 116 145 208 257 291 352
#
# _framework density 19.648457000000001
#
# number of rings (size 3 to 8) (size 9 to 14) (size 15 to 20)
#    0.000    2.333    3.333    2.500    0.000    0.000 
#    9.000    0.833    3.667    7.000    0.000    0.000 
#    0.000    0.000    0.000    0.000    0.000    0.000 
#
# Total GULP energy -133673.618030 kJ/mol
# GULP energy per Si atom -5569.734085 kJ/mol
# Density = 1.960374 g / cm^3
# Si number density = 19.648457 Si / 1000 Ang^3
#
#
#
# Elastic Constant Matrix: (Units=GPa)
#
#
# Indices 1 2 3 4 5 6 
#
# 1 51.9375 45.1034 27.1195 0.0000 11.8490 0.0000
# 2 45.1034 153.6399 42.4915 0.0000 10.4347 0.0000
# 3 27.1195 42.4915 97.5004 0.0000 11.3212 0.0000
# 4 0.0000 0.0000 0.0000 30.9611 0.0000 -4.1940
# 5 11.8490 10.4347 11.3212 0.0000 13.6568 0.0000
# 6 0.0000 0.0000 0.0000 -4.1940 0.0000 21.8465
#
#
#
# Elastic Compliance Matrix: (Units=1/GPa)
#
#
# Indices 1 2 3 4 5 6 
#
# 1 0.031503 -0.006983 -0.003502 0.000000 -0.019094 0.000000
# 2 -0.006983 0.009085 -0.002119 0.000000 0.000873 0.000000
# 3 -0.003502 -0.002119 0.012850 0.000000 -0.005995 0.000000
# 4 0.000000 0.000000 0.000000 0.033161 0.000000 0.006366
# 5 -0.019094 0.000873 -0.005995 0.000000 0.094093 0.000000
# 6 0.000000 0.000000 0.000000 0.006366 0.000000 0.046996
#
#
# Mechanical properties :
#
#
# Convention : Reuss Voigt Hill
#
# Bulk Modulus (GPa) = 35.42220 59.16740 47.29480
# Shear Modulus (GPa) = 19.06180 25.85045 22.45612
#
# Velocity S-wave (km/s) = 3.11809 3.63112 3.38434
# Velocity P-wave (km/s) = 5.57050 6.91075 6.27650
#
# Compressibility (1/GPa) = 0.02823088
#
# Stress axis : x y z
#
# Youngs Moduli (GPa) = 31.74345 110.06859 77.82176
#
# Poissons Ratio (x) = 0.76858 0.27254
# Poissons Ratio (y) = 0.22165 0.16487
# Poissons Ratio (z) = 0.11117 0.23319
#
# Static dielectric constant tensor:
#      x y z
#    x 1.741640 0.000000 0.008080 
#    y 0.000000 1.712360 0.000000 
#    z 0.008080 0.000000 1.736950 
# 
# From -- ./inp_files/71234.got.cif
#   From: 2010.05.17/outbox.cif.g08.bks.cpg/sg13_36_cif.got.tgz:71234.got - 2010.06.03 16:44:36.
