data_PCOD9230641
_publ_section_title
;
Structure prediction by ZEFSAII (Michael W. Deem and Ramdas Pophale) SiO2 
 PCOD9230641
Probable space group: P 2/C
;
_chemical_formula_sum "Si O2"
_cell_formula_units_Z 32
_cell_length_a 29.673113
_cell_length_b 5.098214
_cell_length_c 18.405813
_cell_angle_alpha 90.000000
_cell_angle_beta 30.476807
_cell_angle_gamma 90.000000
_cell_volume 1412.233354
_symmetry_space_group_name_H-M "P 2/C"
_symmetry_group_IT_number 13
_symmetry_cell_setting 'monoclinic'
loop_
_space_group_symop_operation_xyz
x,y,z
-x,y,1/2-z
-x,-y,-z
x,-y,1/2+z
loop_
_atom_site_type_symbol
_atom_site_label
_atom_site_fract_x
_atom_site_fract_y
_atom_site_fract_z
Si Si1 0.128517 0.829342 0.705517
Si Si2 0.890597 0.251147 0.100303
Si Si3 0.708743 0.408523 0.856192
Si Si4 0.976476 0.484510 0.356537
Si Si5 0.176878 0.137868 0.915150
Si Si6 0.595663 0.392789 0.889961
Si Si7 0.319825 0.880009 0.799273
Si Si8 0.751223 0.323238 0.961015
O O1 0.095970 0.804472 0.834478
O O2 0.208277 0.614590 0.582907
O O3 0.049760 0.743698 0.761729
O O4 0.166445 0.121673 0.648704
O O5 0.790468 0.380710 0.236825
O O6 0.887915 0.006982 0.049882
O O7 0.966891 0.409690 0.952102
O O8 0.743160 0.195658 0.750806
O O9 0.611614 0.435733 0.954947
O O10 0.711385 0.320474 0.935296
O O11 0.876112 0.385655 0.483566
O O12 0.000000 0.641162 0.250000
O O13 0.220541 0.977253 0.918544
O O14 0.664093 0.609541 0.764742
O O15 0.616173 0.113569 0.820408
O O16 0.500000 0.500000 0.000000
O O17 0.319421 0.790867 0.883413
#
# Coordination Sequence:
#
# PCOD9230641 Si02
#       8
#     4   4   4   4   4   4   4   4
#     4  11  24  40  58  92 120 166 218 267 314 369
#     4  10  20  38  60  78 117 165 211 257 312 379
#     4   9  20  40  62  91 119 165 209 250 308 393
#     4  11  25  36  53  85 123 165 212 277 324 357
#     4  10  20  37  61  80 119 168 214 253 314 378
#     4  11  23  42  70 100 131 163 205 253 312 385
#     4  11  23  41  67  97 129 167 210 261 311 381
#     4  11  23  40  66  90 127 165 214 261 313 368
#
# _framework density 22.659146
#
# number of rings (size 3 to 8) (size 9 to 14) (size 15 to 20)
#    0.000    1.500    2.500    2.250    3.500    1.000 
#    0.000    0.625    0.000    1.500    0.000    0.000 
#    0.000    0.000    0.000    0.000    0.000    0.000 
#
# Total GULP energy -178259.523959 kJ/mol
# GULP energy per Si atom -5570.610124 kJ/mol
# Density = 2.260757 g / cm^3
# Si number density = 22.659146 Si / 1000 Ang^3
#
#
#
# Elastic Constant Matrix: (Units=GPa)
#
#
# Indices 1 2 3 4 5 6 
#
# 1 104.9104 -5.2156 30.0678 0.0000 14.2025 0.0000
# 2 -5.2156 62.7649 0.9670 0.0000 10.8057 0.0000
# 3 30.0678 0.9670 36.5966 0.0000 17.4416 0.0000
# 4 0.0000 0.0000 0.0000 29.0985 0.0000 -4.8518
# 5 14.2025 10.8057 17.4416 0.0000 43.4301 0.0000
# 6 0.0000 0.0000 0.0000 -4.8518 0.0000 26.7442
#
#
#
# Elastic Compliance Matrix: (Units=1/GPa)
#
#
# Indices 1 2 3 4 5 6 
#
# 1 0.012561 0.001257 -0.010199 0.000000 -0.000325 0.000000
# 2 0.001257 0.016878 0.000889 0.000000 -0.004967 0.000000
# 3 -0.010199 0.000889 0.042291 0.000000 -0.013870 0.000000
# 4 0.000000 0.000000 0.000000 0.035438 0.000000 0.006429
# 5 -0.000325 -0.004967 -0.013870 0.000000 0.029938 0.000000
# 6 0.000000 0.000000 0.000000 0.006429 0.000000 0.038558
#
#
# Mechanical properties :
#
#
# Convention : Reuss Voigt Hill
#
# Bulk Modulus (GPa) = 17.97766 28.43447 23.20607
# Shear Modulus (GPa) = 23.77408 31.75139 27.76273
#
# Velocity S-wave (km/s) = 3.24266 3.74740 3.50413
# Velocity P-wave (km/s) = 4.68732 5.59465 5.16096
#
# Compressibility (1/GPa) = 0.05562458
#
# Stress axis : x y z
#
# Youngs Moduli (GPa) = 79.60859 59.24725 23.64547
#
# Poissons Ratio (x) = -0.07446 0.24116
# Poissons Ratio (y) = -0.10006 -0.02102
# Poissons Ratio (z) = 0.81193 -0.05266
#
# Static dielectric constant tensor:
#      x y z
#    x 1.943980 0.000000 -0.096110 
#    y 0.000000 2.002360 0.000000 
#    z -0.096110 0.000000 1.962070 
# 
# From -- ./inp_files/72200.got.cif
#   From: 2010.05.17/outbox.cif.g08.bks.cpg/sg13_37_cif.got.tgz:72200.got - 2010.06.03 16:44:36.
