data_PCOD9230733
_publ_section_title
;
Structure prediction by ZEFSAII (Michael W. Deem and Ramdas Pophale) SiO2 
 PCOD9230733
Probable space group: P 2/C
;
_chemical_formula_sum "Si O2"
_cell_formula_units_Z 30
_cell_length_a 13.608033
_cell_length_b 11.519548
_cell_length_c 25.720522
_cell_angle_alpha 90.000000
_cell_angle_beta 23.430425
_cell_angle_gamma 90.000000
_cell_volume 1603.228294
_symmetry_space_group_name_H-M "P 2/C"
_symmetry_group_IT_number 13
_symmetry_cell_setting 'monoclinic'
loop_
_space_group_symop_operation_xyz
x,y,z
-x,y,1/2-z
-x,-y,-z
x,-y,1/2+z
loop_
_atom_site_type_symbol
_atom_site_label
_atom_site_fract_x
_atom_site_fract_y
_atom_site_fract_z
Si Si1 0.390808 0.140214 0.358109
Si Si2 0.000000 0.389926 0.250000
Si Si3 0.756916 0.526300 0.151754
Si Si4 0.584535 0.506109 0.899026
Si Si5 0.735083 0.709573 0.968999
Si Si6 0.414456 0.889063 0.376277
Si Si7 0.836075 0.204784 0.606737
Si Si8 0.717658 0.667063 0.754934
O O1 0.500000 0.099861 0.250000
O O2 0.576304 0.233850 0.292243
O O3 0.126059 0.195495 0.474532
O O4 0.357691 0.024806 0.408323
O O5 0.879662 0.476422 0.265594
O O6 0.807591 0.305548 0.372882
O O7 0.500000 0.490228 0.250000
O O8 0.751567 0.664490 0.159998
O O9 0.764874 0.449637 0.199199
O O10 0.000000 0.500000 0.000000
O O11 0.542102 0.624210 0.887506
O O12 0.500000 0.500000 0.000000
O O13 0.452835 0.400002 0.933433
O O14 0.008407 0.705454 0.861671
O O15 0.613503 0.818833 0.056631
O O16 0.242813 0.832592 0.413541
O O17 0.687291 0.874854 0.219410
#
# Coordination Sequence:
#
# PCOD9230733 Si02
#       8
#     4   2   4   4   4   4   4   4
#     4  12  24  40  58  85 126 168 209 244 284 356
#     4   8  18  38  62  92 118 152 188 254 316 376
#     4  12  23  37  55  85 127 158 197 251 306 357
#     4   9  19  38  62  89 118 146 187 247 310 366
#     4  10  20  37  63  88 117 154 201 245 307 365
#     4  11  22  38  59  84 118 166 207 245 289 347
#     4  11  23  38  57  82 122 163 205 246 293 347
#     4  11  24  35  61  90 117 157 198 244 305 365
#
# _framework density 18.712243999999998
#
# number of rings (size 3 to 8) (size 9 to 14) (size 15 to 20)
#    0.000    1.333    2.667    4.800    5.600    0.000 
#    2.400    0.000    0.000    7.200    0.000    0.933 
#    0.000    0.000    0.000    0.000    0.000    0.000 
#
# Total GULP energy -167037.104573 kJ/mol
# GULP energy per Si atom -5567.903486 kJ/mol
# Density = 1.866965 g / cm^3
# Si number density = 18.712244 Si / 1000 Ang^3
#
#
#
# Elastic Constant Matrix: (Units=GPa)
#
#
# Indices 1 2 3 4 5 6 
#
# 1 54.2380 33.8612 32.2346 0.0000 -0.5851 0.0000
# 2 33.8612 95.6985 13.9268 0.0000 2.7317 0.0000
# 3 32.2346 13.9268 72.7635 0.0000 -2.9284 0.0000
# 4 0.0000 0.0000 0.0000 16.2084 0.0000 5.1400
# 5 -0.5851 2.7317 -2.9284 0.0000 36.2853 0.0000
# 6 0.0000 0.0000 0.0000 5.1400 0.0000 28.1621
#
#
#
# Elastic Compliance Matrix: (Units=1/GPa)
#
#
# Indices 1 2 3 4 5 6 
#
# 1 0.031532 -0.009394 -0.012162 0.000000 0.000234 0.000000
# 2 -0.009394 0.013582 0.001520 0.000000 -0.001051 0.000000
# 3 -0.012162 0.001520 0.018889 0.000000 0.001214 0.000000
# 4 0.000000 0.000000 0.000000 0.065487 0.000000 -0.011952
# 5 0.000234 -0.001051 0.001214 0.000000 0.027740 0.000000
# 6 0.000000 0.000000 0.000000 -0.011952 0.000000 0.037690
#
#
# Mechanical properties :
#
#
# Convention : Reuss Voigt Hill
#
# Bulk Modulus (GPa) = 41.78584 42.52726 42.15655
# Shear Modulus (GPa) = 20.57871 25.64298 23.11085
#
# Velocity S-wave (km/s) = 3.31984 3.70589 3.51816
# Velocity P-wave (km/s) = 6.08887 6.40997 6.25148
#
# Compressibility (1/GPa) = 0.02393155
#
# Stress axis : x y z
#
# Youngs Moduli (GPa) = 31.71345 73.62559 52.94146
#
# Poissons Ratio (x) = 0.69164 0.64385
# Poissons Ratio (y) = 0.29792 -0.08045
# Poissons Ratio (z) = 0.38569 -0.11189
#
# Static dielectric constant tensor:
#      x y z
#    x 1.714860 0.000000 0.016870 
#    y 0.000000 1.692540 0.000000 
#    z 0.016870 0.000000 1.723290 
# 
# From -- ./inp_files/96999.got.cif
#   From: 2010.05.17/outbox.cif.g08.bks.cpg/sg13_49_cif.got.tgz:96999.got - 2010.06.03 16:44:36.
