data_PCOD9230586
_publ_section_title
;
Structure prediction by ZEFSAII (Michael W. Deem and Ramdas Pophale) SiO2 
 PCOD9230586
Probable space group: P 2/C
;
_chemical_formula_sum "Si O2"
_cell_formula_units_Z 32
_cell_length_a 22.056490
_cell_length_b 14.524499
_cell_length_c 16.224330
_cell_angle_alpha 90.000000
_cell_angle_beta 161.299327
_cell_angle_gamma 90.000000
_cell_volume 1666.481587
_symmetry_space_group_name_H-M "P 2/C"
_symmetry_group_IT_number 13
_symmetry_cell_setting 'monoclinic'
loop_
_space_group_symop_operation_xyz
x,y,z
-x,y,1/2-z
-x,-y,-z
x,-y,1/2+z
loop_
_atom_site_type_symbol
_atom_site_label
_atom_site_fract_x
_atom_site_fract_y
_atom_site_fract_z
Si Si1 0.701218 0.654199 0.196590
Si Si2 0.484581 0.866170 0.324139
Si Si3 0.321748 0.508556 0.962324
Si Si4 0.473745 0.170442 0.118264
Si Si5 0.922641 0.385494 0.239633
Si Si6 0.794084 0.009316 0.772339
Si Si7 0.456194 0.668083 0.333072
Si Si8 0.779471 0.022743 0.448708
O O1 0.709880 0.570051 0.144685
O O2 0.596518 0.627286 0.146240
O O3 0.916508 0.673172 0.506183
O O4 0.585283 0.736700 0.004879
O O5 0.500000 0.834754 0.250000
O O6 0.493696 0.775890 0.391668
O O7 0.665730 0.928291 0.572313
O O8 0.308179 0.933935 0.116312
O O9 0.140711 0.529656 0.785380
O O10 0.500000 0.483160 0.250000
O O11 0.382009 0.605055 0.997385
O O12 0.500000 0.185776 0.250000
O O13 0.650636 0.110966 0.308865
O O14 0.296786 0.103189 0.876539
O O15 0.000000 0.415452 0.250000
O O16 0.727134 0.335604 0.963179
O O17 0.770605 0.001344 0.840489
O O18 0.000000 0.000000 0.000000
O O19 0.000000 0.038325 0.750000
#
# Coordination Sequence:
#
# PCOD9230586 Si02
#       8
#     4   4   4   4   4   4   4   4
#     4  11  21  37  60  83 113 155 191 226 285 347
#     4  11  21  36  58  86 114 148 191 238 292 346
#     4  10  20  37  59  85 116 152 190 235 285 338
#     4  11  23  40  58  84 118 153 192 237 282 343
#     4   9  20  36  57  85 116 146 189 243 286 329
#     4  11  22  38  59  84 114 151 191 236 289 347
#     4  10  21  37  57  86 117 146 187 243 288 333
#     4  11  22  39  60  85 116 151 191 238 287 341
#
# _framework density 19.202131999999999
#
# number of rings (size 3 to 8) (size 9 to 14) (size 15 to 20)
#    0.000    1.500    0.000    8.250    0.000    4.500 
#    0.000    1.250    0.000    8.250    0.000    0.000 
#    0.000    0.000    0.000    0.000    0.000    0.000 
#
# Total GULP energy -178546.420940 kJ/mol
# GULP energy per Si atom -5579.575654 kJ/mol
# Density = 1.915843 g / cm^3
# Si number density = 19.202132 Si / 1000 Ang^3
#
#
#
# Elastic Constant Matrix: (Units=GPa)
#
#
# Indices 1 2 3 4 5 6 
#
# 1 117.9152 33.1481 39.1394 0.0000 -3.7480 0.0000
# 2 33.1481 84.5099 22.9737 0.0000 8.3126 0.0000
# 3 39.1394 22.9737 78.6547 0.0000 8.6584 0.0000
# 4 0.0000 0.0000 0.0000 7.0782 0.0000 -1.7315
# 5 -3.7480 8.3126 8.6584 0.0000 40.0948 0.0000
# 6 0.0000 0.0000 0.0000 -1.7315 0.0000 234.2379
#
#
#
# Elastic Compliance Matrix: (Units=1/GPa)
#
#
# Indices 1 2 3 4 5 6 
#
# 1 0.011116 -0.003309 -0.004870 0.000000 0.002777 0.000000
# 2 -0.003309 0.013981 -0.002135 0.000000 -0.002747 0.000000
# 3 -0.004870 -0.002135 0.016146 0.000000 -0.003499 0.000000
# 4 0.000000 0.000000 0.000000 0.141534 0.000000 0.001046
# 5 0.002777 -0.002747 -0.003499 0.000000 0.026526 0.000000
# 6 0.000000 0.000000 0.000000 0.001046 0.000000 0.004277
#
#
# Mechanical properties :
#
#
# Convention : Reuss Voigt Hill
#
# Bulk Modulus (GPa) = 48.50898 52.40023 50.45460
# Shear Modulus (GPa) = 20.73999 68.67010 44.70505
#
# Velocity S-wave (km/s) = 3.29003 5.98660 4.83030
# Velocity P-wave (km/s) = 6.30473 8.66797 7.57903
#
# Compressibility (1/GPa) = 0.02061474
#
# Stress axis : x y z
#
# Youngs Moduli (GPa) = 89.96150 71.52347 61.93438
#
# Poissons Ratio (x) = 0.23669 0.30165
# Poissons Ratio (y) = 0.29770 0.13221
# Poissons Ratio (z) = 0.43816 0.15268
#
# Static dielectric constant tensor:
#      x y z
#    x 2.139800 0.000000 -0.128810 
#    y 0.000000 1.640680 0.000000 
#    z -0.128810 0.000000 1.711800 
# 
# From -- ./inp_files/57895.got.cif
#   From: 2010.05.17/outbox.cif.g08.bks.cpg/sg13_29_cif.got.tgz:57895.got - 2010.06.03 16:44:36.
