data_PCOD9230706
_publ_section_title
;
Structure prediction by ZEFSAII (Michael W. Deem and Ramdas Pophale) SiO2 
 PCOD9230706
Probable space group: P 2/C
;
_chemical_formula_sum "Si O2"
_cell_formula_units_Z 32
_cell_length_a 22.374363
_cell_length_b 11.279400
_cell_length_c 15.875055
_cell_angle_alpha 90.000000
_cell_angle_beta 20.717909
_cell_angle_gamma 90.000000
_cell_volume 1417.325185
_symmetry_space_group_name_H-M "P 2/C"
_symmetry_group_IT_number 13
_symmetry_cell_setting 'monoclinic'
loop_
_space_group_symop_operation_xyz
x,y,z
-x,y,1/2-z
-x,-y,-z
x,-y,1/2+z
loop_
_atom_site_type_symbol
_atom_site_label
_atom_site_fract_x
_atom_site_fract_y
_atom_site_fract_z
Si Si1 0.381559 0.688582 0.326274
Si Si2 0.451507 0.677069 0.910661
Si Si3 0.024518 0.773493 0.816834
Si Si4 0.334486 0.084167 0.527097
Si Si5 0.668407 0.532758 0.725630
Si Si6 0.864253 0.550497 0.114576
Si Si7 0.887812 0.027102 0.824062
Si Si8 0.531919 0.926878 0.371988
O O1 0.500000 0.664483 0.250000
O O2 0.218453 0.749639 0.581623
O O3 0.321491 0.570261 0.357742
O O4 0.449599 0.784684 0.167041
O O5 0.500000 0.675115 0.750000
O O6 0.365026 0.802319 0.045113
O O7 0.617938 0.653630 0.746126
O O8 0.313558 0.574829 0.105708
O O9 0.000000 0.748462 0.750000
O O10 0.001395 0.914358 0.854337
O O11 0.920970 0.677823 0.004389
O O12 0.500000 0.085188 0.250000
O O13 0.174657 0.094850 0.676807
O O14 0.366840 0.964296 0.534895
O O15 0.822328 0.529368 0.587880
O O16 0.500000 0.500000 0.000000
O O17 0.000000 0.500000 0.000000
O O18 0.000000 0.085051 0.750000
O O19 0.711519 0.978087 0.098178
O O20 0.500000 0.000000 0.500000
#
# Coordination Sequence:
#
# PCOD9230706 Si02
#       8
#     4   4   4   4   4   4   4   4
#     4  11  22  38  65  94 130 166 226 265 323 388
#     4  10  23  43  66  86 122 174 212 260 321 386
#     4  10  20  37  62  90 127 168 201 273 330 381
#     4   9  19  40  60  86 124 161 208 253 307 387
#     4  10  23  39  62  90 125 165 221 270 320 381
#     4  11  25  41  60  94 129 162 212 274 329 390
#     4   9  19  38  62  91 125 164 208 256 330 388
#     4  10  21  35  62  94 124 165 209 266 316 380
#
# _framework density 22.577739999999999
#
# number of rings (size 3 to 8) (size 9 to 14) (size 15 to 20)
#    0.000    2.000    1.250    2.250    8.750    0.000 
#    0.000    7.500    0.000    0.000    0.000    0.000 
#    0.000    0.000    0.000    0.000    0.000    0.000 
#
# Total GULP energy -178378.453114 kJ/mol
# GULP energy per Si atom -5574.326660 kJ/mol
# Density = 2.252635 g / cm^3
# Si number density = 22.577740 Si / 1000 Ang^3
#
#
#
# Elastic Constant Matrix: (Units=GPa)
#
#
# Indices 1 2 3 4 5 6 
#
# 1 138.8743 47.7794 26.8773 0.0000 -46.6600 0.0000
# 2 47.7794 68.5726 9.0527 0.0000 -11.7980 0.0000
# 3 26.8773 9.0527 34.4201 0.0000 -14.8087 0.0000
# 4 0.0000 0.0000 0.0000 23.1487 0.0000 -6.0959
# 5 -46.6600 -11.7980 -14.8087 0.0000 46.6388 0.0000
# 6 0.0000 0.0000 0.0000 -6.0959 0.0000 15.6205
#
#
#
# Elastic Compliance Matrix: (Units=1/GPa)
#
#
# Indices 1 2 3 4 5 6 
#
# 1 0.014368 -0.007518 -0.004489 0.000000 0.011047 0.000000
# 2 -0.007518 0.019404 -0.000414 0.000000 -0.002744 0.000000
# 3 -0.004489 -0.000414 0.035545 0.000000 0.006691 0.000000
# 4 0.000000 0.000000 0.000000 0.048147 0.000000 0.018789
# 5 0.011047 -0.002744 0.006691 0.000000 0.033924 0.000000
# 6 0.000000 0.000000 0.000000 0.018789 0.000000 0.071351
#
#
# Mechanical properties :
#
#
# Convention : Reuss Voigt Hill
#
# Bulk Modulus (GPa) = 22.48398 45.47622 33.98010
# Shear Modulus (GPa) = 19.05454 27.62544 23.33999
#
# Velocity S-wave (km/s) = 2.90824 3.50175 3.21870
# Velocity P-wave (km/s) = 4.61056 6.04446 5.37553
#
# Compressibility (1/GPa) = 0.04447611
#
# Stress axis : x y z
#
# Youngs Moduli (GPa) = 69.60041 51.53657 28.13302
#
# Poissons Ratio (x) = 0.38744 0.12629
# Poissons Ratio (y) = 0.52324 0.01163
# Poissons Ratio (z) = 0.31245 0.02131
#
# Static dielectric constant tensor:
#      x y z
#    x 1.914670 0.000000 -0.003670 
#    y 0.000000 1.961220 0.000000 
#    z -0.003670 0.000000 1.858600 
# 
# From -- ./inp_files/71465.got.cif
#   From: 2010.05.17/outbox.cif.g08.bks.cpg/sg13_36_cif.got.tgz:71465.got - 2010.06.03 16:44:36.
