data_PCOD9230163
_publ_section_title
;
Structure prediction by ZEFSAII (Michael W. Deem and Ramdas Pophale) SiO2 
 PCOD9230163
Probable space group: P 2/C
;
_chemical_formula_sum "Si O2"
_cell_formula_units_Z 18
_cell_length_a 17.747975
_cell_length_b 10.053624
_cell_length_c 8.663532
_cell_angle_alpha 90.000000
_cell_angle_beta 147.622927
_cell_angle_gamma 90.000000
_cell_volume 827.783753
_symmetry_space_group_name_H-M "P 2/C"
_symmetry_group_IT_number 13
_symmetry_cell_setting 'monoclinic'
loop_
_space_group_symop_operation_xyz
x,y,z
-x,y,1/2-z
-x,-y,-z
x,-y,1/2+z
loop_
_atom_site_type_symbol
_atom_site_label
_atom_site_fract_x
_atom_site_fract_y
_atom_site_fract_z
Si Si1 0.000000 0.057962 0.250000
Si Si2 0.318611 0.379846 0.254988
Si Si3 0.654798 0.347294 0.836704
Si Si4 0.602867 0.929514 0.294624
Si Si5 0.172263 0.136695 0.827221
O O1 0.894072 0.955006 0.152594
O O2 0.063689 0.146534 0.498438
O O3 0.486039 0.359254 0.513741
O O4 0.305235 0.366001 0.415199
O O5 0.279835 0.530578 0.142345
O O6 0.233162 0.270248 0.009452
O O7 0.685578 0.192751 0.860744
O O8 0.500000 0.875118 0.250000
O O9 0.704032 0.044525 0.527993
O O10 0.500000 0.000000 0.000000
#
# Coordination Sequence:
#
# PCOD9230163 Si02
#       5
#     2   4   4   4   4
#     4  10  24  40  66  88 122 174 230 254 300 344
#     4  10  20  37  59  84 129 159 199 246 315 377
#     4  10  20  36  55  93 124 161 188 244 328 394
#     4  12  21  36  60  95 129 157 196 257 330 379
#     4  11  22  42  63  91 124 167 214 268 297 373
#
# _framework density 21.744809
#
# number of rings (size 3 to 8) (size 9 to 14) (size 15 to 20)
#    0.000    1.333    4.444    2.667    0.000    3.556 
#    0.000    0.000    0.000   22.667    0.000    0.000 
#    0.000    0.000    0.000    0.000    0.000    0.000 
#
# Total GULP energy -100496.314535 kJ/mol
# GULP energy per Si atom -5583.128585 kJ/mol
# Density = 2.169532 g / cm^3
# Si number density = 21.744809 Si / 1000 Ang^3
#
#
#
# Elastic Constant Matrix: (Units=GPa)
#
#
# Indices 1 2 3 4 5 6 
#
# 1 48.3641 27.3061 22.4201 0.0000 -10.1570 0.0000
# 2 27.3061 175.8413 71.5411 0.0000 -23.8233 0.0000
# 3 22.4201 71.5411 131.8991 0.0000 -34.1737 0.0000
# 4 0.0000 0.0000 0.0000 39.5707 0.0000 -8.5833
# 5 -10.1570 -23.8233 -34.1737 0.0000 23.1763 0.0000
# 6 0.0000 0.0000 0.0000 -8.5833 0.0000 23.5033
#
#
#
# Elastic Compliance Matrix: (Units=1/GPa)
#
#
# Indices 1 2 3 4 5 6 
#
# 1 0.023880 -0.002394 -0.001111 0.000000 0.006366 0.000000
# 2 -0.002394 0.007643 -0.003196 0.000000 0.002095 0.000000
# 3 -0.001111 -0.003196 0.013798 0.000000 0.016573 0.000000
# 4 0.000000 0.000000 0.000000 0.027445 0.000000 0.010023
# 5 0.006366 0.002095 0.016573 0.000000 0.072527 0.000000
# 6 0.000000 0.000000 0.000000 0.010023 0.000000 0.046208
#
#
# Mechanical properties :
#
#
# Convention : Reuss Voigt Hill
#
# Bulk Modulus (GPa) = 31.32941 66.51545 48.92243
# Shear Modulus (GPa) = 23.19737 32.90588 28.05162
#
# Velocity S-wave (km/s) = 3.26973 3.89430 3.59561
# Velocity P-wave (km/s) = 5.35667 7.13276 6.30754
#
# Compressibility (1/GPa) = 0.03191889
#
# Stress axis : x y z
#
# Youngs Moduli (GPa) = 41.87591 130.84498 72.47633
#
# Poissons Ratio (x) = 0.31319 0.08055
# Poissons Ratio (y) = 0.10023 0.23161
# Poissons Ratio (z) = 0.04654 0.41814
#
# Static dielectric constant tensor:
#      x y z
#    x 1.825180 0.000000 0.028610 
#    y 0.000000 1.817940 0.000000 
#    z 0.028610 0.000000 1.818040 
# 
# From -- ./inp_files/14558.got.cif
#   From: 2010.05.17/outbox.cif.g08.bks.cpg/sg13_8_cif.got.tgz:14558.got - 2010.06.03 16:44:36.
