data_PCOD9230608
_publ_section_title
;
Structure prediction by ZEFSAII (Michael W. Deem and Ramdas Pophale) SiO2 
 PCOD9230608
Probable space group: P 2/C
;
_chemical_formula_sum "Si O2"
_cell_formula_units_Z 18
_cell_length_a 5.741808
_cell_length_b 8.721655
_cell_length_c 20.082399
_cell_angle_alpha 90.000000
_cell_angle_beta 122.646185
_cell_angle_gamma 90.000000
_cell_volume 846.807019
_symmetry_space_group_name_H-M "P 2/C"
_symmetry_group_IT_number 13
_symmetry_cell_setting 'monoclinic'
loop_
_space_group_symop_operation_xyz
x,y,z
-x,y,1/2-z
-x,-y,-z
x,-y,1/2+z
loop_
_atom_site_type_symbol
_atom_site_label
_atom_site_fract_x
_atom_site_fract_y
_atom_site_fract_z
Si Si1 0.018808 0.926952 0.826995
Si Si2 0.219785 0.597641 0.456679
Si Si3 0.999790 0.283085 0.452209
Si Si4 0.430120 0.196569 0.886464
Si Si5 0.500000 0.844329 0.250000
O O1 0.972260 0.814754 0.881517
O O2 0.000000 0.854902 0.750000
O O3 0.303504 0.025790 0.873169
O O4 0.770562 0.048842 0.793480
O O5 0.500000 0.500000 0.500000
O O6 0.998672 0.462745 0.431115
O O7 0.210233 0.692052 0.387798
O O8 0.209661 0.714590 0.517502
O O9 0.285651 0.223553 0.529892
O O10 0.480597 0.239230 0.817649
#
# Coordination Sequence:
#
# PCOD9230608 Si02
#       5
#     4   4   4   4   2
#     4  10  22  38  57  84 116 148 189 238 289 343
#     4   9  20  36  57  84 113 146 189 234 283 343
#     4  10  20  38  60  83 111 149 191 236 286 339
#     4  10  20  37  60  84 111 147 191 238 285 342
#     4  10  22  36  54  84 118 148 184 232 286 344
#
# _framework density 21.256321
#
# number of rings (size 3 to 8) (size 9 to 14) (size 15 to 20)
#    0.000    2.222    0.000    2.000    0.000   10.667 
#    0.000   10.000    0.000    1.333    0.000    0.000 
#    0.000    0.000    0.000    0.000    0.000    0.000 
#
# Total GULP energy -100353.675300 kJ/mol
# GULP energy per Si atom -5575.204183 kJ/mol
# Density = 2.120794 g / cm^3
# Si number density = 21.256321 Si / 1000 Ang^3
#
#
#
# Elastic Constant Matrix: (Units=GPa)
#
#
# Indices 1 2 3 4 5 6 
#
# 1 93.7426 20.5740 50.8429 0.0000 -36.5573 0.0000
# 2 20.5740 60.1201 61.0917 0.0000 -23.4416 0.0000
# 3 50.8429 61.0917 147.2380 0.0000 -50.3831 0.0000
# 4 0.0000 0.0000 0.0000 4.9970 0.0000 -20.9454
# 5 -36.5573 -23.4416 -50.3831 0.0000 53.9876 0.0000
# 6 0.0000 0.0000 0.0000 -20.9454 0.0000 30.0021
#
#
#
# Elastic Compliance Matrix: (Units=1/GPa)
#
#
# Indices 1 2 3 4 5 6 
#
# 1 0.015129 0.000806 -0.002841 0.000000 0.007944 0.000000
# 2 0.000806 0.028947 -0.011462 0.000000 0.002419 0.000000
# 3 -0.002841 -0.011462 0.014937 0.000000 0.007040 0.000000
# 4 0.000000 0.000000 0.000000 -0.103889 0.000000 -0.072528
# 5 0.007944 0.002419 0.007040 0.000000 0.031522 0.000000
# 6 0.000000 0.000000 0.000000 -0.072528 0.000000 -0.017303
#
#
# Mechanical properties :
#
#
# Convention : Reuss Voigt Hill
#
# Bulk Modulus (GPa) = 31.22841 62.90199 47.06520
# Shear Modulus (GPa) = 713.45339 29.03679 371.24509
#
# Velocity S-wave (km/s) = 18.34044 3.70000 13.22992
# Velocity P-wave (km/s) = 21.52252 6.92168 15.98637
#
# Compressibility (1/GPa) = 0.03202212
#
# Stress axis : x y z
#
# Youngs Moduli (GPa) = 66.09820 34.54550 66.94728
#
# Poissons Ratio (x) = -0.02786 0.19017
# Poissons Ratio (y) = -0.05331 0.76732
# Poissons Ratio (z) = 0.18776 0.39595
#
# Static dielectric constant tensor:
#      x y z
#    x 1.881100 0.000000 -0.024930 
#    y 0.000000 1.787400 0.000000 
#    z -0.024930 0.000000 1.784650 
# 
# From -- ./inp_files/60340.got.cif
#   From: 2010.05.17/outbox.cif.g08.bks.cpg/sg13_31_cif.got.tgz:60340.got - 2010.06.03 16:44:36.
