data_PCOD9230223
_publ_section_title
;
Structure prediction by ZEFSAII (Michael W. Deem and Ramdas Pophale) SiO2 
 PCOD9230223
Probable space group: P 2/C
;
_chemical_formula_sum "Si O2"
_cell_formula_units_Z 24
_cell_length_a 14.299512
_cell_length_b 8.307365
_cell_length_c 14.693190
_cell_angle_alpha 90.000000
_cell_angle_beta 135.385516
_cell_angle_gamma 90.000000
_cell_volume 1225.867961
_symmetry_space_group_name_H-M "P 2/C"
_symmetry_group_IT_number 13
_symmetry_cell_setting 'monoclinic'
loop_
_space_group_symop_operation_xyz
x,y,z
-x,y,1/2-z
-x,-y,-z
x,-y,1/2+z
loop_
_atom_site_type_symbol
_atom_site_label
_atom_site_fract_x
_atom_site_fract_y
_atom_site_fract_z
Si Si1 0.038633 0.365041 0.380707
Si Si2 0.268366 0.393804 0.002021
Si Si3 0.364964 0.867031 0.705568
Si Si4 0.870589 0.892814 0.421388
Si Si5 0.192804 0.404249 0.737523
Si Si6 0.454480 0.548040 0.866200
O O1 0.151054 0.501281 0.461164
O O2 0.102303 0.208841 0.468915
O O3 0.000000 0.333809 0.250000
O O4 0.908001 0.444353 0.336092
O O5 0.287171 0.233511 0.073593
O O6 0.413929 0.478054 0.102927
O O7 0.233129 0.375124 0.870760
O O8 0.500000 0.928748 0.750000
O O9 0.411004 0.733163 0.813050
O O10 0.264613 0.002754 0.671565
O O11 0.869396 0.758110 0.342598
O O12 0.000000 0.000000 0.500000
O O13 0.321139 0.444643 0.764747
O O14 0.500000 0.500000 0.000000
#
# Coordination Sequence:
#
# PCOD9230223 Si02
#       6
#     4   4   4   4   4   4
#     4  10  21  37  58  80 104 143 193 230 266 325
#     4   9  19  37  59  79 104 141 185 229 269 320
#     4  10  21  37  55  81 115 145 176 222 282 334
#     4  12  24  35  53  82 116 147 176 225 283 332
#     4  10  20  36  58  81 105 143 189 230 269 321
#     4   9  18  36  60  81 103 139 185 226 263 316
#
# _framework density 19.577966
#
# number of rings (size 3 to 8) (size 9 to 14) (size 15 to 20)
#    0.000    2.000    0.000    3.500    0.000    2.667 
#    0.000    7.500    0.000    0.000    0.000    0.000 
#    0.000    0.000    0.000    0.000    0.000    0.000 
#
# Total GULP energy -133827.519435 kJ/mol
# GULP energy per Si atom -5576.146643 kJ/mol
# Density = 1.953341 g / cm^3
# Si number density = 19.577966 Si / 1000 Ang^3
#
#
#
# Elastic Constant Matrix: (Units=GPa)
#
#
# Indices 1 2 3 4 5 6 
#
# 1 48.3091 14.7157 18.2849 0.0000 16.7288 0.0000
# 2 14.7157 61.1458 28.2741 0.0000 7.0870 0.0000
# 3 18.2849 28.2741 99.0068 0.0000 3.6904 0.0000
# 4 0.0000 0.0000 0.0000 3.9828 0.0000 34.2723
# 5 16.7288 7.0870 3.6904 0.0000 29.3232 0.0000
# 6 0.0000 0.0000 0.0000 34.2723 0.0000 6.1668
#
#
#
# Elastic Compliance Matrix: (Units=1/GPa)
#
#
# Indices 1 2 3 4 5 6 
#
# 1 0.028270 -0.003369 -0.003705 0.000000 -0.014847 0.000000
# 2 -0.003369 0.019698 -0.004920 0.000000 -0.002219 0.000000
# 3 -0.003705 -0.004920 0.012123 0.000000 0.001777 0.000000
# 4 0.000000 0.000000 0.000000 -0.005362 0.000000 0.029801
# 5 -0.014847 -0.002219 0.001777 0.000000 0.042886 0.000000
# 6 0.000000 0.000000 0.000000 0.029801 0.000000 -0.003463
#
#
# Mechanical properties :
#
#
# Convention : Reuss Voigt Hill
#
# Bulk Modulus (GPa) = 27.69979 36.77901 32.23940
# Shear Modulus (GPa) = 38.40967 17.70703 28.05835
#
# Velocity S-wave (km/s) = 4.43412 3.01065 3.78982
# Velocity P-wave (km/s) = 6.35566 5.55986 5.97103
#
# Compressibility (1/GPa) = 0.03610136
#
# Stress axis : x y z
#
# Youngs Moduli (GPa) = 35.37271 50.76763 82.48453
#
# Poissons Ratio (x) = 0.17106 0.30564
# Poissons Ratio (y) = 0.11919 0.40584
# Poissons Ratio (z) = 0.13107 0.24979
#
# Static dielectric constant tensor:
#      x y z
#    x 1.701770 0.000000 -0.012970 
#    y 0.000000 1.674640 0.000000 
#    z -0.012970 0.000000 1.729230 
# 
# From -- ./inp_files/53220.got.cif
#   From: 2010.05.17/outbox.cif.g08.bks.cpg/sg13_27_cif.got.tgz:53220.got - 2010.06.03 16:44:36.
