data_PCOD9230423
_publ_section_title
;
Structure prediction by ZEFSAII (Michael W. Deem and Ramdas Pophale) SiO2 
 PCOD9230423
Probable space group: P 2/C
;
_chemical_formula_sum "Si O2"
_cell_formula_units_Z 26
_cell_length_a 15.978151
_cell_length_b 10.144544
_cell_length_c 8.475848
_cell_angle_alpha 90.000000
_cell_angle_beta 64.503308
_cell_angle_gamma 90.000000
_cell_volume 1240.059199
_symmetry_space_group_name_H-M "P 2/C"
_symmetry_group_IT_number 13
_symmetry_cell_setting 'monoclinic'
loop_
_space_group_symop_operation_xyz
x,y,z
-x,y,1/2-z
-x,-y,-z
x,-y,1/2+z
loop_
_atom_site_type_symbol
_atom_site_label
_atom_site_fract_x
_atom_site_fract_y
_atom_site_fract_z
Si Si1 0.029081 0.209637 0.051037
Si Si2 0.212343 0.351142 0.969971
Si Si3 0.000000 0.957754 0.250000
Si Si4 0.146141 0.625288 0.874918
Si Si5 0.201462 0.884262 0.997290
Si Si6 0.601964 0.801792 0.176629
Si Si7 0.329637 0.998392 0.134919
O O1 0.000000 0.141936 0.250000
O O2 0.960295 0.335972 0.089038
O O3 0.135072 0.247450 0.976106
O O4 0.011768 0.121934 0.912896
O O5 0.174774 0.486150 0.924309
O O6 0.315230 0.299809 0.851479
O O7 0.201519 0.359805 0.167251
O O8 0.884895 0.967328 0.371981
O O9 0.172039 0.736321 0.980904
O O10 0.243944 0.947058 0.805664
O O11 0.285573 0.894533 0.050168
O O12 0.500000 0.741561 0.250000
O O13 0.602714 0.918393 0.306069
O O14 0.628048 0.879626 0.995095
#
# Coordination Sequence:
#
# PCOD9230423 Si02
#       7
#     4   4   2   4   4   4   4
#     4   8  18  38  59  89 123 165 203 255 308 370
#     4  11  23  43  63  87 130 173 215 266 309 373
#     4  10  20  36  62  96 134 160 210 264 320 368
#     4  11  23  40  63  88 129 174 221 250 306 389
#     4  11  22  39  62  97 128 171 206 264 319 381
#     4  11  23  43  70  96 126 163 210 271 333 379
#     4  10  22  40  68  93 129 160 207 264 334 386
#
# _framework density 20.966740000000001
#
# number of rings (size 3 to 8) (size 9 to 14) (size 15 to 20)
#    0.462    1.231    1.538    3.692    2.154    3.692 
#    4.154    0.769    0.000    0.000    0.000    0.000 
#    0.000    0.000    0.000    0.000    0.000    0.000 
#
# Total GULP energy -145074.946212 kJ/mol
# GULP energy per Si atom -5579.805624 kJ/mol
# Density = 2.091902 g / cm^3
# Si number density = 20.966740 Si / 1000 Ang^3
#
#
#
# Elastic Constant Matrix: (Units=GPa)
#
#
# Indices 1 2 3 4 5 6 
#
# 1 118.4796 54.8792 54.7252 0.0000 -28.5668 0.0000
# 2 54.8792 114.1117 31.3211 0.0000 -2.8211 0.0000
# 3 54.7252 31.3211 80.5540 0.0000 -1.4085 0.0000
# 4 0.0000 0.0000 0.0000 16.4600 0.0000 -1.6479
# 5 -28.5668 -2.8211 -1.4085 0.0000 28.7483 0.0000
# 6 0.0000 0.0000 0.0000 -1.6479 0.0000 19.2735
#
#
#
# Elastic Compliance Matrix: (Units=1/GPa)
#
#
# Indices 1 2 3 4 5 6 
#
# 1 0.022191 -0.006851 -0.012048 0.000000 0.020789 0.000000
# 2 -0.006851 0.011943 -0.000088 0.000000 -0.005640 0.000000
# 3 -0.012048 -0.000088 0.020441 0.000000 -0.010979 0.000000
# 4 0.000000 0.000000 0.000000 0.061278 0.000000 0.005239
# 5 0.020789 -0.005640 -0.010979 0.000000 0.054350 0.000000
# 6 0.000000 0.000000 0.000000 0.005239 0.000000 0.052333
#
#
# Mechanical properties :
#
#
# Convention : Reuss Voigt Hill
#
# Bulk Modulus (GPa) = 60.23899 66.11069 63.17484
# Shear Modulus (GPa) = 18.79381 24.37770 21.58576
#
# Velocity S-wave (km/s) = 2.99718 3.41352 3.21210
# Velocity P-wave (km/s) = 6.38518 6.86555 6.62972
#
# Compressibility (1/GPa) = 0.01660054
#
# Stress axis : x y z
#
# Youngs Moduli (GPa) = 45.06282 83.73115 48.92035
#
# Poissons Ratio (x) = 0.57367 0.58941
# Poissons Ratio (y) = 0.30874 0.00429
# Poissons Ratio (z) = 0.54294 0.00735
#
# Static dielectric constant tensor:
#      x y z
#    x 1.773110 0.000000 0.028440 
#    y 0.000000 1.811430 0.000000 
#    z 0.028440 0.000000 1.788730 
# 
# From -- ./inp_files/18682.got.cif
#   From: 2010.05.17/outbox.cif.g08.bks.cpg/sg13_10_cif.got.tgz:18682.got - 2010.06.03 16:44:36.
