data_PCOD9230573
_publ_section_title
;
Structure prediction by ZEFSAII (Michael W. Deem and Ramdas Pophale) SiO2 
 PCOD9230573
Probable space group: P 2/C
;
_chemical_formula_sum "Si O2"
_cell_formula_units_Z 24
_cell_length_a 11.230422
_cell_length_b 9.540081
_cell_length_c 12.631902
_cell_angle_alpha 90.000000
_cell_angle_beta 118.726028
_cell_angle_gamma 90.000000
_cell_volume 1186.808869
_symmetry_space_group_name_H-M "P 2/C"
_symmetry_group_IT_number 13
_symmetry_cell_setting 'monoclinic'
loop_
_space_group_symop_operation_xyz
x,y,z
-x,y,1/2-z
-x,-y,-z
x,-y,1/2+z
loop_
_atom_site_type_symbol
_atom_site_label
_atom_site_fract_x
_atom_site_fract_y
_atom_site_fract_z
Si Si1 0.083252 0.144815 0.048154
Si Si2 0.103788 0.310452 0.391900
Si Si3 0.530935 0.330183 0.139111
Si Si4 0.715657 0.544534 0.100820
Si Si5 0.155010 0.179073 0.843594
Si Si6 0.274942 0.099843 0.331443
O O1 0.189682 0.127942 0.188353
O O2 0.978580 0.264137 0.040878
O O3 0.156545 0.182737 0.971105
O O4 0.000000 0.000000 0.000000
O O5 0.197204 0.445895 0.439302
O O6 0.196287 0.179810 0.392785
O O7 0.000000 0.335302 0.250000
O O8 0.500000 0.331953 0.250000
O O9 0.651409 0.439842 0.160160
O O10 0.582699 0.177156 0.124503
O O11 0.404568 0.381418 0.015420
O O12 0.809007 0.668438 0.185360
O O13 0.000000 0.136309 0.750000
O O14 0.260602 0.063852 0.847783
#
# Coordination Sequence:
#
# PCOD9230573 Si02
#       6
#     4   4   4   4   4   4
#     4  11  19  34  58  88 118 154 184 227 295 354
#     4   9  18  36  58  84 120 157 182 227 294 351
#     4  10  22  44  60  75 110 162 202 230 281 352
#     4  10  23  38  59  87 114 152 196 241 282 334
#     4  12  22  35  57  92 121 139 186 248 290 340
#     4  10  20  37  59  80 116 152 191 235 287 340
#
# _framework density 20.222297000000001
#
# number of rings (size 3 to 8) (size 9 to 14) (size 15 to 20)
#    0.000    1.667    3.333    2.000    0.000    2.667 
#    0.000    0.833    0.000    0.000    0.000    0.000 
#    0.000    0.000    0.000    0.000    0.000    0.000 
#
# Total GULP energy -134065.288353 kJ/mol
# GULP energy per Si atom -5586.053681 kJ/mol
# Density = 2.017627 g / cm^3
# Si number density = 20.222297 Si / 1000 Ang^3
#
#
#
# Elastic Constant Matrix: (Units=GPa)
#
#
# Indices 1 2 3 4 5 6 
#
# 1 83.3762 49.0681 23.0165 0.0000 -16.3184 0.0000
# 2 49.0681 123.8544 7.6813 0.0000 -3.8860 0.0000
# 3 23.0165 7.6813 39.8473 0.0000 -17.5859 0.0000
# 4 0.0000 0.0000 0.0000 20.4298 0.0000 8.3395
# 5 -16.3184 -3.8860 -17.5859 0.0000 31.7199 0.0000
# 6 0.0000 0.0000 0.0000 8.3395 0.0000 45.5689
#
#
#
# Elastic Compliance Matrix: (Units=1/GPa)
#
#
# Indices 1 2 3 4 5 6 
#
# 1 0.019116 -0.006953 -0.007596 0.000000 0.004771 0.000000
# 2 -0.006953 0.010701 0.001262 0.000000 -0.001566 0.000000
# 3 -0.007596 0.001262 0.036519 0.000000 0.016494 0.000000
# 4 0.000000 0.000000 0.000000 0.052900 0.000000 -0.009681
# 5 0.004771 -0.001566 0.016494 0.000000 0.042933 0.000000
# 6 0.000000 0.000000 0.000000 -0.009681 0.000000 0.023717
#
#
# Mechanical properties :
#
#
# Convention : Reuss Voigt Hill
#
# Bulk Modulus (GPa) = 25.14873 45.17886 35.16379
# Shear Modulus (GPa) = 22.15193 30.69784 26.42489
#
# Velocity S-wave (km/s) = 3.31331 3.90040 3.61878
# Velocity P-wave (km/s) = 5.20581 6.53252 5.90653
#
# Compressibility (1/GPa) = 0.03976344
#
# Stress axis : x y z
#
# Youngs Moduli (GPa) = 52.31133 93.44867 27.38277
#
# Poissons Ratio (x) = 0.64971 0.20800
# Poissons Ratio (y) = 0.36370 -0.03456
# Poissons Ratio (z) = 0.39735 -0.11793
#
# Static dielectric constant tensor:
#      x y z
#    x 1.735420 0.000000 0.024980 
#    y 0.000000 1.726820 0.000000 
#    z 0.024980 0.000000 1.691680 
# 
# From -- ./inp_files/32527.got.cif
#   From: 2010.05.17/outbox.cif.g08.bks.cpg/sg13_17_cif.got.tgz:32527.got - 2010.06.03 16:44:36.
