data_PCOD9230923
_publ_section_title
;
Structure prediction by ZEFSAII (Michael W. Deem and Ramdas Pophale) SiO2 
 PCOD9230923
Probable space group: P 2/C
;
_chemical_formula_sum "Si O2"
_cell_formula_units_Z 28
_cell_length_a 18.306248
_cell_length_b 8.194463
_cell_length_c 17.322919
_cell_angle_alpha 90.000000
_cell_angle_beta 29.001855
_cell_angle_gamma 90.000000
_cell_volume 1259.904158
_symmetry_space_group_name_H-M "P 2/C"
_symmetry_group_IT_number 13
_symmetry_cell_setting 'monoclinic'
loop_
_space_group_symop_operation_xyz
x,y,z
-x,y,1/2-z
-x,-y,-z
x,-y,1/2+z
loop_
_atom_site_type_symbol
_atom_site_label
_atom_site_fract_x
_atom_site_fract_y
_atom_site_fract_z
Si Si1 0.571270 0.012401 0.100835
Si Si2 0.546034 0.711507 0.389997
Si Si3 0.459199 0.395728 0.378514
Si Si4 0.093253 0.121543 0.231583
Si Si5 0.945615 0.105492 0.976138
Si Si6 0.199962 0.636471 0.233755
Si Si7 0.230496 0.299231 0.254015
O O1 0.500000 0.983287 0.250000
O O2 0.531537 0.199343 0.116448
O O3 0.496034 0.875384 0.116305
O O4 0.753043 0.977473 0.932819
O O5 0.550907 0.547188 0.333016
O O6 0.688956 0.735238 0.311989
O O7 0.405666 0.681202 0.576141
O O8 0.500000 0.413644 0.250000
O O9 0.291289 0.419767 0.572409
O O10 0.153492 0.222830 0.248907
O O11 0.000000 0.211292 0.250000
O O12 0.959954 0.008218 0.389397
O O13 0.058997 0.251083 0.850909
O O14 0.797733 0.191634 0.144732
O O15 0.000000 0.000000 0.000000
O O16 0.162301 0.478127 0.318699
#
# Coordination Sequence:
#
# PCOD9230923 Si02
#       7
#     4   4   4   4   4   4   4
#     4  10  21  39  62  89 126 165 202 253 310 361
#     4  10  22  40  64  96 125 156 206 257 308 372
#     4  10  20  38  60  89 130 157 195 252 310 361
#     4  10  21  41  58  85 122 162 208 249 299 369
#     4  10  21  40  58  85 123 160 198 254 299 354
#     4  11  21  41  63  92 123 155 207 250 311 370
#     4   9  20  39  63  86 122 158 195 257 308 359
#
# _framework density 22.223911000000001
#
# number of rings (size 3 to 8) (size 9 to 14) (size 15 to 20)
#    0.000    2.000    1.429    2.571    0.000    2.857 
#   15.429    0.714    0.000    0.000    0.000    0.000 
#    0.000    0.000    0.000    0.000    0.000    0.000 
#
# Total GULP energy -155999.936433 kJ/mol
# GULP energy per Si atom -5571.426301 kJ/mol
# Density = 2.217333 g / cm^3
# Si number density = 22.223911 Si / 1000 Ang^3
#
#
#
# Elastic Constant Matrix: (Units=GPa)
#
#
# Indices 1 2 3 4 5 6 
#
# 1 67.8995 2.5358 28.1283 0.0000 -4.5555 0.0000
# 2 2.5358 58.8682 19.1895 0.0000 4.8619 0.0000
# 3 28.1283 19.1895 91.0870 0.0000 21.6596 0.0000
# 4 0.0000 0.0000 0.0000 30.6485 0.0000 8.6502
# 5 -4.5555 4.8619 21.6596 0.0000 20.7039 0.0000
# 6 0.0000 0.0000 0.0000 8.6502 0.0000 16.2316
#
#
#
# Elastic Compliance Matrix: (Units=1/GPa)
#
#
# Indices 1 2 3 4 5 6 
#
# 1 0.019646 0.001137 -0.009679 0.000000 0.014181 0.000000
# 2 0.001137 0.018307 -0.004320 0.000000 0.000471 0.000000
# 3 -0.009679 -0.004320 0.020157 0.000000 -0.022202 0.000000
# 4 0.000000 0.000000 0.000000 0.038405 0.000000 -0.020467
# 5 0.014181 0.000471 -0.022202 0.000000 0.074537 0.000000
# 6 0.000000 0.000000 0.000000 -0.020467 0.000000 0.072516
#
#
# Mechanical properties :
#
#
# Convention : Reuss Voigt Hill
#
# Bulk Modulus (GPa) = 30.87542 35.28469 33.08005
# Shear Modulus (GPa) = 17.85167 24.71688 21.28428
#
# Velocity S-wave (km/s) = 2.83727 3.33855 3.09806
# Velocity P-wave (km/s) = 4.96553 5.54730 5.26446
#
# Compressibility (1/GPa) = 0.03238823
#
# Stress axis : x y z
#
# Youngs Moduli (GPa) = 50.90080 54.62259 49.61071
#
# Poissons Ratio (x) = -0.06213 0.48016
# Poissons Ratio (y) = -0.05790 0.21432
# Poissons Ratio (z) = 0.49265 0.23597
#
# Static dielectric constant tensor:
#      x y z
#    x 1.833670 0.000000 0.008050 
#    y 0.000000 1.850660 0.000000 
#    z 0.008050 0.000000 1.858790 
# 
# From -- ./inp_files/70470.got.cif
#   From: 2010.05.17/outbox.cif.g08.bks.cpg/sg13_36_cif.got.tgz:70470.got - 2010.06.03 16:44:36.
