data_PCOD9230497
_publ_section_title
;
Structure prediction by ZEFSAII (Michael W. Deem and Ramdas Pophale) SiO2 
 PCOD9230497
Probable space group: P 2/C
;
_chemical_formula_sum "Si O2"
_cell_formula_units_Z 12
_cell_length_a 7.334266
_cell_length_b 13.553049
_cell_length_c 5.168337
_cell_angle_alpha 90.000000
_cell_angle_beta 78.567480
_cell_angle_gamma 90.000000
_cell_volume 503.548082
_symmetry_space_group_name_H-M "P 2/C"
_symmetry_group_IT_number 13
_symmetry_cell_setting 'monoclinic'
loop_
_space_group_symop_operation_xyz
x,y,z
-x,y,1/2-z
-x,-y,-z
x,-y,1/2+z
loop_
_atom_site_type_symbol
_atom_site_label
_atom_site_fract_x
_atom_site_fract_y
_atom_site_fract_z
Si Si1 0.000000 0.155711 0.250000
Si Si2 0.212303 0.257705 0.793869
Si Si3 0.500000 0.568894 0.250000
Si Si4 0.718683 0.064377 0.012238
O O1 0.828455 0.218353 0.404750
O O2 0.067982 0.091649 0.470054
O O3 0.325181 0.357619 0.773643
O O4 0.324111 0.171831 0.603462
O O5 0.000000 0.273807 0.750000
O O6 0.500000 0.500000 0.500000
O O7 0.671661 0.982654 0.808424
#
# Coordination Sequence:
#
# PCOD9230497 Si02
#       4
#     2   4   2   4
#     4  10  20  36  68 104 150 180 230 274 330 414
#     4  10  25  45  74 106 144 180 235 286 344 418
#     4  12  32  54  76  98 134 182 238 308 368 408
#     4  11  20  34  64 106 146 189 223 264 333 415
#
# _framework density 23.830888999999999
#
# number of rings (size 3 to 8) (size 9 to 14) (size 15 to 20)
#    0.000    1.333    3.333    1.000   11.667    1.333 
#    0.000    1.667    0.000    0.000    0.000    0.000 
#    0.000    0.000    0.000    0.000    0.000    0.000 
#
# Total GULP energy -66845.858775 kJ/mol
# GULP energy per Si atom -5570.488231 kJ/mol
# Density = 2.377665 g / cm^3
# Si number density = 23.830889 Si / 1000 Ang^3
#
#
#
# Elastic Constant Matrix: (Units=GPa)
#
#
# Indices 1 2 3 4 5 6 
#
# 1 100.1428 64.4608 41.3252 0.0000 15.4909 0.0000
# 2 64.4608 197.7733 92.7579 0.0000 0.9940 0.0000
# 3 41.3252 92.7579 217.3715 0.0000 3.1135 0.0000
# 4 0.0000 0.0000 0.0000 47.1439 0.0000 0.4201
# 5 15.4909 0.9940 3.1135 0.0000 39.3966 0.0000
# 6 0.0000 0.0000 0.0000 0.4201 0.0000 79.2773
#
#
#
# Elastic Compliance Matrix: (Units=1/GPa)
#
#
# Indices 1 2 3 4 5 6 
#
# 1 0.013753 -0.004082 -0.000798 0.000000 -0.005242 0.000000
# 2 -0.004082 0.007533 -0.002462 0.000000 0.001610 0.000000
# 3 -0.000798 -0.002462 0.005804 0.000000 -0.000083 0.000000
# 4 0.000000 0.000000 0.000000 0.021213 0.000000 -0.000112
# 5 -0.005242 0.001610 -0.000083 0.000000 0.027410 0.000000
# 6 0.000000 0.000000 0.000000 -0.000112 0.000000 0.012615
#
#
# Mechanical properties :
#
#
# Convention : Reuss Voigt Hill
#
# Bulk Modulus (GPa) = 80.59698 101.37505 90.98601
# Shear Modulus (GPa) = 46.66517 54.27982 50.47249
#
# Velocity S-wave (km/s) = 4.42993 4.77771 4.60711
# Velocity P-wave (km/s) = 7.74981 8.54793 8.15863
#
# Compressibility (1/GPa) = 0.01240741
#
# Stress axis : x y z
#
# Youngs Moduli (GPa) = 72.70907 132.74462 172.30467
#
# Poissons Ratio (x) = 0.54190 0.13744
# Poissons Ratio (y) = 0.29682 0.42414
# Poissons Ratio (z) = 0.05799 0.32676
#
# Static dielectric constant tensor:
#      x y z
#    x 2.126930 0.000000 -0.091750 
#    y 0.000000 1.868520 0.000000 
#    z -0.091750 0.000000 2.076570 
# 
# From -- ./inp_files/765.got.cif
#   From: 2010.05.17/outbox.cif.g08.bks.cpg/sg13_1_cif.got.tgz:765.got - 2010.06.03 16:44:36.
