data_PCOD9230254
_publ_section_title
;
Structure prediction by ZEFSAII (Michael W. Deem and Ramdas Pophale) SiO2 
 PCOD9230254
Probable space group: P 2/C
;
_chemical_formula_sum "Si O2"
_cell_formula_units_Z 32
_cell_length_a 9.730871
_cell_length_b 15.909928
_cell_length_c 11.758093
_cell_angle_alpha 90.000000
_cell_angle_beta 100.472585
_cell_angle_gamma 90.000000
_cell_volume 1790.034517
_symmetry_space_group_name_H-M "P 2/C"
_symmetry_group_IT_number 13
_symmetry_cell_setting 'monoclinic'
loop_
_space_group_symop_operation_xyz
x,y,z
-x,y,1/2-z
-x,-y,-z
x,-y,1/2+z
loop_
_atom_site_type_symbol
_atom_site_label
_atom_site_fract_x
_atom_site_fract_y
_atom_site_fract_z
Si Si1 0.616101 0.384611 0.008444
Si Si2 0.423081 0.195223 0.492055
Si Si3 0.372484 0.063754 0.656337
Si Si4 0.318558 0.098059 0.033121
Si Si5 0.769053 0.173891 0.241819
Si Si6 0.160411 0.633622 0.757195
Si Si7 0.152867 0.007859 0.811236
Si Si8 0.616977 0.453675 0.365633
O O1 0.600925 0.288724 0.968244
O O2 0.741265 0.387751 0.119668
O O3 0.467575 0.406321 0.046622
O O4 0.646466 0.453465 0.917386
O O5 0.335684 0.131662 0.556770
O O6 0.581202 0.161667 0.518104
O O7 0.371758 0.189401 0.353423
O O8 0.500000 0.096151 0.750000
O O9 0.253767 0.038463 0.725822
O O10 0.413539 0.977462 0.598578
O O11 0.255344 0.144865 0.132615
O O12 0.207679 0.051358 0.934930
O O13 0.840761 0.264799 0.253154
O O14 0.839820 0.094063 0.189723
O O15 0.247020 0.593217 0.664456
O O16 0.000000 0.604903 0.750000
O O17 0.000000 0.033944 0.750000
O O18 0.500000 0.458566 0.250000
#
# Coordination Sequence:
#
# PCOD9230254 Si02
#       8
#     4   4   4   4   4   4   4   4
#     4   9  20  35  59  84 108 145 183 230 277 338
#     4  11  19  35  57  84 110 138 190 238 282 326
#     4  11  21  34  55  77 106 144 187 237 276 327
#     4  11  20  35  56  78 110 150 187 240 275 326
#     4  10  21  35  56  84 110 148 192 233 279 332
#     4  10  20  36  58  87 117 143 182 233 277 337
#     4  11  23  38  52  76 112 154 195 225 282 331
#     4   9  18  37  59  83 112 142 183 225 282 339
#
# _framework density 17.876750000000001
#
# number of rings (size 3 to 8) (size 9 to 14) (size 15 to 20)
#    0.000    1.750    2.500    3.375    0.000    5.000 
#    4.500    0.000    0.000    0.750    0.000    0.000 
#    0.000    0.000    0.000    0.000    0.000    0.000 
#
# Total GULP energy -178365.534119 kJ/mol
# GULP energy per Si atom -5573.922941 kJ/mol
# Density = 1.783606 g / cm^3
# Si number density = 17.876750 Si / 1000 Ang^3
#
#
#
# Elastic Constant Matrix: (Units=GPa)
#
#
# Indices 1 2 3 4 5 6 
#
# 1 92.9393 38.0175 30.3516 0.0000 -2.6837 0.0000
# 2 38.0175 98.6342 27.3018 0.0000 -0.3600 0.0000
# 3 30.3516 27.3018 63.1345 0.0000 -1.4473 0.0000
# 4 0.0000 0.0000 0.0000 570.5308 0.0000 -950.5499
# 5 -2.6837 -0.3600 -1.4473 0.0000 12.8912 0.0000
# 6 0.0000 0.0000 0.0000 -950.5499 0.0000 1695.5866
#
#
#
# Elastic Compliance Matrix: (Units=1/GPa)
#
#
# Indices 1 2 3 4 5 6 
#
# 1 0.014108 -0.004052 -0.004979 0.000000 0.002265 0.000000
# 2 -0.004052 0.012681 -0.003556 0.000000 -0.000889 0.000000
# 3 -0.004979 -0.003556 0.019795 0.000000 0.001087 0.000000
# 4 0.000000 0.000000 0.000000 0.026560 0.000000 0.014890
# 5 0.002265 -0.000889 0.001087 0.000000 0.078141 0.000000
# 6 0.000000 0.000000 0.000000 0.014890 0.000000 0.008937
#
#
# Mechanical properties :
#
#
# Convention : Reuss Voigt Hill
#
# Bulk Modulus (GPa) = 46.70296 49.56109 48.13202
# Shear Modulus (GPa) = 25.96947 466.40419 246.18683
#
# Velocity S-wave (km/s) = 3.81556 16.16992 11.74787
# Velocity P-wave (km/s) = 6.75226 19.40118 14.52582
#
# Compressibility (1/GPa) = 0.02141192
#
# Stress axis : x y z
#
# Youngs Moduli (GPa) = 70.88032 78.85636 50.51663
#
# Poissons Ratio (x) = 0.31949 0.25150
# Poissons Ratio (y) = 0.28718 0.17966
# Poissons Ratio (z) = 0.35288 0.28045
#
# Static dielectric constant tensor:
#      x y z
#    x 1.622170 0.000000 -0.016920 
#    y 0.000000 1.614270 0.000000 
#    z -0.016920 0.000000 1.635830 
# 
# From -- ./inp_files/30404.got.cif
#   From: 2010.05.17/outbox.cif.g08.bks.cpg/sg13_16_cif.got.tgz:30404.got - 2010.06.03 16:44:36.
