data_PCOD9230012
_publ_section_title
;
Structure prediction by ZEFSAII (Michael W. Deem and Ramdas Pophale) SiO2 
 PCOD9230012
Probable space group: P 2/C
;
_chemical_formula_sum "Si O2"
_cell_formula_units_Z 30
_cell_length_a 12.922656
_cell_length_b 11.210760
_cell_length_c 15.661593
_cell_angle_alpha 90.000000
_cell_angle_beta 48.201963
_cell_angle_gamma 90.000000
_cell_volume 1691.491197
_symmetry_space_group_name_H-M "P 2/C"
_symmetry_group_IT_number 13
_symmetry_cell_setting 'monoclinic'
loop_
_space_group_symop_operation_xyz
x,y,z
-x,y,1/2-z
-x,-y,-z
x,-y,1/2+z
loop_
_atom_site_type_symbol
_atom_site_label
_atom_site_fract_x
_atom_site_fract_y
_atom_site_fract_z
Si Si1 0.161101 0.859341 0.162659
Si Si2 0.131890 0.941981 0.824363
Si Si3 0.366503 0.238972 0.940466
Si Si4 0.500000 0.437556 0.750000
Si Si5 0.364150 0.556568 0.674750
Si Si6 0.582477 0.305834 0.948705
Si Si7 0.151412 0.296649 0.205578
Si Si8 0.193169 0.982285 0.475662
O O1 0.274280 0.755838 0.106132
O O2 0.000000 0.818477 0.250000
O O3 0.165747 0.947693 0.242383
O O4 0.196866 0.932159 0.056403
O O5 0.163662 0.824540 0.752888
O O6 0.966025 0.935083 0.933490
O O7 0.205658 0.957037 0.875581
O O8 0.407582 0.347448 0.856685
O O9 0.501875 0.220769 0.925627
O O10 0.251167 0.284878 0.069505
O O11 0.304111 0.123702 0.928009
O O12 0.399141 0.521302 0.751191
O O13 0.389019 0.432871 0.611166
O O14 0.474306 0.657035 0.582478
O O15 0.212503 0.601957 0.733297
O O16 0.000000 0.314156 0.250000
#
# Coordination Sequence:
#
# PCOD9230012 Si02
#       8
#     4   4   4   2   4   4   4   4
#     4  10  20  37  59  86 123 157 189 254 309 363
#     4  10  20  35  58  88 121 152 195 244 299 367
#     4  10  20  37  62  82 115 164 200 242 296 375
#     4  10  22  40  58  84 118 158 210 262 302 350
#     4   9  21  38  58  80 113 159 199 252 299 350
#     4   9  20  38  57  80 112 156 203 240 301 354
#     4  11  19  39  64  86 119 165 203 242 310 374
#     4  10  20  35  57  89 118 157 196 237 309 363
#
# _framework density 17.735831000000001
#
# number of rings (size 3 to 8) (size 9 to 14) (size 15 to 20)
#    0.000    2.133    2.667    1.200    3.733    2.133 
#    0.000    0.667    0.000    0.000    0.000    0.000 
#    0.000    0.000    0.000    0.000    0.000    0.000 
#
# Total GULP energy -167125.124365 kJ/mol
# GULP energy per Si atom -5570.837479 kJ/mol
# Density = 1.769546 g / cm^3
# Si number density = 17.735831 Si / 1000 Ang^3
#
#
#
# Elastic Constant Matrix: (Units=GPa)
#
#
# Indices 1 2 3 4 5 6 
#
# 1 130.8741 67.0798 52.4624 0.0000 4.9317 0.0000
# 2 67.0798 64.2817 32.2043 0.0000 -6.3138 0.0000
# 3 52.4624 32.2043 79.6548 0.0000 11.5564 0.0000
# 4 0.0000 0.0000 0.0000 -7.8560 0.0000 -2.7231
# 5 4.9317 -6.3138 11.5564 0.0000 27.1052 0.0000
# 6 0.0000 0.0000 0.0000 -2.7231 0.0000 33.7093
#
#
#
# Elastic Compliance Matrix: (Units=1/GPa)
#
#
# Indices 1 2 3 4 5 6 
#
# 1 0.018846 -0.018116 -0.004241 0.000000 -0.005841 0.000000
# 2 -0.018116 0.038912 -0.005963 0.000000 0.014902 0.000000
# 3 -0.004241 -0.005963 0.019024 0.000000 -0.008728 0.000000
# 4 0.000000 0.000000 0.000000 -0.123824 0.000000 -0.010003
# 5 -0.005841 0.014902 -0.008728 0.000000 0.045149 0.000000
# 6 0.000000 0.000000 0.000000 -0.010003 0.000000 0.028857
#
#
# Mechanical properties :
#
#
# Convention : Reuss Voigt Hill
#
# Bulk Modulus (GPa) = 49.64321 64.25595 56.94958
# Shear Modulus (GPa) = 55.36029 18.79598 37.07814
#
# Velocity S-wave (km/s) = 5.59299 3.25895 4.57724
# Velocity P-wave (km/s) = 8.35224 7.10416 7.75335
#
# Compressibility (1/GPa) = 0.02014374
#
# Stress axis : x y z
#
# Youngs Moduli (GPa) = 53.06072 25.69927 52.56388
#
# Poissons Ratio (x) = 0.46556 0.22293
# Poissons Ratio (y) = 0.96123 0.31342
# Poissons Ratio (z) = 0.22504 0.15323
#
# Static dielectric constant tensor:
#      x y z
#    x 1.634090 0.000000 0.016180 
#    y 0.000000 1.589270 0.000000 
#    z 0.016180 0.000000 1.613460 
# 
# From -- ./inp_files/51163.got.cif
#   From: 2010.05.17/outbox.cif.g08.bks.cpg/sg13_26_cif.got.tgz:51163.got - 2010.06.03 16:44:36.
