data_PCOD9230875
_publ_section_title
;
Structure prediction by ZEFSAII (Michael W. Deem and Ramdas Pophale) SiO2 
 PCOD9230875
Probable space group: P 2/C
;
_chemical_formula_sum "Si O2"
_cell_formula_units_Z 30
_cell_length_a 5.337535
_cell_length_b 34.075799
_cell_length_c 8.650487
_cell_angle_alpha 90.000000
_cell_angle_beta 120.785821
_cell_angle_gamma 90.000000
_cell_volume 1351.650095
_symmetry_space_group_name_H-M "P 2/C"
_symmetry_group_IT_number 13
_symmetry_cell_setting 'monoclinic'
loop_
_space_group_symop_operation_xyz
x,y,z
-x,y,1/2-z
-x,-y,-z
x,-y,1/2+z
loop_
_atom_site_type_symbol
_atom_site_label
_atom_site_fract_x
_atom_site_fract_y
_atom_site_fract_z
Si Si1 0.274652 0.610473 0.956940
Si Si2 0.964187 0.323142 0.919178
Si Si3 0.649109 0.963510 0.629915
Si Si4 0.500000 0.644100 0.750000
Si Si5 0.909422 0.766078 0.054771
Si Si6 0.350612 0.876741 0.871617
Si Si7 0.213133 0.524360 0.959219
Si Si8 0.391419 0.795815 0.038968
O O1 0.521713 0.615844 0.906526
O O2 0.287364 0.568215 0.039570
O O3 0.000000 0.613333 0.750000
O O4 0.258323 0.647286 0.066000
O O5 0.932705 0.276413 0.902349
O O6 0.000000 0.335131 0.750000
O O7 0.236669 0.327799 0.122134
O O8 0.500000 0.962167 0.750000
O O9 0.586649 0.920151 0.540775
O O10 0.000000 0.968387 0.750000
O O11 0.500000 0.000000 0.500000
O O12 0.561032 0.767065 0.972592
O O13 0.000000 0.784331 0.250000
O O14 0.044636 0.788801 0.953083
O O15 0.500000 0.873904 0.750000
O O16 0.000000 0.874555 0.750000
O O17 0.452096 0.839792 0.003376
O O18 0.000000 0.531796 0.750000
O O19 0.500000 0.500000 0.000000
O O20 0.000000 0.500000 0.000000
O O21 0.500000 0.789489 0.250000
#
# Coordination Sequence:
#
# PCOD9230875 Si02
#       8
#     4   4   4   2   4   4   4   4
#     4   9  22  41  65  87 128 167 208 259 317 377
#     4  10  22  41  64  92 123 165 208 263 321 373
#     4  10  21  38  60  86 122 160 207 262 319 380
#     4  10  22  42  62  88 126 160 210 252 312 382
#     4   9  20  37  60  87 120 154 199 253 304 356
#     4  10  21  38  56  84 121 158 198 254 315 371
#     4  11  25  44  68  97 132 171 212 266 319 380
#     4  10  20  38  59  84 117 158 202 248 300 368
#
# _framework density 22.195093
#
# number of rings (size 3 to 8) (size 9 to 14) (size 15 to 20)
#    0.000    2.133    0.000    1.600    7.467    1.600 
#    6.000    2.000    0.000    0.000    0.000    0.000 
#    0.000    0.000    0.000    0.000    0.000    0.000 
#
# Total GULP energy -167027.306163 kJ/mol
# GULP energy per Si atom -5567.576872 kJ/mol
# Density = 2.214458 g / cm^3
# Si number density = 22.195093 Si / 1000 Ang^3
#
#
#
# Elastic Constant Matrix: (Units=GPa)
#
#
# Indices 1 2 3 4 5 6 
#
# 1 144.6991 57.0606 26.8275 0.0000 -24.2199 0.0000
# 2 57.0606 177.8809 41.2651 0.0000 -30.2781 0.0000
# 3 26.8275 41.2651 65.5052 0.0000 -5.7580 0.0000
# 4 0.0000 0.0000 0.0000 31.3860 0.0000 -4.3449
# 5 -24.2199 -30.2781 -5.7580 0.0000 39.4239 0.0000
# 6 0.0000 0.0000 0.0000 -4.3449 0.0000 22.6403
#
#
#
# Elastic Compliance Matrix: (Units=1/GPa)
#
#
# Indices 1 2 3 4 5 6 
#
# 1 0.008570 -0.001615 -0.002166 0.000000 0.003708 0.000000
# 2 -0.001615 0.007788 -0.003855 0.000000 0.004425 0.000000
# 3 -0.002166 -0.003855 0.018441 0.000000 -0.001598 0.000000
# 4 0.000000 0.000000 0.000000 0.032731 0.000000 0.006281
# 5 0.003708 0.004425 -0.001598 0.000000 0.030809 0.000000
# 6 0.000000 0.000000 0.000000 0.006281 0.000000 0.045375
#
#
# Mechanical properties :
#
#
# Convention : Reuss Voigt Hill
#
# Bulk Modulus (GPa) = 51.21602 70.93242 61.07422
# Shear Modulus (GPa) = 30.21232 36.21884 33.21558
#
# Velocity S-wave (km/s) = 3.69347 4.04399 3.87270
# Velocity P-wave (km/s) = 6.42763 7.33710 6.89737
#
# Compressibility (1/GPa) = 0.01952514
#
# Stress axis : x y z
#
# Youngs Moduli (GPa) = 116.68311 128.41005 54.22619
#
# Poissons Ratio (x) = 0.20744 0.11747
# Poissons Ratio (y) = 0.18850 0.20905
# Poissons Ratio (z) = 0.25277 0.49504
#
# Static dielectric constant tensor:
#      x y z
#    x 2.487790 0.000000 -0.113150 
#    y 0.000000 1.856530 0.000000 
#    z -0.113150 0.000000 1.899420 
# 
# From -- ./inp_files/10354.got.cif
#   From: 2010.05.17/outbox.cif.g08.bks.cpg/sg13_6_cif.got.tgz:10354.got - 2010.06.03 16:44:36.
