data_PCOD9230064
_publ_section_title
;
Structure prediction by ZEFSAII (Michael W. Deem and Ramdas Pophale) SiO2 
 PCOD9230064
Probable space group: P 2/C
;
_chemical_formula_sum "Si O2"
_cell_formula_units_Z 32
_cell_length_a 10.924511
_cell_length_b 8.085994
_cell_length_c 24.384489
_cell_angle_alpha 90.000000
_cell_angle_beta 34.601528
_cell_angle_gamma 90.000000
_cell_volume 1223.192234
_symmetry_space_group_name_H-M "P 2/C"
_symmetry_group_IT_number 13
_symmetry_cell_setting 'monoclinic'
loop_
_space_group_symop_operation_xyz
x,y,z
-x,y,1/2-z
-x,-y,-z
x,-y,1/2+z
loop_
_atom_site_type_symbol
_atom_site_label
_atom_site_fract_x
_atom_site_fract_y
_atom_site_fract_z
Si Si1 0.798955 0.909297 0.041542
Si Si2 0.908475 0.467613 0.473428
Si Si3 0.934350 0.015221 0.639256
Si Si4 0.602523 0.754992 0.265426
Si Si5 0.491553 0.346715 0.089647
Si Si6 0.746939 0.335566 0.833053
Si Si7 0.694739 0.681752 0.719635
Si Si8 0.229745 0.036886 0.176680
O O1 0.566765 0.906442 0.156934
O O2 0.809910 0.715365 0.020876
O O3 0.826199 0.998014 0.972100
O O4 0.000000 0.000000 0.000000
O O5 0.735418 0.594405 0.512386
O O6 0.000000 0.500000 0.500000
O O7 0.113124 0.447794 0.358861
O O8 0.812108 0.853643 0.662841
O O9 0.852662 0.017167 0.731656
O O10 0.824188 0.178664 0.658079
O O11 0.500000 0.667669 0.250000
O O12 0.661141 0.672565 0.301464
O O13 0.379764 0.502165 0.100023
O O14 0.392174 0.322888 0.187291
O O15 0.411653 0.170528 0.095694
O O16 0.000000 0.366156 0.750000
O O17 0.716784 0.146773 0.866781
O O18 0.500000 0.667197 0.750000
O O19 0.000000 0.125461 0.250000
#
# Coordination Sequence:
#
# PCOD9230064 Si02
#       8
#     4   4   4   4   4   4   4   4
#     4  11  22  36  58  92 132 168 205 271 330 394
#     4  11  23  38  55  91 131 167 218 267 332 396
#     4   9  20  35  59  90 125 167 208 257 336 388
#     4  11  20  35  62  95 127 167 221 271 326 390
#     4  11  21  39  66  90 124 175 217 269 332 387
#     4  10  22  40  66  95 130 170 220 272 331 394
#     4  10  20  35  60  84 128 171 209 267 329 391
#     4   9  20  40  69  91 121 173 230 269 321 396
#
# _framework density 26.161055000000001
#
# number of rings (size 3 to 8) (size 9 to 14) (size 15 to 20)
#    0.000    1.750    3.750    0.750    1.750    2.500 
#    0.000    0.000    2.750    9.000    0.000    0.000 
#    0.000    0.000    0.000    0.000    0.000    0.000 
#
# Total GULP energy -178252.273923 kJ/mol
# GULP energy per Si atom -5570.383560 kJ/mol
# Density = 2.610151 g / cm^3
# Si number density = 26.161055 Si / 1000 Ang^3
#
#
#
# Elastic Constant Matrix: (Units=GPa)
#
#
# Indices 1 2 3 4 5 6 
#
# 1 60.3892 2.1343 24.8582 0.0000 -26.1795 0.0000
# 2 2.1343 127.3664 13.1491 0.0000 -22.5835 0.0000
# 3 24.8582 13.1491 105.0449 0.0000 -13.8397 0.0000
# 4 0.0000 0.0000 0.0000 49.7792 0.0000 -13.1703
# 5 -26.1795 -22.5835 -13.8397 0.0000 47.0215 0.0000
# 6 0.0000 0.0000 0.0000 -13.1703 0.0000 17.8991
#
#
#
# Elastic Compliance Matrix: (Units=1/GPa)
#
#
# Indices 1 2 3 4 5 6 
#
# 1 0.023951 0.002381 -0.004222 0.000000 0.013236 0.000000
# 2 0.002381 0.008850 -0.000974 0.000000 0.005290 0.000000
# 3 -0.004222 -0.000974 0.010684 0.000000 0.000326 0.000000
# 4 0.000000 0.000000 0.000000 0.024945 0.000000 0.018355
# 5 0.013236 0.005290 0.000326 0.000000 0.031272 0.000000
# 6 0.000000 0.000000 0.000000 0.018355 0.000000 0.069375
#
#
# Mechanical properties :
#
#
# Convention : Reuss Voigt Hill
#
# Bulk Modulus (GPa) = 26.41700 41.45375 33.93537
# Shear Modulus (GPa) = 26.69157 39.78389 33.23773
#
# Velocity S-wave (km/s) = 3.19765 3.90388 3.56828
# Velocity P-wave (km/s) = 4.87371 6.01668 5.47510
#
# Compressibility (1/GPa) = 0.03785441
#
# Stress axis : x y z
#
# Youngs Moduli (GPa) = 41.75192 112.99508 93.59990
#
# Poissons Ratio (x) = -0.26909 0.39519
# Poissons Ratio (y) = -0.09943 0.09121
# Poissons Ratio (z) = 0.17628 0.11011
#
# Static dielectric constant tensor:
#      x y z
#    x -0.325560 0.000000 1.222270 
#    y 0.000000 2.149370 0.000000 
#    z 1.222270 0.000000 1.497320 
# 
# From -- ./inp_files/96683.got.cif
#   From: 2010.05.17/outbox.cif.g08.bks.cpg/sg13_49_cif.got.tgz:96683.got - 2010.06.03 16:44:36.
