data_PCOD9230658
_publ_section_title
;
Structure prediction by ZEFSAII (Michael W. Deem and Ramdas Pophale) SiO2 
 PCOD9230658
Probable space group: P 2/C
;
_chemical_formula_sum "Si O2"
_cell_formula_units_Z 32
_cell_length_a 21.592990
_cell_length_b 5.512061
_cell_length_c 10.467066
_cell_angle_alpha 90.000000
_cell_angle_beta 90.257167
_cell_angle_gamma 90.000000
_cell_volume 1245.797304
_symmetry_space_group_name_H-M "P 2/C"
_symmetry_group_IT_number 13
_symmetry_cell_setting 'monoclinic'
loop_
_space_group_symop_operation_xyz
x,y,z
-x,y,1/2-z
-x,-y,-z
x,-y,1/2+z
loop_
_atom_site_type_symbol
_atom_site_label
_atom_site_fract_x
_atom_site_fract_y
_atom_site_fract_z
Si Si1 0.417198 0.172021 0.571414
Si Si2 0.188081 0.266332 0.592896
Si Si3 0.898393 0.885357 0.976812
Si Si4 0.447671 0.329257 0.147196
Si Si5 0.139138 0.515302 0.339417
Si Si6 0.333007 0.670550 0.833913
Si Si7 0.983301 0.250280 0.122067
Si Si8 0.303960 0.168221 0.748910
O O1 0.461650 0.399330 0.598768
O O2 0.375563 0.263888 0.454159
O O3 0.373367 0.148201 0.695516
O O4 0.441985 0.899703 0.552395
O O5 0.172807 0.352961 0.448890
O O6 0.166810 0.463806 0.698586
O O7 0.258590 0.215408 0.629483
O O8 0.148587 0.020668 0.616499
O O9 0.949172 0.687073 0.932057
O O10 0.860357 0.778112 0.093722
O O11 0.943948 0.097595 0.022635
O O12 0.500000 0.261015 0.250000
O O13 0.380445 0.351544 0.214544
O O14 0.066417 0.445228 0.330525
O O15 0.301111 0.405660 0.839586
O O16 0.290483 0.906546 0.810039
O O17 0.000000 0.098528 0.250000
#
# Coordination Sequence:
#
# PCOD9230658 Si02
#       8
#     4   4   4   4   4   4   4   4
#     4  10  21  39  62  89 132 173 224 270 332 398
#     4  11  26  42  65  98 128 171 220 282 333 409
#     4  10  22  39  61  92 125 165 213 262 332 405
#     4  10  21  37  60  96 132 171 222 274 326 396
#     4  11  24  42  64  94 129 162 216 269 340 402
#     4  10  22  41  64  92 130 173 222 270 336 395
#     4  10  20  37  61  88 124 163 203 260 328 408
#     4  10  24  41  63  94 125 175 219 276 333 395
#
# _framework density 25.686361999999999
#
# number of rings (size 3 to 8) (size 9 to 14) (size 15 to 20)
#    0.000    1.750    0.000    3.000    3.500    5.500 
#    0.000    0.000    0.000    0.000    0.000    0.000 
#    0.000    0.000    0.000    0.000    0.000    0.000 
#
# Total GULP energy -178712.835435 kJ/mol
# GULP energy per Si atom -5584.776107 kJ/mol
# Density = 2.562790 g / cm^3
# Si number density = 25.686362 Si / 1000 Ang^3
#
#
#
# Elastic Constant Matrix: (Units=GPa)
#
#
# Indices 1 2 3 4 5 6 
#
# 1 64.3910 25.0194 3.3727 0.0000 1.7215 0.0000
# 2 25.0194 152.6761 26.7485 0.0000 8.2461 0.0000
# 3 3.3727 26.7485 79.3267 0.0000 10.3532 0.0000
# 4 0.0000 0.0000 0.0000 40.2089 0.0000 7.6644
# 5 1.7215 8.2461 10.3532 0.0000 36.8083 0.0000
# 6 0.0000 0.0000 0.0000 7.6644 0.0000 28.2483
#
#
#
# Elastic Compliance Matrix: (Units=1/GPa)
#
#
# Indices 1 2 3 4 5 6 
#
# 1 0.016592 -0.002751 0.000252 0.000000 -0.000231 0.000000
# 2 -0.002751 0.007448 -0.002277 0.000000 -0.000899 0.000000
# 3 0.000252 -0.002277 0.013805 0.000000 -0.003385 0.000000
# 4 0.000000 0.000000 0.000000 0.026227 0.000000 -0.007116
# 5 -0.000231 -0.000899 -0.003385 0.000000 0.028332 0.000000
# 6 0.000000 0.000000 0.000000 -0.007116 0.000000 0.037331
#
#
# Mechanical properties :
#
#
# Convention : Reuss Voigt Hill
#
# Bulk Modulus (GPa) = 35.34354 45.18612 40.26483
# Shear Modulus (GPa) = 33.62090 37.13664 35.37877
#
# Velocity S-wave (km/s) = 3.62180 3.80646 3.71527
# Velocity P-wave (km/s) = 5.59280 6.07853 5.84072
#
# Compressibility (1/GPa) = 0.02829371
#
# Stress axis : x y z
#
# Youngs Moduli (GPa) = 60.27049 134.26238 72.43779
#
# Poissons Ratio (x) = 0.36931 -0.01827
# Poissons Ratio (y) = 0.16578 0.16495
# Poissons Ratio (z) = -0.01520 0.30573
#
# Static dielectric constant tensor:
#      x y z
#    x 2.061960 0.000000 -0.065800 
#    y 0.000000 2.059450 0.000000 
#    z -0.065800 0.000000 2.053480 
# 
# From -- ./inp_files/41409.got.cif
#   From: 2010.05.17/outbox.cif.g08.bks.cpg/sg13_21_cif.got.tgz:41409.got - 2010.06.03 16:44:36.
