data_PCOD9230275
_publ_section_title
;
Structure prediction by ZEFSAII (Michael W. Deem and Ramdas Pophale) SiO2 
 PCOD9230275
Probable space group: P 2/C
;
_chemical_formula_sum "Si O2"
_cell_formula_units_Z 32
_cell_length_a 16.121087
_cell_length_b 14.568861
_cell_length_c 9.401195
_cell_angle_alpha 90.000000
_cell_angle_beta 125.661499
_cell_angle_gamma 90.000000
_cell_volume 1793.961992
_symmetry_space_group_name_H-M "P 2/C"
_symmetry_group_IT_number 13
_symmetry_cell_setting 'monoclinic'
loop_
_space_group_symop_operation_xyz
x,y,z
-x,y,1/2-z
-x,-y,-z
x,-y,1/2+z
loop_
_atom_site_type_symbol
_atom_site_label
_atom_site_fract_x
_atom_site_fract_y
_atom_site_fract_z
Si Si1 0.599689 0.783872 0.182235
Si Si2 0.613648 0.034005 0.889286
Si Si3 0.857741 0.415085 0.360733
Si Si4 0.908702 0.617482 0.472709
Si Si5 0.307060 0.161071 0.024611
Si Si6 0.246932 0.687029 0.971805
Si Si7 0.370277 0.810741 0.897305
Si Si8 0.115958 0.718667 0.348602
O O1 0.622667 0.879481 0.290638
O O2 0.662610 0.702761 0.322719
O O3 0.636572 0.802983 0.059607
O O4 0.477855 0.769072 0.058717
O O5 0.500000 0.995805 0.750000
O O6 0.688093 0.948726 0.957944
O O7 0.621494 0.082563 0.050661
O O8 0.859330 0.516304 0.428464
O O9 0.771625 0.397606 0.155300
O O10 0.852769 0.342704 0.484431
O O11 0.969204 0.398033 0.398697
O O12 0.855249 0.683729 0.534120
O O13 0.884428 0.656458 0.292530
O O14 0.358508 0.199979 0.218804
O O15 0.193142 0.198682 0.907353
O O16 0.274897 0.767526 0.887286
O O17 0.000000 0.750549 0.250000
#
# Coordination Sequence:
#
# PCOD9230275 Si02
#       8
#     4   4   4   4   4   4   4   4
#     4  10  21  35  55  84 113 144 184 230 271 318
#     4   9  19  34  55  84 110 137 183 237 273 309
#     4  10  20  36  59  85 108 136 181 232 275 320
#     4  10  20  36  59  85 108 136 181 232 275 320
#     4  12  19  34  57  80 111 151 181 223 280 325
#     4  11  19  34  55  83 115 144 173 217 284 332
#     4  10  21  35  55  84 113 144 184 230 271 318
#     4  10  21  36  53  83 114 136 177 227 273 330
#
# _framework density 17.837613000000001
#
# number of rings (size 3 to 8) (size 9 to 14) (size 15 to 20)
#    0.000    1.750    2.500    4.125    0.000    4.000 
#    0.000    0.000    0.000   12.000    0.000    0.000 
#    0.000    0.000    0.000    0.000    0.000    0.000 
#
# Total GULP energy -178241.657427 kJ/mol
# GULP energy per Si atom -5570.051795 kJ/mol
# Density = 1.779701 g / cm^3
# Si number density = 17.837613 Si / 1000 Ang^3
#
#
#
# Elastic Constant Matrix: (Units=GPa)
#
#
# Indices 1 2 3 4 5 6 
#
# 1 87.5916 37.6474 29.1560 0.0000 -8.0179 0.0000
# 2 37.6474 61.4329 26.2688 0.0000 17.5741 0.0000
# 3 29.1560 26.2688 97.1187 0.0000 -6.0213 0.0000
# 4 0.0000 0.0000 0.0000 20.2972 0.0000 6.8626
# 5 -8.0179 17.5741 -6.0213 0.0000 28.8447 0.0000
# 6 0.0000 0.0000 0.0000 6.8626 0.0000 23.9476
#
#
#
# Elastic Compliance Matrix: (Units=1/GPa)
#
#
# Indices 1 2 3 4 5 6 
#
# 1 0.020150 -0.016533 -0.000613 0.000000 0.015546 0.000000
# 2 -0.016533 0.037734 -0.007044 0.000000 -0.029057 0.000000
# 3 -0.000613 -0.007044 0.012808 0.000000 0.006795 0.000000
# 4 0.000000 0.000000 0.000000 0.054553 0.000000 -0.015633
# 5 0.015546 -0.029057 0.006795 0.000000 0.058112 0.000000
# 6 0.000000 0.000000 0.000000 -0.015633 0.000000 0.046238
#
#
# Mechanical properties :
#
#
# Convention : Reuss Voigt Hill
#
# Bulk Modulus (GPa) = 44.82413 48.03198 46.42805
# Shear Modulus (GPa) = 17.51843 24.82263 21.17053
#
# Velocity S-wave (km/s) = 3.13726 3.73445 3.44880
# Velocity P-wave (km/s) = 6.18924 6.75134 6.47639
#
# Compressibility (1/GPa) = 0.02230941
#
# Stress axis : x y z
#
# Youngs Moduli (GPa) = 49.62776 26.50098 78.07919
#
# Poissons Ratio (x) = 0.43815 0.04789
# Poissons Ratio (y) = 0.82052 0.55003
# Poissons Ratio (z) = 0.03044 0.18669
#
# Static dielectric constant tensor:
#      x y z
#    x 1.632330 0.000000 -0.026780 
#    y 0.000000 1.585510 0.000000 
#    z -0.026780 0.000000 1.658920 
# 
# From -- ./inp_files/19671.got.cif
#   From: 2010.05.17/outbox.cif.g08.bks.cpg/sg13_10_cif.got.tgz:19671.got - 2010.06.03 16:44:36.
