data_PCOD9230439
_publ_section_title
;
Structure prediction by ZEFSAII (Michael W. Deem and Ramdas Pophale) SiO2 
 PCOD9230439
Probable space group: P 2/C
;
_chemical_formula_sum "Si O2"
_cell_formula_units_Z 28
_cell_length_a 21.797405
_cell_length_b 6.641208
_cell_length_c 10.043494
_cell_angle_alpha 90.000000
_cell_angle_beta 115.104291
_cell_angle_gamma 90.000000
_cell_volume 1316.566844
_symmetry_space_group_name_H-M "P 2/C"
_symmetry_group_IT_number 13
_symmetry_cell_setting 'monoclinic'
loop_
_space_group_symop_operation_xyz
x,y,z
-x,y,1/2-z
-x,-y,-z
x,-y,1/2+z
loop_
_atom_site_type_symbol
_atom_site_label
_atom_site_fract_x
_atom_site_fract_y
_atom_site_fract_z
Si Si1 0.430640 0.014606 0.018211
Si Si2 0.928531 0.929470 0.873521
Si Si3 0.000000 0.376975 0.250000
Si Si4 0.118923 0.407988 0.995351
Si Si5 0.377145 0.605419 0.106749
Si Si6 0.320807 0.700453 0.326992
Si Si7 0.500000 0.646441 0.750000
Si Si8 0.170250 0.293710 0.768804
O O1 0.450938 0.196538 0.132975
O O2 0.406260 0.812218 0.069053
O O3 0.369956 0.105856 0.876141
O O4 0.500000 0.000000 0.000000
O O5 0.948064 0.767076 0.779415
O O6 0.883400 0.111554 0.779737
O O7 0.887308 0.812908 0.948826
O O8 0.000000 0.000000 0.000000
O O9 0.043722 0.515742 0.387593
O O10 0.163023 0.402445 0.903407
O O11 0.147838 0.556286 0.131807
O O12 0.322809 0.630594 0.174891
O O13 0.441779 0.506750 0.245807
O O14 0.348435 0.470535 0.956993
O O15 0.246970 0.764685 0.308727
#
# Coordination Sequence:
#
# PCOD9230439 Si02
#       8
#     4   4   2   4   4   4   2   4
#     4  11  22  39  67  99 135 177 226 281 336 398
#     4  12  24  43  71 101 136 174 229 282 343 410
#     4  12  22  46  68 104 132 176 226 284 346 414
#     4  12  25  45  70  98 139 177 226 282 343 415
#     4  11  23  43  69  96 139 180 224 288 334 407
#     4  11  26  44  66  99 135 181 231 273 345 408
#     4  10  20  36  64 100 128 168 228 274 334 384
#     4  12  27  45  68 101 138 185 227 284 348 415
#
# _framework density 21.267436
#
# number of rings (size 3 to 8) (size 9 to 14) (size 15 to 20)
#    0.000    0.571    2.857    6.000    0.000    5.714 
#    0.000    0.000    0.000    0.000    0.000    0.000 
#    0.000    0.000    0.000    0.000    0.000    0.000 
#
# Total GULP energy -156343.032645 kJ/mol
# GULP energy per Si atom -5583.679737 kJ/mol
# Density = 2.121903 g / cm^3
# Si number density = 21.267436 Si / 1000 Ang^3
#
#
#
# Elastic Constant Matrix: (Units=GPa)
#
#
# Indices 1 2 3 4 5 6 
#
# 1 118.6104 18.4074 20.8998 0.0000 -10.9425 0.0000
# 2 18.4074 68.5748 18.8630 0.0000 -8.2075 0.0000
# 3 20.8998 18.8630 64.0498 0.0000 -18.4146 0.0000
# 4 0.0000 0.0000 0.0000 22.3057 0.0000 -4.6381
# 5 -10.9425 -8.2075 -18.4146 0.0000 36.9461 0.0000
# 6 0.0000 0.0000 0.0000 -4.6381 0.0000 21.3074
#
#
#
# Elastic Compliance Matrix: (Units=1/GPa)
#
#
# Indices 1 2 3 4 5 6 
#
# 1 0.009191 -0.001730 -0.002121 0.000000 0.001280 0.000000
# 2 -0.001730 0.016256 -0.003889 0.000000 0.001160 0.000000
# 3 -0.002121 -0.003889 0.019869 0.000000 0.008411 0.000000
# 4 0.000000 0.000000 0.000000 0.046957 0.000000 0.010221
# 5 0.001280 0.001160 0.008411 0.000000 0.031895 0.000000
# 6 0.000000 0.000000 0.000000 0.010221 0.000000 0.049157
#
#
# Mechanical properties :
#
#
# Convention : Reuss Voigt Hill
#
# Bulk Modulus (GPa) = 33.51925 40.84172 37.18048
# Shear Modulus (GPa) = 25.15701 28.98284 27.06992
#
# Velocity S-wave (km/s) = 3.44305 3.69559 3.57155
# Velocity P-wave (km/s) = 5.62149 6.12008 5.87608
#
# Compressibility (1/GPa) = 0.02983361
#
# Stress axis : x y z
#
# Youngs Moduli (GPa) = 108.79664 61.51657 50.33086
#
# Poissons Ratio (x) = 0.10645 0.10677
# Poissons Ratio (y) = 0.18827 0.19575
# Poissons Ratio (z) = 0.23081 0.23925
#
# Static dielectric constant tensor:
#      x y z
#    x 1.773980 0.000000 0.016440 
#    y 0.000000 1.662510 0.000000 
#    z 0.016440 0.000000 1.806970 
# 
# From -- ./inp_files/40168.got.cif
#   From: 2010.05.17/outbox.cif.g08.bks.cpg/sg13_21_cif.got.tgz:40168.got - 2010.06.03 16:44:36.
