data_PCOD9230495
_publ_section_title
;
Structure prediction by ZEFSAII (Michael W. Deem and Ramdas Pophale) SiO2 
 PCOD9230495
Probable space group: P 2/C
;
_chemical_formula_sum "Si O2"
_cell_formula_units_Z 28
_cell_length_a 12.516259
_cell_length_b 5.690931
_cell_length_c 20.724457
_cell_angle_alpha 90.000000
_cell_angle_beta 67.619783
_cell_angle_gamma 90.000000
_cell_volume 1364.995870
_symmetry_space_group_name_H-M "P 2/C"
_symmetry_group_IT_number 13
_symmetry_cell_setting 'monoclinic'
loop_
_space_group_symop_operation_xyz
x,y,z
-x,y,1/2-z
-x,-y,-z
x,-y,1/2+z
loop_
_atom_site_type_symbol
_atom_site_label
_atom_site_fract_x
_atom_site_fract_y
_atom_site_fract_z
Si Si1 0.732558 0.352030 0.081896
Si Si2 0.868031 0.480109 0.172203
Si Si3 0.717261 0.255674 0.880902
Si Si4 0.522772 0.575642 0.068353
Si Si5 0.872377 0.428682 0.429840
Si Si6 0.282608 0.039632 0.995506
Si Si7 0.126023 0.981904 0.253801
O O1 0.769209 0.453090 0.141259
O O2 0.599628 0.399693 0.093189
O O3 0.816448 0.459367 0.007152
O O4 0.750333 0.076796 0.064848
O O5 0.865505 0.738295 0.205994
O O6 0.992592 0.460541 0.108532
O O7 0.860334 0.240086 0.217001
O O8 0.603059 0.364447 0.875591
O O9 0.809413 0.451747 0.882795
O O10 0.776917 0.064606 0.822335
O O11 0.679913 0.138976 0.957186
O O12 0.500000 0.500000 0.000000
O O13 0.610649 0.791869 0.041630
O O14 0.829131 0.163712 0.447890
O O15 0.000000 0.980120 0.250000
#
# Coordination Sequence:
#
# PCOD9230495 Si02
#       7
#     4   4   4   4   4   4   4
#     4  10  24  40  64 102 133 173 213 277 349 398
#     4  12  27  45  68  97 142 177 220 273 333 399
#     4  11  22  39  65 100 123 172 226 277 321 392
#     4  11  20  38  66  98 131 165 219 280 336 388
#     4  10  21  39  67  98 134 164 218 277 339 395
#     4  10  20  36  67  98 130 161 216 277 346 383
#     4  12  27  46  70  95 132 183 227 271 320 399
#
# _framework density 20.512882000000001
#
# number of rings (size 3 to 8) (size 9 to 14) (size 15 to 20)
#    0.000    1.143    5.714    2.143    8.000    0.571 
#    0.000    0.714    0.000    0.000    0.000    0.000 
#    0.000    0.000    0.000    0.000    0.000    0.000 
#
# Total GULP energy -156126.094841 kJ/mol
# GULP energy per Si atom -5575.931959 kJ/mol
# Density = 2.046619 g / cm^3
# Si number density = 20.512882 Si / 1000 Ang^3
#
#
#
# Elastic Constant Matrix: (Units=GPa)
#
#
# Indices 1 2 3 4 5 6 
#
# 1 68.3967 -4.4453 8.6092 0.0000 6.3088 0.0000
# 2 -4.4453 67.0579 5.0936 0.0000 17.6825 0.0000
# 3 8.6092 5.0936 38.7121 0.0000 8.8724 0.0000
# 4 0.0000 0.0000 0.0000 28.1750 0.0000 -0.6413
# 5 6.3088 17.6825 8.8724 0.0000 30.2701 0.0000
# 6 0.0000 0.0000 0.0000 -0.6413 0.0000 22.7763
#
#
#
# Elastic Compliance Matrix: (Units=1/GPa)
#
#
# Indices 1 2 3 4 5 6 
#
# 1 0.015467 0.002212 -0.002890 0.000000 -0.003669 0.000000
# 2 0.002212 0.017944 -0.000370 0.000000 -0.010835 0.000000
# 3 -0.002890 -0.000370 0.028232 0.000000 -0.007457 0.000000
# 4 0.000000 0.000000 0.000000 0.035515 0.000000 0.001000
# 5 -0.003669 -0.010835 -0.007457 0.000000 0.042316 0.000000
# 6 0.000000 0.000000 0.000000 0.001000 0.000000 0.043933
#
#
# Mechanical properties :
#
#
# Convention : Reuss Voigt Hill
#
# Bulk Modulus (GPa) = 16.79315 21.40906 19.10111
# Shear Modulus (GPa) = 24.34854 27.23824 25.79339
#
# Velocity S-wave (km/s) = 3.44901 3.64793 3.54986
# Velocity P-wave (km/s) = 4.90564 5.31063 5.11215
#
# Compressibility (1/GPa) = 0.05954807
#
# Stress axis : x y z
#
# Youngs Moduli (GPa) = 64.65578 55.72796 35.42077
#
# Poissons Ratio (x) = -0.12328 0.10236
# Poissons Ratio (y) = -0.14303 0.01310
# Poissons Ratio (z) = 0.18685 0.02060
#
# Static dielectric constant tensor:
#      x y z
#    x 1.737210 0.000000 0.010570 
#    y 0.000000 1.887480 0.000000 
#    z 0.010570 0.000000 1.748120 
# 
# From -- ./inp_files/77475.got.cif
#   From: 2010.05.17/outbox.cif.g08.bks.cpg/sg13_39_cif.got.tgz:77475.got - 2010.06.03 16:44:36.
