data_PCOD9230511
_publ_section_title
;
Structure prediction by ZEFSAII (Michael W. Deem and Ramdas Pophale) SiO2 
 PCOD9230511
Probable space group: P 2/C
;
_chemical_formula_sum "Si O2"
_cell_formula_units_Z 20
_cell_length_a 5.829102
_cell_length_b 10.163112
_cell_length_c 17.587100
_cell_angle_alpha 90.000000
_cell_angle_beta 55.670439
_cell_angle_gamma 90.000000
_cell_volume 860.401960
_symmetry_space_group_name_H-M "P 2/C"
_symmetry_group_IT_number 13
_symmetry_cell_setting 'monoclinic'
loop_
_space_group_symop_operation_xyz
x,y,z
-x,y,1/2-z
-x,-y,-z
x,-y,1/2+z
loop_
_atom_site_type_symbol
_atom_site_label
_atom_site_fract_x
_atom_site_fract_y
_atom_site_fract_z
Si Si1 0.825969 0.263215 0.115718
Si Si2 0.706782 0.614478 0.487874
Si Si3 0.000000 0.970264 0.750000
Si Si4 0.500000 0.032812 0.250000
Si Si5 0.345628 0.134788 0.043762
Si Si6 0.172788 0.513555 0.296090
O O1 0.634965 0.137350 0.165958
O O2 0.856564 0.355403 0.184046
O O3 0.109042 0.196194 0.033836
O O4 0.726169 0.371824 0.074605
O O5 0.500000 0.500000 0.500000
O O6 0.579549 0.755847 0.495010
O O7 0.994028 0.588547 0.393104
O O8 0.751814 0.039071 0.747333
O O9 0.834718 0.887572 0.845281
O O10 0.500000 0.000000 0.000000
O O11 0.500000 0.544514 0.250000
O O12 0.000000 0.541435 0.250000
#
# Coordination Sequence:
#
# PCOD9230511 Si02
#       6
#     4   4   2   2   4   4
#     4  11  23  41  73 102 141 189 244 299 358 433
#     4  12  25  45  73 109 145 188 249 308 371 438
#     4  10  22  46  68 100 130 198 238 298 350 442
#     4  10  20  36  72  96 134 172 250 288 338 416
#     4  11  26  46  72 103 146 189 249 301 368 442
#     4  12  27  42  72 110 152 190 240 302 372 442
#
# _framework density 23.244949999999999
#
# number of rings (size 3 to 8) (size 9 to 14) (size 15 to 20)
#    0.000    0.800    5.000    1.800    8.400    0.800 
#    1.800    0.000    2.200    0.000    0.000    0.000 
#    0.000    0.000    0.000    0.000    0.000    0.000 
#
# Total GULP energy -111448.126850 kJ/mol
# GULP energy per Si atom -5572.406342 kJ/mol
# Density = 2.319204 g / cm^3
# Si number density = 23.244950 Si / 1000 Ang^3
#
#
#
# Elastic Constant Matrix: (Units=GPa)
#
#
# Indices 1 2 3 4 5 6 
#
# 1 181.4822 31.6498 36.7846 0.0000 -20.3209 0.0000
# 2 31.6498 96.7961 32.7755 0.0000 -20.0629 0.0000
# 3 36.7846 32.7755 78.3499 0.0000 -37.0277 0.0000
# 4 0.0000 0.0000 0.0000 2.6196 0.0000 -10.4130
# 5 -20.3209 -20.0629 -37.0277 0.0000 46.5834 0.0000
# 6 0.0000 0.0000 0.0000 -10.4130 0.0000 9.5118
#
#
#
# Elastic Compliance Matrix: (Units=1/GPa)
#
#
# Indices 1 2 3 4 5 6 
#
# 1 0.006216 -0.001192 -0.002211 0.000000 0.000440 0.000000
# 2 -0.001192 0.012370 -0.003752 0.000000 0.001825 0.000000
# 3 -0.002211 -0.003752 0.022666 0.000000 0.015436 0.000000
# 4 0.000000 0.000000 0.000000 -0.113897 0.000000 -0.124687
# 5 0.000440 0.001825 0.015436 0.000000 0.034714 0.000000
# 6 0.000000 0.000000 0.000000 -0.124687 0.000000 -0.031368
#
#
# Mechanical properties :
#
#
# Convention : Reuss Voigt Hill
#
# Bulk Modulus (GPa) = 37.12080 62.11645 49.61863
# Shear Modulus (GPa) = -108.67791 28.77086 -39.95353
#
# Velocity S-wave (km/s) = -6.84506 3.52195 -4.15034
# Velocity P-wave (km/s) = 6.81682 6.58175 1.25492
#
# Compressibility (1/GPa) = 0.02693907
#
# Stress axis : x y z
#
# Youngs Moduli (GPa) = 160.88467 80.84322 44.11887
#
# Poissons Ratio (x) = 0.09639 0.09756
# Poissons Ratio (y) = 0.19183 0.16555
# Poissons Ratio (z) = 0.35578 0.30335
#
# Static dielectric constant tensor:
#      x y z
#    x 2.283870 0.000000 0.077120 
#    y 0.000000 1.814880 0.000000 
#    z 0.077120 0.000000 1.911670 
# 
# From -- ./inp_files/61017.got.cif
#   From: 2010.05.17/outbox.cif.g08.bks.cpg/sg13_31_cif.got.tgz:61017.got - 2010.06.03 16:44:36.
