data_PCOD9230070
_publ_section_title
;
Structure prediction by ZEFSAII (Michael W. Deem and Ramdas Pophale) SiO2 
 PCOD9230070
Probable space group: P 2/C
;
_chemical_formula_sum "Si O2"
_cell_formula_units_Z 24
_cell_length_a 11.161789
_cell_length_b 6.464995
_cell_length_c 20.877550
_cell_angle_alpha 90.000000
_cell_angle_beta 53.520043
_cell_angle_gamma 90.000000
_cell_volume 1211.358338
_symmetry_space_group_name_H-M "P 2/C"
_symmetry_group_IT_number 13
_symmetry_cell_setting 'monoclinic'
loop_
_space_group_symop_operation_xyz
x,y,z
-x,y,1/2-z
-x,-y,-z
x,-y,1/2+z
loop_
_atom_site_type_symbol
_atom_site_label
_atom_site_fract_x
_atom_site_fract_y
_atom_site_fract_z
Si Si1 0.437160 0.041010 0.622486
Si Si2 0.408764 0.698738 0.004071
Si Si3 0.378385 0.672522 0.339290
Si Si4 0.187456 0.037981 0.806667
Si Si5 0.863195 0.664558 0.589012
Si Si6 0.924989 0.301045 0.934082
O O1 0.405286 0.146945 0.565213
O O2 0.546032 0.194483 0.628320
O O3 0.512533 0.820885 0.580215
O O4 0.285447 0.026842 0.711551
O O5 0.237234 0.656021 0.042100
O O6 0.500000 0.500000 0.000000
O O7 0.500000 0.591195 0.250000
O O8 0.271284 0.484187 0.390958
O O9 0.280568 0.828885 0.328348
O O10 0.177412 0.813236 0.840510
O O11 0.027560 0.153608 0.857411
O O12 0.908890 0.791281 0.511158
O O13 0.990242 0.514023 0.576327
#
# Coordination Sequence:
#
# PCOD9230070 Si02
#       6
#     4   4   4   4   4   4
#     4  10  23  40  59  86 119 156 200 246 296 356
#     4  11  24  41  61  83 116 162 204 244 294 358
#     4   9  19  35  58  89 119 150 196 247 295 351
#     4  10  21  38  60  87 118 152 190 246 306 351
#     4  10  20  35  60  89 118 154 195 245 302 354
#     4  10  22  37  57  87 119 151 198 247 293 354
#
# _framework density 19.812467999999999
#
# number of rings (size 3 to 8) (size 9 to 14) (size 15 to 20)
#    0.000    2.000    0.000    2.500    0.000   13.333 
#    0.000    0.000    0.000    0.000    0.000    0.000 
#    0.000    0.000    0.000    0.000    0.000    0.000 
#
# Total GULP energy -133894.297663 kJ/mol
# GULP energy per Si atom -5578.929069 kJ/mol
# Density = 1.976737 g / cm^3
# Si number density = 19.812468 Si / 1000 Ang^3
#
#
#
# Elastic Constant Matrix: (Units=GPa)
#
#
# Indices 1 2 3 4 5 6 
#
# 1 124.1209 50.1816 55.7225 0.0000 -25.1108 0.0000
# 2 50.1816 72.6856 55.5871 0.0000 -18.3704 0.0000
# 3 55.7225 55.5871 139.8554 0.0000 -17.4202 0.0000
# 4 0.0000 0.0000 0.0000 29.9199 0.0000 3.9373
# 5 -25.1108 -18.3704 -17.4202 0.0000 27.8394 0.0000
# 6 0.0000 0.0000 0.0000 3.9373 0.0000 15.0239
#
#
#
# Elastic Compliance Matrix: (Units=1/GPa)
#
#
# Indices 1 2 3 4 5 6 
#
# 1 0.012450 -0.005455 -0.001997 0.000000 0.006380 0.000000
# 2 -0.005455 0.024374 -0.006642 0.000000 0.007008 0.000000
# 3 -0.001997 -0.006642 0.010645 0.000000 0.000477 0.000000
# 4 0.000000 0.000000 0.000000 0.034616 0.000000 -0.009072
# 5 0.006380 0.007008 0.000477 0.000000 0.046597 0.000000
# 6 0.000000 0.000000 0.000000 -0.009072 0.000000 0.068938
#
#
# Mechanical properties :
#
#
# Convention : Reuss Voigt Hill
#
# Bulk Modulus (GPa) = 51.86453 73.29380 62.57916
# Shear Modulus (GPa) = 21.52984 26.23470 23.88227
#
# Velocity S-wave (km/s) = 3.30006 3.64284 3.47568
# Velocity P-wave (km/s) = 6.38397 7.40052 6.91096
#
# Compressibility (1/GPa) = 0.01928100
#
# Stress axis : x y z
#
# Youngs Moduli (GPa) = 80.32426 41.02685 93.93881
#
# Poissons Ratio (x) = 0.22381 0.18763
# Poissons Ratio (y) = 0.43818 0.62390
# Poissons Ratio (z) = 0.16044 0.27248
#
# Static dielectric constant tensor:
#      x y z
#    x 1.692550 0.000000 -0.046150 
#    y 0.000000 1.708000 0.000000 
#    z -0.046150 0.000000 1.759490 
# 
# From -- ./inp_files/77155.got.cif
#   From: 2010.05.17/outbox.cif.g08.bks.cpg/sg13_39_cif.got.tgz:77155.got - 2010.06.03 16:44:36.
