data_PCOD9230531
_publ_section_title
;
Structure prediction by ZEFSAII (Michael W. Deem and Ramdas Pophale) SiO2 
 PCOD9230531
Probable space group: P 2/C
;
_chemical_formula_sum "Si O2"
_cell_formula_units_Z 32
_cell_length_a 12.431737
_cell_length_b 5.295591
_cell_length_c 27.453314
_cell_angle_alpha 90.000000
_cell_angle_beta 116.332223
_cell_angle_gamma 90.000000
_cell_volume 1619.809521
_symmetry_space_group_name_H-M "P 2/C"
_symmetry_group_IT_number 13
_symmetry_cell_setting 'monoclinic'
loop_
_space_group_symop_operation_xyz
x,y,z
-x,y,1/2-z
-x,-y,-z
x,-y,1/2+z
loop_
_atom_site_type_symbol
_atom_site_label
_atom_site_fract_x
_atom_site_fract_y
_atom_site_fract_z
Si Si1 0.448058 0.443545 0.685037
Si Si2 0.441754 0.248118 0.011877
Si Si3 0.625938 0.952568 0.804056
Si Si4 0.008917 0.364895 0.343066
Si Si5 0.828891 0.951382 0.685315
Si Si6 0.863902 0.123803 0.799820
Si Si7 0.401600 0.651441 0.869886
Si Si8 0.225533 0.652674 0.407131
O O1 0.500000 0.411064 0.750000
O O2 0.394331 0.172775 0.660739
O O3 0.552170 0.513958 0.668615
O O4 0.354818 0.675777 0.669681
O O5 0.484147 0.255273 0.076230
O O6 0.500000 0.500000 0.000000
O O7 0.302745 0.252733 0.968325
O O8 0.500000 0.000000 0.000000
O O9 0.500000 0.917181 0.750000
O O10 0.729524 0.064559 0.790765
O O11 0.868920 0.918168 0.242776
O O12 0.916108 0.597313 0.319884
O O13 0.087125 0.288631 0.310531
O O14 0.939318 0.105530 0.339514
O O15 0.691083 0.868277 0.663643
O O16 0.830399 0.129110 0.638074
O O17 0.117796 0.536838 0.898844
O O18 0.321462 0.480867 0.890118
#
# Coordination Sequence:
#
# PCOD9230531 Si02
#       8
#     4   4   4   4   4   4   4   4
#     4  10  21  35  55  82 116 146 191 230 282 350
#     4  10  20  37  56  86 118 154 194 237 286 351
#     4  10  22  39  55  78 110 146 194 238 280 339
#     4  11  25  38  53  84 116 159 196 229 279 354
#     4  11  22  34  57  83 121 152 193 228 282 352
#     4  12  25  37  57  79 119 160 189 234 291 343
#     4  10  22  35  61  88 121 158 187 239 301 337
#     4  10  22  37  58  85 121 156 193 234 281 351
#
# _framework density 19.755407000000002
#
# number of rings (size 3 to 8) (size 9 to 14) (size 15 to 20)
#    0.000    1.500    2.500    2.625   10.500    0.000 
#    0.000    0.000    0.000    0.000    0.000    5.250 
#    0.000    0.000    0.000    0.000    0.000    0.000 
#
# Total GULP energy -178372.634850 kJ/mol
# GULP energy per Si atom -5574.144839 kJ/mol
# Density = 1.971044 g / cm^3
# Si number density = 19.755407 Si / 1000 Ang^3
#
#
#
# Elastic Constant Matrix: (Units=GPa)
#
#
# Indices 1 2 3 4 5 6 
#
# 1 75.6291 2.6968 15.3011 0.0000 12.8266 0.0000
# 2 2.6968 110.8137 7.6567 0.0000 14.1426 0.0000
# 3 15.3011 7.6567 42.5902 0.0000 12.3781 0.0000
# 4 0.0000 0.0000 0.0000 13.7537 0.0000 6.2937
# 5 12.8266 14.1426 12.3781 0.0000 20.3962 0.0000
# 6 0.0000 0.0000 0.0000 6.2937 0.0000 35.1141
#
#
#
# Elastic Compliance Matrix: (Units=1/GPa)
#
#
# Indices 1 2 3 4 5 6 
#
# 1 0.015245 0.000906 -0.003243 0.000000 -0.008247 0.000000
# 2 0.000906 0.009956 0.000069 0.000000 -0.007515 0.000000
# 3 -0.003243 0.000069 0.029205 0.000000 -0.015732 0.000000
# 4 0.000000 0.000000 0.000000 0.079204 0.000000 -0.014196
# 5 -0.008247 -0.007515 -0.015732 0.000000 0.068973 0.000000
# 6 0.000000 0.000000 0.000000 -0.014196 0.000000 0.031023
#
#
# Mechanical properties :
#
#
# Convention : Reuss Voigt Hill
#
# Bulk Modulus (GPa) = 20.05258 31.14914 25.60086
# Shear Modulus (GPa) = 19.62586 27.41138 23.51862
#
# Velocity S-wave (km/s) = 3.15531 3.72901 3.45409
# Velocity P-wave (km/s) = 4.84222 5.86023 5.37538
#
# Compressibility (1/GPa) = 0.04986891
#
# Stress axis : x y z
#
# Youngs Moduli (GPa) = 65.59573 100.43729 34.24129
#
# Poissons Ratio (x) = -0.09095 0.11104
# Poissons Ratio (y) = -0.05940 -0.00236
# Poissons Ratio (z) = 0.21272 -0.00691
#
# Static dielectric constant tensor:
#      x y z
#    x 1.679090 0.000000 -0.047820 
#    y 0.000000 1.804200 0.000000 
#    z -0.047820 0.000000 1.586520 
# 
# From -- ./inp_files/85994.got.cif
#   From: 2010.05.17/outbox.cif.g08.bks.cpg/sg13_43_cif.got.tgz:85994.got - 2010.06.03 16:44:36.
