data_PCOD9230754
_publ_section_title
;
Structure prediction by ZEFSAII (Michael W. Deem and Ramdas Pophale) SiO2 
 PCOD9230754
Probable space group: P 2/C
;
_chemical_formula_sum "Si O2"
_cell_formula_units_Z 24
_cell_length_a 11.177763
_cell_length_b 12.993050
_cell_length_c 14.164227
_cell_angle_alpha 90.000000
_cell_angle_beta 32.469040
_cell_angle_gamma 90.000000
_cell_volume 1104.350232
_symmetry_space_group_name_H-M "P 2/C"
_symmetry_group_IT_number 13
_symmetry_cell_setting 'monoclinic'
loop_
_space_group_symop_operation_xyz
x,y,z
-x,y,1/2-z
-x,-y,-z
x,-y,1/2+z
loop_
_atom_site_type_symbol
_atom_site_label
_atom_site_fract_x
_atom_site_fract_y
_atom_site_fract_z
Si Si1 0.500000 0.614428 0.750000
Si Si2 0.500000 0.043918 0.250000
Si Si3 0.297501 0.574570 0.283167
Si Si4 0.169237 0.114753 0.064757
Si Si5 0.077866 0.880923 0.952823
Si Si6 0.232565 0.341791 0.041750
Si Si7 0.958272 0.300276 0.887699
O O1 0.639226 0.541623 0.729783
O O2 0.696038 0.678594 0.573195
O O3 0.346623 0.967509 0.412911
O O4 0.658794 0.111184 0.209749
O O5 0.238193 0.627613 0.425451
O O6 0.103083 0.609507 0.341905
O O7 0.533703 0.609908 0.081582
O O8 0.269859 0.220250 0.035264
O O9 0.000000 0.064153 0.250000
O O10 0.016787 0.158871 0.081682
O O11 0.988131 0.807349 0.094714
O O12 0.000000 0.000000 0.000000
O O13 0.000000 0.370809 0.250000
O O14 0.000000 0.294799 0.750000
#
# Coordination Sequence:
#
# PCOD9230754 Si02
#       7
#     2   2   4   4   4   4   4
#     4  10  25  45  72 104 140 178 229 287 346 416
#     4  10  21  39  60  86 136 170 217 283 344 398
#     4  10  22  42  70  99 137 184 225 281 343 413
#     4  10  20  37  63  95 120 171 230 274 336 402
#     4  10  23  42  65  93 133 179 226 281 338 412
#     4   9  18  35  65  99 125 168 234 279 328 402
#     4  12  26  46  69 102 145 183 228 285 352 412
#
# _framework density 21.732234999999999
#
# number of rings (size 3 to 8) (size 9 to 14) (size 15 to 20)
#    0.000    2.000    1.667    2.000    2.333    8.000 
#    6.000    0.000    0.000    0.000    0.000    0.000 
#    0.000    0.000    0.000    0.000    0.000    0.000 
#
# Total GULP energy -133769.052869 kJ/mol
# GULP energy per Si atom -5573.710536 kJ/mol
# Density = 2.168277 g / cm^3
# Si number density = 21.732235 Si / 1000 Ang^3
#
#
#
# Elastic Constant Matrix: (Units=GPa)
#
#
# Indices 1 2 3 4 5 6 
#
# 1 93.4464 12.9591 39.3356 0.0000 -3.4007 0.0000
# 2 12.9591 66.3546 31.1482 0.0000 4.0795 0.0000
# 3 39.3356 31.1482 164.8909 0.0000 -1.6851 0.0000
# 4 0.0000 0.0000 0.0000 18.8783 0.0000 -18.7868
# 5 -3.4007 4.0795 -1.6851 0.0000 33.5300 0.0000
# 6 0.0000 0.0000 0.0000 -18.7868 0.0000 9.1494
#
#
#
# Elastic Compliance Matrix: (Units=1/GPa)
#
#
# Indices 1 2 3 4 5 6 
#
# 1 0.012018 -0.001188 -0.002630 0.000000 0.001231 0.000000
# 2 -0.001188 0.016814 -0.002916 0.000000 -0.002313 0.000000
# 3 -0.002630 -0.002916 0.007248 0.000000 0.000452 0.000000
# 4 0.000000 0.000000 0.000000 -0.050769 0.000000 -0.104245
# 5 0.001231 -0.002313 0.000452 0.000000 0.030253 0.000000
# 6 0.000000 0.000000 0.000000 -0.104245 0.000000 -0.104753
#
#
# Mechanical properties :
#
#
# Convention : Reuss Voigt Hill
#
# Bulk Modulus (GPa) = 44.22771 54.61974 49.42372
# Shear Modulus (GPa) = -73.33176 28.39480 -22.46848
#
# Velocity S-wave (km/s) = -5.81520 3.61858 -3.21889
# Velocity P-wave (km/s) = 4.96924 6.53042 2.99609
#
# Compressibility (1/GPa) = 0.02261026
#
# Stress axis : x y z
#
# Youngs Moduli (GPa) = 83.20877 59.47495 137.97841
#
# Poissons Ratio (x) = 0.07067 0.36287
# Poissons Ratio (y) = 0.09888 0.40239
# Poissons Ratio (z) = 0.21883 0.17345
#
# Static dielectric constant tensor:
#      x y z
#    x 1.853210 0.000000 0.021010 
#    y 0.000000 1.837990 0.000000 
#    z 0.021010 0.000000 1.745830 
# 
# From -- ./inp_files/51395.got.cif
#   From: 2010.05.17/outbox.cif.g08.bks.cpg/sg13_26_cif.got.tgz:51395.got - 2010.06.03 16:44:36.
