data_PCOD9230521
_publ_section_title
;
Structure prediction by ZEFSAII (Michael W. Deem and Ramdas Pophale) SiO2 
 PCOD9230521
Probable space group: P 2/C
;
_chemical_formula_sum "Si O2"
_cell_formula_units_Z 30
_cell_length_a 5.128679
_cell_length_b 12.662947
_cell_length_c 22.353808
_cell_angle_alpha 90.000000
_cell_angle_beta 93.820229
_cell_angle_gamma 90.000000
_cell_volume 1448.524184
_symmetry_space_group_name_H-M "P 2/C"
_symmetry_group_IT_number 13
_symmetry_cell_setting 'monoclinic'
loop_
_space_group_symop_operation_xyz
x,y,z
-x,y,1/2-z
-x,-y,-z
x,-y,1/2+z
loop_
_atom_site_type_symbol
_atom_site_label
_atom_site_fract_x
_atom_site_fract_y
_atom_site_fract_z
Si Si1 0.023764 0.838055 0.090519
Si Si2 0.580409 0.353292 0.189441
Si Si3 0.931385 0.078860 0.124833
Si Si4 0.000000 0.186639 0.250000
Si Si5 0.398556 0.798523 0.596586
Si Si6 0.496074 0.733042 0.031354
Si Si7 0.465534 0.438348 0.874870
Si Si8 0.053993 0.664743 0.181300
O O1 0.759363 0.787302 0.060321
O O2 0.108348 0.777813 0.152643
O O3 0.256792 0.807138 0.048923
O O4 0.970082 0.958624 0.106066
O O5 0.500000 0.408619 0.250000
O O6 0.372863 0.278713 0.153150
O O7 0.626632 0.442328 0.140250
O O8 0.792832 0.269345 0.217225
O O9 0.034701 0.107310 0.193583
O O10 0.122855 0.145243 0.084744
O O11 0.633004 0.118676 0.113466
O O12 0.479992 0.733917 0.539408
O O13 0.465815 0.615919 0.060186
O O14 0.216287 0.373477 0.850293
O O15 0.714715 0.412031 0.836977
O O16 0.000000 0.668260 0.250000
#
# Coordination Sequence:
#
# PCOD9230521 Si02
#       8
#     4   4   4   2   4   4   4   4
#     4  10  22  38  63  85 124 157 203 240 307 340
#     4  11  22  40  62  89 117 162 194 251 296 362
#     4  11  23  40  61  93 114 169 193 250 297 355
#     4  10  24  40  60  88 132 144 208 244 296 360
#     4  11  24  39  63  86 125 156 206 242 301 339
#     4  10  22  43  57  92 122 155 199 256 279 372
#     4  10  23  36  62  85 121 153 200 240 305 345
#     4  10  20  37  55  90 117 156 195 251 290 360
#
# _framework density 20.710733999999999
#
# number of rings (size 3 to 8) (size 9 to 14) (size 15 to 20)
#    0.000    1.600    1.333    2.800    3.733    3.733 
#    0.000    0.000    0.000    7.200    0.000    0.000 
#    0.000    0.000    0.000    0.000    0.000    0.000 
#
# Total GULP energy -167113.889744 kJ/mol
# GULP energy per Si atom -5570.462991 kJ/mol
# Density = 2.066360 g / cm^3
# Si number density = 20.710734 Si / 1000 Ang^3
#
#
#
# Elastic Constant Matrix: (Units=GPa)
#
#
# Indices 1 2 3 4 5 6 
#
# 1 82.5241 -0.8020 21.4277 0.0000 -9.2783 0.0000
# 2 -0.8020 92.6162 34.8251 0.0000 5.0863 0.0000
# 3 21.4277 34.8251 84.5941 0.0000 -4.6406 0.0000
# 4 0.0000 0.0000 0.0000 15.2067 0.0000 4.6708
# 5 -9.2783 5.0863 -4.6406 0.0000 26.6278 0.0000
# 6 0.0000 0.0000 0.0000 4.6708 0.0000 17.2215
#
#
#
# Elastic Compliance Matrix: (Units=1/GPa)
#
#
# Indices 1 2 3 4 5 6 
#
# 1 0.013536 0.001324 -0.003765 0.000000 0.003808 0.000000
# 2 0.001324 0.013214 -0.005945 0.000000 -0.003099 0.000000
# 3 -0.003765 -0.005945 0.015359 0.000000 0.002501 0.000000
# 4 0.000000 0.000000 0.000000 0.071736 0.000000 -0.019456
# 5 0.003808 -0.003099 0.002501 0.000000 0.039909 0.000000
# 6 0.000000 0.000000 0.000000 -0.019456 0.000000 0.063344
#
#
# Mechanical properties :
#
#
# Convention : Reuss Voigt Hill
#
# Bulk Modulus (GPa) = 39.46746 41.18177 40.32462
# Shear Modulus (GPa) = 20.63404 25.43012 23.03208
#
# Velocity S-wave (km/s) = 3.15984 3.50790 3.33841
# Velocity P-wave (km/s) = 5.69304 6.02782 5.86282
#
# Compressibility (1/GPa) = 0.02533733
#
# Stress axis : x y z
#
# Youngs Moduli (GPa) = 73.87616 75.67483 65.10643
#
# Poissons Ratio (x) = -0.10017 0.24511
# Poissons Ratio (y) = -0.09779 0.38708
# Poissons Ratio (z) = 0.27813 0.44991
#
# Static dielectric constant tensor:
#      x y z
#    x 1.741390 0.000000 -0.034620 
#    y 0.000000 1.771410 0.000000 
#    z -0.034620 0.000000 1.763710 
# 
# From -- ./inp_files/73640.got.cif
#   From: 2010.05.17/outbox.cif.g08.bks.cpg/sg13_37_cif.got.tgz:73640.got - 2010.06.03 16:44:36.
