data_PCOD9230349
_publ_section_title
;
Structure prediction by ZEFSAII (Michael W. Deem and Ramdas Pophale) SiO2 
 PCOD9230349
Probable space group: P 2/C
;
_chemical_formula_sum "Si O2"
_cell_formula_units_Z 32
_cell_length_a 13.143685
_cell_length_b 8.538027
_cell_length_c 18.559003
_cell_angle_alpha 90.000000
_cell_angle_beta 135.311430
_cell_angle_gamma 90.000000
_cell_volume 1464.673534
_symmetry_space_group_name_H-M "P 2/C"
_symmetry_group_IT_number 13
_symmetry_cell_setting 'monoclinic'
loop_
_space_group_symop_operation_xyz
x,y,z
-x,y,1/2-z
-x,-y,-z
x,-y,1/2+z
loop_
_atom_site_type_symbol
_atom_site_label
_atom_site_fract_x
_atom_site_fract_y
_atom_site_fract_z
Si Si1 0.654899 0.578942 0.559928
Si Si2 0.578606 0.892219 0.599024
Si Si3 0.159632 0.474017 0.969450
Si Si4 0.661681 0.415684 0.311944
Si Si5 0.152474 0.894630 0.421549
Si Si6 0.166981 0.464005 0.728287
Si Si7 0.391232 0.910645 0.640730
Si Si8 0.829427 0.103376 0.742665
O O1 0.500000 0.500000 0.500000
O O2 0.642672 0.751956 0.584901
O O3 0.710602 0.561334 0.507186
O O4 0.788314 0.496489 0.667668
O O5 0.472958 0.842065 0.610575
O O6 0.500000 0.000000 0.500000
O O7 0.701830 0.990811 0.701060
O O8 0.160862 0.288930 0.948359
O O9 0.994365 0.521825 0.870804
O O10 0.208615 0.489899 0.076344
O O11 0.500000 0.473400 0.250000
O O12 0.709747 0.449306 0.255541
O O13 0.658706 0.234073 0.334535
O O14 0.255398 0.984861 0.530089
O O15 0.185718 0.894850 0.352658
O O16 0.988592 0.954216 0.343026
O O17 0.181184 0.276583 0.729563
O O18 0.500000 0.000793 0.750000
#
# Coordination Sequence:
#
# PCOD9230349 Si02
#       8
#     4   4   4   4   4   4   4   4
#     4  12  22  37  62  93 127 164 211 269 321 382
#     4  12  24  40  62  94 124 169 219 264 325 389
#     4  10  20  36  60  94 124 159 206 266 320 379
#     4  10  20  36  61  90 119 162 208 256 326 387
#     4   9  17  37  63  88 122 172 202 256 326 389
#     4  11  21  39  64  91 123 161 212 269 322 384
#     4  10  20  39  62  86 122 168 212 257 322 391
#     4  10  20  37  63  91 126 161 215 261 321 387
#
# _framework density 21.847871999999999
#
# number of rings (size 3 to 8) (size 9 to 14) (size 15 to 20)
#    0.000    1.500    2.500    5.250    0.000    0.000 
#    4.500    2.500    0.000    0.000    0.000    0.000 
#    0.000    0.000    0.000    0.000    0.000    0.000 
#
# Total GULP energy -178441.688968 kJ/mol
# GULP energy per Si atom -5576.302780 kJ/mol
# Density = 2.179815 g / cm^3
# Si number density = 21.847872 Si / 1000 Ang^3
#
#
#
# Elastic Constant Matrix: (Units=GPa)
#
#
# Indices 1 2 3 4 5 6 
#
# 1 69.4168 8.2745 9.3858 0.0000 9.6846 0.0000
# 2 8.2745 40.5788 6.5013 0.0000 13.5456 0.0000
# 3 9.3858 6.5013 150.6805 0.0000 15.3748 0.0000
# 4 0.0000 0.0000 0.0000 16.5664 0.0000 3.7540
# 5 9.6846 13.5456 15.3748 0.0000 41.4487 0.0000
# 6 0.0000 0.0000 0.0000 3.7540 0.0000 16.4843
#
#
#
# Elastic Compliance Matrix: (Units=1/GPa)
#
#
# Indices 1 2 3 4 5 6 
#
# 1 0.015102 -0.002111 -0.000582 0.000000 -0.002623 0.000000
# 2 -0.002111 0.027967 -0.000201 0.000000 -0.008572 0.000000
# 3 -0.000582 -0.000201 0.006923 0.000000 -0.002366 0.000000
# 4 0.000000 0.000000 0.000000 0.063647 0.000000 -0.014494
# 5 -0.002623 -0.008572 -0.002366 0.000000 0.028418 0.000000
# 6 0.000000 0.000000 0.000000 -0.014494 0.000000 0.063965
#
#
# Mechanical properties :
#
#
# Convention : Reuss Voigt Hill
#
# Bulk Modulus (GPa) = 22.62136 34.33326 28.47731
# Shear Modulus (GPa) = 22.07070 30.66750 26.36910
#
# Velocity S-wave (km/s) = 3.18181 3.75064 3.47788
# Velocity P-wave (km/s) = 4.88621 5.87411 5.40279
#
# Compressibility (1/GPa) = 0.04420601
#
# Stress axis : x y z
#
# Youngs Moduli (GPa) = 66.21658 35.75580 144.44766
#
# Poissons Ratio (x) = 0.07547 0.08407
# Poissons Ratio (y) = 0.13976 0.02897
# Poissons Ratio (z) = 0.03854 0.00717
#
# Static dielectric constant tensor:
#      x y z
#    x 1.816600 0.000000 0.022930 
#    y 0.000000 1.795440 0.000000 
#    z 0.022930 0.000000 1.862830 
# 
# From -- ./inp_files/79818.got.cif
#   From: 2010.05.17/outbox.cif.g08.bks.cpg/sg13_40_cif.got.tgz:79818.got - 2010.06.03 16:44:36.
