data_PCOD9230036
_publ_section_title
;
Structure prediction by ZEFSAII (Michael W. Deem and Ramdas Pophale) SiO2 
 PCOD9230036
Probable space group: P 2/C
;
_chemical_formula_sum "Si O2"
_cell_formula_units_Z 32
_cell_length_a 14.087857
_cell_length_b 10.187893
_cell_length_c 14.088980
_cell_angle_alpha 90.000000
_cell_angle_beta 41.061413
_cell_angle_gamma 90.000000
_cell_volume 1328.271026
_symmetry_space_group_name_H-M "P 2/C"
_symmetry_group_IT_number 13
_symmetry_cell_setting 'monoclinic'
loop_
_space_group_symop_operation_xyz
x,y,z
-x,y,1/2-z
-x,-y,-z
x,-y,1/2+z
loop_
_atom_site_type_symbol
_atom_site_label
_atom_site_fract_x
_atom_site_fract_y
_atom_site_fract_z
Si Si1 0.755177 0.963641 0.607497
Si Si2 0.064635 0.324897 0.438522
Si Si3 0.397975 0.658682 0.056145
Si Si4 0.439115 0.181952 0.690833
Si Si5 0.912369 0.566042 0.218243
Si Si6 0.344499 0.040583 0.533722
Si Si7 0.619334 0.306493 0.245036
Si Si8 0.953796 0.933825 0.675422
O O1 0.663086 0.847610 0.726171
O O2 0.708985 0.103617 0.682874
O O3 0.694704 0.952346 0.547193
O O4 0.926207 0.969512 0.459994
O O5 0.046272 0.435721 0.371602
O O6 0.215350 0.357373 0.381573
O O7 0.061567 0.192891 0.379321
O O8 0.949110 0.325269 0.610492
O O9 0.422363 0.682815 0.148541
O O10 0.258363 0.575934 0.134293
O O11 0.373216 0.809282 0.039282
O O12 0.543699 0.624546 0.891400
O O13 0.500000 0.201998 0.750000
O O14 0.539501 0.078436 0.556255
O O15 0.000000 0.580581 0.250000
O O16 0.203511 0.995783 0.696725
O O17 0.500000 0.317821 0.250000
O O18 0.000000 0.901715 0.750000
#
# Coordination Sequence:
#
# PCOD9230036 Si02
#       8
#     4   4   4   4   4   4   4   4
#     4  10  20  36  58  95 139 176 211 258 324 394
#     4  11  26  47  70  96 129 178 228 281 343 385
#     4  12  23  38  67  98 130 177 219 264 335 396
#     4  10  20  37  56  89 140 180 210 255 325 396
#     4  11  27  50  71  94 126 171 234 292 333 389
#     4  10  20  35  58  98 138 176 208 260 325 400
#     4  12  23  41  65  99 139 171 212 271 329 406
#     4  10  22  38  65 100 137 177 221 267 327 399
#
# _framework density 24.091469
#
# number of rings (size 3 to 8) (size 9 to 14) (size 15 to 20)
#    0.000    1.250    2.500    3.375    3.500    1.500 
#    0.000    3.125    0.000    0.000    0.000    0.000 
#    0.000    0.000    0.000    0.000    0.000    0.000 
#
# Total GULP energy -178742.679335 kJ/mol
# GULP energy per Si atom -5585.708729 kJ/mol
# Density = 2.403664 g / cm^3
# Si number density = 24.091469 Si / 1000 Ang^3
#
#
#
# Elastic Constant Matrix: (Units=GPa)
#
#
# Indices 1 2 3 4 5 6 
#
# 1 121.3612 17.3080 9.4696 0.0000 28.4250 0.0000
# 2 17.3080 63.7803 10.6546 0.0000 11.2306 0.0000
# 3 9.4696 10.6546 115.5101 0.0000 -7.4082 0.0000
# 4 0.0000 0.0000 0.0000 16.3728 0.0000 -1.3559
# 5 28.4250 11.2306 -7.4082 0.0000 39.7667 0.0000
# 6 0.0000 0.0000 0.0000 -1.3559 0.0000 20.4044
#
#
#
# Elastic Compliance Matrix: (Units=1/GPa)
#
#
# Indices 1 2 3 4 5 6 
#
# 1 0.010189 -0.001314 -0.001171 0.000000 -0.007130 0.000000
# 2 -0.001314 0.017066 -0.001736 0.000000 -0.004204 0.000000
# 3 -0.001171 -0.001736 0.009107 0.000000 0.003024 0.000000
# 4 0.000000 0.000000 0.000000 0.061415 0.000000 0.004081
# 5 -0.007130 -0.004204 0.003024 0.000000 0.031994 0.000000
# 6 0.000000 0.000000 0.000000 0.004081 0.000000 0.049280
#
#
# Mechanical properties :
#
#
# Convention : Reuss Voigt Hill
#
# Bulk Modulus (GPa) = 35.81756 41.72399 38.77078
# Shear Modulus (GPa) = 25.40661 32.85673 29.13167
#
# Velocity S-wave (km/s) = 3.25097 3.69702 3.48114
# Velocity P-wave (km/s) = 5.38436 5.96494 5.68207
#
# Compressibility (1/GPa) = 0.02791927
#
# Stress axis : x y z
#
# Youngs Moduli (GPa) = 98.14897 58.59752 109.80121
#
# Poissons Ratio (x) = 0.07698 0.12862
# Poissons Ratio (y) = 0.12894 0.19062
# Poissons Ratio (z) = 0.11497 0.10173
#
# Static dielectric constant tensor:
#      x y z
#    x 1.971330 0.000000 -0.005870 
#    y 0.000000 1.928000 0.000000 
#    z -0.005870 0.000000 1.932910 
# 
# From -- ./inp_files/53701.got.cif
#   From: 2010.05.17/outbox.cif.g08.bks.cpg/sg13_27_cif.got.tgz:53701.got - 2010.06.03 16:44:36.
