data_PCOD9230539
_publ_section_title
;
Structure prediction by ZEFSAII (Michael W. Deem and Ramdas Pophale) SiO2 
 PCOD9230539
Probable space group: P 2/C
;
_chemical_formula_sum "Si O2"
_cell_formula_units_Z 32
_cell_length_a 16.338137
_cell_length_b 11.824977
_cell_length_c 19.266127
_cell_angle_alpha 90.000000
_cell_angle_beta 21.247712
_cell_angle_gamma 90.000000
_cell_volume 1348.920729
_symmetry_space_group_name_H-M "P 2/C"
_symmetry_group_IT_number 13
_symmetry_cell_setting 'monoclinic'
loop_
_space_group_symop_operation_xyz
x,y,z
-x,y,1/2-z
-x,-y,-z
x,-y,1/2+z
loop_
_atom_site_type_symbol
_atom_site_label
_atom_site_fract_x
_atom_site_fract_y
_atom_site_fract_z
Si Si1 0.562398 0.000889 0.031185
Si Si2 0.265113 0.014524 0.891800
Si Si3 0.834423 0.734274 0.986051
Si Si4 0.312186 0.247973 0.042781
Si Si5 0.004340 0.367942 0.481820
Si Si6 0.844234 0.771627 0.513846
Si Si7 0.656152 0.241100 0.018889
Si Si8 0.488273 0.631202 0.528463
O O1 0.334547 0.987782 0.256619
O O2 0.675011 0.116642 0.969356
O O3 0.696640 0.887730 0.944574
O O4 0.500000 0.000000 0.000000
O O5 0.500000 0.999425 0.750000
O O6 0.110486 0.905827 0.025801
O O7 0.167675 0.134667 0.989613
O O8 0.661170 0.721553 0.059130
O O9 0.073530 0.708228 0.760308
O O10 0.826658 0.663487 0.062564
O O11 0.492485 0.296600 0.954404
O O12 0.999997 0.297305 0.556565
O O13 0.246481 0.342824 0.255046
O O14 0.000000 0.500000 0.500000
O O15 0.592656 0.761060 0.747382
O O16 0.822318 0.734054 0.451397
O O17 0.657553 0.329729 0.954930
O O18 0.500000 0.500000 0.500000
#
# Coordination Sequence:
#
# PCOD9230539 Si02
#       8
#     4   4   4   4   4   4   4   4
#     4  11  19  33  58  87 119 145 182 232 285 344
#     4  11  19  35  61  91 115 142 192 238 281 357
#     4  10  22  38  57  83 120 154 184 231 298 349
#     4  10  20  37  57  83 119 153 181 231 296 349
#     4  10  23  41  55  77 115 154 195 238 282 333
#     4   9  17  34  59  81 110 147 184 228 283 332
#     4   9  16  32  56  84 109 141 181 232 279 328
#     4  10  21  36  56  81 106 146 197 236 280 333
#
# _framework density 23.722670000000001
#
# number of rings (size 3 to 8) (size 9 to 14) (size 15 to 20)
#    0.000    2.000    5.000    0.000    1.750    2.500 
#    0.000    0.000    0.000    1.500    0.000    0.000 
#    0.000    0.000    0.000    0.000    0.000    0.000 
#
# Total GULP energy -178900.861036 kJ/mol
# GULP energy per Si atom -5590.651907 kJ/mol
# Density = 2.366868 g / cm^3
# Si number density = 23.722670 Si / 1000 Ang^3
#
#
#
# Elastic Constant Matrix: (Units=GPa)
#
#
# Indices 1 2 3 4 5 6 
#
# 1 268.3443 101.1076 47.3766 0.0000 40.5824 0.0000
# 2 101.1076 130.9941 -4.5369 0.0000 10.3469 0.0000
# 3 47.3766 -4.5369 72.6249 0.0000 10.2924 0.0000
# 4 0.0000 0.0000 0.0000 24.1352 0.0000 5.8012
# 5 40.5824 10.3469 10.2924 0.0000 37.1078 0.0000
# 6 0.0000 0.0000 0.0000 5.8012 0.0000 33.8735
#
#
#
# Elastic Compliance Matrix: (Units=1/GPa)
#
#
# Indices 1 2 3 4 5 6 
#
# 1 0.007331 -0.005391 -0.004367 0.000000 -0.005303 0.000000
# 2 -0.005391 0.011818 0.004045 0.000000 0.001478 0.000000
# 3 -0.004367 0.004045 0.017023 0.000000 -0.001073 0.000000
# 4 0.000000 0.000000 0.000000 0.043212 0.000000 -0.007401
# 5 -0.005303 0.001478 -0.001073 0.000000 0.032633 0.000000
# 6 0.000000 0.000000 0.000000 -0.007401 0.000000 0.030789
#
#
# Mechanical properties :
#
#
# Convention : Reuss Voigt Hill
#
# Bulk Modulus (GPa) = 40.40953 84.42866 62.41909
# Shear Modulus (GPa) = 30.77299 40.89104 35.83201
#
# Velocity S-wave (km/s) = 3.60557 4.15626 3.89067
# Velocity P-wave (km/s) = 5.86555 7.66158 6.82292
#
# Compressibility (1/GPa) = 0.02474664
#
# Stress axis : x y z
#
# Youngs Moduli (GPa) = 136.41436 84.61691 58.74319
#
# Poissons Ratio (x) = 0.45613 0.25655
# Poissons Ratio (y) = 0.73535 -0.23763
# Poissons Ratio (z) = 0.59577 -0.34230
#
# Static dielectric constant tensor:
#      x y z
#    x 1.914530 0.000000 -0.009370 
#    y 0.000000 1.829460 0.000000 
#    z -0.009370 0.000000 1.978880 
# 
# From -- ./inp_files/68674.got.cif
#   From: 2010.05.17/outbox.cif.g08.bks.cpg/sg13_35_cif.got.tgz:68674.got - 2010.06.03 16:44:36.
