data_PCOD9230502
_publ_section_title
;
Structure prediction by ZEFSAII (Michael W. Deem and Ramdas Pophale) SiO2 
 PCOD9230502
Probable space group: P 2/C
;
_chemical_formula_sum "Si O2"
_cell_formula_units_Z 18
_cell_length_a 8.992994
_cell_length_b 7.614981
_cell_length_c 10.982746
_cell_angle_alpha 90.000000
_cell_angle_beta 68.880207
_cell_angle_gamma 90.000000
_cell_volume 701.594476
_symmetry_space_group_name_H-M "P 2/C"
_symmetry_group_IT_number 13
_symmetry_cell_setting 'monoclinic'
loop_
_space_group_symop_operation_xyz
x,y,z
-x,y,1/2-z
-x,-y,-z
x,-y,1/2+z
loop_
_atom_site_type_symbol
_atom_site_label
_atom_site_fract_x
_atom_site_fract_y
_atom_site_fract_z
Si Si1 0.823347 0.598168 0.813760
Si Si2 0.000000 0.957424 0.750000
Si Si3 0.402977 0.013475 0.404031
Si Si4 0.207453 0.372157 0.451444
Si Si5 0.894466 0.166219 0.577941
O O1 0.748893 0.502106 0.951385
O O2 0.751467 0.573006 0.699970
O O3 0.866082 0.806041 0.820350
O O4 0.717331 0.149229 0.582080
O O5 0.887993 0.101965 0.717948
O O6 0.500000 0.030263 0.250000
O O7 0.500000 0.000000 0.500000
O O8 0.297220 0.189266 0.445765
O O9 0.016728 0.321302 0.511692
O O10 0.000000 0.516414 0.750000
O O11 0.000000 0.000000 0.500000
#
# Coordination Sequence:
#
# PCOD9230502 Si02
#       5
#     4   2   4   4   4
#     4  10  21  39  64 109 143 176 225 298 360 415
#     4  10  20  36  70 106 140 166 236 306 350 398
#     4  11  26  45  71 106 145 185 242 294 354 413
#     4  11  24  44  74 105 143 184 237 296 352 427
#     4  10  21  41  73 105 133 181 241 301 348 401
#
# _framework density 25.655844999999999
#
# number of rings (size 3 to 8) (size 9 to 14) (size 15 to 20)
#    0.667    0.889    4.444    0.667    7.778    1.778 
#    0.000    3.333    0.000    5.333    0.000    1.556 
#    0.000    0.000    0.000    0.000    0.000    0.000 
#
# Total GULP energy -100303.835254 kJ/mol
# GULP energy per Si atom -5572.435292 kJ/mol
# Density = 2.559745 g / cm^3
# Si number density = 25.655845 Si / 1000 Ang^3
#
#
#
# Elastic Constant Matrix: (Units=GPa)
#
#
# Indices 1 2 3 4 5 6 
#
# 1 123.1252 37.3921 79.9367 0.0000 32.0872 0.0000
# 2 37.3921 152.4664 81.4562 0.0000 5.4703 0.0000
# 3 79.9367 81.4562 185.3970 0.0000 37.8008 0.0000
# 4 0.0000 0.0000 0.0000 58.3476 0.0000 2.7332
# 5 32.0872 5.4703 37.8008 0.0000 45.8753 0.0000
# 6 0.0000 0.0000 0.0000 2.7332 0.0000 8.6093
#
#
#
# Elastic Compliance Matrix: (Units=1/GPa)
#
#
# Indices 1 2 3 4 5 6 
#
# 1 0.012238 -0.000742 -0.003874 0.000000 -0.005279 0.000000
# 2 -0.000742 0.008861 -0.004163 0.000000 0.002893 0.000000
# 3 -0.003874 -0.004163 0.009903 0.000000 -0.004954 0.000000
# 4 0.000000 0.000000 0.000000 0.017397 0.000000 -0.005523
# 5 -0.005279 0.002893 -0.004954 0.000000 0.029228 0.000000
# 6 0.000000 0.000000 0.000000 -0.005523 0.000000 0.117908
#
#
# Mechanical properties :
#
#
# Convention : Reuss Voigt Hill
#
# Bulk Modulus (GPa) = 74.38302 95.39539 84.88921
# Shear Modulus (GPa) = 22.98046 40.04667 31.51357
#
# Velocity S-wave (km/s) = 2.99611 3.95513 3.50854
# Velocity P-wave (km/s) = 6.40503 7.62370 7.04078
#
# Compressibility (1/GPa) = 0.01344393
#
# Stress axis : x y z
#
# Youngs Moduli (GPa) = 81.71083 112.85150 100.97460
#
# Poissons Ratio (x) = 0.08375 0.39120
# Poissons Ratio (y) = 0.06064 0.42037
# Poissons Ratio (z) = 0.31657 0.46981
#
# Static dielectric constant tensor:
#      x y z
#    x 2.009240 0.000000 0.043240 
#    y 0.000000 2.040920 0.000000 
#    z 0.043240 0.000000 2.096450 
# 
# From -- ./inp_files/31283.got.cif
#   From: 2010.05.17/outbox.cif.g08.bks.cpg/sg13_16_cif.got.tgz:31283.got - 2010.06.03 16:44:36.
