data_PCOD9230185
_publ_section_title
;
Structure prediction by ZEFSAII (Michael W. Deem and Ramdas Pophale) SiO2 
 PCOD9230185
Probable space group: P 2/C
;
_chemical_formula_sum "Si O2"
_cell_formula_units_Z 22
_cell_length_a 7.073897
_cell_length_b 5.654600
_cell_length_c 19.672148
_cell_angle_alpha 90.000000
_cell_angle_beta 84.386106
_cell_angle_gamma 90.000000
_cell_volume 783.112920
_symmetry_space_group_name_H-M "P 2/C"
_symmetry_group_IT_number 13
_symmetry_cell_setting 'monoclinic'
loop_
_space_group_symop_operation_xyz
x,y,z
-x,y,1/2-z
-x,-y,-z
x,-y,1/2+z
loop_
_atom_site_type_symbol
_atom_site_label
_atom_site_fract_x
_atom_site_fract_y
_atom_site_fract_z
Si Si1 0.500000 0.928865 0.750000
Si Si2 0.291277 0.383952 0.747459
Si Si3 0.709387 0.401523 0.914946
Si Si4 0.865384 0.528883 0.108994
Si Si5 0.665415 0.101985 0.395358
Si Si6 0.091073 0.969588 0.923247
O O1 0.322726 0.113311 0.768269
O O2 0.432315 0.869146 0.674709
O O3 0.500000 0.505821 0.750000
O O4 0.262592 0.394725 0.668781
O O5 0.154386 0.493600 0.808113
O O6 0.620545 0.147930 0.932278
O O7 0.925685 0.435094 0.929250
O O8 0.620397 0.653182 0.935049
O O9 0.790239 0.791428 0.094975
O O10 0.796080 0.277183 0.084584
O O11 0.900680 0.073986 0.382287
O O12 0.000000 0.000000 0.000000
#
# Coordination Sequence:
#
# PCOD9230185 Si02
#       6
#     2   4   4   4   4   4
#     4   8  18  32  54  82 120 150 178 216 298 364
#     4   9  19  34  53  86 120 154 173 225 294 361
#     4   9  18  32  51  79 113 143 184 224 283 346
#     4  10  20  36  56  85 110 146 194 241 284 338
#     4   9  18  32  53  81 107 148 182 231 284 339
#     4  10  21  38  60  80 107 151 206 248 275 315
#
# _framework density 28.093012999999999
#
# number of rings (size 3 to 8) (size 9 to 14) (size 15 to 20)
#    0.545    2.182    0.000    1.091    1.273    2.909 
#    0.000    9.091    0.000    2.182    0.000    0.000 
#    0.000    0.000    0.000    0.000    0.000    0.000 
#
# Total GULP energy -122522.425661 kJ/mol
# GULP energy per Si atom -5569.201166 kJ/mol
# Density = 2.802907 g / cm^3
# Si number density = 28.093013 Si / 1000 Ang^3
#
#
#
# Elastic Constant Matrix: (Units=GPa)
#
#
# Indices 1 2 3 4 5 6 
#
# 1 109.2981 9.1377 3.4122 0.0000 20.6237 0.0000
# 2 9.1377 263.7289 34.6078 0.0000 -4.2723 0.0000
# 3 3.4122 34.6078 108.7777 0.0000 -3.2343 0.0000
# 4 0.0000 0.0000 0.0000 33.8928 0.0000 9.6743
# 5 20.6237 -4.2723 -3.2343 0.0000 32.2700 0.0000
# 6 0.0000 0.0000 0.0000 9.6743 0.0000 9.0745
#
#
#
# Elastic Compliance Matrix: (Units=1/GPa)
#
#
# Indices 1 2 3 4 5 6 
#
# 1 0.010479 -0.000421 -0.000397 0.000000 -0.006792 0.000000
# 2 -0.000421 0.003979 -0.001233 0.000000 0.000672 0.000000
# 3 -0.000397 -0.001233 0.009629 0.000000 0.001055 0.000000
# 4 0.000000 0.000000 0.000000 0.042410 0.000000 -0.045214
# 5 -0.006792 0.000672 0.001055 0.000000 0.035524 0.000000
# 6 0.000000 0.000000 0.000000 -0.045214 0.000000 0.158402
#
#
# Mechanical properties :
#
#
# Convention : Reuss Voigt Hill
#
# Bulk Modulus (GPa) = 50.03578 64.01335 57.02456
# Shear Modulus (GPa) = 18.43755 44.02393 31.23074
#
# Velocity S-wave (km/s) = 2.56462 3.96293 3.33782
# Velocity P-wave (km/s) = 5.15937 6.61630 5.93273
#
# Compressibility (1/GPa) = 0.01998570
#
# Stress axis : x y z
#
# Youngs Moduli (GPa) = 95.43324 251.31835 103.85207
#
# Poissons Ratio (x) = 0.10581 0.04120
# Poissons Ratio (y) = 0.04018 0.12802
# Poissons Ratio (z) = 0.03786 0.30981
#
# Static dielectric constant tensor:
#      x y z
#    x 2.201890 0.000000 0.065810 
#    y 0.000000 2.557730 0.000000 
#    z 0.065810 0.000000 2.109870 
# 
# From -- ./inp_files/74562.got.cif
#   From: 2010.05.17/outbox.cif.g08.bks.cpg/sg13_38_cif.got.tgz:74562.got - 2010.06.03 16:44:36.
