data_PCOD9230988
_publ_section_title
;
Structure prediction by ZEFSAII (Michael W. Deem and Ramdas Pophale) SiO2 
 PCOD9230988
Probable space group: P 2/C
;
_chemical_formula_sum "Si O2"
_cell_formula_units_Z 32
_cell_length_a 15.453658
_cell_length_b 9.525021
_cell_length_c 19.880079
_cell_angle_alpha 90.000000
_cell_angle_beta 29.768376
_cell_angle_gamma 90.000000
_cell_volume 1452.881391
_symmetry_space_group_name_H-M "P 2/C"
_symmetry_group_IT_number 13
_symmetry_cell_setting 'monoclinic'
loop_
_space_group_symop_operation_xyz
x,y,z
-x,y,1/2-z
-x,-y,-z
x,-y,1/2+z
loop_
_atom_site_type_symbol
_atom_site_label
_atom_site_fract_x
_atom_site_fract_y
_atom_site_fract_z
Si Si1 0.284513 0.209517 0.481589
Si Si2 0.559652 0.536215 0.780064
Si Si3 0.691182 0.317075 0.898815
Si Si4 0.281088 0.281525 0.769401
Si Si5 0.078786 0.364046 0.516377
Si Si6 0.508381 0.033267 0.879634
Si Si7 0.332542 0.818869 0.626187
Si Si8 0.915170 0.580329 0.733656
O O1 0.420591 0.340446 0.382960
O O2 0.216721 0.235697 0.602630
O O3 0.142096 0.235671 0.521115
O O4 0.392012 0.066155 0.411230
O O5 0.500000 0.466534 0.750000
O O6 0.587154 0.412615 0.814109
O O7 0.751168 0.600089 0.641183
O O8 0.742138 0.250025 0.793708
O O9 0.752777 0.475834 0.856201
O O10 0.486048 0.291077 0.041143
O O11 0.086017 0.327526 0.919207
O O12 0.375658 0.148261 0.736550
O O13 0.028070 0.491652 0.602477
O O14 0.638198 0.935404 0.836238
O O15 0.385363 0.111302 0.018568
O O16 0.156021 0.730261 0.742746
O O17 0.000000 0.595124 0.750000
#
# Coordination Sequence:
#
# PCOD9230988 Si02
#       8
#     4   4   4   4   4   4   4   4
#     4  10  20  38  62  86 123 159 195 240 292 362
#     4  10  23  40  62  86 116 157 205 246 290 348
#     4   9  19  31  59  90 114 145 196 239 291 342
#     4  10  21  37  62  89 117 151 200 250 293 351
#     4  10  22  38  59  90 124 153 197 251 302 340
#     4   9  20  37  58  84 116 160 199 225 299 362
#     4   9  19  34  53  84 123 154 187 238 288 362
#     4  11  20  32  57  93 119 146 192 249 302 342
#
# _framework density 22.025196999999999
#
# number of rings (size 3 to 8) (size 9 to 14) (size 15 to 20)
#    0.000    2.250    1.250    1.500   10.500    0.000 
#    2.250    2.500    0.000    0.000    0.000    0.000 
#    0.000    0.000    0.000    0.000    0.000    0.000 
#
# Total GULP energy -178487.715221 kJ/mol
# GULP energy per Si atom -5577.741101 kJ/mol
# Density = 2.197507 g / cm^3
# Si number density = 22.025197 Si / 1000 Ang^3
#
#
#
# Elastic Constant Matrix: (Units=GPa)
#
#
# Indices 1 2 3 4 5 6 
#
# 1 54.2905 30.0705 2.8671 0.0000 -12.8000 0.0000
# 2 30.0705 89.6621 18.1422 0.0000 -19.9449 0.0000
# 3 2.8671 18.1422 44.9541 0.0000 -13.8378 0.0000
# 4 0.0000 0.0000 0.0000 9.9336 0.0000 -10.6359
# 5 -12.8000 -19.9449 -13.8378 0.0000 24.0068 0.0000
# 6 0.0000 0.0000 0.0000 -10.6359 0.0000 23.1361
#
#
#
# Elastic Compliance Matrix: (Units=1/GPa)
#
#
# Indices 1 2 3 4 5 6 
#
# 1 0.024264 -0.006833 0.004188 0.000000 0.009674 0.000000
# 2 -0.006833 0.015833 -0.003679 0.000000 0.007390 0.000000
# 3 0.004188 -0.003679 0.028215 0.000000 0.015440 0.000000
# 4 0.000000 0.000000 0.000000 0.198248 0.000000 0.091137
# 5 0.009674 0.007390 0.015440 0.000000 0.061853 0.000000
# 6 0.000000 0.000000 0.000000 0.091137 0.000000 0.085119
#
#
# Mechanical properties :
#
#
# Convention : Reuss Voigt Hill
#
# Bulk Modulus (GPa) = 17.96493 32.34070 25.15282
# Shear Modulus (GPa) = 11.24266 20.60375 15.92321
#
# Velocity S-wave (km/s) = 2.26176 3.06185 2.69170
# Velocity P-wave (km/s) = 3.87233 5.21683 4.59403
#
# Compressibility (1/GPa) = 0.05566400
#
# Stress axis : x y z
#
# Youngs Moduli (GPa) = 41.21372 63.15965 35.44174
#
# Poissons Ratio (x) = 0.43156 -0.14843
# Poissons Ratio (y) = 0.28161 0.13039
# Poissons Ratio (z) = -0.17260 0.23237
#
# Static dielectric constant tensor:
#      x y z
#    x 1.867460 0.000000 0.037810 
#    y 0.000000 1.853420 0.000000 
#    z 0.037810 0.000000 1.898540 
# 
# From -- ./inp_files/87893.got.cif
#   From: 2010.05.17/outbox.cif.g08.bks.cpg/sg13_44_cif.got.tgz:87893.got - 2010.06.03 16:44:36.
