data_PCOD9230405
_publ_section_title
;
Structure prediction by ZEFSAII (Michael W. Deem and Ramdas Pophale) SiO2 
 PCOD9230405
Probable space group: P 2/C
;
_chemical_formula_sum "Si O2"
_cell_formula_units_Z 22
_cell_length_a 10.937586
_cell_length_b 8.662248
_cell_length_c 10.731156
_cell_angle_alpha 90.000000
_cell_angle_beta 76.571677
_cell_angle_gamma 90.000000
_cell_volume 988.917801
_symmetry_space_group_name_H-M "P 2/C"
_symmetry_group_IT_number 13
_symmetry_cell_setting 'monoclinic'
loop_
_space_group_symop_operation_xyz
x,y,z
-x,y,1/2-z
-x,-y,-z
x,-y,1/2+z
loop_
_atom_site_type_symbol
_atom_site_label
_atom_site_fract_x
_atom_site_fract_y
_atom_site_fract_z
Si Si1 0.126401 0.574070 0.406849
Si Si2 0.221205 0.809232 0.705907
Si Si3 0.254896 0.300647 0.468016
Si Si4 0.145383 0.147936 0.734924
Si Si5 0.479874 0.627259 0.612024
Si Si6 0.000000 0.371851 0.250000
O O1 0.237655 0.484441 0.449279
O O2 0.150680 0.749284 0.360145
O O3 0.101985 0.489666 0.280930
O O4 0.000000 0.500000 0.500000
O O5 0.348018 0.718461 0.640754
O O6 0.099204 0.744161 0.659798
O O7 0.226519 0.993135 0.702957
O O8 0.194576 0.774615 0.859229
O O9 0.187282 0.250586 0.608089
O O10 0.401192 0.259868 0.434981
O O11 0.000000 0.105426 0.750000
O O12 0.500000 0.566216 0.750000
O O13 0.500000 0.500000 0.500000
#
# Coordination Sequence:
#
# PCOD9230405 Si02
#       6
#     4   4   4   4   4   2
#     4  11  21  36  63  99 134 176 234 288 343 427
#     4  10  24  43  65  96 143 183 232 296 365 424
#     4  10  24  42  65  97 139 181 240 290 355 434
#     4  12  23  40  66 103 142 186 230 292 365 420
#     4  10  24  46  74 100 138 185 240 302 353 431
#     4  10  20  36  62  90 128 174 224 278 344 414
#
# _framework density 22.246542000000002
#
# number of rings (size 3 to 8) (size 9 to 14) (size 15 to 20)
#    0.000    1.455    3.636    0.000   10.182    2.909 
#    0.000    0.000    0.000    0.000    0.000    0.000 
#    0.000    0.000    0.000    0.000    0.000    0.000 
#
# Total GULP energy -122469.788792 kJ/mol
# GULP energy per Si atom -5566.808581 kJ/mol
# Density = 2.219591 g / cm^3
# Si number density = 22.246542 Si / 1000 Ang^3
#
#
#
# Elastic Constant Matrix: (Units=GPa)
#
#
# Indices 1 2 3 4 5 6 
#
# 1 124.5248 38.5122 29.1614 0.0000 -22.8482 0.0000
# 2 38.5122 134.7831 47.6985 0.0000 1.0107 0.0000
# 3 29.1614 47.6985 124.7561 0.0000 -14.4712 0.0000
# 4 0.0000 0.0000 0.0000 24.1184 0.0000 -3.6490
# 5 -22.8482 1.0107 -14.4712 0.0000 29.5696 0.0000
# 6 0.0000 0.0000 0.0000 -3.6490 0.0000 20.1784
#
#
#
# Elastic Compliance Matrix: (Units=1/GPa)
#
#
# Indices 1 2 3 4 5 6 
#
# 1 0.010498 -0.002914 -0.000410 0.000000 0.008010 0.000000
# 2 -0.002914 0.009504 -0.003447 0.000000 -0.004264 0.000000
# 3 -0.000410 -0.003447 0.009972 0.000000 0.004681 0.000000
# 4 0.000000 0.000000 0.000000 0.042628 0.000000 0.007709
# 5 0.008010 -0.004264 0.004681 0.000000 0.042445 0.000000
# 6 0.000000 0.000000 0.000000 0.007709 0.000000 0.050952
#
#
# Mechanical properties :
#
#
# Convention : Reuss Voigt Hill
#
# Bulk Modulus (GPa) = 60.86231 68.31204 64.58717
# Shear Modulus (GPa) = 27.02418 32.68609 29.85513
#
# Velocity S-wave (km/s) = 3.48912 3.83726 3.66732
# Velocity P-wave (km/s) = 6.60677 7.09973 6.85768
#
# Compressibility (1/GPa) = 0.01643053
#
# Stress axis : x y z
#
# Youngs Moduli (GPa) = 95.25867 105.21988 100.27601
#
# Poissons Ratio (x) = 0.30665 0.04115
# Poissons Ratio (y) = 0.27762 0.34565
# Poissons Ratio (z) = 0.03909 0.36269
#
# Static dielectric constant tensor:
#      x y z
#    x 1.948090 0.000000 0.135620 
#    y 0.000000 1.896270 0.000000 
#    z 0.135620 0.000000 2.132060 
# 
# From -- ./inp_files/32529.got.cif
#   From: 2010.05.17/outbox.cif.g08.bks.cpg/sg13_17_cif.got.tgz:32529.got - 2010.06.03 16:44:36.
