data_PCOD9230141
_publ_section_title
;
Structure prediction by ZEFSAII (Michael W. Deem and Ramdas Pophale) SiO2 
 PCOD9230141
Probable space group: P 2/C
;
_chemical_formula_sum "Si O2"
_cell_formula_units_Z 28
_cell_length_a 13.575367
_cell_length_b 14.034303
_cell_length_c 8.586584
_cell_angle_alpha 90.000000
_cell_angle_beta 57.229028
_cell_angle_gamma 90.000000
_cell_volume 1375.551015
_symmetry_space_group_name_H-M "P 2/C"
_symmetry_group_IT_number 13
_symmetry_cell_setting 'monoclinic'
loop_
_space_group_symop_operation_xyz
x,y,z
-x,y,1/2-z
-x,-y,-z
x,-y,1/2+z
loop_
_atom_site_type_symbol
_atom_site_label
_atom_site_fract_x
_atom_site_fract_y
_atom_site_fract_z
Si Si1 0.879960 0.363086 0.908782
Si Si2 0.824565 0.522107 0.146484
Si Si3 0.572445 0.579228 0.845003
Si Si4 0.894715 0.881006 0.122760
Si Si5 0.286390 0.243298 0.239831
Si Si6 0.868399 0.710504 0.925944
Si Si7 0.839468 0.078319 0.027799
O O1 0.836391 0.429424 0.804579
O O2 0.000000 0.315378 0.750000
O O3 0.909298 0.434213 0.027590
O O4 0.785977 0.290322 0.053931
O O5 0.699509 0.470971 0.229992
O O6 0.838944 0.605551 0.009701
O O7 0.500000 0.589455 0.750000
O O8 0.599684 0.688588 0.874784
O O9 0.500000 0.500000 0.000000
O O10 0.850259 0.901103 0.335049
O O11 0.037008 0.885095 0.003103
O O12 0.856844 0.781554 0.081499
O O13 0.845610 0.966011 0.056777
O O14 0.216003 0.259332 0.141211
O O15 0.270764 0.132387 0.298888
O O16 0.000000 0.715236 0.750000
#
# Coordination Sequence:
#
# PCOD9230141 Si02
#       7
#     4   4   4   4   4   4   4
#     4  11  21  34  50  78 113 155 182 232 287 357
#     4  11  22  36  54  78 109 146 198 237 296 355
#     4  11  23  42  60  80 107 148 199 263 306 341
#     4  10  21  33  56  81 125 164 190 224 274 340
#     4  11  22  35  57  83 114 151 203 239 292 354
#     4  12  21  34  53  86 119 160 187 228 279 354
#     4  10  20  36  53  85 119 162 197 227 272 343
#
# _framework density 20.355478999999999
#
# number of rings (size 3 to 8) (size 9 to 14) (size 15 to 20)
#    0.000    1.143    1.429    7.714    4.000    0.000 
#    0.000    0.000    0.000    0.000    0.000   10.000 
#    0.000    0.000    0.000    0.000    0.000    0.000 
#
# Total GULP energy -156357.226622 kJ/mol
# GULP energy per Si atom -5584.186665 kJ/mol
# Density = 2.030915 g / cm^3
# Si number density = 20.355479 Si / 1000 Ang^3
#
#
#
# Elastic Constant Matrix: (Units=GPa)
#
#
# Indices 1 2 3 4 5 6 
#
# 1 71.4424 4.5754 8.9877 0.0000 13.1027 0.0000
# 2 4.5754 94.4022 15.2715 0.0000 -2.1228 0.0000
# 3 8.9877 15.2715 51.7409 0.0000 8.2591 0.0000
# 4 0.0000 0.0000 0.0000 38.0313 0.0000 6.8692
# 5 13.1027 -2.1228 8.2591 0.0000 27.3555 0.0000
# 6 0.0000 0.0000 0.0000 6.8692 0.0000 35.2025
#
#
#
# Elastic Compliance Matrix: (Units=1/GPa)
#
#
# Indices 1 2 3 4 5 6 
#
# 1 0.015510 -0.000690 -0.001362 0.000000 -0.007071 0.000000
# 2 -0.000690 0.011255 -0.003566 0.000000 0.002281 0.000000
# 3 -0.001362 -0.003566 0.021597 0.000000 -0.006145 0.000000
# 4 0.000000 0.000000 0.000000 0.027255 0.000000 -0.005318
# 5 -0.007071 0.002281 -0.006145 0.000000 0.041975 0.000000
# 6 0.000000 0.000000 0.000000 -0.005318 0.000000 0.029445
#
#
# Mechanical properties :
#
#
# Convention : Reuss Voigt Hill
#
# Bulk Modulus (GPa) = 26.93580 30.58385 28.75982
# Shear Modulus (GPa) = 29.30026 32.70126 31.00076
#
# Velocity S-wave (km/s) = 3.79810 4.01248 3.90676
# Velocity P-wave (km/s) = 5.70048 6.04352 5.87450
#
# Compressibility (1/GPa) = 0.03712531
#
# Stress axis : x y z
#
# Youngs Moduli (GPa) = 64.47578 88.85265 46.30274
#
# Poissons Ratio (x) = 0.06135 0.06304
# Poissons Ratio (y) = 0.04452 0.16511
# Poissons Ratio (z) = 0.08779 0.31684
#
# Static dielectric constant tensor:
#      x y z
#    x 1.724880 0.000000 -0.012530 
#    y 0.000000 1.800270 0.000000 
#    z -0.012530 0.000000 1.794230 
# 
# From -- ./inp_files/16677.got.cif
#   From: 2010.05.17/outbox.cif.g08.bks.cpg/sg13_9_cif.got.tgz:16677.got - 2010.06.03 16:44:36.
