data_PCOD9230885
_publ_section_title
;
Structure prediction by ZEFSAII (Michael W. Deem and Ramdas Pophale) SiO2 
 PCOD9230885
Probable space group: P 2/C
;
_chemical_formula_sum "Si O2"
_cell_formula_units_Z 28
_cell_length_a 11.370593
_cell_length_b 8.852636
_cell_length_c 16.989319
_cell_angle_alpha 90.000000
_cell_angle_beta 51.270974
_cell_angle_gamma 90.000000
_cell_volume 1334.103488
_symmetry_space_group_name_H-M "P 2/C"
_symmetry_group_IT_number 13
_symmetry_cell_setting 'monoclinic'
loop_
_space_group_symop_operation_xyz
x,y,z
-x,y,1/2-z
-x,-y,-z
x,-y,1/2+z
loop_
_atom_site_type_symbol
_atom_site_label
_atom_site_fract_x
_atom_site_fract_y
_atom_site_fract_z
Si Si1 0.767219 0.178123 0.631447
Si Si2 0.194569 0.020296 0.622463
Si Si3 0.006721 0.374348 0.061456
Si Si4 0.842635 0.397544 0.351586
Si Si5 0.604742 0.815628 0.042222
Si Si6 0.269425 0.695493 0.179454
Si Si7 0.120960 0.904014 0.818974
O O1 0.898024 0.243661 0.521649
O O2 0.630983 0.188142 0.625726
O O3 0.758911 0.273150 0.716071
O O4 0.807870 0.011401 0.644695
O O5 0.178772 0.191797 0.659019
O O6 0.342114 0.981164 0.509366
O O7 0.207696 0.932580 0.700766
O O8 0.047513 0.964560 0.635209
O O9 0.086768 0.464269 0.098443
O O10 0.876534 0.269249 0.153105
O O11 0.000000 0.500000 0.000000
O O12 0.720848 0.286359 0.442011
O O13 0.768949 0.525046 0.328724
O O14 0.000000 0.329808 0.250000
O O15 0.440632 0.751064 0.094666
#
# Coordination Sequence:
#
# PCOD9230885 Si02
#       7
#     4   4   4   4   4   4   4
#     4  10  22  37  60  85 121 159 200 249 311 361
#     4  10  21  36  63  85 120 156 207 244 310 355
#     4  11  22  34  57  90 123 151 198 255 316 349
#     4  11  23  39  61  86 121 159 208 253 297 364
#     4  11  22  41  60  87 125 162 195 254 316 366
#     4  11  24  38  60  90 122 162 207 247 303 380
#     4  10  20  38  59  90 118 155 198 264 302 356
#
# _framework density 20.987877000000001
#
# number of rings (size 3 to 8) (size 9 to 14) (size 15 to 20)
#    0.000    1.429    2.857    3.429    6.000    0.000 
#    0.000    0.000    0.000    0.000    0.000    6.000 
#    0.000    0.000    0.000    0.000    0.000    0.000 
#
# Total GULP energy -155882.665586 kJ/mol
# GULP energy per Si atom -5567.238057 kJ/mol
# Density = 2.094011 g / cm^3
# Si number density = 20.987877 Si / 1000 Ang^3
#
#
#
# Elastic Constant Matrix: (Units=GPa)
#
#
# Indices 1 2 3 4 5 6 
#
# 1 76.1505 38.2617 21.7577 0.0000 12.6251 0.0000
# 2 38.2617 91.8217 26.8080 0.0000 22.8289 0.0000
# 3 21.7577 26.8080 95.1572 0.0000 11.7009 0.0000
# 4 0.0000 0.0000 0.0000 38.5994 0.0000 15.0848
# 5 12.6251 22.8289 11.7009 0.0000 32.8446 0.0000
# 6 0.0000 0.0000 0.0000 15.0848 0.0000 26.1968
#
#
#
# Elastic Compliance Matrix: (Units=1/GPa)
#
#
# Indices 1 2 3 4 5 6 
#
# 1 0.017038 -0.006129 -0.001974 0.000000 -0.001586 0.000000
# 2 -0.006129 0.016070 -0.002136 0.000000 -0.008053 0.000000
# 3 -0.001974 -0.002136 0.011803 0.000000 -0.001962 0.000000
# 4 0.000000 0.000000 0.000000 0.033430 0.000000 -0.019250
# 5 -0.001586 -0.008053 -0.001962 0.000000 0.037352 0.000000
# 6 0.000000 0.000000 0.000000 -0.019250 0.000000 0.049257
#
#
# Mechanical properties :
#
#
# Convention : Reuss Voigt Hill
#
# Bulk Modulus (GPa) = 40.92657 48.53158 44.72907
# Shear Modulus (GPa) = 25.82989 31.28162 28.55575
#
# Velocity S-wave (km/s) = 3.51195 3.86484 3.69261
# Velocity P-wave (km/s) = 5.99895 6.56428 6.28797
#
# Compressibility (1/GPa) = 0.02443400
#
# Stress axis : x y z
#
# Youngs Moduli (GPa) = 58.69066 62.22634 84.72284
#
# Poissons Ratio (x) = 0.38140 0.16725
# Poissons Ratio (y) = 0.35973 0.18094
# Poissons Ratio (z) = 0.11586 0.13290
#
# Static dielectric constant tensor:
#      x y z
#    x 1.800430 0.000000 -0.003030 
#    y 0.000000 2.028410 0.000000 
#    z -0.003030 0.000000 1.815460 
# 
# From -- ./inp_files/50225.got.cif
#   From: 2010.05.17/outbox.cif.g08.bks.cpg/sg13_26_cif.got.tgz:50225.got - 2010.06.03 16:44:36.
