data_PCOD9230385
_publ_section_title
;
Structure prediction by ZEFSAII (Michael W. Deem and Ramdas Pophale) SiO2 
 PCOD9230385
Probable space group: P 2/C
;
_chemical_formula_sum "Si O2"
_cell_formula_units_Z 30
_cell_length_a 7.649098
_cell_length_b 13.575385
_cell_length_c 20.637651
_cell_angle_alpha 90.000000
_cell_angle_beta 39.044436
_cell_angle_gamma 90.000000
_cell_volume 1349.926290
_symmetry_space_group_name_H-M "P 2/C"
_symmetry_group_IT_number 13
_symmetry_cell_setting 'monoclinic'
loop_
_space_group_symop_operation_xyz
x,y,z
-x,y,1/2-z
-x,-y,-z
x,-y,1/2+z
loop_
_atom_site_type_symbol
_atom_site_label
_atom_site_fract_x
_atom_site_fract_y
_atom_site_fract_z
Si Si1 0.805444 0.778411 0.694745
Si Si2 0.545567 0.533627 0.412591
Si Si3 0.823149 0.004445 0.173820
Si Si4 0.198939 0.804750 0.367282
Si Si5 0.547822 0.676106 0.883337
Si Si6 0.000000 0.105236 0.750000
Si Si7 0.749382 0.729789 0.403083
Si Si8 0.048846 0.660709 0.516495
O O1 0.500000 0.777252 0.750000
O O2 0.732251 0.750716 0.789063
O O3 0.977388 0.694066 0.609540
O O4 0.938389 0.884912 0.641980
O O5 0.500000 0.500000 0.500000
O O6 0.667303 0.434539 0.347190
O O7 0.722876 0.632552 0.367660
O O8 0.257901 0.568892 0.461212
O O9 0.500000 0.016824 0.250000
O O10 0.929528 0.915604 0.096604
O O11 0.863618 0.960010 0.233581
O O12 0.500000 0.813839 0.250000
O O13 0.199128 0.749945 0.435197
O O14 0.027374 0.738488 0.365945
O O15 0.245594 0.657534 0.936213
O O16 0.481762 0.719932 0.973571
O O17 0.773255 0.175504 0.850139
#
# Coordination Sequence:
#
# PCOD9230385 Si02
#       8
#     4   4   4   4   4   2   4   4
#     4   9  19  39  63  85 116 158 194 248 296 358
#     4  10  21  38  55  85 118 157 195 251 299 352
#     4   9  19  36  61  89 121 156 201 245 303 362
#     4   9  19  36  59  88 117 152 199 251 296 355
#     4   9  19  41  59  83 120 155 207 244 295 358
#     4  10  20  38  58  88 124 154 202 250 306 352
#     4   9  20  36  59  82 120 152 193 255 297 351
#     4  10  20  36  62  84 119 157 204 245 296 359
#
# _framework density 22.223434999999998
#
# number of rings (size 3 to 8) (size 9 to 14) (size 15 to 20)
#    0.000    2.667    0.000    0.400    5.600    0.533 
#    9.600    6.667    0.000    0.000    0.000    0.000 
#    0.000    0.000    0.000    0.000    0.000    0.000 
#
# Total GULP energy -167200.667686 kJ/mol
# GULP energy per Si atom -5573.355590 kJ/mol
# Density = 2.217285 g / cm^3
# Si number density = 22.223435 Si / 1000 Ang^3
#
#
#
# Elastic Constant Matrix: (Units=GPa)
#
#
# Indices 1 2 3 4 5 6 
#
# 1 75.4281 4.7487 2.7379 0.0000 -11.6716 0.0000
# 2 4.7487 91.9811 19.4349 0.0000 0.5269 0.0000
# 3 2.7379 19.4349 62.7813 0.0000 14.1479 0.0000
# 4 0.0000 0.0000 0.0000 11.1849 0.0000 15.7526
# 5 -11.6716 0.5269 14.1479 0.0000 25.1484 0.0000
# 6 0.0000 0.0000 0.0000 15.7526 0.0000 -2.8187
#
#
#
# Elastic Compliance Matrix: (Units=1/GPa)
#
#
# Indices 1 2 3 4 5 6 
#
# 1 0.014621 -0.000299 -0.002377 0.000000 0.008129 0.000000
# 2 -0.000299 0.011731 -0.004045 0.000000 0.001891 0.000000
# 3 -0.002377 -0.004045 0.020056 0.000000 -0.012302 0.000000
# 4 0.000000 0.000000 0.000000 0.010079 0.000000 0.056325
# 5 0.008129 0.001891 -0.012302 0.000000 0.050418 0.000000
# 6 0.000000 0.000000 0.000000 0.056325 0.000000 -0.039993
#
#
# Mechanical properties :
#
#
# Convention : Reuss Voigt Hill
#
# Bulk Modulus (GPa) = 30.33370 31.55929 30.94650
# Shear Modulus (GPa) = 54.73986 20.25419 37.49703
#
# Velocity S-wave (km/s) = 4.96841 3.02220 4.11210
# Velocity P-wave (km/s) = 6.82587 5.13906 6.04162
#
# Compressibility (1/GPa) = 0.03296663
#
# Stress axis : x y z
#
# Youngs Moduli (GPa) = 68.39657 85.24431 49.85990
#
# Poissons Ratio (x) = 0.02550 0.11851
# Poissons Ratio (y) = 0.02046 0.20166
# Poissons Ratio (z) = 0.16257 0.34477
#
# Static dielectric constant tensor:
#      x y z
#    x 1.078760 0.000000 0.215750 
#    y 0.000000 1.850970 0.000000 
#    z 0.215750 0.000000 1.750860 
# 
# From -- ./inp_files/85206.got.cif
#   From: 2010.05.17/outbox.cif.g08.bks.cpg/sg13_43_cif.got.tgz:85206.got - 2010.06.03 16:44:36.
