data_PCOD9230647
_publ_section_title
;
Structure prediction by ZEFSAII (Michael W. Deem and Ramdas Pophale) SiO2 
 PCOD9230647
Probable space group: P 2/C
;
_chemical_formula_sum "Si O2"
_cell_formula_units_Z 20
_cell_length_a 6.822962
_cell_length_b 6.761288
_cell_length_c 19.954552
_cell_angle_alpha 90.000000
_cell_angle_beta 91.316686
_cell_angle_gamma 90.000000
_cell_volume 920.300554
_symmetry_space_group_name_H-M "P 2/C"
_symmetry_group_IT_number 13
_symmetry_cell_setting 'monoclinic'
loop_
_space_group_symop_operation_xyz
x,y,z
-x,y,1/2-z
-x,-y,-z
x,-y,1/2+z
loop_
_atom_site_type_symbol
_atom_site_label
_atom_site_fract_x
_atom_site_fract_y
_atom_site_fract_z
Si Si1 0.446858 0.913962 0.892491
Si Si2 0.458043 0.686278 0.325843
Si Si3 0.226278 0.996873 0.520542
Si Si4 0.252516 0.456425 0.560762
Si Si5 0.807042 0.470385 0.091526
O O1 0.295721 0.733235 0.884550
O O2 0.477932 0.076982 0.835927
O O3 0.663118 0.859345 0.923853
O O4 0.346278 0.031148 0.953354
O O5 0.500000 0.633708 0.250000
O O6 0.595953 0.553819 0.376167
O O7 0.244388 0.628643 0.352081
O O8 0.246755 0.219364 0.547313
O O9 0.000000 0.000000 0.500000
O O10 0.281635 0.525509 0.483075
O O11 0.039039 0.535807 0.580932
#
# Coordination Sequence:
#
# PCOD9230647 Si02
#       5
#     4   4   4   4   4
#     4   9  20  34  53  82 109 144 190 227 279 351
#     4  11  23  38  57  82 120 158 192 241 300 363
#     4   9  16  31  55  83 113 140 177 235 290 337
#     4   9  20  36  59  89 113 147 198 248 299 353
#     4  10  20  37  61  85 115 150 196 250 294 349
#
# _framework density 21.732029000000001
#
# number of rings (size 3 to 8) (size 9 to 14) (size 15 to 20)
#    0.000    2.400    0.000    3.000    0.000    6.400 
#    0.000    0.000    0.000   12.000    0.000    0.000 
#    0.000    0.000    0.000    0.000    0.000    0.000 
#
# Total GULP energy -111384.092614 kJ/mol
# GULP energy per Si atom -5569.204631 kJ/mol
# Density = 2.168257 g / cm^3
# Si number density = 21.732029 Si / 1000 Ang^3
#
#
#
# Elastic Constant Matrix: (Units=GPa)
#
#
# Indices 1 2 3 4 5 6 
#
# 1 119.7082 18.9207 36.5524 0.0000 -9.7447 0.0000
# 2 18.9207 69.8354 23.7896 0.0000 -0.2949 0.0000
# 3 36.5524 23.7896 120.6786 0.0000 -18.8312 0.0000
# 4 0.0000 0.0000 0.0000 27.3389 0.0000 -8.8098
# 5 -9.7447 -0.2949 -18.8312 0.0000 17.1143 0.0000
# 6 0.0000 0.0000 0.0000 -8.8098 0.0000 35.9290
#
#
#
# Elastic Compliance Matrix: (Units=1/GPa)
#
#
# Indices 1 2 3 4 5 6 
#
# 1 0.009525 -0.001879 -0.002020 0.000000 0.003168 0.000000
# 2 -0.001879 0.015918 -0.003251 0.000000 -0.004373 0.000000
# 3 -0.002020 -0.003251 0.011289 0.000000 0.011216 0.000000
# 4 0.000000 0.000000 0.000000 0.039716 0.000000 0.009738
# 5 0.003168 -0.004373 0.011216 0.000000 0.072500 0.000000
# 6 0.000000 0.000000 0.000000 0.009738 0.000000 0.030221
#
#
# Mechanical properties :
#
#
# Convention : Reuss Voigt Hill
#
# Bulk Modulus (GPa) = 44.58041 52.08308 48.33174
# Shear Modulus (GPa) = 24.88216 31.47374 28.17795
#
# Velocity S-wave (km/s) = 3.38739 3.80974 3.60475
# Velocity P-wave (km/s) = 5.98811 6.58561 6.29395
#
# Compressibility (1/GPa) = 0.02243138
#
# Stress axis : x y z
#
# Youngs Moduli (GPa) = 104.98164 62.82393 88.57844
#
# Poissons Ratio (x) = 0.11806 0.17896
# Poissons Ratio (y) = 0.19728 0.28797
# Poissons Ratio (z) = 0.21210 0.20424
#
# Static dielectric constant tensor:
#      x y z
#    x 1.909070 0.000000 0.065570 
#    y 0.000000 1.967120 0.000000 
#    z 0.065570 0.000000 1.782020 
# 
# From -- ./inp_files/60653.got.cif
#   From: 2010.05.17/outbox.cif.g08.bks.cpg/sg13_31_cif.got.tgz:60653.got - 2010.06.03 16:44:36.
