data_PCOD9230747
_publ_section_title
;
Structure prediction by ZEFSAII (Michael W. Deem and Ramdas Pophale) SiO2 
 PCOD9230747
Probable space group: P 2/C
;
_chemical_formula_sum "Si O2"
_cell_formula_units_Z 16
_cell_length_a 4.819711
_cell_length_b 8.449206
_cell_length_c 14.825036
_cell_angle_alpha 90.000000
_cell_angle_beta 87.977976
_cell_angle_gamma 90.000000
_cell_volume 603.340044
_symmetry_space_group_name_H-M "P 2/C"
_symmetry_group_IT_number 13
_symmetry_cell_setting 'monoclinic'
loop_
_space_group_symop_operation_xyz
x,y,z
-x,y,1/2-z
-x,-y,-z
x,-y,1/2+z
loop_
_atom_site_type_symbol
_atom_site_label
_atom_site_fract_x
_atom_site_fract_y
_atom_site_fract_z
Si Si1 0.842510 0.969830 0.657818
Si Si2 0.328687 0.211002 0.094668
Si Si3 0.471579 0.713562 0.386891
Si Si4 0.983237 0.482873 0.890904
O O1 0.101367 0.930008 0.588435
O O2 0.000000 0.961098 0.750000
O O3 0.599807 0.842913 0.644406
O O4 0.671443 0.132361 0.652113
O O5 0.158215 0.356332 0.138956
O O6 0.432825 0.262382 0.994737
O O7 0.787694 0.665906 0.368384
O O8 0.289671 0.562986 0.358186
O O9 0.000000 0.500000 0.000000
#
# Coordination Sequence:
#
# PCOD9230747 Si02
#       4
#     4   4   4   4
#     4  12  25  40  57  87 125 160 197 241 290 351
#     4  11  21  40  64  88 116 155 199 245 295 349
#     4  11  21  39  65  90 117 153 198 246 296 350
#     4  10  20  37  63  93 117 144 196 254 295 344
#
# _framework density 26.519044000000001
#
# number of rings (size 3 to 8) (size 9 to 14) (size 15 to 20)
#    0.000    1.000    0.000   11.250    0.000    0.000 
#    0.000    7.500    0.000    0.000    0.000    0.000 
#    0.000    0.000    0.000    0.000    0.000    0.000 
#
# Total GULP energy -89668.408066 kJ/mol
# GULP energy per Si atom -5604.275504 kJ/mol
# Density = 2.645869 g / cm^3
# Si number density = 26.519044 Si / 1000 Ang^3
#
#
#
# Elastic Constant Matrix: (Units=GPa)
#
#
# Indices 1 2 3 4 5 6 
#
# 1 132.6940 26.2796 36.6859 0.0000 50.9268 0.0000
# 2 26.2796 110.7751 55.9842 0.0000 46.8470 0.0000
# 3 36.6859 55.9842 99.2395 0.0000 37.2795 0.0000
# 4 0.0000 0.0000 0.0000 -20.7706 0.0000 35.1394
# 5 50.9268 46.8470 37.2795 0.0000 50.3312 0.0000
# 6 0.0000 0.0000 0.0000 35.1394 0.0000 55.9753
#
#
#
# Elastic Compliance Matrix: (Units=1/GPa)
#
#
# Indices 1 2 3 4 5 6 
#
# 1 0.013508 0.004621 -0.001178 0.000000 -0.017096 0.000000
# 2 0.004621 0.018016 -0.005287 0.000000 -0.017528 0.000000
# 3 -0.001178 -0.005287 0.015515 0.000000 -0.005379 0.000000
# 4 0.000000 0.000000 0.000000 -0.023348 0.000000 0.014657
# 5 -0.017096 -0.017528 -0.005379 0.000000 0.057466 0.000000
# 6 0.000000 0.000000 0.000000 0.014657 0.000000 0.008664
#
#
# Mechanical properties :
#
#
# Convention : Reuss Voigt Hill
#
# Bulk Modulus (GPa) = 23.06755 64.51201 43.78978
# Shear Modulus (GPa) = 46.31372 32.02444 39.16908
#
# Velocity S-wave (km/s) = 4.18357 3.47883 3.84737
# Velocity P-wave (km/s) = 5.66160 6.36520 6.02368
#
# Compressibility (1/GPa) = 0.04335095
#
# Stress axis : x y z
#
# Youngs Moduli (GPa) = 74.02942 55.50699 64.45262
#
# Poissons Ratio (x) = -0.25649 0.07593
# Poissons Ratio (y) = -0.34208 0.34076
# Poissons Ratio (z) = 0.08721 0.29346
#
# Static dielectric constant tensor:
#      x y z
#    x 1.995860 0.000000 -0.079480 
#    y 0.000000 2.142840 0.000000 
#    z -0.079480 0.000000 2.084400 
# 
# From -- ./inp_files/43218.got.cif
#   From: 2010.05.17/outbox.cif.g08.bks.cpg/sg13_22_cif.got.tgz:43218.got - 2010.06.03 16:44:36.
