data_PCOD9230324
_publ_section_title
;
Structure prediction by ZEFSAII (Michael W. Deem and Ramdas Pophale) SiO2 
 PCOD9230324
Probable space group: P 2/C
;
_chemical_formula_sum "Si O2"
_cell_formula_units_Z 18
_cell_length_a 7.361743
_cell_length_b 8.291062
_cell_length_c 17.977997
_cell_angle_alpha 90.000000
_cell_angle_beta 47.647624
_cell_angle_gamma 90.000000
_cell_volume 810.934361
_symmetry_space_group_name_H-M "P 2/C"
_symmetry_group_IT_number 13
_symmetry_cell_setting 'monoclinic'
loop_
_space_group_symop_operation_xyz
x,y,z
-x,y,1/2-z
-x,-y,-z
x,-y,1/2+z
loop_
_atom_site_type_symbol
_atom_site_label
_atom_site_fract_x
_atom_site_fract_y
_atom_site_fract_z
Si Si1 0.473002 0.311590 0.420427
Si Si2 0.011609 0.809291 0.493016
Si Si3 0.760014 0.634469 0.212902
Si Si4 0.000000 0.374115 0.250000
Si Si5 0.497792 0.300242 0.925295
O O1 0.407676 0.248174 0.520646
O O2 0.484117 0.505439 0.423427
O O3 0.754599 0.270027 0.326183
O O4 0.262205 0.259825 0.422296
O O5 0.111450 0.733608 0.387902
O O6 0.219650 0.756797 0.493145
O O7 0.000000 0.000000 0.500000
O O8 0.500000 0.571057 0.250000
O O9 0.670651 0.742676 0.307851
O O10 0.935558 0.495563 0.198645
#
# Coordination Sequence:
#
# PCOD9230324 Si02
#       5
#     4   4   4   2   4
#     4  10  20  36  60  89 116 149 198 248 293 342
#     4  11  22  36  57  88 124 159 193 234 293 360
#     4   9  18  34  57  84 114 151 192 238 295 347
#     4  10  20  36  60  90 116 148 200 256 294 332
#     4   9  19  37  62  85 112 151 200 248 293 345
#
# _framework density 22.196615999999999
#
# number of rings (size 3 to 8) (size 9 to 14) (size 15 to 20)
#    0.000    2.222    0.000    4.667    0.000    4.444 
#    0.000    6.667    0.000    1.333    0.000    0.000 
#    0.000    0.000    0.000    0.000    0.000    0.000 
#
# Total GULP energy -100459.546201 kJ/mol
# GULP energy per Si atom -5581.085900 kJ/mol
# Density = 2.214610 g / cm^3
# Si number density = 22.196616 Si / 1000 Ang^3
#
#
#
# Elastic Constant Matrix: (Units=GPa)
#
#
# Indices 1 2 3 4 5 6 
#
# 1 99.9127 1.8537 15.5294 0.0000 -31.0615 0.0000
# 2 1.8537 14.3193 12.1552 0.0000 -8.7088 0.0000
# 3 15.5294 12.1552 58.1019 0.0000 -18.5666 0.0000
# 4 0.0000 0.0000 0.0000 5.8204 0.0000 2.9180
# 5 -31.0615 -8.7088 -18.5666 0.0000 53.2456 0.0000
# 6 0.0000 0.0000 0.0000 2.9180 0.0000 -17.8791
#
#
#
# Elastic Compliance Matrix: (Units=1/GPa)
#
#
# Indices 1 2 3 4 5 6 
#
# 1 0.012515 0.004499 -0.001933 0.000000 0.007362 0.000000
# 2 0.004499 0.090235 -0.016347 0.000000 0.011683 0.000000
# 3 -0.001933 -0.016347 0.022432 0.000000 0.004021 0.000000
# 4 0.000000 0.000000 0.000000 0.158815 0.000000 0.025920
# 5 0.007362 0.011683 0.004021 0.000000 0.026389 0.000000
# 6 0.000000 0.000000 0.000000 0.025920 0.000000 -0.051701
#
#
# Mechanical properties :
#
#
# Convention : Reuss Voigt Hill
#
# Bulk Modulus (GPa) = 10.24389 25.71227 17.97808
# Shear Modulus (GPa) = 15.68447 17.75710 16.72078
#
# Velocity S-wave (km/s) = 2.66111 2.83148 2.74761
# Velocity P-wave (km/s) = 3.75061 4.72215 4.26414
#
# Compressibility (1/GPa) = 0.09761921
#
# Stress axis : x y z
#
# Youngs Moduli (GPa) = 79.90678 11.08220 44.57822
#
# Poissons Ratio (x) = -0.04986 0.08619
# Poissons Ratio (y) = -0.35947 0.72870
# Poissons Ratio (z) = 0.15449 0.18116
#
# Static dielectric constant tensor:
#      x y z
#    x 1.853270 0.000000 -0.006190 
#    y 0.000000 1.770610 0.000000 
#    z -0.006190 0.000000 1.941380 
# 
# From -- ./inp_files/74871.got.cif
#   From: 2010.05.17/outbox.cif.g08.bks.cpg/sg13_38_cif.got.tgz:74871.got - 2010.06.03 16:44:36.
