data_PCOD9230364
_publ_section_title
;
Structure prediction by ZEFSAII (Michael W. Deem and Ramdas Pophale) SiO2 
 PCOD9230364
Probable space group: P 2/C
;
_chemical_formula_sum "Si O2"
_cell_formula_units_Z 28
_cell_length_a 29.991407
_cell_length_b 7.107565
_cell_length_c 12.801443
_cell_angle_alpha 90.000000
_cell_angle_beta 26.298059
_cell_angle_gamma 90.000000
_cell_volume 1208.983434
_symmetry_space_group_name_H-M "P 2/C"
_symmetry_group_IT_number 13
_symmetry_cell_setting 'monoclinic'
loop_
_space_group_symop_operation_xyz
x,y,z
-x,y,1/2-z
-x,-y,-z
x,-y,1/2+z
loop_
_atom_site_type_symbol
_atom_site_label
_atom_site_fract_x
_atom_site_fract_y
_atom_site_fract_z
Si Si1 0.809488 0.173570 0.650631
Si Si2 0.000000 0.078271 0.750000
Si Si3 0.343465 0.500451 0.722024
Si Si4 0.375296 0.211724 0.319950
Si Si5 0.135650 0.637915 0.657780
Si Si6 0.060189 0.769791 0.342194
Si Si7 0.500000 0.281303 0.250000
Si Si8 0.269058 0.093557 0.362707
O O1 0.852075 0.344715 0.492520
O O2 0.745210 0.043173 0.704478
O O3 0.733193 0.238687 0.898036
O O4 0.905351 0.050750 0.481360
O O5 0.968108 0.201611 0.718988
O O6 0.396284 0.595424 0.712140
O O7 0.415476 0.406806 0.485774
O O8 0.292893 0.690460 0.778968
O O9 0.253166 0.359017 0.945743
O O10 0.450399 0.171516 0.256736
O O11 0.354171 0.059917 0.272360
O O12 0.098942 0.440591 0.778881
O O13 0.045087 0.781914 0.875219
O O14 0.159473 0.896075 0.147318
#
# Coordination Sequence:
#
# PCOD9230364 Si02
#       8
#     4   2   4   4   4   4   2   4
#     4  11  22  38  62  94 129 172 207 255 314 383
#     4  10  24  34  60  92 132 178 210 246 312 380
#     4   9  21  41  64  94 121 163 211 272 318 374
#     4  10  23  40  67  89 124 161 213 269 320 384
#     4  10  20  36  61  88 125 163 208 258 309 369
#     4   9  20  38  55  88 130 162 207 256 297 384
#     4  12  20  44  70  94 120 162 220 276 326 386
#     4   8  21  41  57  90 131 161 206 253 317 382
#
# _framework density 23.159952000000001
#
# number of rings (size 3 to 8) (size 9 to 14) (size 15 to 20)
#    0.857    1.429    1.429    0.429    4.000    2.857 
#    2.571    1.429    0.000    0.000    0.000    0.000 
#    0.000    0.000    0.000    0.000    0.000    0.000 
#
# Total GULP energy -155904.571086 kJ/mol
# GULP energy per Si atom -5568.020396 kJ/mol
# Density = 2.310724 g / cm^3
# Si number density = 23.159952 Si / 1000 Ang^3
#
#
#
# Elastic Constant Matrix: (Units=GPa)
#
#
# Indices 1 2 3 4 5 6 
#
# 1 145.7539 11.1895 12.9118 0.0000 -15.1198 0.0000
# 2 11.1895 29.1167 25.9649 0.0000 -11.5324 0.0000
# 3 12.9118 25.9649 132.6575 0.0000 -2.3896 0.0000
# 4 0.0000 0.0000 0.0000 31.7631 0.0000 -4.4604
# 5 -15.1198 -11.5324 -2.3896 0.0000 26.5206 0.0000
# 6 0.0000 0.0000 0.0000 -4.4604 0.0000 19.5633
#
#
#
# Elastic Compliance Matrix: (Units=1/GPa)
#
#
# Indices 1 2 3 4 5 6 
#
# 1 0.007363 -0.000926 -0.000468 0.000000 0.003753 0.000000
# 2 -0.000926 0.051634 -0.009637 0.000000 0.021057 0.000000
# 3 -0.000468 -0.009637 0.009405 0.000000 -0.003610 0.000000
# 4 0.000000 0.000000 0.000000 0.032524 0.000000 0.007416
# 5 0.003753 0.021057 -0.003610 0.000000 0.048677 0.000000
# 6 0.000000 0.000000 0.000000 0.007416 0.000000 0.052807
#
#
# Mechanical properties :
#
#
# Convention : Reuss Voigt Hill
#
# Bulk Modulus (GPa) = 21.57938 45.29561 33.43750
# Shear Modulus (GPa) = 20.84044 32.73352 26.78698
#
# Velocity S-wave (km/s) = 3.00300 3.76356 3.40458
# Velocity P-wave (km/s) = 4.62188 6.20371 5.47027
#
# Compressibility (1/GPa) = 0.04634054
#
# Stress axis : x y z
#
# Youngs Moduli (GPa) = 135.81968 19.36707 106.32729
#
# Poissons Ratio (x) = 0.01793 0.04974
# Poissons Ratio (y) = 0.12576 1.02466
# Poissons Ratio (z) = 0.06354 0.18664
#
# Static dielectric constant tensor:
#      x y z
#    x 1.934880 0.000000 -0.041140 
#    y 0.000000 1.896990 0.000000 
#    z -0.041140 0.000000 1.890090 
# 
# From -- ./inp_files/42642.got.cif
#   From: 2010.05.17/outbox.cif.g08.bks.cpg/sg13_22_cif.got.tgz:42642.got - 2010.06.03 16:44:36.
