data_PCOD9230230
_publ_section_title
;
Structure prediction by ZEFSAII (Michael W. Deem and Ramdas Pophale) SiO2 
 PCOD9230230
Probable space group: P 2/C
;
_chemical_formula_sum "Si O2"
_cell_formula_units_Z 20
_cell_length_a 8.575698
_cell_length_b 24.349026
_cell_length_c 9.907585
_cell_angle_alpha 90.000000
_cell_angle_beta 148.776225
_cell_angle_gamma 90.000000
_cell_volume 1072.429392
_symmetry_space_group_name_H-M "P 2/C"
_symmetry_group_IT_number 13
_symmetry_cell_setting 'monoclinic'
loop_
_space_group_symop_operation_xyz
x,y,z
-x,y,1/2-z
-x,-y,-z
x,-y,1/2+z
loop_
_atom_site_type_symbol
_atom_site_label
_atom_site_fract_x
_atom_site_fract_y
_atom_site_fract_z
Si Si1 0.855354 0.833350 0.495687
Si Si2 0.683962 0.468662 0.248069
Si Si3 0.626245 0.659994 0.691012
Si Si4 0.246811 0.719759 0.179430
Si Si5 0.861681 0.956688 0.500699
O O1 0.500000 0.840106 0.250000
O O2 0.875118 0.782722 0.406506
O O3 0.958527 0.894275 0.531428
O O4 0.000000 0.819258 0.750000
O O5 0.500000 0.471861 0.250000
O O6 0.680280 0.404571 0.204452
O O7 0.000000 0.500000 0.500000
O O8 0.500000 0.500000 0.000000
O O9 0.500000 0.665257 0.750000
O O10 0.398897 0.691657 0.422317
O O11 0.953805 0.686217 0.922159
O O12 0.500000 0.718723 0.250000
O O13 0.500000 0.960834 0.250000
O O14 0.000000 0.000000 0.500000
O O15 0.000000 0.966204 0.750000
#
# Coordination Sequence:
#
# PCOD9230230 Si02
#       5
#     4   4   4   4   4
#     4   9  18  34  56  82 113 149 188 235 286 332
#     4  11  24  41  61  84 114 149 186 228 279 336
#     4  11  24  40  57  84 120 149 175 229 298 335
#     4  11  21  37  61  85 108 147 198 233 265 335
#     4  10  20  36  58  83 115 152 191 237 288 340
#
# _framework density 18.649246000000002
#
# number of rings (size 3 to 8) (size 9 to 14) (size 15 to 20)
#    0.000    1.600    0.000    6.000    0.000    8.000 
#    0.000    3.000    0.000    0.000    0.000    0.000 
#    0.000    0.000    0.000    0.000    0.000    0.000 
#
# Total GULP energy -111533.685359 kJ/mol
# GULP energy per Si atom -5576.684268 kJ/mol
# Density = 1.860680 g / cm^3
# Si number density = 18.649246 Si / 1000 Ang^3
#
#
#
# Elastic Constant Matrix: (Units=GPa)
#
#
# Indices 1 2 3 4 5 6 
#
# 1 43.8891 68.7630 23.0776 0.0000 3.7734 0.0000
# 2 68.7630 212.5230 83.0304 0.0000 -17.4577 0.0000
# 3 23.0776 83.0304 162.5923 0.0000 -1.6485 0.0000
# 4 0.0000 0.0000 0.0000 -26.1398 0.0000 22.9549
# 5 3.7734 -17.4577 -1.6485 0.0000 30.7319 0.0000
# 6 0.0000 0.0000 0.0000 22.9549 0.0000 21.1511
#
#
#
# Elastic Compliance Matrix: (Units=1/GPa)
#
#
# Indices 1 2 3 4 5 6 
#
# 1 0.054405 -0.019970 0.002294 0.000000 -0.017901 0.000000
# 2 -0.019970 0.013536 -0.003977 0.000000 0.009928 0.000000
# 3 0.002294 -0.003977 0.007834 0.000000 -0.002121 0.000000
# 4 0.000000 0.000000 0.000000 -0.019588 0.000000 0.021258
# 5 -0.017901 0.009928 -0.002121 0.000000 0.040263 0.000000
# 6 0.000000 0.000000 0.000000 0.021258 0.000000 0.024208
#
#
# Mechanical properties :
#
#
# Convention : Reuss Voigt Hill
#
# Bulk Modulus (GPa) = 30.79777 85.41628 58.10703
# Shear Modulus (GPa) = 28.60603 21.42422 25.01513
#
# Velocity S-wave (km/s) = 3.92075 3.39307 3.66642
# Velocity P-wave (km/s) = 6.08658 7.82633 7.01063
#
# Compressibility (1/GPa) = 0.03246988
#
# Stress axis : x y z
#
# Youngs Moduli (GPa) = 18.38059 73.87564 127.64383
#
# Poissons Ratio (x) = 1.47530 -0.29288
# Poissons Ratio (y) = 0.36706 0.50769
# Poissons Ratio (z) = -0.04217 0.29383
#
# Static dielectric constant tensor:
#      x y z
#    x 1.620500 0.000000 -0.004810 
#    y 0.000000 1.756120 0.000000 
#    z -0.004810 0.000000 1.623440 
# 
# From -- ./inp_files/13837.got.cif
#   From: 2010.05.17/outbox.cif.g08.bks.cpg/sg13_7_cif.got.tgz:13837.got - 2010.06.03 16:44:36.
