data_PCOD9230305
_publ_section_title
;
Structure prediction by ZEFSAII (Michael W. Deem and Ramdas Pophale) SiO2 
 PCOD9230305
Probable space group: P 2/C
;
_chemical_formula_sum "Si O2"
_cell_formula_units_Z 30
_cell_length_a 12.040864
_cell_length_b 9.338913
_cell_length_c 15.624912
_cell_angle_alpha 90.000000
_cell_angle_beta 120.511236
_cell_angle_gamma 90.000000
_cell_volume 1513.706830
_symmetry_space_group_name_H-M "P 2/C"
_symmetry_group_IT_number 13
_symmetry_cell_setting 'monoclinic'
loop_
_space_group_symop_operation_xyz
x,y,z
-x,y,1/2-z
-x,-y,-z
x,-y,1/2+z
loop_
_atom_site_type_symbol
_atom_site_label
_atom_site_fract_x
_atom_site_fract_y
_atom_site_fract_z
Si Si1 0.224826 0.499143 0.246641
Si Si2 0.318440 0.411439 0.092394
Si Si3 0.954301 0.475836 0.578661
Si Si4 0.622385 0.883016 0.556075
Si Si5 0.475049 0.349517 0.889043
Si Si6 0.500000 0.869444 0.250000
Si Si7 0.874326 0.736992 0.664608
Si Si8 0.434570 0.897377 0.607267
O O1 0.282780 0.460444 0.175554
O O2 0.336066 0.577291 0.344958
O O3 0.188741 0.357456 0.284682
O O4 0.085181 0.577438 0.178083
O O5 0.418897 0.529964 0.095095
O O6 0.383761 0.255750 0.114106
O O7 0.184821 0.400498 0.986023
O O8 0.918884 0.624769 0.610535
O O9 0.000000 0.500000 0.500000
O O10 0.537391 0.748685 0.487008
O O11 0.766766 0.841604 0.591486
O O12 0.587140 0.892037 0.642699
O O13 0.606834 0.032514 0.499399
O O14 0.450424 0.236936 0.802864
O O15 0.593789 0.979727 0.335058
O O16 0.000000 0.812546 0.750000
#
# Coordination Sequence:
#
# PCOD9230305 Si02
#       8
#     4   4   4   4   4   2   4   4
#     4  10  21  33  59  92 114 144 194 247 287 329
#     4  11  20  36  60  90 113 148 196 244 283 341
#     4   9  20  36  56  84 120 146 185 244 291 330
#     4  10  22  40  56  84 119 158 185 236 292 345
#     4  11  20  35  63  87 112 150 198 233 290 341
#     4  10  22  38  54  86 120 154 182 240 288 346
#     4  10  20  36  60  84 115 154 194 232 286 345
#     4  10  24  36  58  84 123 148 191 237 293 336
#
# _framework density 19.818898000000001
#
# number of rings (size 3 to 8) (size 9 to 14) (size 15 to 20)
#    0.000    1.867    2.667    0.800    5.600    1.067 
#    0.000    0.000    8.800    8.000    0.000    0.000 
#    0.000    0.000    0.000    0.000    0.000    0.000 
#
# Total GULP energy -167020.964841 kJ/mol
# GULP energy per Si atom -5567.365495 kJ/mol
# Density = 1.977379 g / cm^3
# Si number density = 19.818898 Si / 1000 Ang^3
#
#
#
# Elastic Constant Matrix: (Units=GPa)
#
#
# Indices 1 2 3 4 5 6 
#
# 1 82.4379 35.1712 31.8588 0.0000 17.4174 0.0000
# 2 35.1712 96.9905 17.8955 0.0000 12.6660 0.0000
# 3 31.8588 17.8955 47.8932 0.0000 10.5791 0.0000
# 4 0.0000 0.0000 0.0000 10.4140 0.0000 -1.0439
# 5 17.4174 12.6660 10.5791 0.0000 30.8181 0.0000
# 6 0.0000 0.0000 0.0000 -1.0439 0.0000 18.2317
#
#
#
# Elastic Compliance Matrix: (Units=1/GPa)
#
#
# Indices 1 2 3 4 5 6 
#
# 1 0.018919 -0.004337 -0.009735 0.000000 -0.005568 0.000000
# 2 -0.004337 0.012405 -0.001261 0.000000 -0.002214 0.000000
# 3 -0.009735 -0.001261 0.028671 0.000000 -0.003822 0.000000
# 4 0.000000 0.000000 0.000000 0.096579 0.000000 0.005530
# 5 -0.005568 -0.002214 -0.003822 0.000000 0.037818 0.000000
# 6 0.000000 0.000000 0.000000 0.005530 0.000000 0.055166
#
#
# Mechanical properties :
#
#
# Convention : Reuss Voigt Hill
#
# Bulk Modulus (GPa) = 34.09556 44.13029 39.11292
# Shear Modulus (GPa) = 17.24143 21.38584 19.31363
#
# Velocity S-wave (km/s) = 2.95269 3.28847 3.12509
# Velocity P-wave (km/s) = 5.37265 6.06085 5.72710
#
# Compressibility (1/GPa) = 0.02932933
#
# Stress axis : x y z
#
# Youngs Moduli (GPa) = 52.85609 80.61327 34.87895
#
# Poissons Ratio (x) = 0.34965 0.33953
# Poissons Ratio (y) = 0.22926 0.04398
# Poissons Ratio (z) = 0.51453 0.10164
#
# Static dielectric constant tensor:
#      x y z
#    x 1.763990 0.000000 0.037860 
#    y 0.000000 1.694910 0.000000 
#    z 0.037860 0.000000 1.812520 
# 
# From -- ./inp_files/66308.got.cif
#   From: 2010.05.17/outbox.cif.g08.bks.cpg/sg13_34_cif.got.tgz:66308.got - 2010.06.03 16:44:36.
