data_PCOD9230239
_publ_section_title
;
Structure prediction by ZEFSAII (Michael W. Deem and Ramdas Pophale) SiO2 
 PCOD9230239
Probable space group: P 2/C
;
_chemical_formula_sum "Si O2"
_cell_formula_units_Z 22
_cell_length_a 5.272231
_cell_length_b 19.773406
_cell_length_c 10.713319
_cell_angle_alpha 90.000000
_cell_angle_beta 71.747181
_cell_angle_gamma 90.000000
_cell_volume 1060.666720
_symmetry_space_group_name_H-M "P 2/C"
_symmetry_group_IT_number 13
_symmetry_cell_setting 'monoclinic'
loop_
_space_group_symop_operation_xyz
x,y,z
-x,y,1/2-z
-x,-y,-z
x,-y,1/2+z
loop_
_atom_site_type_symbol
_atom_site_label
_atom_site_fract_x
_atom_site_fract_y
_atom_site_fract_z
Si Si1 0.095193 0.940972 0.391611
Si Si2 0.500000 0.962798 0.750000
Si Si3 0.299473 0.249745 0.162072
Si Si4 0.858825 0.466415 0.900194
Si Si5 0.561422 0.395244 0.386291
Si Si6 0.545043 0.874232 0.492068
O O1 0.250141 0.987388 0.267560
O O2 0.332603 0.901853 0.425970
O O3 0.851103 0.889396 0.405115
O O4 0.000000 0.000000 0.500000
O O5 0.520219 0.916290 0.625443
O O6 0.500000 0.249407 0.250000
O O7 0.279665 0.326319 0.111981
O O8 0.445094 0.200533 0.042191
O O9 0.000000 0.227492 0.250000
O O10 0.699576 0.532420 0.878786
O O11 0.000000 0.443752 0.750000
O O12 0.689920 0.404702 0.983655
O O13 0.000000 0.500000 0.000000
O O14 0.500000 0.390873 0.250000
#
# Coordination Sequence:
#
# PCOD9230239 Si02
#       6
#     4   2   4   4   4   4
#     4  10  22  35  55  83 113 149 198 253 308 377
#     4  10  20  36  58  84 114 156 196 262 318 372
#     4  11  23  39  63  91 125 163 205 264 328 384
#     4  11  21  38  65  97 132 173 222 272 325 388
#     4  10  22  37  62  97 129 171 217 276 328 389
#     4  11  22  37  57  89 116 154 205 256 319 379
#
# _framework density 20.741669000000002
#
# number of rings (size 3 to 8) (size 9 to 14) (size 15 to 20)
#    0.000    1.455    2.727    3.818    5.091    3.636 
#    0.000    0.000    4.000    0.000    0.000    0.000 
#    0.000    0.000    0.000    0.000    0.000    0.000 
#
# Total GULP energy -122582.287554 kJ/mol
# GULP energy per Si atom -5571.922162 kJ/mol
# Density = 2.069446 g / cm^3
# Si number density = 20.741669 Si / 1000 Ang^3
#
#
#
# Elastic Constant Matrix: (Units=GPa)
#
#
# Indices 1 2 3 4 5 6 
#
# 1 105.4730 12.9403 12.4171 0.0000 -12.7650 0.0000
# 2 12.9403 89.1703 17.9393 0.0000 -12.3970 0.0000
# 3 12.4171 17.9393 105.1711 0.0000 -17.8919 0.0000
# 4 0.0000 0.0000 0.0000 8.0903 0.0000 -24.1525
# 5 -12.7650 -12.3970 -17.8919 0.0000 34.9518 0.0000
# 6 0.0000 0.0000 0.0000 -24.1525 0.0000 16.6707
#
#
#
# Elastic Compliance Matrix: (Units=1/GPa)
#
#
# Indices 1 2 3 4 5 6 
#
# 1 0.010026 -0.000926 -0.000502 0.000000 0.003076 0.000000
# 2 -0.000926 0.012080 -0.001402 0.000000 0.003229 0.000000
# 3 -0.000502 -0.001402 0.010615 0.000000 0.004753 0.000000
# 4 0.000000 0.000000 0.000000 -0.037172 0.000000 -0.053855
# 5 0.003076 0.003229 0.004753 0.000000 0.033313 0.000000
# 6 0.000000 0.000000 0.000000 -0.053855 0.000000 -0.018040
#
#
# Mechanical properties :
#
#
# Convention : Reuss Voigt Hill
#
# Bulk Modulus (GPa) = 36.95459 42.93418 39.94439
# Shear Modulus (GPa) = 196.05417 29.04374 112.54896
#
# Velocity S-wave (km/s) = 9.73278 3.74607 7.37428
# Velocity P-wave (km/s) = 12.00658 6.28133 9.58157
#
# Compressibility (1/GPa) = 0.02706024
#
# Stress axis : x y z
#
# Youngs Moduli (GPa) = 99.73899 82.78272 94.20276
#
# Poissons Ratio (x) = 0.07668 0.04733
# Poissons Ratio (y) = 0.09238 0.13206
# Poissons Ratio (z) = 0.05012 0.11605
#
# Static dielectric constant tensor:
#      x y z
#    x 1.843760 0.000000 -0.067540 
#    y 0.000000 1.768140 0.000000 
#    z -0.067540 0.000000 1.853670 
# 
# From -- ./inp_files/26478.got.cif
#   From: 2010.05.17/outbox.cif.g08.bks.cpg/sg13_14_cif.got.tgz:26478.got - 2010.06.03 16:44:36.
