data_PCOD9230023
_publ_section_title
;
Structure prediction by ZEFSAII (Michael W. Deem and Ramdas Pophale) SiO2 
 PCOD9230023
Probable space group: P 2/C
;
_chemical_formula_sum "Si O2"
_cell_formula_units_Z 32
_cell_length_a 14.890569
_cell_length_b 9.520751
_cell_length_c 25.103275
_cell_angle_alpha 90.000000
_cell_angle_beta 151.034463
_cell_angle_gamma 90.000000
_cell_volume 1723.504876
_symmetry_space_group_name_H-M "P 2/C"
_symmetry_group_IT_number 13
_symmetry_cell_setting 'monoclinic'
loop_
_space_group_symop_operation_xyz
x,y,z
-x,y,1/2-z
-x,-y,-z
x,-y,1/2+z
loop_
_atom_site_type_symbol
_atom_site_label
_atom_site_fract_x
_atom_site_fract_y
_atom_site_fract_z
Si Si1 0.296629 0.657133 0.355290
Si Si2 0.700214 0.445780 0.877512
Si Si3 0.954076 0.619677 0.413913
Si Si4 0.352036 0.660671 0.032989
Si Si5 0.018338 0.171954 0.855539
Si Si6 0.031894 0.853314 0.830096
Si Si7 0.630668 0.648449 0.988315
Si Si8 0.780829 0.392236 0.243872
O O1 0.440701 0.678218 0.381776
O O2 0.126345 0.762676 0.262023
O O3 0.400259 0.668041 0.464820
O O4 0.221672 0.499879 0.307353
O O5 0.500000 0.485386 0.750000
O O6 0.823084 0.365905 0.897057
O O7 0.664570 0.355021 0.912199
O O8 0.835323 0.576255 0.962099
O O9 0.953800 0.757250 0.377332
O O10 0.874024 0.485645 0.338738
O O11 0.286145 0.507472 0.977367
O O12 0.229376 0.783565 0.945384
O O13 0.017055 0.006406 0.848325
O O14 0.222084 0.236028 0.952131
O O15 0.000000 0.861616 0.750000
O O16 0.889458 0.745971 0.784021
O O17 0.433803 0.645504 0.856399
#
# Coordination Sequence:
#
# PCOD9230023 Si02
#       8
#     4   4   4   4   4   4   4   4
#     4  10  20  35  58  85 117 155 205 249 297 347
#     4  11  20  38  68  92 114 148 202 265 318 346
#     4  10  22  39  62  91 116 152 203 260 310 353
#     4  11  21  38  61  91 116 152 203 255 298 357
#     4  11  23  38  54  85 126 164 198 239 297 363
#     4  12  23  37  57  86 129 170 197 235 296 369
#     4  11  19  35  58  85 117 157 201 252 297 349
#     4  10  20  36  57  86 113 150 202 253 296 350
#
# _framework density 18.566817
#
# number of rings (size 3 to 8) (size 9 to 14) (size 15 to 20)
#    0.000    1.250    2.500    7.125    0.000    1.000 
#    0.000    3.125    0.000    0.750    0.000    0.000 
#    0.000    0.000    0.000    0.000    0.000    0.000 
#
# Total GULP energy -178656.271750 kJ/mol
# GULP energy per Si atom -5583.008492 kJ/mol
# Density = 1.852456 g / cm^3
# Si number density = 18.566817 Si / 1000 Ang^3
#
#
#
# Elastic Constant Matrix: (Units=GPa)
#
#
# Indices 1 2 3 4 5 6 
#
# 1 125.7860 43.0018 31.3531 0.0000 -4.6623 0.0000
# 2 43.0018 146.5888 49.2166 0.0000 12.7536 0.0000
# 3 31.3531 49.2166 118.8770 0.0000 6.7736 0.0000
# 4 0.0000 0.0000 0.0000 -3.3329 0.0000 -5.3753
# 5 -4.6623 12.7536 6.7736 0.0000 28.1030 0.0000
# 6 0.0000 0.0000 0.0000 -5.3753 0.0000 11.7315
#
#
#
# Elastic Compliance Matrix: (Units=1/GPa)
#
#
# Indices 1 2 3 4 5 6 
#
# 1 0.009303 -0.002453 -0.001612 0.000000 0.003045 0.000000
# 2 -0.002453 0.008801 -0.002784 0.000000 -0.003730 0.000000
# 3 -0.001612 -0.002784 0.010071 0.000000 -0.001431 0.000000
# 4 0.000000 0.000000 0.000000 -0.172538 0.000000 -0.079056
# 5 0.003045 -0.003730 -0.001431 0.000000 0.038126 0.000000
# 6 0.000000 0.000000 0.000000 -0.079056 0.000000 0.049017
#
#
# Mechanical properties :
#
#
# Convention : Reuss Voigt Hill
#
# Bulk Modulus (GPa) = 69.07115 70.93275 70.00195
# Shear Modulus (GPa) = -129.21031 25.14569 -52.03231
#
# Velocity S-wave (km/s) = -8.35124 3.68412 -5.29955
# Velocity P-wave (km/s) = 7.46383 7.50893 0.58107
#
# Compressibility (1/GPa) = 0.01447782
#
# Stress axis : x y z
#
# Youngs Moduli (GPa) = 107.49057 113.62846 99.29182
#
# Poissons Ratio (x) = 0.27872 0.16002
# Poissons Ratio (y) = 0.26366 0.27644
# Poissons Ratio (z) = 0.17323 0.31635
#
# Static dielectric constant tensor:
#      x y z
#    x 1.680720 0.000000 0.006530 
#    y 0.000000 1.601540 0.000000 
#    z 0.006530 0.000000 1.686430 
# 
# From -- ./inp_files/92848.got.cif
#   From: 2010.05.17/outbox.cif.g08.bks.cpg/sg13_47_cif.got.tgz:92848.got - 2010.06.03 16:44:36.
