data_PCOD9230635
_publ_section_title
;
Structure prediction by ZEFSAII (Michael W. Deem and Ramdas Pophale) SiO2 
 PCOD9230635
Probable space group: P 2/C
;
_chemical_formula_sum "Si O2"
_cell_formula_units_Z 28
_cell_length_a 17.945237
_cell_length_b 4.931627
_cell_length_c 13.754950
_cell_angle_alpha 90.000000
_cell_angle_beta 75.877720
_cell_angle_gamma 90.000000
_cell_volume 1180.512010
_symmetry_space_group_name_H-M "P 2/C"
_symmetry_group_IT_number 13
_symmetry_cell_setting 'monoclinic'
loop_
_space_group_symop_operation_xyz
x,y,z
-x,y,1/2-z
-x,-y,-z
x,-y,1/2+z
loop_
_atom_site_type_symbol
_atom_site_label
_atom_site_fract_x
_atom_site_fract_y
_atom_site_fract_z
Si Si1 0.269991 0.937310 0.050220
Si Si2 0.077242 0.892725 0.782248
Si Si3 0.860123 0.613876 0.325270
Si Si4 0.423701 0.348493 0.838003
Si Si5 0.253530 0.558397 0.419717
Si Si6 0.088091 0.406200 0.469316
Si Si7 0.433036 0.855368 0.964048
O O1 0.260558 0.747148 0.957529
O O2 0.357626 0.906180 0.051935
O O3 0.255924 0.237111 0.012179
O O4 0.217814 0.787179 0.145548
O O5 0.139329 0.693377 0.710977
O O6 0.082390 0.836753 0.894252
O O7 0.000000 0.805898 0.750000
O O8 0.085829 0.208311 0.760109
O O9 0.892417 0.645074 0.424250
O O10 0.500000 0.400654 0.750000
O O11 0.333647 0.396005 0.835816
O O12 0.435298 0.545823 0.928265
O O13 0.424801 0.035677 0.869385
O O14 0.165348 0.573538 0.410670
O O15 0.000000 0.500000 0.500000
O O16 0.500000 0.000000 0.000000
#
# Coordination Sequence:
#
# PCOD9230635 Si02
#       7
#     4   4   4   4   4   4   4
#     4   9  19  38  64  83 123 167 198 257 318 366
#     4  12  26  42  64  98 127 160 224 267 313 397
#     4  11  24  45  64  92 132 166 212 270 323 373
#     4  10  20  38  62  88 128 163 197 263 316 366
#     4   9  20  39  60  91 119 162 216 245 309 396
#     4  11  24  45  70  94 127 182 211 268 333 375
#     4  10  20  37  60  93 121 160 211 245 312 396
#
# _framework density 23.718520000000002
#
# number of rings (size 3 to 8) (size 9 to 14) (size 15 to 20)
#    0.000    1.714    1.429    3.000    0.000    4.000 
#    5.143    0.000    0.000    0.000    0.000    0.000 
#    0.000    0.000    0.000    0.000    0.000    0.000 
#
# Total GULP energy -156038.776960 kJ/mol
# GULP energy per Si atom -5572.813463 kJ/mol
# Density = 2.366454 g / cm^3
# Si number density = 23.718520 Si / 1000 Ang^3
#
#
#
# Elastic Constant Matrix: (Units=GPa)
#
#
# Indices 1 2 3 4 5 6 
#
# 1 164.7615 15.2494 26.1820 0.0000 -43.2122 0.0000
# 2 15.2494 90.1716 1.6504 0.0000 -0.1469 0.0000
# 3 26.1820 1.6504 42.3427 0.0000 -4.8629 0.0000
# 4 0.0000 0.0000 0.0000 14.8690 0.0000 3.8534
# 5 -43.2122 -0.1469 -4.8629 0.0000 42.6920 0.0000
# 6 0.0000 0.0000 0.0000 3.8534 0.0000 22.9194
#
#
#
# Elastic Compliance Matrix: (Units=1/GPa)
#
#
# Indices 1 2 3 4 5 6 
#
# 1 0.009264 -0.001467 -0.004656 0.000000 0.008841 0.000000
# 2 -0.001467 0.011330 0.000303 0.000000 -0.001411 0.000000
# 3 -0.004656 0.000303 0.026287 0.000000 -0.001717 0.000000
# 4 0.000000 0.000000 0.000000 0.070318 0.000000 -0.011822
# 5 0.008841 -0.001411 -0.001717 0.000000 0.032172 0.000000
# 6 0.000000 0.000000 0.000000 -0.011822 0.000000 0.045619
#
#
# Mechanical properties :
#
#
# Convention : Reuss Voigt Hill
#
# Bulk Modulus (GPa) = 28.37511 42.60438 35.48975
# Shear Modulus (GPa) = 22.89637 33.04234 27.96936
#
# Velocity S-wave (km/s) = 3.11036 3.73648 3.43770
# Velocity P-wave (km/s) = 4.98882 6.05116 5.54549
#
# Compressibility (1/GPa) = 0.03524215
#
# Stress axis : x y z
#
# Youngs Moduli (GPa) = 107.94708 88.25960 38.04231
#
# Poissons Ratio (x) = 0.12948 0.17711
# Poissons Ratio (y) = 0.15836 -0.01154
# Poissons Ratio (z) = 0.50255 -0.02678
#
# Static dielectric constant tensor:
#      x y z
#    x 1.954090 0.000000 -0.069810 
#    y 0.000000 1.849260 0.000000 
#    z -0.069810 0.000000 1.965990 
# 
# From -- ./inp_files/54427.got.cif
#   From: 2010.05.17/outbox.cif.g08.bks.cpg/sg13_28_cif.got.tgz:54427.got - 2010.06.03 16:44:36.
