data_PCOD9230648
_publ_section_title
;
Structure prediction by ZEFSAII (Michael W. Deem and Ramdas Pophale) SiO2 
 PCOD9230648
Probable space group: P 2/C
;
_chemical_formula_sum "Si O2"
_cell_formula_units_Z 28
_cell_length_a 24.603669
_cell_length_b 8.494450
_cell_length_c 21.175501
_cell_angle_alpha 90.000000
_cell_angle_beta 159.674659
_cell_angle_gamma 90.000000
_cell_volume 1537.222301
_symmetry_space_group_name_H-M "P 2/C"
_symmetry_group_IT_number 13
_symmetry_cell_setting 'monoclinic'
loop_
_space_group_symop_operation_xyz
x,y,z
-x,y,1/2-z
-x,-y,-z
x,-y,1/2+z
loop_
_atom_site_type_symbol
_atom_site_label
_atom_site_fract_x
_atom_site_fract_y
_atom_site_fract_z
Si Si1 0.435872 0.287813 0.779325
Si Si2 0.342647 0.406479 0.809810
Si Si3 0.372289 0.411854 0.062893
Si Si4 0.159427 0.320250 0.383654
Si Si5 0.206261 0.795178 0.278379
Si Si6 0.104629 0.639368 0.585545
Si Si7 0.241513 0.844290 0.847349
O O1 0.365657 0.308338 0.771865
O O2 0.525837 0.451326 0.860500
O O3 0.300686 0.256262 0.581610
O O4 0.577070 0.165869 0.935354
O O5 0.278736 0.289907 0.794963
O O6 0.219899 0.547907 0.664933
O O7 0.500000 0.500000 0.000000
O O8 0.500000 0.341742 0.250000
O O9 0.228620 0.509252 0.937856
O O10 0.300295 0.286192 0.937537
O O11 0.147148 0.214755 0.306659
O O12 0.000000 0.328463 0.250000
O O13 0.214454 0.982127 0.291825
O O14 0.022347 0.754424 0.081941
O O15 0.200978 0.722394 0.746746
O O16 0.000000 0.500000 0.500000
#
# Coordination Sequence:
#
# PCOD9230648 Si02
#       7
#     4   4   4   4   4   4   4
#     4  10  20  37  61  86 114 154 199 241 285 355
#     4  11  19  37  62  89 115 149 206 240 283 350
#     4   9  19  38  57  82 110 149 201 239 284 348
#     4  10  22  37  62  83 109 155 206 248 280 347
#     4  11  23  36  60  86 121 157 182 249 310 349
#     4  10  21  37  61  83 115 154 194 242 288 349
#     4  11  22  40  55  85 125 155 192 235 313 364
#
# _framework density 18.214672
#
# number of rings (size 3 to 8) (size 9 to 14) (size 15 to 20)
#    0.000    1.714    2.857    4.286    6.000    1.714 
#    0.000    0.714    0.000    0.000    0.000    0.000 
#    0.000    0.000    0.000    0.000    0.000    0.000 
#
# Total GULP energy -156095.644420 kJ/mol
# GULP energy per Si atom -5574.844444 kJ/mol
# Density = 1.817321 g / cm^3
# Si number density = 18.214672 Si / 1000 Ang^3
#
#
#
# Elastic Constant Matrix: (Units=GPa)
#
#
# Indices 1 2 3 4 5 6 
#
# 1 95.2276 17.7860 15.1835 0.0000 9.6954 0.0000
# 2 17.7860 60.4066 8.1921 0.0000 4.3689 0.0000
# 3 15.1835 8.1921 62.7282 0.0000 7.9276 0.0000
# 4 0.0000 0.0000 0.0000 16.3960 0.0000 -5.1558
# 5 9.6954 4.3689 7.9276 0.0000 33.7424 0.0000
# 6 0.0000 0.0000 0.0000 -5.1558 0.0000 14.4592
#
#
#
# Elastic Compliance Matrix: (Units=1/GPa)
#
#
# Indices 1 2 3 4 5 6 
#
# 1 0.011643 -0.002963 -0.002120 0.000000 -0.002464 0.000000
# 2 -0.002963 0.017704 -0.001456 0.000000 -0.001099 0.000000
# 3 -0.002120 -0.001456 0.017051 0.000000 -0.003208 0.000000
# 4 0.000000 0.000000 0.000000 0.068693 0.000000 0.024494
# 5 -0.002464 -0.001099 -0.003208 0.000000 0.031240 0.000000
# 6 0.000000 0.000000 0.000000 0.024494 0.000000 0.077894
#
#
# Mechanical properties :
#
#
# Convention : Reuss Voigt Hill
#
# Bulk Modulus (GPa) = 30.01167 33.40952 31.71060
# Shear Modulus (GPa) = 20.12808 24.73291 22.43050
#
# Velocity S-wave (km/s) = 3.32783 3.68891 3.51301
# Velocity P-wave (km/s) = 5.59271 6.04367 5.82256
#
# Compressibility (1/GPa) = 0.03332037
#
# Stress axis : x y z
#
# Youngs Moduli (GPa) = 85.88588 56.48534 58.64907
#
# Poissons Ratio (x) = 0.16734 0.12434
# Poissons Ratio (y) = 0.25444 0.08540
# Poissons Ratio (z) = 0.18208 0.08225
#
# Static dielectric constant tensor:
#      x y z
#    x 1.643470 0.000000 -0.003480 
#    y 0.000000 1.608470 0.000000 
#    z -0.003480 0.000000 1.684880 
# 
# From -- ./inp_files/82206.got.cif
#   From: 2010.05.17/outbox.cif.g08.bks.cpg/sg13_42_cif.got.tgz:82206.got - 2010.06.03 16:44:36.
