data_PCOD9230189
_publ_section_title
;
Structure prediction by ZEFSAII (Michael W. Deem and Ramdas Pophale) SiO2 
 PCOD9230189
Probable space group: P 2/C
;
_chemical_formula_sum "Si O2"
_cell_formula_units_Z 22
_cell_length_a 13.761850
_cell_length_b 5.980407
_cell_length_c 26.167165
_cell_angle_alpha 90.000000
_cell_angle_beta 30.093500
_cell_angle_gamma 90.000000
_cell_volume 1079.840134
_symmetry_space_group_name_H-M "P 2/C"
_symmetry_group_IT_number 13
_symmetry_cell_setting 'monoclinic'
loop_
_space_group_symop_operation_xyz
x,y,z
-x,y,1/2-z
-x,-y,-z
x,-y,1/2+z
loop_
_atom_site_type_symbol
_atom_site_label
_atom_site_fract_x
_atom_site_fract_y
_atom_site_fract_z
Si Si1 0.311462 0.440227 0.553899
Si Si2 0.754230 0.336241 0.517724
Si Si3 0.059422 0.951999 0.136597
Si Si4 0.683434 0.045245 0.636192
Si Si5 0.001592 0.274442 0.560952
Si Si6 0.000000 0.758308 0.750000
O O1 0.500000 0.500000 0.500000
O O2 0.341232 0.501721 0.480491
O O3 0.222455 0.191107 0.592544
O O4 0.151339 0.598517 0.653162
O O5 0.621258 0.218218 0.620025
O O6 0.925984 0.470142 0.468793
O O7 0.844996 0.141365 0.442042
O O8 0.968104 0.790552 0.135761
O O9 0.926754 0.076680 0.238305
O O10 0.500000 0.952293 0.750000
O O11 0.817838 0.189433 0.613251
O O12 0.818247 0.860018 0.547335
#
# Coordination Sequence:
#
# PCOD9230189 Si02
#       6
#     4   4   4   4   4   2
#     4  10  21  39  59  88 121 161 200 252 302 358
#     4   9  19  37  57  80 116 155 198 250 304 354
#     4   9  19  38  57  83 116 153 201 246 302 363
#     4  10  20  36  56  88 114 156 203 248 303 370
#     4   9  19  38  58  78 122 157 190 254 309 359
#     4  10  20  36  58  86 120 156 202 244 300 360
#
# _framework density 20.373384999999999
#
# number of rings (size 3 to 8) (size 9 to 14) (size 15 to 20)
#    0.000    2.545    0.000    1.091    0.000    3.636 
#   22.909    0.000    0.000    0.000    0.000    0.000 
#    0.000    0.000    0.000    0.000    0.000    0.000 
#
# Total GULP energy -122480.142053 kJ/mol
# GULP energy per Si atom -5567.279184 kJ/mol
# Density = 2.032701 g / cm^3
# Si number density = 20.373385 Si / 1000 Ang^3
#
#
#
# Elastic Constant Matrix: (Units=GPa)
#
#
# Indices 1 2 3 4 5 6 
#
# 1 76.9069 17.7631 30.9992 0.0000 7.2969 0.0000
# 2 17.7631 80.7740 14.8738 0.0000 6.9873 0.0000
# 3 30.9992 14.8738 81.5345 0.0000 18.8287 0.0000
# 4 0.0000 0.0000 0.0000 18.2954 0.0000 15.0050
# 5 7.2969 6.9873 18.8287 0.0000 24.7697 0.0000
# 6 0.0000 0.0000 0.0000 15.0050 0.0000 33.7952
#
#
#
# Elastic Compliance Matrix: (Units=1/GPa)
#
#
# Indices 1 2 3 4 5 6 
#
# 1 0.015814 -0.002468 -0.005637 0.000000 0.000322 0.000000
# 2 -0.002468 0.013298 -0.000957 0.000000 -0.002297 0.000000
# 3 -0.005637 -0.000957 0.017147 0.000000 -0.011103 0.000000
# 4 0.000000 0.000000 0.000000 0.085960 0.000000 -0.038166
# 5 0.000322 -0.002297 -0.011103 0.000000 0.049365 0.000000
# 6 0.000000 0.000000 0.000000 -0.038166 0.000000 0.046536
#
#
# Mechanical properties :
#
#
# Convention : Reuss Voigt Hill
#
# Bulk Modulus (GPa) = 35.54269 40.72082 38.13175
# Shear Modulus (GPa) = 19.56016 27.07735 23.31876
#
# Velocity S-wave (km/s) = 3.10188 3.64958 3.38682
# Velocity P-wave (km/s) = 5.50567 6.14735 5.83534
#
# Compressibility (1/GPa) = 0.02813518
#
# Stress axis : x y z
#
# Youngs Moduli (GPa) = 63.23461 75.20026 58.32081
#
# Poissons Ratio (x) = 0.18557 0.32874
# Poissons Ratio (y) = 0.15604 0.05583
# Poissons Ratio (z) = 0.35644 0.07199
#
# Static dielectric constant tensor:
#      x y z
#    x 1.781100 0.000000 0.020620 
#    y 0.000000 1.786990 0.000000 
#    z 0.020620 0.000000 1.705390 
# 
# From -- ./inp_files/52344.got.cif
#   From: 2010.05.17/outbox.cif.g08.bks.cpg/sg13_27_cif.got.tgz:52344.got - 2010.06.03 16:44:36.
