data_PCOD9230212
_publ_section_title
;
Structure prediction by ZEFSAII (Michael W. Deem and Ramdas Pophale) SiO2 
 PCOD9230212
Probable space group: P 2/C
;
_chemical_formula_sum "Si O2"
_cell_formula_units_Z 26
_cell_length_a 16.068702
_cell_length_b 6.672888
_cell_length_c 16.804477
_cell_angle_alpha 90.000000
_cell_angle_beta 47.587316
_cell_angle_gamma 90.000000
_cell_volume 1330.319810
_symmetry_space_group_name_H-M "P 2/C"
_symmetry_group_IT_number 13
_symmetry_cell_setting 'monoclinic'
loop_
_space_group_symop_operation_xyz
x,y,z
-x,y,1/2-z
-x,-y,-z
x,-y,1/2+z
loop_
_atom_site_type_symbol
_atom_site_label
_atom_site_fract_x
_atom_site_fract_y
_atom_site_fract_z
Si Si1 0.966223 0.885681 0.893280
Si Si2 0.500000 0.437420 0.750000
Si Si3 0.150917 0.218400 0.615190
Si Si4 0.391081 0.060869 0.740365
Si Si5 0.603472 0.813069 0.600093
Si Si6 0.963251 0.439810 0.662397
Si Si7 0.851560 0.844260 0.132719
O O1 0.017680 0.672551 0.838805
O O2 0.902559 0.999234 0.863252
O O3 0.876949 0.864687 0.023076
O O4 0.065350 0.017296 0.868920
O O5 0.427020 0.283322 0.744733
O O6 0.566910 0.590087 0.649799
O O7 0.106660 0.334848 0.721028
O O8 0.088521 0.340981 0.584068
O O9 0.284069 0.202141 0.523526
O O10 0.496896 0.939444 0.634590
O O11 0.369250 0.932604 0.835332
O O12 0.275507 0.089347 0.768181
O O13 0.891639 0.378259 0.631638
#
# Coordination Sequence:
#
# PCOD9230212 Si02
#       7
#     4   2   4   4   4   4   4
#     4  10  21  38  58  81 114 154 188 241 285 335
#     4   8  18  30  52  84 104 138 192 238 278 332
#     4  10  21  38  55  82 117 153 193 232 283 349
#     4   9  18  33  54  85 108 145 188 239 283 331
#     4   9  18  33  54  80 113 147 189 234 287 330
#     4  10  23  34  55  86 114 153 196 227 289 345
#     4  10  20  36  57  84 114 145 195 235 290 339
#
# _framework density 19.544172
#
# number of rings (size 3 to 8) (size 9 to 14) (size 15 to 20)
#    0.000    2.769    1.538    0.462    2.154    7.385 
#    0.000    0.769    0.000    1.846    0.000    0.000 
#    0.000    0.000    0.000    0.000    0.000    0.000 
#
# Total GULP energy -144853.609604 kJ/mol
# GULP energy per Si atom -5571.292677 kJ/mol
# Density = 1.949969 g / cm^3
# Si number density = 19.544172 Si / 1000 Ang^3
#
#
#
# Elastic Constant Matrix: (Units=GPa)
#
#
# Indices 1 2 3 4 5 6 
#
# 1 41.8705 15.1848 33.1717 0.0000 -19.9909 0.0000
# 2 15.1848 144.5797 46.9541 0.0000 -5.8917 0.0000
# 3 33.1717 46.9541 114.8004 0.0000 -29.5512 0.0000
# 4 0.0000 0.0000 0.0000 14.5722 0.0000 3.9831
# 5 -19.9909 -5.8917 -29.5512 0.0000 25.2093 0.0000
# 6 0.0000 0.0000 0.0000 3.9831 0.0000 11.5685
#
#
#
# Elastic Compliance Matrix: (Units=1/GPa)
#
#
# Indices 1 2 3 4 5 6 
#
# 1 0.040690 -0.001865 -0.004011 0.000000 0.027129 0.000000
# 2 -0.001865 0.008203 -0.003871 0.000000 -0.004101 0.000000
# 3 -0.004011 -0.003871 0.014897 0.000000 0.013377 0.000000
# 4 0.000000 0.000000 0.000000 0.075753 0.000000 -0.026082
# 5 0.027129 -0.004101 0.013377 0.000000 0.075904 0.000000
# 6 0.000000 0.000000 0.000000 -0.026082 0.000000 0.095422
#
#
# Mechanical properties :
#
#
# Convention : Reuss Voigt Hill
#
# Bulk Modulus (GPa) = 22.57658 54.65242 38.61450
# Shear Modulus (GPa) = 14.48734 23.99932 19.24333
#
# Velocity S-wave (km/s) = 2.72557 3.50802 3.14125
# Velocity P-wave (km/s) = 4.63482 6.66577 5.74082
#
# Compressibility (1/GPa) = 0.04429369
#
# Stress axis : x y z
#
# Youngs Moduli (GPa) = 24.57593 121.91045 67.12944
#
# Poissons Ratio (x) = 0.22741 0.26926
# Poissons Ratio (y) = 0.04584 0.25989
# Poissons Ratio (z) = 0.09857 0.47197
#
# Static dielectric constant tensor:
#      x y z
#    x 1.728820 0.000000 0.022210 
#    y 0.000000 1.718020 0.000000 
#    z 0.022210 0.000000 1.723660 
# 
# From -- ./inp_files/80643.got.cif
#   From: 2010.05.17/outbox.cif.g08.bks.cpg/sg13_41_cif.got.tgz:80643.got - 2010.06.03 16:44:36.
