data_PCOD9230697
_publ_section_title
;
Structure prediction by ZEFSAII (Michael W. Deem and Ramdas Pophale) SiO2 
 PCOD9230697
Probable space group: P 2/C
;
_chemical_formula_sum "Si O2"
_cell_formula_units_Z 20
_cell_length_a 5.446423
_cell_length_b 7.997383
_cell_length_c 22.830307
_cell_angle_alpha 90.000000
_cell_angle_beta 129.104737
_cell_angle_gamma 90.000000
_cell_volume 771.666283
_symmetry_space_group_name_H-M "P 2/C"
_symmetry_group_IT_number 13
_symmetry_cell_setting 'monoclinic'
loop_
_space_group_symop_operation_xyz
x,y,z
-x,y,1/2-z
-x,-y,-z
x,-y,1/2+z
loop_
_atom_site_type_symbol
_atom_site_label
_atom_site_fract_x
_atom_site_fract_y
_atom_site_fract_z
Si Si1 0.178200 0.608135 0.449496
Si Si2 0.513193 0.475519 0.321512
Si Si3 0.498716 0.102365 0.181842
Si Si4 0.320770 0.211683 0.869218
Si Si5 0.978580 0.179679 0.025303
O O1 0.500000 0.500000 0.500000
O O2 0.070347 0.739689 0.381371
O O3 0.172137 0.704956 0.509549
O O4 0.879512 0.482698 0.398595
O O5 0.500000 0.500596 0.250000
O O6 0.369488 0.289977 0.310139
O O7 0.347308 0.628057 0.330682
O O8 0.500000 0.057055 0.250000
O O9 0.131955 0.138242 0.110333
O O10 0.653373 0.958017 0.164307
O O11 0.616120 0.221491 0.959155
O O12 0.000000 0.000000 0.000000
#
# Coordination Sequence:
#
# PCOD9230697 Si02
#       5
#     4   4   4   4   4
#     4  11  22  38  67  97 123 165 219 264 313 379
#     4  10  22  41  62  90 132 170 206 264 327 377
#     4  10  20  37  62  88 122 168 208 252 316 379
#     4  10  21  39  64  91 124 165 213 262 315 378
#     4   9  20  38  60  88 125 163 203 259 318 371
#
# _framework density 25.917939000000001
#
# number of rings (size 3 to 8) (size 9 to 14) (size 15 to 20)
#    0.000    2.000    0.000    3.000    0.000    7.200 
#    0.000   10.000    0.000   37.200    0.000    0.000 
#    0.000    0.000    0.000    0.000    0.000    0.000 
#
# Total GULP energy -111568.131697 kJ/mol
# GULP energy per Si atom -5578.406585 kJ/mol
# Density = 2.585895 g / cm^3
# Si number density = 25.917939 Si / 1000 Ang^3
#
#
#
# Elastic Constant Matrix: (Units=GPa)
#
#
# Indices 1 2 3 4 5 6 
#
# 1 29.0511 40.4332 47.3004 0.0000 -13.3853 0.0000
# 2 40.4332 193.2795 53.1480 0.0000 -32.6018 0.0000
# 3 47.3004 53.1480 178.0446 0.0000 -35.7041 0.0000
# 4 0.0000 0.0000 0.0000 30.9201 0.0000 4.9726
# 5 -13.3853 -32.6018 -35.7041 0.0000 50.8741 0.0000
# 6 0.0000 0.0000 0.0000 4.9726 0.0000 -101.4759
#
#
#
# Elastic Compliance Matrix: (Units=1/GPa)
#
#
# Indices 1 2 3 4 5 6 
#
# 1 0.079542 -0.011643 -0.017405 0.000000 0.001252 0.000000
# 2 -0.011643 0.007714 0.001359 0.000000 0.002834 0.000000
# 3 -0.017405 0.001359 0.010580 0.000000 0.003717 0.000000
# 4 0.000000 0.000000 0.000000 0.032089 0.000000 0.001572
# 5 0.001252 0.002834 0.003717 0.000000 0.024410 0.000000
# 6 0.000000 0.000000 0.000000 0.001572 0.000000 -0.009778
#
#
# Mechanical properties :
#
#
# Convention : Reuss Voigt Hill
#
# Bulk Modulus (GPa) = 23.55286 75.79318 49.67302
# Shear Modulus (GPa) = 23.35494 13.36323 18.35909
#
# Velocity S-wave (km/s) = 3.00511 2.27314 2.66438
# Velocity P-wave (km/s) = 4.59871 6.01636 5.35466
#
# Compressibility (1/GPa) = 0.04245769
#
# Stress axis : x y z
#
# Youngs Moduli (GPa) = 12.57201 129.63806 94.51555
#
# Poissons Ratio (x) = 1.50932 1.64505
# Poissons Ratio (y) = 0.14637 -0.12841
# Poissons Ratio (z) = 0.21882 -0.17613
#
# Static dielectric constant tensor:
#      x y z
#    x 2.165220 0.000000 0.175790 
#    y 0.000000 2.254490 0.000000 
#    z 0.175790 0.000000 1.670030 
# 
# From -- ./inp_files/83436.got.cif
#   From: 2010.05.17/outbox.cif.g08.bks.cpg/sg13_42_cif.got.tgz:83436.got - 2010.06.03 16:44:36.
