data_PCOD9230361
_publ_section_title
;
Structure prediction by ZEFSAII (Michael W. Deem and Ramdas Pophale) SiO2 
 PCOD9230361
Probable space group: P 2/C
;
_chemical_formula_sum "Si O2"
_cell_formula_units_Z 22
_cell_length_a 7.802019
_cell_length_b 17.556245
_cell_length_c 9.302541
_cell_angle_alpha 90.000000
_cell_angle_beta 52.724339
_cell_angle_gamma 90.000000
_cell_volume 1013.926361
_symmetry_space_group_name_H-M "P 2/C"
_symmetry_group_IT_number 13
_symmetry_cell_setting 'monoclinic'
loop_
_space_group_symop_operation_xyz
x,y,z
-x,y,1/2-z
-x,-y,-z
x,-y,1/2+z
loop_
_atom_site_type_symbol
_atom_site_label
_atom_site_fract_x
_atom_site_fract_y
_atom_site_fract_z
Si Si1 0.563438 0.883611 0.870053
Si Si2 0.668741 0.523973 0.294388
Si Si3 0.254487 0.162329 0.933682
Si Si4 0.756211 0.674104 0.121642
Si Si5 0.199597 0.959085 0.247174
Si Si6 0.000000 0.411199 0.250000
O O1 0.500000 0.845999 0.750000
O O2 0.674387 0.964404 0.778427
O O3 0.716795 0.840277 0.907886
O O4 0.351546 0.906569 0.068240
O O5 0.500000 0.520630 0.250000
O O6 0.500000 0.500000 0.500000
O O7 0.776232 0.608215 0.232241
O O8 0.860892 0.463942 0.213455
O O9 0.500000 0.155826 0.750000
O O10 0.153947 0.240105 0.921690
O O11 0.143799 0.089187 0.917913
O O12 0.500000 0.686313 0.250000
O O13 0.843871 0.637826 0.929803
O O14 0.000000 0.978374 0.250000
#
# Coordination Sequence:
#
# PCOD9230361 Si02
#       6
#     4   4   4   4   4   2
#     4  10  20  36  61  88 115 158 218 263 308 375
#     4  11  22  41  69 100 130 172 219 265 323 391
#     4   9  20  40  61  82 128 171 198 262 330 372
#     4  10  21  41  65  91 135 170 207 268 330 377
#     4  10  20  37  58  88 120 164 210 255 318 383
#     4  12  22  42  68 102 126 174 226 260 320 404
#
# _framework density 21.697828000000001
#
# number of rings (size 3 to 8) (size 9 to 14) (size 15 to 20)
#    0.000    1.818    3.636    3.273    0.000    2.909 
#    6.545    0.909    0.000    0.000    0.000    0.000 
#    0.000    0.000    0.000    0.000    0.000    0.000 
#
# Total GULP energy -122602.212081 kJ/mol
# GULP energy per Si atom -5572.827822 kJ/mol
# Density = 2.164844 g / cm^3
# Si number density = 21.697828 Si / 1000 Ang^3
#
#
#
# Elastic Constant Matrix: (Units=GPa)
#
#
# Indices 1 2 3 4 5 6 
#
# 1 91.9101 17.6707 19.4748 0.0000 17.2373 0.0000
# 2 17.6707 73.4623 34.4610 0.0000 23.1520 0.0000
# 3 19.4748 34.4610 95.9840 0.0000 20.0925 0.0000
# 4 0.0000 0.0000 0.0000 -6.9278 0.0000 14.7643
# 5 17.2373 23.1520 20.0925 0.0000 34.0649 0.0000
# 6 0.0000 0.0000 0.0000 14.7643 0.0000 5.8417
#
#
#
# Elastic Compliance Matrix: (Units=1/GPa)
#
#
# Indices 1 2 3 4 5 6 
#
# 1 0.012209 -0.000848 -0.001141 0.000000 -0.004929 0.000000
# 2 -0.000848 0.019077 -0.004624 0.000000 -0.009809 0.000000
# 3 -0.001141 -0.004624 0.013156 0.000000 -0.004040 0.000000
# 4 0.000000 0.000000 0.000000 -0.022603 0.000000 0.057125
# 5 -0.004929 -0.009809 -0.004040 0.000000 0.040899 0.000000
# 6 0.000000 0.000000 0.000000 0.057125 0.000000 0.026805
#
#
# Mechanical properties :
#
#
# Convention : Reuss Voigt Hill
#
# Bulk Modulus (GPa) = 32.03508 44.95216 38.49362
# Shear Modulus (GPa) = 44.17976 19.24576 31.71276
#
# Velocity S-wave (km/s) = 4.51725 2.98147 3.82719
# Velocity P-wave (km/s) = 6.48102 5.71091 6.10812
#
# Compressibility (1/GPa) = 0.03121578
#
# Stress axis : x y z
#
# Youngs Moduli (GPa) = 81.90409 52.41981 76.01343
#
# Poissons Ratio (x) = 0.04447 0.08673
# Poissons Ratio (y) = 0.06949 0.35146
# Poissons Ratio (z) = 0.09345 0.24237
#
# Static dielectric constant tensor:
#      x y z
#    x 1.776870 0.000000 -0.004470 
#    y 0.000000 1.919710 0.000000 
#    z -0.004470 0.000000 1.819490 
# 
# From -- ./inp_files/13048.got.cif
#   From: 2010.05.17/outbox.cif.g08.bks.cpg/sg13_7_cif.got.tgz:13048.got - 2010.06.03 16:44:36.
