data_PCOD9230797
_publ_section_title
;
Structure prediction by ZEFSAII (Michael W. Deem and Ramdas Pophale) SiO2 
 PCOD9230797
Probable space group: P 2/C
;
_chemical_formula_sum "Si O2"
_cell_formula_units_Z 22
_cell_length_a 22.264750
_cell_length_b 8.829846
_cell_length_c 14.423280
_cell_angle_alpha 90.000000
_cell_angle_beta 159.275467
_cell_angle_gamma 90.000000
_cell_volume 1003.425885
_symmetry_space_group_name_H-M "P 2/C"
_symmetry_group_IT_number 13
_symmetry_cell_setting 'monoclinic'
loop_
_space_group_symop_operation_xyz
x,y,z
-x,y,1/2-z
-x,-y,-z
x,-y,1/2+z
loop_
_atom_site_type_symbol
_atom_site_label
_atom_site_fract_x
_atom_site_fract_y
_atom_site_fract_z
Si Si1 0.000000 0.808807 0.250000
Si Si2 0.936959 0.944379 0.509522
Si Si3 0.130468 0.354614 0.301764
Si Si4 0.685793 0.398904 0.319175
Si Si5 0.782045 0.526437 0.757617
Si Si6 0.399565 0.232921 0.019402
O O1 0.150260 0.705721 0.429528
O O2 0.064761 0.914828 0.425098
O O3 0.064170 0.812294 0.730568
O O4 0.749992 0.871684 0.233409
O O5 0.000000 0.000000 0.500000
O O6 0.266200 0.440819 0.562310
O O7 0.193581 0.350271 0.286392
O O8 0.961767 0.461064 0.053576
O O9 0.677714 0.424917 0.196964
O O10 0.530234 0.301641 0.133909
O O11 0.694769 0.384559 0.580241
O O12 0.500000 0.161244 0.250000
#
# Coordination Sequence:
#
# PCOD9230797 Si02
#       6
#     2   4   4   4   4   4
#     4  12  26  42  70  98 134 190 232 274 360 418
#     4  11  26  45  68 100 143 186 223 277 356 433
#     4  10  21  39  70  96 129 176 234 277 336 413
#     4  12  22  42  71  98 132 176 234 294 335 405
#     4  10  20  37  66 101 123 168 223 286 338 391
#     4  11  23  41  69  99 139 171 228 292 347 397
#
# _framework density 21.924889
#
# number of rings (size 3 to 8) (size 9 to 14) (size 15 to 20)
#    0.000    1.091    3.636    2.727    7.636    0.727 
#    0.000    0.000    8.000    0.000    0.000    0.000 
#    0.000    0.000    0.000    0.000    0.000    0.000 
#
# Total GULP energy -123000.914657 kJ/mol
# GULP energy per Si atom -5590.950666 kJ/mol
# Density = 2.187499 g / cm^3
# Si number density = 21.924889 Si / 1000 Ang^3
#
#
#
# Elastic Constant Matrix: (Units=GPa)
#
#
# Indices 1 2 3 4 5 6 
#
# 1 111.8592 22.9549 27.7771 0.0000 4.4254 0.0000
# 2 22.9549 92.8399 41.8890 0.0000 -1.3357 0.0000
# 3 27.7771 41.8890 94.6361 0.0000 14.0749 0.0000
# 4 0.0000 0.0000 0.0000 42.1858 0.0000 -7.9919
# 5 4.4254 -1.3357 14.0749 0.0000 29.2623 0.0000
# 6 0.0000 0.0000 0.0000 -7.9919 0.0000 29.1718
#
#
#
# Elastic Compliance Matrix: (Units=1/GPa)
#
#
# Indices 1 2 3 4 5 6 
#
# 1 0.009794 -0.001457 -0.002153 0.000000 -0.000512 0.000000
# 2 -0.001457 0.014069 -0.006385 0.000000 0.003934 0.000000
# 3 -0.002153 -0.006385 0.015100 0.000000 -0.007229 0.000000
# 4 0.000000 0.000000 0.000000 0.025002 0.000000 0.006850
# 5 -0.000512 0.003934 -0.007229 0.000000 0.037908 0.000000
# 6 0.000000 0.000000 0.000000 0.006850 0.000000 0.036156
#
#
# Mechanical properties :
#
#
# Convention : Reuss Voigt Hill
#
# Bulk Modulus (GPa) = 52.70931 53.84190 53.27561
# Shear Modulus (GPa) = 30.42408 33.90493 32.16451
#
# Velocity S-wave (km/s) = 3.72916 3.93671 3.83434
# Velocity P-wave (km/s) = 6.52957 6.72862 6.62984
#
# Compressibility (1/GPa) = 0.01897198
#
# Stress axis : x y z
#
# Youngs Moduli (GPa) = 102.10474 71.07900 66.22512
#
# Poissons Ratio (x) = 0.10358 0.14261
# Poissons Ratio (y) = 0.14880 0.42282
# Poissons Ratio (z) = 0.21988 0.45381
#
# Static dielectric constant tensor:
#      x y z
#    x 1.819460 0.000000 0.005240 
#    y 0.000000 1.769330 0.000000 
#    z 0.005240 0.000000 1.856360 
# 
# From -- ./inp_files/58750.got.cif
#   From: 2010.05.17/outbox.cif.g08.bks.cpg/sg13_30_cif.got.tgz:58750.got - 2010.06.03 16:44:36.
