data_PCOD9230714
_publ_section_title
;
Structure prediction by ZEFSAII (Michael W. Deem and Ramdas Pophale) SiO2 
 PCOD9230714
Probable space group: P 2/C
;
_chemical_formula_sum "Si O2"
_cell_formula_units_Z 26
_cell_length_a 12.804761
_cell_length_b 8.366013
_cell_length_c 15.654076
_cell_angle_alpha 90.000000
_cell_angle_beta 133.789755
_cell_angle_gamma 90.000000
_cell_volume 1210.555911
_symmetry_space_group_name_H-M "P 2/C"
_symmetry_group_IT_number 13
_symmetry_cell_setting 'monoclinic'
loop_
_space_group_symop_operation_xyz
x,y,z
-x,y,1/2-z
-x,-y,-z
x,-y,1/2+z
loop_
_atom_site_type_symbol
_atom_site_label
_atom_site_fract_x
_atom_site_fract_y
_atom_site_fract_z
Si Si1 0.330171 0.306036 0.643215
Si Si2 0.765892 0.391211 0.082997
Si Si3 0.412997 0.693974 0.505773
Si Si4 0.740909 0.804064 0.728089
Si Si5 0.218364 0.176455 0.754288
Si Si6 0.000000 0.363633 0.750000
Si Si7 0.330686 0.691694 0.637526
O O1 0.500000 0.262710 0.750000
O O2 0.268314 0.271805 0.513659
O O3 0.239416 0.230283 0.668590
O O4 0.319503 0.499722 0.640704
O O5 0.621776 0.503228 0.012151
O O6 0.812215 0.306101 0.196650
O O7 0.890992 0.519563 0.137940
O O8 0.572553 0.758151 0.614250
O O9 0.357185 0.759197 0.385094
O O10 0.314854 0.751228 0.531449
O O11 0.764254 0.763633 0.840684
O O12 0.779836 0.986798 0.736872
O O13 0.087134 0.259102 0.730516
O O14 0.500000 0.728788 0.750000
#
# Coordination Sequence:
#
# PCOD9230714 Si02
#       7
#     4   4   4   4   4   2   4
#     4  10  20  37  62  93 119 151 196 253 307 351
#     4  10  21  38  64  85 116 159 210 248 280 358
#     4   9  18  35  57  86 119 154 194 249 304 352
#     4  11  20  33  58  90 117 152 194 254 312 349
#     4  11  23  36  56  84 127 158 190 245 304 368
#     4  10  24  44  58  80 116 172 214 240 286 348
#     4   8  16  30  52  80 111 143 186 230 284 350
#
# _framework density 21.477736
#
# number of rings (size 3 to 8) (size 9 to 14) (size 15 to 20)
#    0.000    2.154    0.000    4.615    0.000    4.308 
#    0.000    1.538    0.000   10.154    0.000    0.000 
#    0.000    0.000    0.000    0.000    0.000    0.000 
#
# Total GULP energy -144983.886299 kJ/mol
# GULP energy per Si atom -5576.303319 kJ/mol
# Density = 2.142885 g / cm^3
# Si number density = 21.477736 Si / 1000 Ang^3
#
#
#
# Elastic Constant Matrix: (Units=GPa)
#
#
# Indices 1 2 3 4 5 6 
#
# 1 94.6689 31.8104 19.8252 0.0000 -11.8426 0.0000
# 2 31.8104 65.8761 1.9990 0.0000 -8.7172 0.0000
# 3 19.8252 1.9990 44.1555 0.0000 -13.5579 0.0000
# 4 0.0000 0.0000 0.0000 5.2842 0.0000 5.1721
# 5 -11.8426 -8.7172 -13.5579 0.0000 37.5950 0.0000
# 6 0.0000 0.0000 0.0000 5.1721 0.0000 5.0300
#
#
#
# Elastic Compliance Matrix: (Units=1/GPa)
#
#
# Indices 1 2 3 4 5 6 
#
# 1 0.014060 -0.006503 -0.005759 0.000000 0.000844 0.000000
# 2 -0.006503 0.018676 0.003120 0.000000 0.003407 0.000000
# 3 -0.005759 0.003120 0.027840 0.000000 0.008949 0.000000
# 4 0.000000 0.000000 0.000000-29.271919 0.000000 30.099366
# 5 0.000844 0.003407 0.008949 0.000000 0.030883 0.000000
# 6 0.000000 0.000000 0.000000 30.099366 0.000000-30.751394
#
#
# Mechanical properties :
#
#
# Convention : Reuss Voigt Hill
#
# Bulk Modulus (GPa) = 23.64467 34.66327 29.15397
# Shear Modulus (GPa) = -0.08347 19.65288 9.78471
#
# Velocity S-wave (km/s) = -0.19736 3.02824 2.13673
# Velocity P-wave (km/s) = 3.31374 5.32927 4.43746
#
# Compressibility (1/GPa) = 0.04229283
#
# Stress axis : x y z
#
# Youngs Moduli (GPa) = 71.12466 53.54381 35.92008
#
# Poissons Ratio (x) = 0.34818 0.20687
# Poissons Ratio (y) = 0.46251 -0.11208
# Poissons Ratio (z) = 0.40961 -0.16708
#
# Static dielectric constant tensor:
#      x y z
#    x 1.845980 0.000000 -0.025340 
#    y 0.000000 1.743150 0.000000 
#    z -0.025340 0.000000 1.835600 
# 
# From -- ./inp_files/50166.got.cif
#   From: 2010.05.17/outbox.cif.g08.bks.cpg/sg13_26_cif.got.tgz:50166.got - 2010.06.03 16:44:36.
