data_PCOD9230482
_publ_section_title
;
Structure prediction by ZEFSAII (Michael W. Deem and Ramdas Pophale) SiO2 
 PCOD9230482
Probable space group: P 2/C
;
_chemical_formula_sum "Si O2"
_cell_formula_units_Z 18
_cell_length_a 7.374695
_cell_length_b 21.732079
_cell_length_c 5.158455
_cell_angle_alpha 90.000000
_cell_angle_beta 81.430864
_cell_angle_gamma 90.000000
_cell_volume 817.503462
_symmetry_space_group_name_H-M "P 2/C"
_symmetry_group_IT_number 13
_symmetry_cell_setting 'monoclinic'
loop_
_space_group_symop_operation_xyz
x,y,z
-x,y,1/2-z
-x,-y,-z
x,-y,1/2+z
loop_
_atom_site_type_symbol
_atom_site_label
_atom_site_fract_x
_atom_site_fract_y
_atom_site_fract_z
Si Si1 0.218894 0.039001 0.197311
Si Si2 0.730592 0.459766 0.988344
Si Si3 0.500000 0.768738 0.250000
Si Si4 0.790203 0.338051 0.692229
Si Si5 0.500000 0.854611 0.750000
Si Si6 0.000000 0.599720 0.750000
O O1 0.327753 0.100138 0.245320
O O2 0.000000 0.049235 0.250000
O O3 0.265378 0.987880 0.405056
O O4 0.683093 0.510090 0.779669
O O5 0.684974 0.392723 0.873175
O O6 0.939434 0.441541 0.023803
O O7 0.325779 0.723327 0.286088
O O8 0.512814 0.811587 0.497551
O O9 0.000000 0.327507 0.750000
O O10 0.830086 0.361308 0.390853
#
# Coordination Sequence:
#
# PCOD9230482 Si02
#       6
#     4   4   2   4   2   2
#     4  10  21  41  73 109 145 172 210 267 326 378
#     4  11  20  34  62  96 120 152 209 277 352 423
#     4  12  30  47  64  91 140 180 238 270 310 378
#     4  10  25  43  67  90 125 176 216 280 342 399
#     4  12  26  43  70  99 134 190 224 266 308 380
#     4  10  20  36  66  92 120 160 214 268 362 404
#
# _framework density 22.018253999999999
#
# number of rings (size 3 to 8) (size 9 to 14) (size 15 to 20)
#    0.000    1.333    2.222    2.667    7.778    1.778 
#    0.000    1.111    0.000    0.000    0.000    0.000 
#    0.000    0.000    0.000    0.000    0.000    0.000 
#
# Total GULP energy -100391.865465 kJ/mol
# GULP energy per Si atom -5577.325859 kJ/mol
# Density = 2.196814 g / cm^3
# Si number density = 22.018254 Si / 1000 Ang^3
#
#
#
# Elastic Constant Matrix: (Units=GPa)
#
#
# Indices 1 2 3 4 5 6 
#
# 1 100.6455 66.5498 38.3240 0.0000 26.4806 0.0000
# 2 66.5498 159.2029 60.2826 0.0000 25.5158 0.0000
# 3 38.3240 60.2826 169.7739 0.0000 27.0313 0.0000
# 4 0.0000 0.0000 0.0000 34.7389 0.0000 -21.4178
# 5 26.4806 25.5158 27.0313 0.0000 13.1527 0.0000
# 6 0.0000 0.0000 0.0000 -21.4178 0.0000 -64.6747
#
#
#
# Elastic Compliance Matrix: (Units=1/GPa)
#
#
# Indices 1 2 3 4 5 6 
#
# 1 0.023456 -0.003499 0.003546 0.000000 -0.047724 0.000000
# 2 -0.003499 0.009682 -0.001158 0.000000 -0.009359 0.000000
# 3 0.003546 -0.001158 0.009334 0.000000 -0.024077 0.000000
# 4 0.000000 0.000000 0.000000 0.023905 0.000000 -0.007917
# 5 -0.047724 -0.009359 -0.024077 0.000000 0.239752 0.000000
# 6 0.000000 0.000000 0.000000 -0.007917 0.000000 -0.012840
#
#
# Mechanical properties :
#
#
# Convention : Reuss Voigt Hill
#
# Bulk Modulus (GPa) = 24.84411 84.43724 54.64067
# Shear Modulus (GPa) = 16.18501 14.27446 15.22974
#
# Velocity S-wave (km/s) = 2.71416 2.54894 2.63285
# Velocity P-wave (km/s) = 4.59675 6.86256 5.84059
#
# Compressibility (1/GPa) = 0.04025099
#
# Stress axis : x y z
#
# Youngs Moduli (GPa) = 42.63382 103.28034 107.13082
#
# Poissons Ratio (x) = 0.36136 -0.37990
# Poissons Ratio (y) = 0.14917 0.12406
# Poissons Ratio (z) = -0.15119 0.11960
#
# Static dielectric constant tensor:
#      x y z
#    x 1.922440 0.000000 -0.039310 
#    y 0.000000 1.765550 0.000000 
#    z -0.039310 0.000000 1.912390 
# 
# From -- ./inp_files/1342.got.cif
#   From: 2010.05.17/outbox.cif.g08.bks.cpg/sg13_1_cif.got.tgz:1342.got - 2010.06.03 16:44:36.
