data_PCOD9230825
_publ_section_title
;
Structure prediction by ZEFSAII (Michael W. Deem and Ramdas Pophale) SiO2 
 PCOD9230825
Probable space group: P 2/C
;
_chemical_formula_sum "Si O2"
_cell_formula_units_Z 28
_cell_length_a 27.344810
_cell_length_b 9.555225
_cell_length_c 9.680942
_cell_angle_alpha 90.000000
_cell_angle_beta 143.443245
_cell_angle_gamma 90.000000
_cell_volume 1506.613372
_symmetry_space_group_name_H-M "P 2/C"
_symmetry_group_IT_number 13
_symmetry_cell_setting 'monoclinic'
loop_
_space_group_symop_operation_xyz
x,y,z
-x,y,1/2-z
-x,-y,-z
x,-y,1/2+z
loop_
_atom_site_type_symbol
_atom_site_label
_atom_site_fract_x
_atom_site_fract_y
_atom_site_fract_z
Si Si1 0.485055 0.638579 0.053301
Si Si2 0.831399 0.077219 0.600441
Si Si3 0.927256 0.405263 0.472702
Si Si4 0.354670 0.143469 0.267917
Si Si5 0.036636 0.713024 0.980689
Si Si6 0.616988 0.876240 0.346682
Si Si7 0.804601 0.167899 0.234781
O O1 0.500000 0.610515 0.250000
O O2 0.547916 0.763132 0.155280
O O3 0.500000 0.500000 0.000000
O O4 0.395245 0.706978 0.829942
O O5 0.744267 0.140215 0.456623
O O6 0.827117 0.082975 0.425247
O O7 0.833886 0.923066 0.670892
O O8 0.907699 0.168048 0.825970
O O9 0.911102 0.569744 0.419020
O O10 0.850166 0.315094 0.343918
O O11 0.000000 0.392912 0.750000
O O12 0.963784 0.338069 0.416088
O O13 0.382343 0.104398 0.486427
O O14 0.388275 0.024344 0.241991
O O15 0.000000 0.755664 0.750000
O O16 0.706776 0.817499 0.510306
#
# Coordination Sequence:
#
# PCOD9230825 Si02
#       7
#     4   4   4   4   4   4   4
#     4  10  21  36  56  83 113 143 177 217 262 313
#     4  10  21  37  54  80 109 139 177 223 268 315
#     4  10  20  38  55  74 104 144 180 219 270 318
#     4   9  19  36  57  79 108 142 178 218 265 316
#     4  10  22  36  55  77 105 141 184 221 265 321
#     4   9  19  36  56  81 108 141 178 218 265 315
#     4  10  21  36  56  79 109 139 177 223 268 315
#
# _framework density 18.584727999999998
#
# number of rings (size 3 to 8) (size 9 to 14) (size 15 to 20)
#    0.000    2.286    1.429    0.429    2.000    3.429 
#    0.000    0.000    0.000    0.000    0.000    0.000 
#    0.000    0.000    0.000    0.000    0.000    0.000 
#
# Total GULP energy -156262.345007 kJ/mol
# GULP energy per Si atom -5580.798036 kJ/mol
# Density = 1.854243 g / cm^3
# Si number density = 18.584728 Si / 1000 Ang^3
#
#
#
# Elastic Constant Matrix: (Units=GPa)
#
#
# Indices 1 2 3 4 5 6 
#
# 1 33.9033 12.8220 -7.5207 0.0000 -11.1648 0.0000
# 2 12.8220 46.4334 0.4530 0.0000 7.5424 0.0000
# 3 -7.5207 0.4530 30.3713 0.0000 3.9113 0.0000
# 4 0.0000 0.0000 0.0000 14.3067 0.0000 -1.9737
# 5 -11.1648 7.5424 3.9113 0.0000 18.8931 0.0000
# 6 0.0000 0.0000 0.0000 -1.9737 0.0000 34.2483
#
#
#
# Elastic Compliance Matrix: (Units=1/GPa)
#
#
# Indices 1 2 3 4 5 6 
#
# 1 0.050865 -0.020031 0.008212 0.000000 0.036355 0.000000
# 2 -0.020031 0.030940 -0.002370 0.000000 -0.023699 0.000000
# 3 0.008212 -0.002370 0.035186 0.000000 -0.001485 0.000000
# 4 0.000000 0.000000 0.000000 0.070457 0.000000 0.004060
# 5 0.036355 -0.023699 -0.001485 0.000000 0.084182 0.000000
# 6 0.000000 0.000000 0.000000 0.004060 0.000000 0.029433
#
#
# Mechanical properties :
#
#
# Convention : Reuss Voigt Hill
#
# Bulk Modulus (GPa) = 11.28490 13.57964 12.43227
# Shear Modulus (GPa) = 13.92841 20.48653 17.20747
#
# Velocity S-wave (km/s) = 2.74059 3.32374 3.04615
# Velocity P-wave (km/s) = 4.01245 4.69600 4.36762
#
# Compressibility (1/GPa) = 0.08861401
#
# Stress axis : x y z
#
# Youngs Moduli (GPa) = 19.65977 32.32043 28.42040
#
# Poissons Ratio (x) = 0.64742 -0.23340
# Poissons Ratio (y) = 0.39381 0.06735
# Poissons Ratio (z) = -0.16145 0.07659
#
# Static dielectric constant tensor:
#      x y z
#    x 1.665970 0.000000 0.005500 
#    y 0.000000 1.610580 0.000000 
#    z 0.005500 0.000000 1.635590 
# 
# From -- ./inp_files/24609.got.cif
#   From: 2010.05.17/outbox.cif.g08.bks.cpg/sg13_13_cif.got.tgz:24609.got - 2010.06.03 16:44:36.
