data_PCOD9230922
_publ_section_title
;
Structure prediction by ZEFSAII (Michael W. Deem and Ramdas Pophale) SiO2 
 PCOD9230922
Probable space group: P 2/C
;
_chemical_formula_sum "Si O2"
_cell_formula_units_Z 20
_cell_length_a 18.086230
_cell_length_b 6.949038
_cell_length_c 8.388388
_cell_angle_alpha 90.000000
_cell_angle_beta 43.815082
_cell_angle_gamma 90.000000
_cell_volume 729.905046
_symmetry_space_group_name_H-M "P 2/C"
_symmetry_group_IT_number 13
_symmetry_cell_setting 'monoclinic'
loop_
_space_group_symop_operation_xyz
x,y,z
-x,y,1/2-z
-x,-y,-z
x,-y,1/2+z
loop_
_atom_site_type_symbol
_atom_site_label
_atom_site_fract_x
_atom_site_fract_y
_atom_site_fract_z
Si Si1 0.643524 0.082853 0.644276
Si Si2 0.029018 0.271053 0.455498
Si Si3 0.222884 0.379244 0.989334
Si Si4 0.833087 0.185828 0.941432
Si Si5 0.587914 0.268619 0.011043
O O1 0.738569 0.969517 0.593287
O O2 0.607933 0.920837 0.582897
O O3 0.706958 0.269886 0.485040
O O4 0.552598 0.183752 0.894004
O O5 0.100400 0.218928 0.499740
O O6 0.000000 0.500000 0.500000
O O7 0.107694 0.273548 0.179308
O O8 0.920010 0.155012 0.662489
O O9 0.213082 0.603967 0.024864
O O10 0.297993 0.351547 0.718432
O O11 0.500000 0.382243 0.250000
#
# Coordination Sequence:
#
# PCOD9230922 Si02
#       5
#     4   4   4   4   4
#     4  10  22  38  64  86 117 159 200 248 298 353
#     4   9  19  36  59  87 122 160 189 239 294 350
#     4   9  22  35  61  85 119 153 200 241 294 351
#     4  10  20  38  60  89 121 156 196 239 298 357
#     4  10  22  42  61  85 120 156 199 255 306 346
#
# _framework density 27.400822999999999
#
# number of rings (size 3 to 8) (size 9 to 14) (size 15 to 20)
#    1.200    1.200    0.000    1.800    5.600    0.800 
#    0.000   10.000    0.000    0.000    0.000    0.000 
#    0.000    0.000    0.000    0.000    0.000    0.000 
#
# Total GULP energy -111449.894515 kJ/mol
# GULP energy per Si atom -5572.494726 kJ/mol
# Density = 2.733846 g / cm^3
# Si number density = 27.400823 Si / 1000 Ang^3
#
#
#
# Elastic Constant Matrix: (Units=GPa)
#
#
# Indices 1 2 3 4 5 6 
#
# 1 61.3181 24.9580 7.3081 0.0000 -4.3945 0.0000
# 2 24.9580 93.4285 34.1070 0.0000 -3.8174 0.0000
# 3 7.3081 34.1070 285.9288 0.0000 -1.3219 0.0000
# 4 0.0000 0.0000 0.0000 43.5001 0.0000 1.6460
# 5 -4.3945 -3.8174 -1.3219 0.0000 25.5911 0.0000
# 6 0.0000 0.0000 0.0000 1.6460 0.0000 29.7613
#
#
#
# Elastic Compliance Matrix: (Units=1/GPa)
#
#
# Indices 1 2 3 4 5 6 
#
# 1 0.018453 -0.004874 0.000121 0.000000 0.002448 0.000000
# 2 -0.004874 0.012544 -0.001367 0.000000 0.000964 0.000000
# 3 0.000121 -0.001367 0.003657 0.000000 0.000006 0.000000
# 4 0.000000 0.000000 0.000000 0.023037 0.000000 -0.001274
# 5 0.002448 0.000964 0.000006 0.000000 0.039640 0.000000
# 6 0.000000 0.000000 0.000000 -0.001274 0.000000 0.033671
#
#
# Mechanical properties :
#
#
# Convention : Reuss Voigt Hill
#
# Bulk Modulus (GPa) = 44.61388 63.71355 54.16372
# Shear Modulus (GPa) = 33.17545 44.72397 38.94971
#
# Velocity S-wave (km/s) = 3.48335 4.04445 3.77434
# Velocity P-wave (km/s) = 5.70049 6.71662 6.22931
#
# Compressibility (1/GPa) = 0.02241455
#
# Stress axis : x y z
#
# Youngs Moduli (GPa) = 54.19145 79.72070 273.41814
#
# Poissons Ratio (x) = 0.38853 -0.03309
# Poissons Ratio (y) = 0.26411 0.37384
# Poissons Ratio (z) = -0.00656 0.10900
#
# Static dielectric constant tensor:
#      x y z
#    x 2.350280 0.000000 -0.101300 
#    y 0.000000 2.108900 0.000000 
#    z -0.101300 0.000000 2.372260 
# 
# From -- ./inp_files/42111.got.cif
#   From: 2010.05.17/outbox.cif.g08.bks.cpg/sg13_22_cif.got.tgz:42111.got - 2010.06.03 16:44:36.
