data_PCOD9230310
_publ_section_title
;
Structure prediction by ZEFSAII (Michael W. Deem and Ramdas Pophale) SiO2 
 PCOD9230310
Probable space group: P 2/C
;
_chemical_formula_sum "Si O2"
_cell_formula_units_Z 16
_cell_length_a 15.694121
_cell_length_b 8.932557
_cell_length_c 9.525117
_cell_angle_alpha 90.000000
_cell_angle_beta 30.419486
_cell_angle_gamma 90.000000
_cell_volume 676.105175
_symmetry_space_group_name_H-M "P 2/C"
_symmetry_group_IT_number 13
_symmetry_cell_setting 'monoclinic'
loop_
_space_group_symop_operation_xyz
x,y,z
-x,y,1/2-z
-x,-y,-z
x,-y,1/2+z
loop_
_atom_site_type_symbol
_atom_site_label
_atom_site_fract_x
_atom_site_fract_y
_atom_site_fract_z
Si Si1 0.239682 0.042944 0.104270
Si Si2 0.500000 0.531301 0.250000
Si Si3 0.284219 0.722994 0.138436
Si Si4 0.463979 0.810395 0.494671
Si Si5 0.000000 0.774118 0.750000
O O1 0.086638 0.123440 0.245356
O O2 0.219769 0.865821 0.144155
O O3 0.395419 0.087285 0.781958
O O4 0.291033 0.116205 0.182787
O O5 0.336447 0.425203 0.481420
O O6 0.476140 0.644477 0.412152
O O7 0.456693 0.784424 0.966055
O O8 0.148950 0.689908 0.454515
#
# Coordination Sequence:
#
# PCOD9230310 Si02
#       5
#     4   2   4   4   2
#     4   9  18  35  57  80 110 148 183 225 277 325
#     4  10  20  36  60  86 110 146 190 228 274 332
#     4  11  20  36  59  83 112 150 185 228 279 329
#     4   9  20  37  57  86 114 141 188 238 270 326
#     4  10  22  36  54  86 122 142 178 236 280 328
#
# _framework density 23.664957999999999
#
# number of rings (size 3 to 8) (size 9 to 14) (size 15 to 20)
#    0.000    2.500    0.000    3.750    0.000    2.000 
#    0.000   11.250    0.000   19.500    0.000    0.000 
#    0.000    0.000    0.000    0.000    0.000    0.000 
#
# Total GULP energy -89301.140025 kJ/mol
# GULP energy per Si atom -5581.321252 kJ/mol
# Density = 2.361110 g / cm^3
# Si number density = 23.664958 Si / 1000 Ang^3
#
#
#
# Elastic Constant Matrix: (Units=GPa)
#
#
# Indices 1 2 3 4 5 6 
#
# 1 93.8487 -6.6358 -2.0117 0.0000 -17.8056 0.0000
# 2 -6.6358 127.2883 41.9778 0.0000 8.5297 0.0000
# 3 -2.0117 41.9778 102.5009 0.0000 -2.3083 0.0000
# 4 0.0000 0.0000 0.0000 15.6732 0.0000 9.7223
# 5 -17.8056 8.5297 -2.3083 0.0000 34.9532 0.0000
# 6 0.0000 0.0000 0.0000 9.7223 0.0000 21.6683
#
#
#
# Elastic Compliance Matrix: (Units=1/GPa)
#
#
# Indices 1 2 3 4 5 6 
#
# 1 0.011811 0.000106 0.000324 0.000000 0.006012 0.000000
# 2 0.000106 0.009301 -0.003863 0.000000 -0.002471 0.000000
# 3 0.000324 -0.003863 0.011386 0.000000 0.001859 0.000000
# 4 0.000000 0.000000 0.000000 0.088410 0.000000 -0.039668
# 5 0.006012 -0.002471 0.001859 0.000000 0.032398 0.000000
# 6 0.000000 0.000000 0.000000 -0.039668 0.000000 0.063949
#
#
# Mechanical properties :
#
#
# Convention : Reuss Voigt Hill
#
# Bulk Modulus (GPa) = 39.01372 43.36652 41.19012
# Shear Modulus (GPa) = 21.49019 33.81279 27.65149
#
# Velocity S-wave (km/s) = 3.01674 3.78406 3.42198
# Velocity P-wave (km/s) = 5.35313 6.12023 5.74948
#
# Compressibility (1/GPa) = 0.02563201
#
# Stress axis : x y z
#
# Youngs Moduli (GPa) = 84.67033 107.51356 87.82592
#
# Poissons Ratio (x) = -0.01140 -0.02843
# Poissons Ratio (y) = -0.00898 0.33925
# Poissons Ratio (z) = -0.02741 0.41529
#
# Static dielectric constant tensor:
#      x y z
#    x 2.005470 0.000000 0.084300 
#    y 0.000000 1.918420 0.000000 
#    z 0.084300 0.000000 1.990950 
# 
# From -- ./inp_files/31919.got.cif
#   From: 2010.05.17/outbox.cif.g08.bks.cpg/sg13_16_cif.got.tgz:31919.got - 2010.06.03 16:44:36.
