data_PCOD9230624
_publ_section_title
;
Structure prediction by ZEFSAII (Michael W. Deem and Ramdas Pophale) SiO2 
 PCOD9230624
Probable space group: P 2/C
;
_chemical_formula_sum "Si O2"
_cell_formula_units_Z 18
_cell_length_a 12.639583
_cell_length_b 7.208898
_cell_length_c 7.455031
_cell_angle_alpha 90.000000
_cell_angle_beta 101.696325
_cell_angle_gamma 90.000000
_cell_volume 665.178755
_symmetry_space_group_name_H-M "P 2/C"
_symmetry_group_IT_number 13
_symmetry_cell_setting 'monoclinic'
loop_
_space_group_symop_operation_xyz
x,y,z
-x,y,1/2-z
-x,-y,-z
x,-y,1/2+z
loop_
_atom_site_type_symbol
_atom_site_label
_atom_site_fract_x
_atom_site_fract_y
_atom_site_fract_z
Si Si1 0.000000 0.181133 0.250000
Si Si2 0.836166 0.467454 0.256216
Si Si3 0.836552 0.207465 0.931425
Si Si4 0.612011 0.107311 0.692920
Si Si5 0.385115 0.297423 0.193083
O O1 0.073689 0.316990 0.153181
O O2 0.085403 0.086883 0.415043
O O3 0.871820 0.681861 0.267450
O O4 0.715389 0.416731 0.278898
O O5 0.830608 0.396632 0.046851
O O6 0.720421 0.128939 0.847978
O O7 0.500000 0.162037 0.750000
O O8 0.627146 0.216693 0.512360
O O9 0.604737 0.883570 0.674384
O O10 0.500000 0.398327 0.250000
#
# Coordination Sequence:
#
# PCOD9230624 Si02
#       5
#     2   4   4   4   4
#     4   8  22  36  64  78 130 150 202 230 302 330
#     4  10  20  37  60  88 117 155 196 240 287 344
#     4  10  20  37  60  88 117 155 196 240 287 344
#     4  11  22  39  62  88 119 155 192 241 299 353
#     4  11  22  39  62  88 119 155 192 241 299 353
#
# _framework density 27.060393000000001
#
# number of rings (size 3 to 8) (size 9 to 14) (size 15 to 20)
#    1.333    0.444    0.000    7.333    0.000    0.889 
#    0.000    5.556    0.000    0.000    0.000    0.000 
#    0.000    0.000    0.000    0.000    0.000    0.000 
#
# Total GULP energy -100379.941278 kJ/mol
# GULP energy per Si atom -5576.663404 kJ/mol
# Density = 2.699880 g / cm^3
# Si number density = 27.060393 Si / 1000 Ang^3
#
#
#
# Elastic Constant Matrix: (Units=GPa)
#
#
# Indices 1 2 3 4 5 6 
#
# 1 176.3939 24.2801 63.4901 0.0000 32.8819 0.0000
# 2 24.2801 71.5473 16.8985 0.0000 1.4156 0.0000
# 3 63.4901 16.8985 86.4947 0.0000 34.3277 0.0000
# 4 0.0000 0.0000 0.0000 25.3366 0.0000 -11.0394
# 5 32.8819 1.4156 34.3277 0.0000 59.8109 0.0000
# 6 0.0000 0.0000 0.0000 -11.0394 0.0000 98.5677
#
#
#
# Elastic Compliance Matrix: (Units=1/GPa)
#
#
# Indices 1 2 3 4 5 6 
#
# 1 0.007930 -0.001496 -0.004937 0.000000 -0.001491 0.000000
# 2 -0.001496 0.015066 -0.002629 0.000000 0.001975 0.000000
# 3 -0.004937 -0.002629 0.018903 0.000000 -0.008073 0.000000
# 4 0.000000 0.000000 0.000000 0.041493 0.000000 0.004647
# 5 -0.001491 0.001975 -0.008073 0.000000 0.022125 0.000000
# 6 0.000000 0.000000 0.000000 0.004647 0.000000 0.010666
#
#
# Mechanical properties :
#
#
# Convention : Reuss Voigt Hill
#
# Bulk Modulus (GPa) = 42.06096 60.41925 51.24010
# Shear Modulus (GPa) = 35.15373 52.06088 43.60730
#
# Velocity S-wave (km/s) = 3.60819 4.39096 4.01868
# Velocity P-wave (km/s) = 5.73897 6.93422 6.36472
#
# Compressibility (1/GPa) = 0.02377502
#
# Stress axis : x y z
#
# Youngs Moduli (GPa) = 126.10582 66.37355 52.90195
#
# Poissons Ratio (x) = 0.09926 0.26118
# Poissons Ratio (y) = 0.18859 0.13910
# Poissons Ratio (z) = 0.62259 0.17453
#
# Static dielectric constant tensor:
#      x y z
#    x 2.159880 0.000000 -0.049420 
#    y 0.000000 4.104660 0.000000 
#    z -0.049420 0.000000 2.361570 
# 
# From -- ./inp_files/14823.got.cif
#   From: 2010.05.17/outbox.cif.g08.bks.cpg/sg13_8_cif.got.tgz:14823.got - 2010.06.03 16:44:36.
