data_PCOD9230015
_publ_section_title
;
Structure prediction by ZEFSAII (Michael W. Deem and Ramdas Pophale) SiO2 
 PCOD9230015
Probable space group: P 2/C
;
_chemical_formula_sum "Si O2"
_cell_formula_units_Z 28
_cell_length_a 13.918695
_cell_length_b 7.503567
_cell_length_c 11.926737
_cell_angle_alpha 90.000000
_cell_angle_beta 95.936240
_cell_angle_gamma 90.000000
_cell_volume 1238.947201
_symmetry_space_group_name_H-M "P 2/C"
_symmetry_group_IT_number 13
_symmetry_cell_setting 'monoclinic'
loop_
_space_group_symop_operation_xyz
x,y,z
-x,y,1/2-z
-x,-y,-z
x,-y,1/2+z
loop_
_atom_site_type_symbol
_atom_site_label
_atom_site_fract_x
_atom_site_fract_y
_atom_site_fract_z
Si Si1 0.441724 0.764858 0.990111
Si Si2 0.426079 0.448889 0.829841
Si Si3 0.195065 0.698449 0.512205
Si Si4 0.890240 0.859225 0.207109
Si Si5 0.370449 0.093313 0.088945
Si Si6 0.770553 0.576798 0.307438
Si Si7 0.216553 0.184689 0.240647
O O1 0.399714 0.596211 0.919519
O O2 0.364379 0.897452 0.034683
O O3 0.510218 0.697018 0.098804
O O4 0.517648 0.859070 0.914431
O O5 0.500000 0.535200 0.750000
O O6 0.336697 0.378160 0.746958
O O7 0.126088 0.732772 0.401906
O O8 0.302597 0.777204 0.505276
O O9 0.213762 0.505127 0.567462
O O10 0.159152 0.816905 0.614101
O O11 0.838498 0.742808 0.296541
O O12 0.000000 0.893539 0.250000
O O13 0.830610 0.041966 0.185169
O O14 0.323119 0.872785 0.706137
O O15 0.789057 0.395044 0.234960
#
# Coordination Sequence:
#
# PCOD9230015 Si02
#       7
#     4   4   4   4   4   4   4
#     4  10  20  35  57  92 120 165 220 250 309 372
#     4  11  22  34  59  90 125 168 210 257 305 381
#     4   8  21  43  61  91 130 164 218 261 322 410
#     4  12  24  42  71  97 122 167 220 274 340 392
#     4   8  18  40  57  82 128 163 201 265 305 370
#     4   9  23  43  60  92 133 169 210 266 321 388
#     4   8  22  43  62  92 126 166 215 259 329 388
#
# _framework density 22.599831999999999
#
# number of rings (size 3 to 8) (size 9 to 14) (size 15 to 20)
#    1.714    0.571    0.000    2.571    4.000    2.857 
#    2.571    1.429    0.000    0.000    0.000    0.000 
#    0.000    0.000    0.000    0.000    0.000    0.000 
#
# Total GULP energy -155915.638551 kJ/mol
# GULP energy per Si atom -5568.415663 kJ/mol
# Density = 2.254839 g / cm^3
# Si number density = 22.599832 Si / 1000 Ang^3
#
#
#
# Elastic Constant Matrix: (Units=GPa)
#
#
# Indices 1 2 3 4 5 6 
#
# 1 58.4759 11.5099 0.3586 0.0000 12.3149 0.0000
# 2 11.5099 63.2329 -19.6810 0.0000 -7.3099 0.0000
# 3 0.3586 -19.6810 47.5292 0.0000 12.5776 0.0000
# 4 0.0000 0.0000 0.0000 12.0491 0.0000 -2.7636
# 5 12.3149 -7.3099 12.5776 0.0000 14.5254 0.0000
# 6 0.0000 0.0000 0.0000 -2.7636 0.0000 17.7209
#
#
#
# Elastic Compliance Matrix: (Units=1/GPa)
#
#
# Indices 1 2 3 4 5 6 
#
# 1 0.024052 -0.006136 0.004529 0.000000 -0.027401 0.000000
# 2 -0.006136 0.019851 0.005508 0.000000 0.010423 0.000000
# 3 0.004529 0.005508 0.030575 0.000000 -0.027543 0.000000
# 4 0.000000 0.000000 0.000000 0.086073 0.000000 0.013423
# 5 -0.027401 0.010423 -0.027543 0.000000 0.121170 0.000000
# 6 0.000000 0.000000 0.000000 0.013423 0.000000 0.058524
#
#
# Mechanical properties :
#
#
# Convention : Reuss Voigt Hill
#
# Bulk Modulus (GPa) = 12.15385 17.06811 14.61098
# Shear Modulus (GPa) = 13.89395 20.66244 17.27819
#
# Velocity S-wave (km/s) = 2.48217 3.02698 2.76801
# Velocity P-wave (km/s) = 3.68841 4.44809 4.08594
#
# Compressibility (1/GPa) = 0.08227849
#
# Stress axis : x y z
#
# Youngs Moduli (GPa) = 41.57721 50.37603 32.70665
#
# Poissons Ratio (x) = 0.30911 -0.14812
# Poissons Ratio (y) = 0.25512 -0.18015
# Poissons Ratio (z) = -0.18829 -0.27747
#
# Static dielectric constant tensor:
#      x y z
#    x 1.854130 0.000000 -0.060000 
#    y 0.000000 1.869460 0.000000 
#    z -0.060000 0.000000 1.937010 
# 
# From -- ./inp_files/36249.got.cif
#   From: 2010.05.17/outbox.cif.g08.bks.cpg/sg13_19_cif.got.tgz:36249.got - 2010.06.03 16:44:36.
