data_PCOD9230984
_publ_section_title
;
Structure prediction by ZEFSAII (Michael W. Deem and Ramdas Pophale) SiO2 
 PCOD9230984
Probable space group: P 2/C
;
_chemical_formula_sum "Si O2"
_cell_formula_units_Z 32
_cell_length_a 21.501945
_cell_length_b 14.403962
_cell_length_c 8.311793
_cell_angle_alpha 90.000000
_cell_angle_beta 141.504857
_cell_angle_gamma 90.000000
_cell_volume 1602.351208
_symmetry_space_group_name_H-M "P 2/C"
_symmetry_group_IT_number 13
_symmetry_cell_setting 'monoclinic'
loop_
_space_group_symop_operation_xyz
x,y,z
-x,y,1/2-z
-x,-y,-z
x,-y,1/2+z
loop_
_atom_site_type_symbol
_atom_site_label
_atom_site_fract_x
_atom_site_fract_y
_atom_site_fract_z
Si Si1 0.882239 0.537395 0.966165
Si Si2 0.815735 0.136410 0.314008
Si Si3 0.805268 0.195562 0.819644
Si Si4 0.918844 0.294293 0.337659
Si Si5 0.609326 0.887421 0.523233
Si Si6 0.392072 0.101435 0.092984
Si Si7 0.851308 0.644104 0.218186
Si Si8 0.113881 0.031856 0.724505
O O1 0.832139 0.591299 0.012572
O O2 0.000000 0.529886 0.250000
O O3 0.876258 0.605490 0.800651
O O4 0.847423 0.436150 0.844890
O O5 0.886472 0.221899 0.410790
O O6 0.702799 0.163318 0.129319
O O7 0.857326 0.081787 0.552612
O O8 0.822156 0.059752 0.185447
O O9 0.699090 0.159133 0.664855
O O10 0.785279 0.269099 0.635763
O O11 0.864940 0.107778 0.870209
O O12 0.870817 0.249637 0.082734
O O13 0.036821 0.311883 0.562893
O O14 0.616224 0.890820 0.730468
O O15 0.617398 0.993890 0.477025
O O16 0.500000 0.852835 0.250000
O O17 0.500000 0.133193 0.250000
O O18 0.000000 0.000000 0.500000
#
# Coordination Sequence:
#
# PCOD9230984 Si02
#       8
#     4   4   4   4   4   4   4   4
#     4  10  20  38  62  85 120 155 203 246 296 342
#     4  12  23  40  56  85 118 159 210 246 301 354
#     4  12  23  39  58  86 122 157 205 244 300 360
#     4  11  24  36  59  85 122 158 201 245 293 355
#     4  11  22  40  65  84 113 153 210 260 313 345
#     4  11  24  40  62  87 115 156 205 263 305 354
#     4  11  22  40  60  92 120 163 197 249 297 358
#     4  12  25  39  53  77 122 172 204 239 285 358
#
# _framework density 19.970652000000001
#
# number of rings (size 3 to 8) (size 9 to 14) (size 15 to 20)
#    0.000    0.750    2.500    7.500    3.500    3.000 
#    0.000    0.000    0.000    0.000    0.000    4.375 
#    0.000    0.000    0.000    0.000    0.000    0.000 
#
# Total GULP energy -179116.269138 kJ/mol
# GULP energy per Si atom -5597.383411 kJ/mol
# Density = 1.992520 g / cm^3
# Si number density = 19.970652 Si / 1000 Ang^3
#
#
#
# Elastic Constant Matrix: (Units=GPa)
#
#
# Indices 1 2 3 4 5 6 
#
# 1 100.6891 29.1864 38.5598 0.0000 8.7107 0.0000
# 2 29.1864 93.1715 27.4520 0.0000 5.9155 0.0000
# 3 38.5598 27.4520 65.9574 0.0000 5.3235 0.0000
# 4 0.0000 0.0000 0.0000 22.9112 0.0000 -13.5949
# 5 8.7107 5.9155 5.3235 0.0000 31.4976 0.0000
# 6 0.0000 0.0000 0.0000 -13.5949 0.0000 39.4421
#
#
#
# Elastic Compliance Matrix: (Units=1/GPa)
#
#
# Indices 1 2 3 4 5 6 
#
# 1 0.013294 -0.002039 -0.006749 0.000000 -0.002153 0.000000
# 2 -0.002039 0.012612 -0.003966 0.000000 -0.001135 0.000000
# 3 -0.006749 -0.003966 0.020831 0.000000 -0.000909 0.000000
# 4 0.000000 0.000000 0.000000 0.054869 0.000000 0.018912
# 5 -0.002153 -0.001135 -0.000909 0.000000 0.032711 0.000000
# 6 0.000000 0.000000 0.000000 0.018912 0.000000 0.031872
#
#
# Mechanical properties :
#
#
# Convention : Reuss Voigt Hill
#
# Bulk Modulus (GPa) = 47.10579 50.02381 48.56480
# Shear Modulus (GPa) = 25.15445 29.74484 27.44964
#
# Velocity S-wave (km/s) = 3.55289 3.86350 3.71145
# Velocity P-wave (km/s) = 6.36156 6.70859 6.53738
#
# Compressibility (1/GPa) = 0.02122881
#
# Stress axis : x y z
#
# Youngs Moduli (GPa) = 75.22472 79.28900 48.00552
#
# Poissons Ratio (x) = 0.16167 0.32400
# Poissons Ratio (y) = 0.15338 0.19037
# Poissons Ratio (z) = 0.50771 0.31443
#
# Static dielectric constant tensor:
#      x y z
#    x 1.777920 0.000000 -0.059050 
#    y 0.000000 1.700790 0.000000 
#    z -0.059050 0.000000 1.733960 
# 
# From -- ./inp_files/23564.got.cif
#   From: 2010.05.17/outbox.cif.g08.bks.cpg/sg13_12_cif.got.tgz:23564.got - 2010.06.03 16:44:36.
