data_PCOD9230656
_publ_section_title
;
Structure prediction by ZEFSAII (Michael W. Deem and Ramdas Pophale) SiO2 
 PCOD9230656
Probable space group: P 2/C
;
_chemical_formula_sum "Si O2"
_cell_formula_units_Z 20
_cell_length_a 18.069014
_cell_length_b 8.238607
_cell_length_c 9.093472
_cell_angle_alpha 90.000000
_cell_angle_beta 136.799819
_cell_angle_gamma 90.000000
_cell_volume 926.665031
_symmetry_space_group_name_H-M "P 2/C"
_symmetry_group_IT_number 13
_symmetry_cell_setting 'monoclinic'
loop_
_space_group_symop_operation_xyz
x,y,z
-x,y,1/2-z
-x,-y,-z
x,-y,1/2+z
loop_
_atom_site_type_symbol
_atom_site_label
_atom_site_fract_x
_atom_site_fract_y
_atom_site_fract_z
Si Si1 0.101671 0.019514 0.807977
Si Si2 0.240132 0.469391 0.116536
Si Si3 0.162899 0.719298 0.761282
Si Si4 0.745943 0.033802 0.699796
Si Si5 0.625200 0.671569 0.948080
O O1 0.073232 0.849028 0.684437
O O2 0.000000 0.081334 0.750000
O O3 0.161393 0.119211 0.768166
O O4 0.197581 0.979564 0.061599
O O5 0.154245 0.373761 0.094366
O O6 0.315729 0.560638 0.344497
O O7 0.314864 0.358351 0.120543
O O8 0.186478 0.597391 0.927307
O O9 0.260135 0.849544 0.869165
O O10 0.642960 0.144609 0.531063
O O11 0.500000 0.631948 0.750000
#
# Coordination Sequence:
#
# PCOD9230656 Si02
#       5
#     4   4   4   4   4
#     4  10  20  37  61  88 114 154 196 241 296 345
#     4  10  20  39  57  84 122 163 185 237 296 348
#     4   9  21  36  62  81 120 155 192 240 289 342
#     4  10  20  38  59  88 116 148 200 247 279 340
#     4  11  21  37  61  87 119 156 196 237 293 350
#
# _framework density 21.582771999999999
#
# number of rings (size 3 to 8) (size 9 to 14) (size 15 to 20)
#    1.200    0.800    2.000    2.400    0.000    0.000 
#    0.000   14.000    0.000    0.000    0.000    0.000 
#    0.000    0.000    0.000    0.000    0.000    0.000 
#
# Total GULP energy -111354.576062 kJ/mol
# GULP energy per Si atom -5567.728803 kJ/mol
# Density = 2.153365 g / cm^3
# Si number density = 21.582772 Si / 1000 Ang^3
#
#
#
# Elastic Constant Matrix: (Units=GPa)
#
#
# Indices 1 2 3 4 5 6 
#
# 1 48.1921 3.5559 39.0785 0.0000 -24.1100 0.0000
# 2 3.5559 72.3695 12.8775 0.0000 -6.5840 0.0000
# 3 39.0785 12.8775 67.5217 0.0000 -27.1094 0.0000
# 4 0.0000 0.0000 0.0000 23.7298 0.0000 -9.8871
# 5 -24.1100 -6.5840 -27.1094 0.0000 35.9877 0.0000
# 6 0.0000 0.0000 0.0000 -9.8871 0.0000 30.9054
#
#
#
# Elastic Compliance Matrix: (Units=1/GPa)
#
#
# Indices 1 2 3 4 5 6 
#
# 1 0.044489 0.002785 -0.020225 0.000000 0.015080 0.000000
# 2 0.002785 0.014494 -0.003673 0.000000 0.001750 0.000000
# 3 -0.020225 -0.003673 0.030831 0.000000 0.009003 0.000000
# 4 0.000000 0.000000 0.000000 0.048622 0.000000 0.015555
# 5 0.015080 0.001750 0.009003 0.000000 0.044992 0.000000
# 6 0.000000 0.000000 0.000000 0.015555 0.000000 0.037333
#
#
# Mechanical properties :
#
#
# Convention : Reuss Voigt Hill
#
# Bulk Modulus (GPa) = 21.01434 33.23414 27.12424
# Shear Modulus (GPa) = 17.93076 26.96268 22.44672
#
# Velocity S-wave (km/s) = 2.88547 3.53833 3.22845
# Velocity P-wave (km/s) = 4.56717 5.66789 5.14704
#
# Compressibility (1/GPa) = 0.04758655
#
# Stress axis : x y z
#
# Youngs Moduli (GPa) = 22.47723 68.99413 32.43538
#
# Poissons Ratio (x) = -0.19213 0.65602
# Poissons Ratio (y) = -0.06259 0.11914
# Poissons Ratio (z) = 0.45461 0.25343
#
# Static dielectric constant tensor:
#      x y z
#    x 1.808200 0.000000 -0.025010 
#    y 0.000000 1.856580 0.000000 
#    z -0.025010 0.000000 1.795080 
# 
# From -- ./inp_files/20822.got.cif
#   From: 2010.05.17/outbox.cif.g08.bks.cpg/sg13_11_cif.got.tgz:20822.got - 2010.06.03 16:44:36.
