data_PCOD9230618
_publ_section_title
;
Structure prediction by ZEFSAII (Michael W. Deem and Ramdas Pophale) SiO2 
 PCOD9230618
Probable space group: P 2/C
;
_chemical_formula_sum "Si O2"
_cell_formula_units_Z 28
_cell_length_a 12.461366
_cell_length_b 7.380562
_cell_length_c 14.992834
_cell_angle_alpha 90.000000
_cell_angle_beta 66.690232
_cell_angle_gamma 90.000000
_cell_volume 1266.370340
_symmetry_space_group_name_H-M "P 2/C"
_symmetry_group_IT_number 13
_symmetry_cell_setting 'monoclinic'
loop_
_space_group_symop_operation_xyz
x,y,z
-x,y,1/2-z
-x,-y,-z
x,-y,1/2+z
loop_
_atom_site_type_symbol
_atom_site_label
_atom_site_fract_x
_atom_site_fract_y
_atom_site_fract_z
Si Si1 0.259214 0.592547 0.520062
Si Si2 0.436396 0.647250 0.855217
Si Si3 0.907261 0.190984 0.544182
Si Si4 0.600913 0.114387 0.416089
Si Si5 0.043220 0.213687 0.330022
Si Si6 0.052268 0.617194 0.143796
Si Si7 0.278574 0.930023 0.798727
O O1 0.361830 0.490956 0.436337
O O2 0.166621 0.644603 0.474219
O O3 0.304614 0.777627 0.553187
O O4 0.188017 0.443528 0.602236
O O5 0.500000 0.558194 0.750000
O O6 0.533704 0.725583 0.887991
O O7 0.362492 0.818039 0.838128
O O8 0.975684 0.118414 0.433910
O O9 0.007180 0.267266 0.576024
O O10 0.804520 0.074033 0.624013
O O11 0.656918 0.005324 0.313293
O O12 0.500000 0.000000 0.500000
O O13 0.180947 0.206271 0.294027
O O14 0.000000 0.138794 0.250000
O O15 0.010744 0.423284 0.342349
O O16 0.000000 0.705132 0.250000
#
# Coordination Sequence:
#
# PCOD9230618 Si02
#       7
#     4   4   4   4   4   4   4
#     4  11  22  40  64  86 119 161 204 263 313 365
#     4  10  23  40  61  85 114 160 213 259 311 368
#     4  11  22  36  61  94 123 158 200 249 316 389
#     4  11  24  41  60  88 121 162 213 260 312 369
#     4  10  20  37  60  86 120 161 201 246 308 379
#     4  10  21  37  59  91 125 159 204 250 306 384
#     4  11  22  39  60  86 126 163 197 259 319 368
#
# _framework density 22.110437000000001
#
# number of rings (size 3 to 8) (size 9 to 14) (size 15 to 20)
#    0.000    1.429    0.000    7.714    0.000    4.000 
#    0.000    1.429    0.000    0.000    0.000    0.000 
#    0.000    0.000    0.000    0.000    0.000    0.000 
#
# Total GULP energy -156176.942566 kJ/mol
# GULP energy per Si atom -5577.747949 kJ/mol
# Density = 2.206011 g / cm^3
# Si number density = 22.110437 Si / 1000 Ang^3
#
#
#
# Elastic Constant Matrix: (Units=GPa)
#
#
# Indices 1 2 3 4 5 6 
#
# 1 71.3120 -2.5044 17.9791 0.0000 5.6382 0.0000
# 2 -2.5044 49.4377 31.5517 0.0000 5.9319 0.0000
# 3 17.9791 31.5517 164.9234 0.0000 -4.2741 0.0000
# 4 0.0000 0.0000 0.0000 26.6630 0.0000 -30.5277
# 5 5.6382 5.9319 -4.2741 0.0000 38.5541 0.0000
# 6 0.0000 0.0000 0.0000 -30.5277 0.0000 -1.7923
#
#
#
# Elastic Compliance Matrix: (Units=1/GPa)
#
#
# Indices 1 2 3 4 5 6 
#
# 1 0.014877 0.002472 -0.002167 0.000000 -0.002796 0.000000
# 2 0.002472 0.024098 -0.005000 0.000000 -0.004624 0.000000
# 3 -0.002167 -0.005000 0.007305 0.000000 0.001896 0.000000
# 4 0.000000 0.000000 0.000000 0.001829 0.000000 -0.031159
# 5 -0.002796 -0.004624 0.001896 0.000000 0.027268 0.000000
# 6 0.000000 0.000000 0.000000 -0.031159 0.000000 -0.027215
#
#
# Mechanical properties :
#
#
# Convention : Reuss Voigt Hill
#
# Bulk Modulus (GPa) = 27.10634 42.19177 34.64905
# Shear Modulus (GPa) = 71.58191 28.59474 50.08832
#
# Velocity S-wave (km/s) = 5.69605 3.60011 4.76475
# Velocity P-wave (km/s) = 7.45293 6.03363 6.78052
#
# Compressibility (1/GPa) = 0.03689174
#
# Stress axis : x y z
#
# Youngs Moduli (GPa) = 67.21687 41.49665 136.88669
#
# Poissons Ratio (x) = -0.10260 0.29667
# Poissons Ratio (y) = -0.16619 0.68438
# Poissons Ratio (z) = 0.14568 0.20747
#
# Static dielectric constant tensor:
#      x y z
#    x 1.859400 0.000000 0.010670 
#    y 0.000000 1.830740 0.000000 
#    z 0.010670 0.000000 1.949210 
# 
# From -- ./inp_files/50266.got.cif
#   From: 2010.05.17/outbox.cif.g08.bks.cpg/sg13_26_cif.got.tgz:50266.got - 2010.06.03 16:44:36.
