data_PCOD9230416
_publ_section_title
;
Structure prediction by ZEFSAII (Michael W. Deem and Ramdas Pophale) SiO2 
 PCOD9230416
Probable space group: P 2/C
;
_chemical_formula_sum "Si O2"
_cell_formula_units_Z 18
_cell_length_a 5.043264
_cell_length_b 12.664393
_cell_length_c 12.880825
_cell_angle_alpha 90.000000
_cell_angle_beta 108.281987
_cell_angle_gamma 90.000000
_cell_volume 781.170393
_symmetry_space_group_name_H-M "P 2/C"
_symmetry_group_IT_number 13
_symmetry_cell_setting 'monoclinic'
loop_
_space_group_symop_operation_xyz
x,y,z
-x,y,1/2-z
-x,-y,-z
x,-y,1/2+z
loop_
_atom_site_type_symbol
_atom_site_label
_atom_site_fract_x
_atom_site_fract_y
_atom_site_fract_z
Si Si1 0.500000 0.596778 0.250000
Si Si2 0.774496 0.479723 0.102156
Si Si3 0.701493 0.132742 0.506025
Si Si4 0.101582 0.928974 0.875725
Si Si5 0.099857 0.329970 0.542862
O O1 0.690654 0.514171 0.207027
O O2 0.619314 0.676803 0.353833
O O3 0.986957 0.565033 0.084756
O O4 0.500000 0.500000 0.000000
O O5 0.868005 0.363855 0.074107
O O6 0.367427 0.137424 0.452190
O O7 0.836672 0.081312 0.418868
O O8 0.872881 0.240462 0.534899
O O9 0.783242 0.049183 0.605151
O O10 0.000000 0.898295 0.750000
#
# Coordination Sequence:
#
# PCOD9230416 Si02
#       5
#     2   4   4   4   4
#     4  10  20  36  62  94 126 178 228 272 336 394
#     4   9  20  37  59  87 128 168 213 281 325 390
#     4  10  23  41  70  98 130 172 223 274 328 400
#     4  10  22  44  66  97 136 171 213 278 340 395
#     4  10  21  39  63  91 132 171 223 275 330 400
#
# _framework density 23.042346999999999
#
# number of rings (size 3 to 8) (size 9 to 14) (size 15 to 20)
#    0.000    2.222    0.000    1.333    6.222    1.778 
#    8.000    6.667    4.889    0.000    0.000    0.000 
#    0.000    0.000    0.000    0.000    0.000    0.000 
#
# Total GULP energy -100314.686845 kJ/mol
# GULP energy per Si atom -5573.038158 kJ/mol
# Density = 2.298990 g / cm^3
# Si number density = 23.042347 Si / 1000 Ang^3
#
#
#
# Elastic Constant Matrix: (Units=GPa)
#
#
# Indices 1 2 3 4 5 6 
#
# 1 67.9086 -1.6077 2.1892 0.0000 -9.4347 0.0000
# 2 -1.6077 105.4447 13.4619 0.0000 8.8466 0.0000
# 3 2.1892 13.4619 87.3231 0.0000 2.1377 0.0000
# 4 0.0000 0.0000 0.0000 10.3267 0.0000 -1.5719
# 5 -9.4347 8.8466 2.1377 0.0000 33.5044 0.0000
# 6 0.0000 0.0000 0.0000 -1.5719 0.0000 43.2947
#
#
#
# Elastic Compliance Matrix: (Units=1/GPa)
#
#
# Indices 1 2 3 4 5 6 
#
# 1 0.015347 -0.000071 -0.000481 0.000000 0.004371 0.000000
# 2 -0.000071 0.009882 -0.001459 0.000000 -0.002536 0.000000
# 3 -0.000481 -0.001459 0.011701 0.000000 -0.000497 0.000000
# 4 0.000000 0.000000 0.000000 0.097375 0.000000 0.003535
# 5 0.004371 -0.002536 -0.000497 0.000000 0.031779 0.000000
# 6 0.000000 0.000000 0.000000 0.003535 0.000000 0.023226
#
#
# Mechanical properties :
#
#
# Convention : Reuss Voigt Hill
#
# Bulk Modulus (GPa) = 30.38948 32.08482 31.23715
# Shear Modulus (GPa) = 24.47368 33.86736 29.17052
#
# Velocity S-wave (km/s) = 3.26255 3.83794 3.56188
# Velocity P-wave (km/s) = 5.23541 5.79605 5.52285
#
# Compressibility (1/GPa) = 0.03290612
#
# Stress axis : x y z
#
# Youngs Moduli (GPa) = 65.16032 101.19759 85.46332
#
# Poissons Ratio (x) = 0.00722 0.04109
# Poissons Ratio (y) = 0.00465 0.12473
# Poissons Ratio (z) = 0.03133 0.14770
#
# Static dielectric constant tensor:
#      x y z
#    x 3.692850 0.000000 1.369000 
#    y 0.000000 1.901900 0.000000 
#    z 1.369000 0.000000 2.937520 
# 
# From -- ./inp_files/25894.got.cif
#   From: 2010.05.17/outbox.cif.g08.bks.cpg/sg13_13_cif.got.tgz:25894.got - 2010.06.03 16:44:36.
