data_PCOD9230126
_publ_section_title
;
Structure prediction by ZEFSAII (Michael W. Deem and Ramdas Pophale) SiO2 
 PCOD9230126
Probable space group: P 2/C
;
_chemical_formula_sum "Si O2"
_cell_formula_units_Z 32
_cell_length_a 9.021099
_cell_length_b 16.277713
_cell_length_c 23.039693
_cell_angle_alpha 90.000000
_cell_angle_beta 152.106651
_cell_angle_gamma 90.000000
_cell_volume 1582.759805
_symmetry_space_group_name_H-M "P 2/C"
_symmetry_group_IT_number 13
_symmetry_cell_setting 'monoclinic'
loop_
_space_group_symop_operation_xyz
x,y,z
-x,y,1/2-z
-x,-y,-z
x,-y,1/2+z
loop_
_atom_site_type_symbol
_atom_site_label
_atom_site_fract_x
_atom_site_fract_y
_atom_site_fract_z
Si Si1 0.261803 0.675101 0.718784
Si Si2 0.585279 0.630447 0.431131
Si Si3 0.662619 0.306844 0.540039
Si Si4 0.249683 0.072356 0.782297
Si Si5 0.359138 0.244707 0.763811
Si Si6 0.758911 0.978210 0.540694
Si Si7 0.367960 0.555680 0.857600
Si Si8 0.913272 0.818112 0.657904
O O1 0.500000 0.695752 0.750000
O O2 0.389632 0.604072 0.804699
O O3 0.931718 0.644512 0.577466
O O4 0.177436 0.753217 0.729444
O O5 0.345877 0.670277 0.395163
O O6 0.550567 0.681649 0.360494
O O7 0.504880 0.535017 0.398861
O O8 0.549610 0.388389 0.467371
O O9 0.403811 0.235108 0.442840
O O10 0.998860 0.275915 0.635225
O O11 0.357600 0.163650 0.803031
O O12 0.000000 0.075915 0.750000
O O13 0.557926 0.021678 0.911560
O O14 0.059763 0.034561 0.661450
O O15 0.500000 0.225533 0.750000
O O16 0.863171 0.885513 0.591539
O O17 0.500000 0.000000 0.500000
O O18 0.000000 0.552295 0.750000
O O19 0.000000 0.857379 0.750000
#
# Coordination Sequence:
#
# PCOD9230126 Si02
#       8
#     4   4   4   4   4   4   4   4
#     4  11  25  42  60  91 133 171 212 271 326 392
#     4  11  25  41  68  90 124 173 221 271 332 387
#     4  11  21  41  64  94 122 170 216 274 322 394
#     4  10  20  42  64  97 128 167 215 275 323 396
#     4  12  27  42  63  93 135 177 214 264 333 399
#     4  10  20  35  67 100 128 159 220 275 330 381
#     4  12  22  42  66  96 123 163 227 280 323 387
#     4  11  19  38  65  94 126 168 219 266 325 390
#
# _framework density 20.217849000000001
#
# number of rings (size 3 to 8) (size 9 to 14) (size 15 to 20)
#    0.000    1.000    3.750    6.375    3.500    1.000 
#    0.000    1.250    0.000    0.000    0.000    0.000 
#    0.000    0.000    0.000    0.000    0.000    0.000 
#
# Total GULP energy -178863.355084 kJ/mol
# GULP energy per Si atom -5589.479846 kJ/mol
# Density = 2.017183 g / cm^3
# Si number density = 20.217849 Si / 1000 Ang^3
#
#
#
# Elastic Constant Matrix: (Units=GPa)
#
#
# Indices 1 2 3 4 5 6 
#
# 1 57.4685 -9.7996 14.8593 0.0000 1.0635 0.0000
# 2 -9.7996 59.3302 -0.4144 0.0000 0.7434 0.0000
# 3 14.8593 -0.4144 61.7523 0.0000 -9.1589 0.0000
# 4 0.0000 0.0000 0.0000 -11.8865 0.0000 20.4113
# 5 1.0635 0.7434 -9.1589 0.0000 18.3683 0.0000
# 6 0.0000 0.0000 0.0000 20.4113 0.0000 -18.3314
#
#
#
# Elastic Compliance Matrix: (Units=1/GPa)
#
#
# Indices 1 2 3 4 5 6 
#
# 1 0.019366 0.003211 -0.005209 0.000000 -0.003849 0.000000
# 2 0.003211 0.017396 -0.000851 0.000000 -0.001314 0.000000
# 3 -0.005209 -0.000851 0.018888 0.000000 0.009754 0.000000
# 4 0.000000 0.000000 0.000000 0.092245 0.000000 0.102711
# 5 -0.003849 -0.001314 0.009754 0.000000 0.059581 0.000000
# 6 0.000000 0.000000 0.000000 0.102711 0.000000 0.059814
#
#
# Mechanical properties :
#
#
# Convention : Reuss Voigt Hill
#
# Bulk Modulus (GPa) = 20.01947 20.87128 20.44537
# Shear Modulus (GPa) = 17.26280 9.22379 13.24329
#
# Velocity S-wave (km/s) = 2.92522 2.13825 2.56213
# Velocity P-wave (km/s) = 4.61872 4.05484 4.34594
#
# Compressibility (1/GPa) = 0.04995138
#
# Stress axis : x y z
#
# Youngs Moduli (GPa) = 51.63564 57.48563 52.94299
#
# Poissons Ratio (x) = -0.18456 0.27580
# Poissons Ratio (y) = -0.16578 0.04504
# Poissons Ratio (z) = 0.26899 0.04890
#
# Static dielectric constant tensor:
#      x y z
#    x 1.695070 0.000000 -0.034320 
#    y 0.000000 1.458800 0.000000 
#    z -0.034320 0.000000 1.738650 
# 
# From -- ./inp_files/85358.got.cif
#   From: 2010.05.17/outbox.cif.g08.bks.cpg/sg13_43_cif.got.tgz:85358.got - 2010.06.03 16:44:36.
