data_PCOD9230683
_publ_section_title
;
Structure prediction by ZEFSAII (Michael W. Deem and Ramdas Pophale) SiO2 
 PCOD9230683
Probable space group: P 2/C
;
_chemical_formula_sum "Si O2"
_cell_formula_units_Z 24
_cell_length_a 21.642029
_cell_length_b 5.349632
_cell_length_c 23.270160
_cell_angle_alpha 90.000000
_cell_angle_beta 155.589729
_cell_angle_gamma 90.000000
_cell_volume 1113.403773
_symmetry_space_group_name_H-M "P 2/C"
_symmetry_group_IT_number 13
_symmetry_cell_setting 'monoclinic'
loop_
_space_group_symop_operation_xyz
x,y,z
-x,y,1/2-z
-x,-y,-z
x,-y,1/2+z
loop_
_atom_site_type_symbol
_atom_site_label
_atom_site_fract_x
_atom_site_fract_y
_atom_site_fract_z
Si Si1 0.367707 0.191970 0.857441
Si Si2 0.042244 0.582445 0.914112
Si Si3 0.680311 0.453652 0.288664
Si Si4 0.406995 0.812041 0.511086
Si Si5 0.066183 0.915950 0.242409
Si Si6 0.874058 0.178412 0.371093
O O1 0.311796 0.366419 0.759624
O O2 0.388806 0.338857 0.935286
O O3 0.244089 0.980037 0.766119
O O4 0.503959 0.046433 0.941700
O O5 0.992358 0.327054 0.841641
O O6 0.953246 0.612133 0.899333
O O7 0.222427 0.573479 0.078017
O O8 0.990651 0.827401 0.835206
O O9 0.784779 0.234898 0.353702
O O10 0.512752 0.338606 0.145398
O O11 0.246563 0.890574 0.398333
O O12 0.000000 0.907549 0.250000
O O13 0.000000 0.000000 0.500000
#
# Coordination Sequence:
#
# PCOD9230683 Si02
#       6
#     4   4   4   4   4   4
#     4  10  20  37  62 102 140 179 217 267 357 427
#     4  12  25  44  71 101 136 181 234 290 344 413
#     4  11  23  36  66  99 146 176 218 276 357 424
#     4  10  23  39  65  98 140 181 223 279 343 422
#     4  12  28  50  74  95 131 186 251 296 343 403
#     4  11  20  35  61 105 144 180 216 277 346 436
#
# _framework density 21.555520999999999
#
# number of rings (size 3 to 8) (size 9 to 14) (size 15 to 20)
#    0.000    1.000    3.333    3.500    4.667    0.000 
#    0.000    0.833    0.000    0.000    0.000    0.000 
#    0.000    0.000    0.000    0.000    0.000    0.000 
#
# Total GULP energy -133883.856927 kJ/mol
# GULP energy per Si atom -5578.494039 kJ/mol
# Density = 2.150646 g / cm^3
# Si number density = 21.555521 Si / 1000 Ang^3
#
#
#
# Elastic Constant Matrix: (Units=GPa)
#
#
# Indices 1 2 3 4 5 6 
#
# 1 85.3622 22.7779 49.8233 0.0000 15.2257 0.0000
# 2 22.7779 86.8329 52.1638 0.0000 -3.9316 0.0000
# 3 49.8233 52.1638 192.9278 0.0000 10.2301 0.0000
# 4 0.0000 0.0000 0.0000 45.2620 0.0000 -11.3685
# 5 15.2257 -3.9316 10.2301 0.0000 22.3563 0.0000
# 6 0.0000 0.0000 0.0000 -11.3685 0.0000 22.8556
#
#
#
# Elastic Compliance Matrix: (Units=1/GPa)
#
#
# Indices 1 2 3 4 5 6 
#
# 1 0.015928 -0.002968 -0.002775 0.000000 -0.010100 0.000000
# 2 -0.002968 0.014703 -0.003539 0.000000 0.006227 0.000000
# 3 -0.002775 -0.003539 0.006958 0.000000 -0.001916 0.000000
# 4 0.000000 0.000000 0.000000 0.025248 0.000000 0.012558
# 5 -0.010100 0.006227 -0.001916 0.000000 0.053581 0.000000
# 6 0.000000 0.000000 0.000000 0.012558 0.000000 0.050000
#
#
# Mechanical properties :
#
#
# Convention : Reuss Voigt Hill
#
# Bulk Modulus (GPa) = 52.56408 68.29477 60.42943
# Shear Modulus (GPa) = 26.13363 34.11864 30.12613
#
# Velocity S-wave (km/s) = 3.48571 3.98279 3.74251
# Velocity P-wave (km/s) = 6.37484 7.27339 6.83889
#
# Compressibility (1/GPa) = 0.01902440
#
# Stress axis : x y z
#
# Youngs Moduli (GPa) = 62.78171 68.01349 143.70923
#
# Poissons Ratio (x) = 0.20189 0.39884
# Poissons Ratio (y) = 0.18636 0.50859
# Poissons Ratio (z) = 0.17424 0.24070
#
# Static dielectric constant tensor:
#      x y z
#    x 1.837950 0.000000 -0.092590 
#    y 0.000000 1.907340 0.000000 
#    z -0.092590 0.000000 1.993090 
# 
# From -- ./inp_files/93746.got.cif
#   From: 2010.05.17/outbox.cif.g08.bks.cpg/sg13_47_cif.got.tgz:93746.got - 2010.06.03 16:44:36.
