data_PCOD9230304
_publ_section_title
;
Structure prediction by ZEFSAII (Michael W. Deem and Ramdas Pophale) SiO2 
 PCOD9230304
Probable space group: P 2/C
;
_chemical_formula_sum "Si O2"
_cell_formula_units_Z 20
_cell_length_a 13.561537
_cell_length_b 6.246973
_cell_length_c 22.870443
_cell_angle_alpha 90.000000
_cell_angle_beta 150.604036
_cell_angle_gamma 90.000000
_cell_volume 951.032098
_symmetry_space_group_name_H-M "P 2/C"
_symmetry_group_IT_number 13
_symmetry_cell_setting 'monoclinic'
loop_
_space_group_symop_operation_xyz
x,y,z
-x,y,1/2-z
-x,-y,-z
x,-y,1/2+z
loop_
_atom_site_type_symbol
_atom_site_label
_atom_site_fract_x
_atom_site_fract_y
_atom_site_fract_z
Si Si1 0.571089 0.215212 0.681470
Si Si2 0.820121 0.591653 0.869757
Si Si3 0.387838 0.456668 0.003221
Si Si4 0.752736 0.170107 0.220855
Si Si5 0.000000 0.408671 0.250000
Si Si6 0.500000 0.092247 0.250000
O O1 0.690062 0.392905 0.779538
O O2 0.416446 0.341813 0.561005
O O3 0.719905 0.079700 0.716262
O O4 0.483490 0.053537 0.684037
O O5 0.865981 0.726436 0.834901
O O6 0.689536 0.753088 0.841068
O O7 0.000000 0.500000 0.000000
O O8 0.523683 0.266586 0.100280
O O9 0.500000 0.500000 0.000000
O O10 0.154013 0.444279 0.866541
O O11 0.869058 0.254810 0.224423
#
# Coordination Sequence:
#
# PCOD9230304 Si02
#       6
#     4   4   4   4   2   2
#     4  10  21  39  59  85 123 156 196 246 294 355
#     4  10  22  39  61  90 123 156 198 248 297 352
#     4   9  20  39  58  82 118 152 194 249 294 344
#     4   9  21  38  57  85 120 158 196 244 297 348
#     4  10  20  36  60  84 114 158 202 242 298 356
#     4  10  22  38  62  88 118 162 196 242 304 352
#
# _framework density 21.029785
#
# number of rings (size 3 to 8) (size 9 to 14) (size 15 to 20)
#    0.000    2.400    0.000    0.600    0.000   14.400 
#    0.000   14.000    0.000    0.000    0.000    0.000 
#    0.000    0.000    0.000    0.000    0.000    0.000 
#
# Total GULP energy -111615.319695 kJ/mol
# GULP energy per Si atom -5580.765985 kJ/mol
# Density = 2.098192 g / cm^3
# Si number density = 21.029785 Si / 1000 Ang^3
#
#
#
# Elastic Constant Matrix: (Units=GPa)
#
#
# Indices 1 2 3 4 5 6 
#
# 1 69.0889 14.0749 26.3290 0.0000 5.5941 0.0000
# 2 14.0749 70.1884 35.8606 0.0000 2.8658 0.0000
# 3 26.3290 35.8606 158.2605 0.0000 -11.7409 0.0000
# 4 0.0000 0.0000 0.0000 0.4533 0.0000 -1.7527
# 5 5.5941 2.8658 -11.7409 0.0000 20.8816 0.0000
# 6 0.0000 0.0000 0.0000 -1.7527 0.0000 12.5157
#
#
#
# Elastic Compliance Matrix: (Units=1/GPa)
#
#
# Indices 1 2 3 4 5 6 
#
# 1 0.016323 -0.001624 -0.002771 0.000000 -0.005708 0.000000
# 2 -0.001624 0.016681 -0.003806 0.000000 -0.003994 0.000000
# 3 -0.002771 -0.003806 0.008073 0.000000 0.005804 0.000000
# 4 0.000000 0.000000 0.000000 4.812272 0.000000 0.673910
# 5 -0.005708 -0.003994 0.005804 0.000000 0.053229 0.000000
# 6 0.000000 0.000000 0.000000 0.673910 0.000000 0.174274
#
#
# Mechanical properties :
#
#
# Convention : Reuss Voigt Hill
#
# Bulk Modulus (GPa) = 40.52846 50.00740 45.26793
# Shear Modulus (GPa) = 0.97934 21.52168 11.25051
#
# Velocity S-wave (km/s) = 0.68316 3.20252 2.31547
# Velocity P-wave (km/s) = 4.46498 6.12420 5.35919
#
# Compressibility (1/GPa) = 0.02467402
#
# Stress axis : x y z
#
# Youngs Moduli (GPa) = 61.26245 59.94980 123.87600
#
# Poissons Ratio (x) = 0.09739 0.34326
# Poissons Ratio (y) = 0.09952 0.47144
# Poissons Ratio (z) = 0.16976 0.22815
#
# Static dielectric constant tensor:
#      x y z
#    x 1.790510 0.000000 0.000760 
#    y 0.000000 1.762730 0.000000 
#    z 0.000760 0.000000 1.753590 
# 
# From -- ./inp_files/39764.got.cif
#   From: 2010.05.17/outbox.cif.g08.bks.cpg/sg13_20_cif.got.tgz:39764.got - 2010.06.03 16:44:36.
