data_PCOD9230691
_publ_section_title
;
Structure prediction by ZEFSAII (Michael W. Deem and Ramdas Pophale) SiO2 
 PCOD9230691
Probable space group: P 2/C
;
_chemical_formula_sum "Si O2"
_cell_formula_units_Z 30
_cell_length_a 8.295255
_cell_length_b 12.784439
_cell_length_c 15.610779
_cell_angle_alpha 90.000000
_cell_angle_beta 117.187278
_cell_angle_gamma 90.000000
_cell_volume 1472.619874
_symmetry_space_group_name_H-M "P 2/C"
_symmetry_group_IT_number 13
_symmetry_cell_setting 'monoclinic'
loop_
_space_group_symop_operation_xyz
x,y,z
-x,y,1/2-z
-x,-y,-z
x,-y,1/2+z
loop_
_atom_site_type_symbol
_atom_site_label
_atom_site_fract_x
_atom_site_fract_y
_atom_site_fract_z
Si Si1 0.000000 0.033482 0.250000
Si Si2 0.045886 0.333096 0.526699
Si Si3 0.030095 0.883264 0.094385
Si Si4 0.635830 0.121622 0.104332
Si Si5 0.299957 0.000698 0.559245
Si Si6 0.601221 0.333016 0.001050
Si Si7 0.214071 0.461943 0.138828
Si Si8 0.402972 0.495473 0.860642
O O1 0.824693 0.107616 0.199391
O O2 0.994566 0.953023 0.327832
O O3 0.010794 0.240888 0.585424
O O4 0.227493 0.307248 0.517024
O O5 0.086146 0.440034 0.585997
O O6 0.888333 0.358753 0.419699
O O7 0.228761 0.914417 0.108371
O O8 0.870024 0.922671 0.992529
O O9 0.479808 0.064273 0.120103
O O10 0.573012 0.235860 0.057905
O O11 0.666232 0.059001 0.022592
O O12 0.647587 0.432688 0.071422
O O13 0.434832 0.376367 0.902179
O O14 0.398279 0.473715 0.128174
O O15 0.269020 0.477196 0.250734
#
# Coordination Sequence:
#
# PCOD9230691 Si02
#       8
#     2   4   4   4   4   4   4   4
#     4  10  24  40  58  92 136 148 220 262 294 378
#     4  10  20  37  63  84 120 163 199 242 325 360
#     4  10  20  41  59  87 121 166 199 264 303 370
#     4  10  20  39  59  91 117 165 200 258 307 373
#     4   9  20  38  62  80 120 158 207 242 311 367
#     4  10  20  37  62  87 118 161 196 254 313 366
#     4   9  20  39  57  87 118 157 204 255 296 381
#     4   9  20  39  57  88 121 149 208 257 298 369
#
# _framework density 20.371853999999999
#
# number of rings (size 3 to 8) (size 9 to 14) (size 15 to 20)
#    0.000    2.400    1.333    0.000    1.867    2.133 
#    7.200    1.333    0.000    0.000    0.000    0.000 
#    0.000    0.000    0.000    0.000    0.000    0.000 
#
# Total GULP energy -167141.034614 kJ/mol
# GULP energy per Si atom -5571.367820 kJ/mol
# Density = 2.032549 g / cm^3
# Si number density = 20.371854 Si / 1000 Ang^3
#
#
#
# Elastic Constant Matrix: (Units=GPa)
#
#
# Indices 1 2 3 4 5 6 
#
# 1 45.8437 16.4989 16.2829 0.0000 12.4876 0.0000
# 2 16.4989 65.5854 -2.9478 0.0000 1.9102 0.0000
# 3 16.2829 -2.9478 70.4137 0.0000 3.3509 0.0000
# 4 0.0000 0.0000 0.0000 23.1504 0.0000 -3.3306
# 5 12.4876 1.9102 3.3509 0.0000 23.4114 0.0000
# 6 0.0000 0.0000 0.0000 -3.3306 0.0000 18.5042
#
#
#
# Elastic Compliance Matrix: (Units=1/GPa)
#
#
# Indices 1 2 3 4 5 6 
#
# 1 0.031071 -0.007686 -0.006794 0.000000 -0.014974 0.000000
# 2 -0.007686 0.017219 0.002386 0.000000 0.002353 0.000000
# 3 -0.006794 0.002386 0.015817 0.000000 0.001165 0.000000
# 4 0.000000 0.000000 0.000000 0.044344 0.000000 0.007982
# 5 -0.014974 0.002353 0.001165 0.000000 0.050342 0.000000
# 6 0.000000 0.000000 0.000000 0.007982 0.000000 0.055479
#
#
# Mechanical properties :
#
#
# Convention : Reuss Voigt Hill
#
# Bulk Modulus (GPa) = 25.04975 26.83454 25.94214
# Shear Modulus (GPa) = 19.85958 23.14711 21.50335
#
# Velocity S-wave (km/s) = 3.12565 3.37446 3.25244
# Velocity P-wave (km/s) = 5.03480 5.32762 5.18328
#
# Compressibility (1/GPa) = 0.03992056
#
# Stress axis : x y z
#
# Youngs Moduli (GPa) = 32.18403 58.07394 63.22159
#
# Poissons Ratio (x) = 0.44634 0.42955
# Poissons Ratio (y) = 0.24736 -0.15086
# Poissons Ratio (z) = 0.21867 -0.13857
#
# Static dielectric constant tensor:
#      x y z
#    x 1.742390 0.000000 0.005290 
#    y 0.000000 1.806150 0.000000 
#    z 0.005290 0.000000 1.754440 
# 
# From -- ./inp_files/64471.got.cif
#   From: 2010.05.17/outbox.cif.g08.bks.cpg/sg13_33_cif.got.tgz:64471.got - 2010.06.03 16:44:36.
