data_PCOD9230609
_publ_section_title
;
Structure prediction by ZEFSAII (Michael W. Deem and Ramdas Pophale) SiO2 
 PCOD9230609
Probable space group: P 2/C
;
_chemical_formula_sum "Si O2"
_cell_formula_units_Z 28
_cell_length_a 9.197443
_cell_length_b 19.983596
_cell_length_c 16.154857
_cell_angle_alpha 90.000000
_cell_angle_beta 28.570896
_cell_angle_gamma 90.000000
_cell_volume 1420.021902
_symmetry_space_group_name_H-M "P 2/C"
_symmetry_group_IT_number 13
_symmetry_cell_setting 'monoclinic'
loop_
_space_group_symop_operation_xyz
x,y,z
-x,y,1/2-z
-x,-y,-z
x,-y,1/2+z
loop_
_atom_site_type_symbol
_atom_site_label
_atom_site_fract_x
_atom_site_fract_y
_atom_site_fract_z
Si Si1 0.646567 0.298254 0.523304
Si Si2 0.632144 0.074140 0.433928
Si Si3 0.367153 0.843369 0.403328
Si Si4 0.360517 0.431952 0.727623
Si Si5 0.639484 0.568048 0.588140
Si Si6 0.367154 0.843369 0.729519
Si Si7 0.646566 0.701746 0.830130
O O1 0.539057 0.233823 0.628022
O O2 0.456353 0.364830 0.633184
O O3 0.639807 0.279314 0.430096
O O4 0.000001 0.312247 0.368478
O O5 0.538288 0.113462 0.564159
O O6 0.538287 0.113462 0.397554
O O7 0.000000 0.071871 0.250000
O O8 0.500000 0.000000 0.500000
O O9 0.500000 0.867534 0.250000
O O10 1.000000 0.844185 0.583813
O O11 0.500000 0.426123 0.750000
O O12 0.500000 0.500000 0.620547
O O13 0.000000 0.438378 0.912761
O O14 0.500000 0.573878 0.750000
O O15 0.543648 0.635170 0.589537
O O16 0.500000 0.867534 0.750000
O O17 0.460944 0.766177 0.667079
#
# Coordination Sequence:
#
# PCOD9230609 Si02
#       7
#     4   4   4   4   4   4   4
#     4  10  20  37  60  84 115 155 196 245 302 358
#     4  10  22  42  64  90 125 162 199 242 297 356
#     4  10  21  39  63  90 122 161 202 246 298 358
#     4  11  22  37  56  80 112 151 197 249 301 359
#     4  11  22  37  56  80 112 151 197 249 301 359
#     4  10  21  39  63  90 122 161 202 246 298 358
#     4  10  20  37  60  84 115 155 196 245 302 358
#
# _framework density 19.718005000000002
#
# number of rings (size 3 to 8) (size 9 to 14) (size 15 to 20)
#    0.000    1.714    1.429    4.286    0.000    6.286 
#    0.000    2.857    0.000    0.000    0.000    0.000 
#    0.000    0.000    0.000    0.000    0.000    0.000 
#
# Total GULP energy -156449.363370 kJ/mol
# GULP energy per Si atom -5587.477263 kJ/mol
# Density = 1.967313 g / cm^3
# Si number density = 19.718005 Si / 1000 Ang^3
#
#
#
# Elastic Constant Matrix: (Units=GPa)
#
#
# Indices 1 2 3 4 5 6 
#
# 1 100.8357 55.3883 33.6483 0.0000 12.9289 0.0000
# 2 55.3883 130.7065 46.8784 0.0000 8.6953 0.0000
# 3 33.6483 46.8784 81.2064 0.0000 7.1278 0.0000
# 4 0.0000 0.0000 0.0000 49.9048 0.0000 -24.1734
# 5 12.9289 8.6953 7.1278 0.0000 33.1945 0.0000
# 6 0.0000 0.0000 0.0000 -24.1734 0.0000 26.2500
#
#
#
# Elastic Compliance Matrix: (Units=1/GPa)
#
#
# Indices 1 2 3 4 5 6 
#
# 1 0.013843 -0.004645 -0.002740 0.000000 -0.003587 0.000000
# 2 -0.004645 0.011267 -0.004565 0.000000 -0.000162 0.000000
# 3 -0.002740 -0.004565 0.016192 0.000000 -0.001214 0.000000
# 4 0.000000 0.000000 0.000000 0.036175 0.000000 0.033313
# 5 -0.003587 -0.000162 -0.001214 0.000000 0.031826 0.000000
# 6 0.000000 0.000000 0.000000 0.033313 0.000000 0.068773
#
#
# Mechanical properties :
#
#
# Convention : Reuss Voigt Hill
#
# Bulk Modulus (GPa) = 57.46606 64.95319 61.20962
# Shear Modulus (GPa) = 24.06453 33.65875 28.86164
#
# Velocity S-wave (km/s) = 3.49726 4.13607 3.83001
# Velocity P-wave (km/s) = 6.74648 7.47142 7.11818
#
# Compressibility (1/GPa) = 0.01740158
#
# Stress axis : x y z
#
# Youngs Moduli (GPa) = 72.24128 88.75323 61.76063
#
# Poissons Ratio (x) = 0.41224 0.16920
# Poissons Ratio (y) = 0.33554 0.28197
# Poissons Ratio (z) = 0.19791 0.40520
#
# Static dielectric constant tensor:
#      x y z
#    x 1.693940 0.000000 0.014220 
#    y 0.000000 1.686590 0.000000 
#    z 0.014220 0.000000 1.680030 
# 
# From -- ./inp_files/48211.got.cif
#   From: 2010.05.17/outbox.cif.g08.bks.cpg/sg13_25_cif.got.tgz:48211.got - 2010.06.03 16:44:36.
