data_PCOD9230092
_publ_section_title
;
Structure prediction by ZEFSAII (Michael W. Deem and Ramdas Pophale) SiO2 
 PCOD9230092
Probable space group: P 2/C
;
_chemical_formula_sum "Si O2"
_cell_formula_units_Z 28
_cell_length_a 7.962927
_cell_length_b 14.630338
_cell_length_c 18.828345
_cell_angle_alpha 90.000000
_cell_angle_beta 146.194781
_cell_angle_gamma 90.000000
_cell_volume 1220.404965
_symmetry_space_group_name_H-M "P 2/C"
_symmetry_group_IT_number 13
_symmetry_cell_setting 'monoclinic'
loop_
_space_group_symop_operation_xyz
x,y,z
-x,y,1/2-z
-x,-y,-z
x,-y,1/2+z
loop_
_atom_site_type_symbol
_atom_site_label
_atom_site_fract_x
_atom_site_fract_y
_atom_site_fract_z
Si Si1 0.632276 0.631248 0.683714
Si Si2 0.971317 0.677009 0.946884
Si Si3 0.649691 0.010111 0.130185
Si Si4 0.429529 0.562864 0.304286
Si Si5 0.442278 0.204153 0.436571
Si Si6 0.918742 0.738448 0.304565
Si Si7 0.661279 0.842221 0.433753
O O1 0.845757 0.660984 0.823757
O O2 0.290940 0.645525 0.592609
O O3 0.660170 0.523443 0.679921
O O4 0.671728 0.699363 0.632154
O O5 0.276720 0.617655 0.064613
O O6 0.048934 0.784199 0.987390
O O7 0.658107 0.118476 0.146746
O O8 0.000000 0.976307 0.250000
O O9 0.426069 0.949091 0.099701
O O10 0.500000 0.000000 0.000000
O O11 0.500000 0.526720 0.250000
O O12 0.163132 0.636228 0.201730
O O13 0.359734 0.184468 0.489483
O O14 0.803074 0.212470 0.561736
O O15 0.616109 0.796043 0.204807
O O16 0.000000 0.733427 0.250000
#
# Coordination Sequence:
#
# PCOD9230092 Si02
#       7
#     4   4   4   4   4   4   4
#     4  11  23  36  54  84 118 149 191 241 290 337
#     4  10  22  38  56  83 116 150 191 243 288 337
#     4  10  20  35  61  91 115 149 192 234 286 350
#     4  11  21  38  62  79 107 158 202 230 280 352
#     4  10  21  35  60  88 117 146 191 236 290 342
#     4   9  19  38  55  84 114 147 186 246 285 333
#     4   9  19  38  60  83 116 147 189 237 287 345
#
# _framework density 22.943203
#
# number of rings (size 3 to 8) (size 9 to 14) (size 15 to 20)
#    0.000    2.000    1.429    3.429    6.000    0.000 
#    2.571    2.857    0.000    0.000    0.000    0.000 
#    0.000    0.000    0.000    0.000    0.000    0.000 
#
# Total GULP energy -156372.121953 kJ/mol
# GULP energy per Si atom -5584.718641 kJ/mol
# Density = 2.289098 g / cm^3
# Si number density = 22.943203 Si / 1000 Ang^3
#
#
#
# Elastic Constant Matrix: (Units=GPa)
#
#
# Indices 1 2 3 4 5 6 
#
# 1 39.8749 11.3976 7.0600 0.0000 2.4375 0.0000
# 2 11.3976 139.1296 10.4580 0.0000 9.7332 0.0000
# 3 7.0600 10.4580 105.2735 0.0000 12.6394 0.0000
# 4 0.0000 0.0000 0.0000 -2.3886 0.0000 29.0662
# 5 2.4375 9.7332 12.6394 0.0000 28.2472 0.0000
# 6 0.0000 0.0000 0.0000 29.0662 0.0000 8.7742
#
#
#
# Elastic Compliance Matrix: (Units=1/GPa)
#
#
# Indices 1 2 3 4 5 6 
#
# 1 0.025947 -0.001953 -0.001435 0.000000 -0.000924 0.000000
# 2 -0.001953 0.007532 -0.000344 0.000000 -0.002273 0.000000
# 3 -0.001435 -0.000344 0.010145 0.000000 -0.004297 0.000000
# 4 0.000000 0.000000 0.000000 -0.010134 0.000000 0.033571
# 5 -0.000924 -0.002273 -0.004297 0.000000 0.038187 0.000000
# 6 0.000000 0.000000 0.000000 0.033571 0.000000 0.002759
#
#
# Mechanical properties :
#
#
# Convention : Reuss Voigt Hill
#
# Bulk Modulus (GPa) = 27.65501 38.01211 32.83356
# Shear Modulus (GPa) = 53.21646 23.95072 38.58359
#
# Velocity S-wave (km/s) = 4.82133 3.23447 4.10530
# Velocity P-wave (km/s) = 6.56304 5.52747 6.06739
#
# Compressibility (1/GPa) = 0.03615981
#
# Stress axis : x y z
#
# Youngs Moduli (GPa) = 38.53969 132.75923 98.56631
#
# Poissons Ratio (x) = 0.25929 0.14146
# Poissons Ratio (y) = 0.07527 0.03395
# Poissons Ratio (z) = 0.05531 0.04572
#
# Static dielectric constant tensor:
#      x y z
#    x 1.898710 0.000000 0.003130 
#    y 0.000000 1.916110 0.000000 
#    z 0.003130 0.000000 1.877400 
# 
# From -- ./inp_files/76700.got.cif
#   From: 2010.05.17/outbox.cif.g08.bks.cpg/sg13_39_cif.got.tgz:76700.got - 2010.06.03 16:44:36.
