data_PCOD9230917
_publ_section_title
;
Structure prediction by ZEFSAII (Michael W. Deem and Ramdas Pophale) SiO2 
 PCOD9230917
Probable space group: P 2/C
;
_chemical_formula_sum "Si O2"
_cell_formula_units_Z 30
_cell_length_a 24.043694
_cell_length_b 9.440638
_cell_length_c 8.382851
_cell_angle_alpha 90.000000
_cell_angle_beta 129.455456
_cell_angle_gamma 90.000000
_cell_volume 1469.191632
_symmetry_space_group_name_H-M "P 2/C"
_symmetry_group_IT_number 13
_symmetry_cell_setting 'monoclinic'
loop_
_space_group_symop_operation_xyz
x,y,z
-x,y,1/2-z
-x,-y,-z
x,-y,1/2+z
loop_
_atom_site_type_symbol
_atom_site_label
_atom_site_fract_x
_atom_site_fract_y
_atom_site_fract_z
Si Si1 0.079508 0.189475 0.948313
Si Si2 0.903112 0.114414 0.875744
Si Si3 0.511431 0.844372 0.580700
Si Si4 0.867440 0.573296 0.716189
Si Si5 0.204267 0.680775 0.220016
Si Si6 0.000000 0.668388 0.750000
Si Si7 0.635913 0.647960 0.870872
Si Si8 0.571592 0.588788 0.090421
O O1 0.111411 0.140834 0.836866
O O2 0.000000 0.237781 0.750000
O O3 0.119473 0.311561 0.119768
O O4 0.075282 0.046354 0.046730
O O5 0.831549 0.164791 0.836167
O O6 0.961531 0.224562 0.055256
O O7 0.410459 0.770055 0.801730
O O8 0.449977 0.744225 0.390951
O O9 0.500000 0.000000 0.500000
O O10 0.500000 0.848819 0.750000
O O11 0.807639 0.623288 0.480095
O O12 0.841732 0.426913 0.749238
O O13 0.941379 0.578003 0.743999
O O14 0.285518 0.687805 0.427466
O O15 0.637186 0.502355 0.775422
O O16 0.587646 0.605779 0.934678
O O17 0.500000 0.500000 0.000000
#
# Coordination Sequence:
#
# PCOD9230917 Si02
#       8
#     4   4   4   4   4   2   4   4
#     4  12  22  41  65  88 111 154 201 272 321 361
#     4  11  22  38  62  88 120 150 209 254 318 371
#     4   9  19  35  57  92 123 147 196 246 282 333
#     4  11  24  40  61  86 121 153 212 260 315 370
#     4  11  24  42  56  87 125 167 198 250 310 386
#     4  10  20  38  60  88 112 158 194 272 314 358
#     4  10  20  38  61  83 127 164 196 238 302 361
#     4   9  18  34  61  91 114 153 200 245 284 344
#
# _framework density 20.419391000000001
#
# number of rings (size 3 to 8) (size 9 to 14) (size 15 to 20)
#    0.000    1.600    2.000    4.800    0.000    4.267 
#    6.000    6.667    0.000    0.000    0.000    0.000 
#    0.000    0.000    0.000    0.000    0.000    0.000 
#
# Total GULP energy -167362.772469 kJ/mol
# GULP energy per Si atom -5578.759082 kJ/mol
# Density = 2.037292 g / cm^3
# Si number density = 20.419391 Si / 1000 Ang^3
#
#
#
# Elastic Constant Matrix: (Units=GPa)
#
#
# Indices 1 2 3 4 5 6 
#
# 1 49.2443 21.4121 22.1539 0.0000 0.3736 0.0000
# 2 21.4121 110.4749 43.4836 0.0000 6.1185 0.0000
# 3 22.1539 43.4836 111.5440 0.0000 15.3491 0.0000
# 4 0.0000 0.0000 0.0000 35.5914 0.0000 -9.4939
# 5 0.3736 6.1185 15.3491 0.0000 35.8785 0.0000
# 6 0.0000 0.0000 0.0000 -9.4939 0.0000 22.7323
#
#
#
# Elastic Compliance Matrix: (Units=1/GPa)
#
#
# Indices 1 2 3 4 5 6 
#
# 1 0.023319 -0.003188 -0.003644 0.000000 0.001860 0.000000
# 2 -0.003188 0.011128 -0.003664 0.000000 -0.000297 0.000000
# 3 -0.003644 -0.003664 0.011716 0.000000 -0.004349 0.000000
# 4 0.000000 0.000000 0.000000 0.031619 0.000000 0.013205
# 5 0.001860 -0.000297 -0.004349 0.000000 0.029764 0.000000
# 6 0.000000 0.000000 0.000000 0.013205 0.000000 0.049505
#
#
# Mechanical properties :
#
#
# Convention : Reuss Voigt Hill
#
# Bulk Modulus (GPa) = 39.73082 49.48471 44.60776
# Shear Modulus (GPa) = 26.81908 31.12134 28.97021
#
# Velocity S-wave (km/s) = 3.62803 3.90822 3.77073
# Velocity P-wave (km/s) = 6.08686 6.68224 6.39148
#
# Compressibility (1/GPa) = 0.02516938
#
# Stress axis : x y z
#
# Youngs Moduli (GPa) = 42.88421 89.85989 85.35477
#
# Poissons Ratio (x) = 0.28648 0.31107
# Poissons Ratio (y) = 0.13672 0.31275
# Poissons Ratio (z) = 0.15629 0.32926
#
# Static dielectric constant tensor:
#      x y z
#    x 1.772850 0.000000 -0.013570 
#    y 0.000000 1.744050 0.000000 
#    z -0.013570 0.000000 1.774730 
# 
# From -- ./inp_files/24446.got.cif
#   From: 2010.05.17/outbox.cif.g08.bks.cpg/sg13_13_cif.got.tgz:24446.got - 2010.06.03 16:44:36.
