data_PCOD9230643
_publ_section_title
;
Structure prediction by ZEFSAII (Michael W. Deem and Ramdas Pophale) SiO2 
 PCOD9230643
Probable space group: P 2/C
;
_chemical_formula_sum "Si O2"
_cell_formula_units_Z 20
_cell_length_a 26.007450
_cell_length_b 5.296623
_cell_length_c 16.979611
_cell_angle_alpha 90.000000
_cell_angle_beta 160.002680
_cell_angle_gamma 90.000000
_cell_volume 799.871898
_symmetry_space_group_name_H-M "P 2/C"
_symmetry_group_IT_number 13
_symmetry_cell_setting 'monoclinic'
loop_
_space_group_symop_operation_xyz
x,y,z
-x,y,1/2-z
-x,-y,-z
x,-y,1/2+z
loop_
_atom_site_type_symbol
_atom_site_label
_atom_site_fract_x
_atom_site_fract_y
_atom_site_fract_z
Si Si1 0.517510 0.603932 0.436164
Si Si2 0.864262 0.493622 0.664078
Si Si3 0.411743 0.106667 0.011474
Si Si4 0.161005 0.987725 0.777090
Si Si5 0.790980 0.577470 0.382631
O O1 0.500000 0.500000 0.500000
O O2 0.494063 0.367556 0.345368
O O3 0.701824 0.629710 0.703200
O O4 0.476408 0.881552 0.350798
O O5 0.852477 0.207813 0.676620
O O6 0.778596 0.538217 0.458331
O O7 0.818261 0.704870 0.660548
O O8 0.037003 0.562737 0.893086
O O9 0.304695 0.054211 0.930433
O O10 0.295848 0.174352 0.772781
O O11 0.000000 0.000000 0.500000
#
# Coordination Sequence:
#
# PCOD9230643 Si02
#       5
#     4   4   4   4   4
#     4  10  20  37  61  82 107 145 198 238 273 324
#     4  11  23  34  57  84 122 149 179 241 281 352
#     4  10  21  35  58  83 109 142 195 231 277 346
#     4  12  21  36  55  83 119 154 186 222 297 339
#     4   9  23  35  57  85 115 146 196 226 291 326
#
# _framework density 25.004003000000001
#
# number of rings (size 3 to 8) (size 9 to 14) (size 15 to 20)
#    1.200    0.400    2.000    3.600    2.800    1.600 
#    0.000    0.000    0.000    7.200    0.000    0.000 
#    0.000    0.000    0.000    0.000    0.000    0.000 
#
# Total GULP energy -111687.110243 kJ/mol
# GULP energy per Si atom -5584.355512 kJ/mol
# Density = 2.494709 g / cm^3
# Si number density = 25.004003 Si / 1000 Ang^3
#
#
#
# Elastic Constant Matrix: (Units=GPa)
#
#
# Indices 1 2 3 4 5 6 
#
# 1 100.0838 14.2969 -25.0574 0.0000 1.3647 0.0000
# 2 14.2969 150.5780 -11.1669 0.0000 -5.9562 0.0000
# 3 -25.0574 -11.1669 78.6769 0.0000 -15.5708 0.0000
# 4 0.0000 0.0000 0.0000 29.0471 0.0000 -1.7215
# 5 1.3647 -5.9562 -15.5708 0.0000 28.9020 0.0000
# 6 0.0000 0.0000 0.0000 -1.7215 0.0000 33.4028
#
#
#
# Elastic Compliance Matrix: (Units=1/GPa)
#
#
# Indices 1 2 3 4 5 6 
#
# 1 0.010992 -0.000721 0.003656 0.000000 0.001302 0.000000
# 2 -0.000721 0.006877 0.001157 0.000000 0.002075 0.000000
# 3 0.003656 0.001157 0.015729 0.000000 0.008540 0.000000
# 4 0.000000 0.000000 0.000000 0.034532 0.000000 0.001780
# 5 0.001302 0.002075 0.008540 0.000000 0.039567 0.000000
# 6 0.000000 0.000000 0.000000 0.001780 0.000000 0.030029
#
#
# Mechanical properties :
#
#
# Convention : Reuss Voigt Hill
#
# Bulk Modulus (GPa) = 23.93301 31.72043 27.82672
# Shear Modulus (GPa) = 34.85051 41.68812 38.26931
#
# Velocity S-wave (km/s) = 3.73741 4.08764 3.91644
# Velocity P-wave (km/s) = 5.31194 5.91541 5.62178
#
# Compressibility (1/GPa) = 0.04178330
#
# Stress axis : x y z
#
# Youngs Moduli (GPa) = 90.97313 145.40343 63.57688
#
# Poissons Ratio (x) = 0.10484 -0.23245
# Poissons Ratio (y) = 0.06559 -0.07357
# Poissons Ratio (z) = -0.33262 -0.16825
#
# Static dielectric constant tensor:
#      x y z
#    x 2.058200 0.000000 0.095730 
#    y 0.000000 1.988430 0.000000 
#    z 0.095730 0.000000 2.056760 
# 
# From -- ./inp_files/58248.got.cif
#   From: 2010.05.17/outbox.cif.g08.bks.cpg/sg13_30_cif.got.tgz:58248.got - 2010.06.03 16:44:36.
