data_PCOD9230258
_publ_section_title
;
Structure prediction by ZEFSAII (Michael W. Deem and Ramdas Pophale) SiO2 
 PCOD9230258
Probable space group: P 2/C
;
_chemical_formula_sum "Si O2"
_cell_formula_units_Z 24
_cell_length_a 20.638493
_cell_length_b 5.139814
_cell_length_c 17.254309
_cell_angle_alpha 90.000000
_cell_angle_beta 32.758738
_cell_angle_gamma 90.000000
_cell_volume 990.381869
_symmetry_space_group_name_H-M "P 2/C"
_symmetry_group_IT_number 13
_symmetry_cell_setting 'monoclinic'
loop_
_space_group_symop_operation_xyz
x,y,z
-x,y,1/2-z
-x,-y,-z
x,-y,1/2+z
loop_
_atom_site_type_symbol
_atom_site_label
_atom_site_fract_x
_atom_site_fract_y
_atom_site_fract_z
Si Si1 0.250442 0.330865 0.024679
Si Si2 0.935409 0.584388 0.192142
Si Si3 0.103094 0.211554 0.416418
Si Si4 0.627174 0.153739 0.164447
Si Si5 0.261763 0.974907 0.148565
Si Si6 0.504310 0.747842 0.549067
O O1 0.315662 0.588852 0.930444
O O2 0.282705 0.092070 0.934763
O O3 0.114407 0.414474 0.186390
O O4 0.300083 0.212163 0.055744
O O5 0.902318 0.429539 0.145872
O O6 0.854404 0.843204 0.273889
O O7 0.070828 0.671366 0.033240
O O8 0.224514 0.064751 0.271994
O O9 0.000000 0.000000 0.500000
O O10 0.500000 0.087491 0.250000
O O11 0.591978 0.230197 0.286651
O O12 0.364527 0.765702 0.045760
O O13 0.500000 0.500000 0.500000
O O14 0.500000 0.000000 0.500000
#
# Coordination Sequence:
#
# PCOD9230258 Si02
#       6
#     4   4   4   4   4   4
#     4  11  20  33  60  86 118 150 206 259 316 356
#     4   9  16  31  54  92 127 147 191 260 323 367
#     4   8  16  28  53  87 130 149 189 248 333 370
#     4  12  23  38  61  85 116 168 215 258 308 362
#     4  10  20  36  58  87 126 165 202 260 311 365
#     4  12  28  43  59  87 131 174 218 257 311 379
#
# _framework density 24.233076000000001
#
# number of rings (size 3 to 8) (size 9 to 14) (size 15 to 20)
#    0.000    1.667    3.333    1.500    7.000    0.000 
#    0.000    0.000    0.000    0.000    0.000    1.167 
#   15.000    0.000    0.000    0.000    0.000    0.000 
#
# Total GULP energy -133934.436131 kJ/mol
# GULP energy per Si atom -5580.601505 kJ/mol
# Density = 2.417792 g / cm^3
# Si number density = 24.233076 Si / 1000 Ang^3
#
#
#
# Elastic Constant Matrix: (Units=GPa)
#
#
# Indices 1 2 3 4 5 6 
#
# 1 39.9590 18.1930 37.9671 0.0000 12.4137 0.0000
# 2 18.1930 166.8989 90.2767 0.0000 20.3280 0.0000
# 3 37.9671 90.2767 242.7029 0.0000 44.6399 0.0000
# 4 0.0000 0.0000 0.0000 58.9539 0.0000 18.5674
# 5 12.4137 20.3280 44.6399 0.0000 26.5207 0.0000
# 6 0.0000 0.0000 0.0000 18.5674 0.0000 19.1287
#
#
#
# Elastic Compliance Matrix: (Units=1/GPa)
#
#
# Indices 1 2 3 4 5 6 
#
# 1 0.030919 -0.000692 -0.002919 0.000000 -0.009029 0.000000
# 2 -0.000692 0.007559 -0.002458 0.000000 -0.001332 0.000000
# 3 -0.002919 -0.002458 0.007088 0.000000 -0.008680 0.000000
# 4 0.000000 0.000000 0.000000 0.024431 0.000000 -0.023714
# 5 -0.009029 -0.001332 -0.008680 0.000000 0.057563 0.000000
# 6 0.000000 0.000000 0.000000 -0.023714 0.000000 0.075296
#
#
# Mechanical properties :
#
#
# Convention : Reuss Voigt Hill
#
# Bulk Modulus (GPa) = 29.91528 82.49270 56.20399
# Shear Modulus (GPa) = 22.11050 41.12891 31.61971
#
# Velocity S-wave (km/s) = 3.02389 4.12420 3.61614
# Velocity P-wave (km/s) = 4.95616 7.53618 6.37799
#
# Compressibility (1/GPa) = 0.03342773
#
# Stress axis : x y z
#
# Youngs Moduli (GPa) = 32.34262 132.29056 141.08904
#
# Poissons Ratio (x) = 0.09153 0.41179
# Poissons Ratio (y) = 0.02238 0.34687
# Poissons Ratio (z) = 0.09440 0.32523
#
# Static dielectric constant tensor:
#      x y z
#    x 2.015680 0.000000 -0.012520 
#    y 0.000000 1.949700 0.000000 
#    z -0.012520 0.000000 2.025530 
# 
# From -- ./inp_files/70873.got.cif
#   From: 2010.05.17/outbox.cif.g08.bks.cpg/sg13_36_cif.got.tgz:70873.got - 2010.06.03 16:44:36.
