data_PCOD9230753
_publ_section_title
;
Structure prediction by ZEFSAII (Michael W. Deem and Ramdas Pophale) SiO2 
 PCOD9230753
Probable space group: P 2/C
;
_chemical_formula_sum "Si O2"
_cell_formula_units_Z 26
_cell_length_a 30.424384
_cell_length_b 5.029779
_cell_length_c 17.389516
_cell_angle_alpha 90.000000
_cell_angle_beta 27.236178
_cell_angle_gamma 90.000000
_cell_volume 1217.869103
_symmetry_space_group_name_H-M "P 2/C"
_symmetry_group_IT_number 13
_symmetry_cell_setting 'monoclinic'
loop_
_space_group_symop_operation_xyz
x,y,z
-x,y,1/2-z
-x,-y,-z
x,-y,1/2+z
loop_
_atom_site_type_symbol
_atom_site_label
_atom_site_fract_x
_atom_site_fract_y
_atom_site_fract_z
Si Si1 0.885470 0.727464 0.943760
Si Si2 0.868997 0.034405 0.119746
Si Si3 0.658420 0.843075 0.594237
Si Si4 0.692884 0.645839 0.948309
Si Si5 0.051692 0.708726 0.364026
Si Si6 0.195083 0.747042 0.012500
Si Si7 0.500000 0.423526 0.250000
O O1 0.822210 0.468165 0.025503
O O2 0.000000 0.688753 0.750000
O O3 0.848280 0.972291 0.948098
O O4 0.862763 0.807699 0.066619
O O5 0.899905 0.929975 0.156369
O O6 0.776204 0.219205 0.270303
O O7 0.964987 0.189350 0.946266
O O8 0.715713 0.646967 0.445343
O O9 0.700031 0.786477 0.613522
O O10 0.551402 0.752754 0.736036
O O11 0.676741 0.146813 0.543392
O O12 0.586118 0.600340 0.080885
O O13 0.131828 0.620269 0.180252
O O14 0.000000 0.500000 0.500000
#
# Coordination Sequence:
#
# PCOD9230753 Si02
#       7
#     4   4   4   4   4   4   2
#     4  12  26  42  57  89 135 181 206 248 313 378
#     4  11  24  39  61  93 126 167 217 260 313 370
#     4  10  20  38  63  96 119 157 204 269 321 368
#     4  10  20  37  63  95 120 154 204 271 320 366
#     4  11  23  38  63  90 123 169 214 272 296 365
#     4  12  24  41  63  88 132 171 213 250 309 385
#     4   8  22  36  66  96 124 146 208 284 330 364
#
# _framework density 21.348766000000001
#
# number of rings (size 3 to 8) (size 9 to 14) (size 15 to 20)
#    0.923    0.308    3.077    3.692    4.308    0.000 
#    0.000    0.000    0.000    1.846    0.000    0.000 
#    0.000    0.000    0.000    0.000    0.000    0.000 
#
# Total GULP energy -144976.828799 kJ/mol
# GULP energy per Si atom -5576.031877 kJ/mol
# Density = 2.130017 g / cm^3
# Si number density = 21.348766 Si / 1000 Ang^3
#
#
#
# Elastic Constant Matrix: (Units=GPa)
#
#
# Indices 1 2 3 4 5 6 
#
# 1 93.9532 10.9380 27.9722 0.0000 -32.8916 0.0000
# 2 10.9380 69.5261 0.6069 0.0000 -20.6983 0.0000
# 3 27.9722 0.6069 73.0567 0.0000 -32.8244 0.0000
# 4 0.0000 0.0000 0.0000 28.1023 0.0000 3.9111
# 5 -32.8916 -20.6983 -32.8244 0.0000 41.6933 0.0000
# 6 0.0000 0.0000 0.0000 3.9111 0.0000 29.6787
#
#
#
# Elastic Compliance Matrix: (Units=1/GPa)
#
#
# Indices 1 2 3 4 5 6 
#
# 1 0.014814 0.001289 -0.000224 0.000000 0.012150 0.000000
# 2 0.001289 0.018618 0.006130 0.000000 0.015085 0.000000
# 3 -0.000224 0.006130 0.023226 0.000000 0.021152 0.000000
# 4 0.000000 0.000000 0.000000 0.036249 0.000000 -0.004777
# 5 0.012150 0.015085 0.021152 0.000000 0.057711 0.000000
# 6 0.000000 0.000000 0.000000 -0.004777 0.000000 0.034324
#
#
# Mechanical properties :
#
#
# Convention : Reuss Voigt Hill
#
# Bulk Modulus (GPa) = 14.07518 35.06335 24.56927
# Shear Modulus (GPa) = 25.74197 33.02945 29.38571
#
# Velocity S-wave (km/s) = 3.47621 3.93763 3.71409
# Velocity P-wave (km/s) = 4.76648 6.09368 5.47048
#
# Compressibility (1/GPa) = 0.07104704
#
# Stress axis : x y z
#
# Youngs Moduli (GPa) = 67.50498 53.71232 43.05441
#
# Poissons Ratio (x) = -0.06921 0.00963
# Poissons Ratio (y) = -0.08699 -0.26391
# Poissons Ratio (z) = 0.01509 -0.32923
#
# Static dielectric constant tensor:
#      x y z
#    x 1.811140 0.000000 -0.010310 
#    y 0.000000 1.829060 0.000000 
#    z -0.010310 0.000000 1.828390 
# 
# From -- ./inp_files/71668.got.cif
#   From: 2010.05.17/outbox.cif.g08.bks.cpg/sg13_36_cif.got.tgz:71668.got - 2010.06.03 16:44:36.
