data_PCOD9230724
_publ_section_title
;
Structure prediction by ZEFSAII (Michael W. Deem and Ramdas Pophale) SiO2 
 PCOD9230724
Probable space group: P 2/C
;
_chemical_formula_sum "Si O2"
_cell_formula_units_Z 26
_cell_length_a 19.766655
_cell_length_b 5.257593
_cell_length_c 16.112671
_cell_angle_alpha 90.000000
_cell_angle_beta 142.381575
_cell_angle_gamma 90.000000
_cell_volume 1022.120619
_symmetry_space_group_name_H-M "P 2/C"
_symmetry_group_IT_number 13
_symmetry_cell_setting 'monoclinic'
loop_
_space_group_symop_operation_xyz
x,y,z
-x,y,1/2-z
-x,-y,-z
x,-y,1/2+z
loop_
_atom_site_type_symbol
_atom_site_label
_atom_site_fract_x
_atom_site_fract_y
_atom_site_fract_z
Si Si1 0.704069 0.622686 0.594851
Si Si2 0.463871 0.453373 0.812600
Si Si3 0.000000 0.655641 0.750000
Si Si4 0.173729 0.121532 0.718572
Si Si5 0.799009 0.623956 0.042291
Si Si6 0.613995 0.041771 0.307689
Si Si7 0.922821 0.058237 0.541180
O O1 0.571435 0.604279 0.471833
O O2 0.759054 0.881589 0.678961
O O3 0.722726 0.584182 0.513241
O O4 0.762114 0.379827 0.695413
O O5 0.500000 0.481664 0.750000
O O6 0.405835 0.721019 0.773241
O O7 0.379644 0.219632 0.735259
O O8 0.909514 0.463584 0.698889
O O9 0.938995 0.848776 0.628966
O O10 0.046632 0.113319 0.629043
O O11 0.153050 0.067067 0.602262
O O12 0.859599 0.691956 0.014417
O O13 0.716026 0.865701 0.963718
O O14 0.500000 0.015565 0.250000
#
# Coordination Sequence:
#
# PCOD9230724 Si02
#       7
#     4   4   2   4   4   4   4
#     4  12  23  44  74 104 137 186 241 298 352 427
#     4  10  20  37  63 103 127 172 231 294 344 412
#     4  12  24  42  70 106 138 182 238 304 348 414
#     4  11  27  46  70  99 150 200 229 283 368 438
#     4  12  25  41  70 108 143 177 246 302 348 413
#     4  10  21  37  64 100 135 173 223 298 353 399
#     4  11  27  45  67 103 149 193 240 290 357 431
#
# _framework density 25.43731
#
# number of rings (size 3 to 8) (size 9 to 14) (size 15 to 20)
#    0.000    0.923    4.615    3.231    6.462    1.231 
#    0.000    0.000    0.000    5.538    0.000    0.000 
#    0.000    0.000    0.000    0.000    0.000    0.000 
#
# Total GULP energy -144974.243055 kJ/mol
# GULP energy per Si atom -5575.932425 kJ/mol
# Density = 2.537941 g / cm^3
# Si number density = 25.437310 Si / 1000 Ang^3
#
#
#
# Elastic Constant Matrix: (Units=GPa)
#
#
# Indices 1 2 3 4 5 6 
#
# 1 40.4398 5.4808 35.3543 0.0000 -6.2082 0.0000
# 2 5.4808 68.7688 30.0479 0.0000 -10.5751 0.0000
# 3 35.3543 30.0479 158.8184 0.0000 -1.4516 0.0000
# 4 0.0000 0.0000 0.0000 98.5015 0.0000 79.6934
# 5 -6.2082 -10.5751 -1.4516 0.0000 29.3267 0.0000
# 6 0.0000 0.0000 0.0000 79.6934 0.0000 32.2898
#
#
#
# Elastic Compliance Matrix: (Units=1/GPa)
#
#
# Indices 1 2 3 4 5 6 
#
# 1 0.032043 0.001765 -0.007403 0.000000 0.007054 0.000000
# 2 0.001765 0.016914 -0.003536 0.000000 0.006298 0.000000
# 3 -0.007403 -0.003536 0.008591 0.000000 -0.002417 0.000000
# 4 0.000000 0.000000 0.000000 -0.010185 0.000000 0.025136
# 5 0.007054 0.006298 -0.002417 0.000000 0.037743 0.000000
# 6 0.000000 0.000000 0.000000 0.025136 0.000000 -0.031069
#
#
# Mechanical properties :
#
#
# Convention : Reuss Voigt Hill
#
# Bulk Modulus (GPa) = 25.50818 45.53256 35.52037
# Shear Modulus (GPa) = 58.51247 45.16654 51.83951
#
# Velocity S-wave (km/s) = 4.80131 4.21836 4.51924
# Velocity P-wave (km/s) = 6.38642 6.45483 6.42072
#
# Compressibility (1/GPa) = 0.03920312
#
# Stress axis : x y z
#
# Youngs Moduli (GPa) = 31.20765 59.12239 116.39796
#
# Poissons Ratio (x) = -0.10437 0.86166
# Poissons Ratio (y) = -0.05509 0.41153
# Poissons Ratio (z) = 0.23102 0.20903
#
# Static dielectric constant tensor:
#      x y z
#    x 2.148910 0.000000 0.030340 
#    y 0.000000 2.059160 0.000000 
#    z 0.030340 0.000000 2.066690 
# 
# From -- ./inp_files/70976.got.cif
#   From: 2010.05.17/outbox.cif.g08.bks.cpg/sg13_36_cif.got.tgz:70976.got - 2010.06.03 16:44:36.
