data_PCOD9230612
_publ_section_title
;
Structure prediction by ZEFSAII (Michael W. Deem and Ramdas Pophale) SiO2 
 PCOD9230612
Probable space group: P 2/C
;
_chemical_formula_sum "Si O2"
_cell_formula_units_Z 24
_cell_length_a 17.543382
_cell_length_b 7.783567
_cell_length_c 11.035784
_cell_angle_alpha 90.000000
_cell_angle_beta 41.501985
_cell_angle_gamma 90.000000
_cell_volume 998.565960
_symmetry_space_group_name_H-M "P 2/C"
_symmetry_group_IT_number 13
_symmetry_cell_setting 'monoclinic'
loop_
_space_group_symop_operation_xyz
x,y,z
-x,y,1/2-z
-x,-y,-z
x,-y,1/2+z
loop_
_atom_site_type_symbol
_atom_site_label
_atom_site_fract_x
_atom_site_fract_y
_atom_site_fract_z
Si Si1 0.599057 0.079405 0.036479
Si Si2 0.163925 0.902501 0.091208
Si Si3 0.670772 0.610379 0.313986
Si Si4 0.193597 0.278136 0.068902
Si Si5 0.697444 0.230864 0.297071
Si Si6 0.904018 0.588350 0.196550
O O1 0.500000 0.042684 0.250000
O O2 0.718835 0.086964 0.968642
O O3 0.588946 0.265032 0.986571
O O4 0.614956 0.931022 0.917531
O O5 0.078776 0.777397 0.266442
O O6 0.130404 0.100812 0.111110
O O7 0.207902 0.815897 0.915586
O O8 0.638157 0.412051 0.338476
O O9 0.791857 0.607764 0.244108
O O10 0.702362 0.693717 0.147954
O O11 0.240462 0.256768 0.148477
O O12 0.123733 0.455484 0.161359
O O13 0.000000 0.500000 0.000000
#
# Coordination Sequence:
#
# PCOD9230612 Si02
#       6
#     4   4   4   4   4   4
#     4  10  22  38  60  89 118 155 206 252 294 353
#     4  10  20  39  62  82 120 161 195 245 304 352
#     4  10  20  39  62  82 121 159 194 245 305 351
#     4  10  20  37  61  85 118 159 194 238 303 357
#     4  10  20  37  60  84 117 161 195 236 302 355
#     4  10  22  38  62  88 114 154 205 246 294 356
#
# _framework density 24.034466999999999
#
# number of rings (size 3 to 8) (size 9 to 14) (size 15 to 20)
#    0.000    2.000    3.333    0.000    0.000    2.667 
#    0.000    0.833    7.333    0.000    0.000    0.000 
#    0.000    0.000    0.000    0.000    0.000    0.000 
#
# Total GULP energy -134210.447264 kJ/mol
# GULP energy per Si atom -5592.101969 kJ/mol
# Density = 2.397976 g / cm^3
# Si number density = 24.034467 Si / 1000 Ang^3
#
#
#
# Elastic Constant Matrix: (Units=GPa)
#
#
# Indices 1 2 3 4 5 6 
#
# 1 66.6454 9.8959 2.8251 0.0000 -0.4068 0.0000
# 2 9.8959 164.2708 57.3379 0.0000 13.7056 0.0000
# 3 2.8251 57.3379 114.7559 0.0000 13.8782 0.0000
# 4 0.0000 0.0000 0.0000 46.7719 0.0000 14.4240
# 5 -0.4068 13.7056 13.8782 0.0000 37.2781 0.0000
# 6 0.0000 0.0000 0.0000 14.4240 0.0000 16.9489
#
#
#
# Elastic Compliance Matrix: (Units=1/GPa)
#
#
# Indices 1 2 3 4 5 6 
#
# 1 0.015150 -0.000973 0.000052 0.000000 0.000504 0.000000
# 2 -0.000973 0.007507 -0.003552 0.000000 -0.001448 0.000000
# 3 0.000052 -0.003552 0.010816 0.000000 -0.002720 0.000000
# 4 0.000000 0.000000 0.000000 0.028988 0.000000 -0.024670
# 5 0.000504 -0.001448 -0.002720 0.000000 0.028376 0.000000
# 6 0.000000 0.000000 0.000000 -0.024670 0.000000 0.079995
#
#
# Mechanical properties :
#
#
# Convention : Reuss Voigt Hill
#
# Bulk Modulus (GPa) = 40.76869 53.97667 47.37268
# Shear Modulus (GPa) = 26.60233 38.57401 32.58817
#
# Velocity S-wave (km/s) = 3.33053 4.01052 3.68624
# Velocity P-wave (km/s) = 5.63820 6.62967 6.15394
#
# Compressibility (1/GPa) = 0.02452863
#
# Stress axis : x y z
#
# Youngs Moduli (GPa) = 66.00617 133.21584 92.45202
#
# Poissons Ratio (x) = 0.12961 -0.00483
# Poissons Ratio (y) = 0.06422 0.32835
# Poissons Ratio (z) = -0.00345 0.47313
#
# Static dielectric constant tensor:
#      x y z
#    x 1.972500 0.000000 -0.027040 
#    y 0.000000 1.972710 0.000000 
#    z -0.027040 0.000000 1.854340 
# 
# From -- ./inp_files/41543.got.cif
#   From: 2010.05.17/outbox.cif.g08.bks.cpg/sg13_21_cif.got.tgz:41543.got - 2010.06.03 16:44:36.
