data_PCOD9230403
_publ_section_title
;
Structure prediction by ZEFSAII (Michael W. Deem and Ramdas Pophale) SiO2 
 PCOD9230403
Probable space group: P 2/C
;
_chemical_formula_sum "Si O2"
_cell_formula_units_Z 26
_cell_length_a 7.355290
_cell_length_b 17.622975
_cell_length_c 13.948447
_cell_angle_alpha 90.000000
_cell_angle_beta 138.244954
_cell_angle_gamma 90.000000
_cell_volume 1204.050741
_symmetry_space_group_name_H-M "P 2/C"
_symmetry_group_IT_number 13
_symmetry_cell_setting 'monoclinic'
loop_
_space_group_symop_operation_xyz
x,y,z
-x,y,1/2-z
-x,-y,-z
x,-y,1/2+z
loop_
_atom_site_type_symbol
_atom_site_label
_atom_site_fract_x
_atom_site_fract_y
_atom_site_fract_z
Si Si1 0.348301 0.459992 0.528669
Si Si2 0.424498 0.086011 0.082802
Si Si3 0.891610 0.689242 0.500972
Si Si4 0.091378 0.844271 0.626647
Si Si5 0.081122 0.587146 0.170560
Si Si6 0.500000 0.200569 0.750000
Si Si7 0.522912 0.910032 0.110942
O O1 0.500000 0.500000 0.500000
O O2 0.192224 0.379210 0.462115
O O3 0.605833 0.441498 0.698637
O O4 0.107918 0.520765 0.447037
O O5 0.707974 0.130073 0.210746
O O6 0.218530 0.119269 0.080006
O O7 0.339992 0.093728 0.939110
O O8 0.490963 0.997598 0.126772
O O9 0.956406 0.653694 0.421845
O O10 0.634641 0.742359 0.377337
O O11 0.097965 0.752643 0.620322
O O12 0.787821 0.877745 0.518896
O O13 0.000000 0.605095 0.250000
O O14 0.664491 0.141850 0.747426
#
# Coordination Sequence:
#
# PCOD9230403 Si02
#       7
#     4   4   4   4   4   2   4
#     4  10  21  41  64  93 121 167 217 263 331 407
#     4  10  21  41  61  92 129 171 226 272 327 402
#     4  11  21  39  61  86 129 162 204 270 329 389
#     4  10  22  39  60  93 129 169 215 275 335 388
#     4  10  21  39  65  93 124 165 216 265 327 412
#     4  10  20  36  62  90 122 166 204 262 328 384
#     4  10  21  38  66  88 124 176 220 272 327 391
#
# _framework density 21.593774
#
# number of rings (size 3 to 8) (size 9 to 14) (size 15 to 20)
#    0.000    1.846    1.538    2.308    0.000    2.462 
#    8.308   11.538    0.000    0.000    0.000    0.000 
#    0.000    0.000    0.000    0.000    0.000    0.000 
#
# Total GULP energy -144799.312734 kJ/mol
# GULP energy per Si atom -5569.204336 kJ/mol
# Density = 2.154463 g / cm^3
# Si number density = 21.593774 Si / 1000 Ang^3
#
#
#
# Elastic Constant Matrix: (Units=GPa)
#
#
# Indices 1 2 3 4 5 6 
#
# 1 77.4866 52.6949 10.4215 0.0000 -33.0770 0.0000
# 2 52.6949 165.4452 28.9844 0.0000 -8.0508 0.0000
# 3 10.4215 28.9844 49.1178 0.0000 2.9033 0.0000
# 4 0.0000 0.0000 0.0000 -4.8366 0.0000 -0.3990
# 5 -33.0770 -8.0508 2.9033 0.0000 36.6604 0.0000
# 6 0.0000 0.0000 0.0000 -0.3990 0.0000 -26.6014
#
#
#
# Elastic Compliance Matrix: (Units=1/GPa)
#
#
# Indices 1 2 3 4 5 6 
#
# 1 0.028986 -0.007465 -0.003209 0.000000 0.024768 0.000000
# 2 -0.007465 0.008784 -0.003331 0.000000 -0.004542 0.000000
# 3 -0.003209 -0.003331 0.023330 0.000000 -0.005475 0.000000
# 4 0.000000 0.000000 0.000000 -0.207012 0.000000 0.003105
# 5 0.024768 -0.004542 -0.005475 0.000000 0.049060 0.000000
# 6 0.000000 0.000000 0.000000 0.003105 0.000000 -0.037639
#
#
# Mechanical properties :
#
#
# Convention : Reuss Voigt Hill
#
# Bulk Modulus (GPa) = 30.22094 52.91677 41.56885
# Shear Modulus (GPa) = -52.38390 14.37441 -19.00475
#
# Velocity S-wave (km/s) = -4.93067 2.58286 -2.96987
# Velocity P-wave (km/s) = 4.28832 5.78392 2.74445
#
# Compressibility (1/GPa) = 0.03308964
#
# Stress axis : x y z
#
# Youngs Moduli (GPa) = 34.49917 113.83744 42.86403
#
# Poissons Ratio (x) = 0.84977 0.13756
# Poissons Ratio (y) = 0.25753 0.14280
# Poissons Ratio (z) = 0.11071 0.37924
#
# Static dielectric constant tensor:
#      x y z
#    x 1.800390 0.000000 -0.027880 
#    y 0.000000 1.773210 0.000000 
#    z -0.027880 0.000000 1.870830 
# 
# From -- ./inp_files/47946.got.cif
#   From: 2010.05.17/outbox.cif.g08.bks.cpg/sg13_24_cif.got.tgz:47946.got - 2010.06.03 16:44:36.
