data_PCOD9230009
_publ_section_title
;
Structure prediction by ZEFSAII (Michael W. Deem and Ramdas Pophale) SiO2 
 PCOD9230009
Probable space group: P 2/C
;
_chemical_formula_sum "Si O2"
_cell_formula_units_Z 32
_cell_length_a 21.446423
_cell_length_b 15.618147
_cell_length_c 15.470483
_cell_angle_alpha 90.000000
_cell_angle_beta 162.604980
_cell_angle_gamma 90.000000
_cell_volume 1549.166902
_symmetry_space_group_name_H-M "P 2/C"
_symmetry_group_IT_number 13
_symmetry_cell_setting 'monoclinic'
loop_
_space_group_symop_operation_xyz
x,y,z
-x,y,1/2-z
-x,-y,-z
x,-y,1/2+z
loop_
_atom_site_type_symbol
_atom_site_label
_atom_site_fract_x
_atom_site_fract_y
_atom_site_fract_z
Si Si1 0.679945 0.953929 0.294209
Si Si2 0.451491 0.821624 0.083292
Si Si3 0.184753 0.608714 0.337859
Si Si4 0.085844 0.052812 0.033692
Si Si5 0.512591 0.501076 0.675352
Si Si6 0.693973 0.644574 0.690935
Si Si7 0.245512 0.735339 0.555998
Si Si8 0.319976 0.102105 0.080040
O O1 0.641143 0.856889 0.272913
O O2 0.867972 0.984056 0.481664
O O3 0.676431 0.007595 0.377731
O O4 0.500000 0.000000 0.000000
O O5 0.500000 0.826963 0.250000
O O6 0.272982 0.889015 0.817099
O O7 0.373394 0.726811 0.954769
O O8 0.330720 0.573145 0.453167
O O9 0.259130 0.543473 0.513576
O O10 0.264490 0.697338 0.484739
O O11 0.937573 0.617097 0.996894
O O12 0.906193 0.114788 0.760512
O O13 0.000000 0.000000 0.000000
O O14 0.500000 0.449099 0.750000
O O15 0.449797 0.437045 0.518519
O O16 0.667391 0.675611 0.754005
O O17 0.342434 0.829282 0.685998
O O18 0.000000 0.740387 0.250000
O O19 0.500000 0.113042 0.250000
#
# Coordination Sequence:
#
# PCOD9230009 Si02
#       8
#     4   4   4   4   4   4   4   4
#     4  10  20  38  58  85 126 165 211 258 302 366
#     4  11  23  38  60  89 125 162 214 260 321 377
#     4   8  19  35  57  87 121 147 204 250 316 370
#     4  11  22  38  62  90 119 173 216 259 313 360
#     4   8  19  34  58  86 117 150 199 244 312 371
#     4  11  19  36  61  88 119 163 198 255 318 379
#     4  10  20  35  57  88 121 159 207 263 311 361
#     4  12  23  36  61  92 129 166 219 260 306 369
#
# _framework density 20.656264
#
# number of rings (size 3 to 8) (size 9 to 14) (size 15 to 20)
#    0.750    1.000    0.000    7.500    1.750    0.500 
#    0.000    0.000    0.000    0.000    0.000    0.000 
#    0.000    0.000    0.000    0.000    0.000    0.000 
#
# Total GULP energy -178149.257776 kJ/mol
# GULP energy per Si atom -5567.164305 kJ/mol
# Density = 2.060925 g / cm^3
# Si number density = 20.656264 Si / 1000 Ang^3
#
#
#
# Elastic Constant Matrix: (Units=GPa)
#
#
# Indices 1 2 3 4 5 6 
#
# 1 88.6548 40.8058 31.1096 0.0000 -1.9595 0.0000
# 2 40.8058 109.9987 43.4941 0.0000 0.3076 0.0000
# 3 31.1096 43.4941 90.5707 0.0000 -7.0480 0.0000
# 4 0.0000 0.0000 0.0000 36.1732 0.0000 -15.6782
# 5 -1.9595 0.3076 -7.0480 0.0000 25.4319 0.0000
# 6 0.0000 0.0000 0.0000 -15.6782 0.0000 31.0748
#
#
#
# Elastic Compliance Matrix: (Units=1/GPa)
#
#
# Indices 1 2 3 4 5 6 
#
# 1 0.014195 -0.004135 -0.002863 0.000000 0.000350 0.000000
# 2 -0.004135 0.012496 -0.004719 0.000000 -0.001777 0.000000
# 3 -0.002863 -0.004719 0.014592 0.000000 0.003881 0.000000
# 4 0.000000 0.000000 0.000000 0.035382 0.000000 0.017851
# 5 0.000350 -0.001777 0.003881 0.000000 0.040445 0.000000
# 6 0.000000 0.000000 0.000000 0.017851 0.000000 0.041187
#
#
# Mechanical properties :
#
#
# Convention : Reuss Voigt Hill
#
# Bulk Modulus (GPa) = 56.02150 57.78258 56.90204
# Shear Modulus (GPa) = 26.64105 30.12362 28.38234
#
# Velocity S-wave (km/s) = 3.59518 3.82295 3.71081
# Velocity P-wave (km/s) = 6.66434 6.89353 6.77990
#
# Compressibility (1/GPa) = 0.01785029
#
# Stress axis : x y z
#
# Youngs Moduli (GPa) = 70.44593 80.02730 68.52839
#
# Poissons Ratio (x) = 0.33091 0.19619
# Poissons Ratio (y) = 0.29129 0.32337
# Poissons Ratio (z) = 0.20168 0.37763
#
# Static dielectric constant tensor:
#      x y z
#    x 1.779650 0.000000 0.004540 
#    y 0.000000 1.796260 0.000000 
#    z 0.004540 0.000000 1.805650 
# 
# From -- ./inp_files/57873.got.cif
#   From: 2010.05.17/outbox.cif.g08.bks.cpg/sg13_29_cif.got.tgz:57873.got - 2010.06.03 16:44:36.
