data_PCOD9230564
_publ_section_title
;
Structure prediction by ZEFSAII (Michael W. Deem and Ramdas Pophale) SiO2 
 PCOD9230564
Probable space group: P 2/C
;
_chemical_formula_sum "Si O2"
_cell_formula_units_Z 30
_cell_length_a 18.806028
_cell_length_b 8.364192
_cell_length_c 8.691065
_cell_angle_alpha 90.000000
_cell_angle_beta 96.540267
_cell_angle_gamma 90.000000
_cell_volume 1358.183553
_symmetry_space_group_name_H-M "P 2/C"
_symmetry_group_IT_number 13
_symmetry_cell_setting 'monoclinic'
loop_
_space_group_symop_operation_xyz
x,y,z
-x,y,1/2-z
-x,-y,-z
x,-y,1/2+z
loop_
_atom_site_type_symbol
_atom_site_label
_atom_site_fract_x
_atom_site_fract_y
_atom_site_fract_z
Si Si1 0.451049 0.792497 0.477580
Si Si2 0.589789 0.878888 0.377502
Si Si3 0.276773 0.169667 0.384141
Si Si4 0.781814 0.601413 0.412641
Si Si5 0.208838 0.168348 0.867006
Si Si6 0.905181 0.651806 0.996248
Si Si7 0.000000 0.441179 0.250000
Si Si8 0.328256 0.341689 0.105199
O O1 0.533922 0.767690 0.458051
O O2 0.416574 0.841236 0.303963
O O3 0.405562 0.654105 0.546259
O O4 0.439468 0.944444 0.587329
O O5 0.669123 0.865122 0.462262
O O6 0.225310 0.312025 0.425275
O O7 0.323648 0.231641 0.254562
O O8 0.231719 0.011979 0.340014
O O9 0.799693 0.732180 0.290632
O O10 0.842075 0.468250 0.430872
O O11 0.706336 0.512288 0.365688
O O12 0.136956 0.194465 0.949430
O O13 0.274197 0.253720 0.973587
O O14 0.948261 0.558644 0.140317
O O15 0.957110 0.664999 0.863131
#
# Coordination Sequence:
#
# PCOD9230564 Si02
#       8
#     4   4   4   4   4   4   2   4
#     4  10  20  37  58  88 129 170 223 274 318 392
#     4  10  21  36  59  90 127 171 222 267 330 387
#     4  12  24  38  64  97 128 172 215 278 336 391
#     4  11  24  42  62  97 131 170 217 270 330 394
#     4  11  22  39  61  95 132 166 217 270 323 381
#     4  10  21  40  69  98 128 177 213 265 304 399
#     4  10  20  40  70 100 128 174 228 242 326 388
#     4  11  22  37  62  91 128 171 216 278 327 383
#
# _framework density 22.088325000000001
#
# number of rings (size 3 to 8) (size 9 to 14) (size 15 to 20)
#    0.000    1.333    2.667    4.000    1.867    1.600 
#    0.000    0.667    0.000    6.400    0.000    0.000 
#    0.000    0.000    0.000    0.000    0.000    0.000 
#
# Total GULP energy -167823.464396 kJ/mol
# GULP energy per Si atom -5594.115480 kJ/mol
# Density = 2.203805 g / cm^3
# Si number density = 22.088325 Si / 1000 Ang^3
#
#
#
# Elastic Constant Matrix: (Units=GPa)
#
#
# Indices 1 2 3 4 5 6 
#
# 1 92.8738 29.9822 31.6645 0.0000 -27.9397 0.0000
# 2 29.9822 82.8620 23.5252 0.0000 -19.0741 0.0000
# 3 31.6645 23.5252 99.6107 0.0000 -23.7980 0.0000
# 4 0.0000 0.0000 0.0000 16.6086 0.0000 -0.0111
# 5 -27.9397 -19.0741 -23.7980 0.0000 43.5926 0.0000
# 6 0.0000 0.0000 0.0000 -0.0111 0.0000 16.5371
#
#
#
# Elastic Compliance Matrix: (Units=1/GPa)
#
#
# Indices 1 2 3 4 5 6 
#
# 1 0.014569 -0.003068 -0.002296 0.000000 0.006742 0.000000
# 2 -0.003068 0.014433 -0.001604 0.000000 0.003474 0.000000
# 3 -0.002296 -0.001604 0.012223 0.000000 0.004499 0.000000
# 4 0.000000 0.000000 0.000000 0.060210 0.000000 0.000040
# 5 0.006742 0.003474 0.004499 0.000000 0.031237 0.000000
# 6 0.000000 0.000000 0.000000 0.000040 0.000000 0.060470
#
#
# Mechanical properties :
#
#
# Convention : Reuss Voigt Hill
#
# Bulk Modulus (GPa) = 36.64369 49.52114 43.08241
# Shear Modulus (GPa) = 23.12971 28.02595 25.57783
#
# Velocity S-wave (km/s) = 3.23947 3.56590 3.40660
# Velocity P-wave (km/s) = 5.53334 6.27873 5.91779
#
# Compressibility (1/GPa) = 0.02728983
#
# Stress axis : x y z
#
# Youngs Moduli (GPa) = 68.64101 69.28496 81.81575
#
# Poissons Ratio (x) = 0.21254 0.18784
# Poissons Ratio (y) = 0.21057 0.13120
# Poissons Ratio (z) = 0.15759 0.11111
#
# Static dielectric constant tensor:
#      x y z
#    x 1.838860 0.000000 -0.014920 
#    y 0.000000 1.816980 0.000000 
#    z -0.014920 0.000000 1.833810 
# 
# From -- ./inp_files/22783.got.cif
#   From: 2010.05.17/outbox.cif.g08.bks.cpg/sg13_12_cif.got.tgz:22783.got - 2010.06.03 16:44:36.
