data_PCOD9230028
_publ_section_title
;
Structure prediction by ZEFSAII (Michael W. Deem and Ramdas Pophale) SiO2 
 PCOD9230028
Probable space group: P 2/C
;
_chemical_formula_sum "Si O2"
_cell_formula_units_Z 16
_cell_length_a 11.392689
_cell_length_b 7.405949
_cell_length_c 8.365238
_cell_angle_alpha 90.000000
_cell_angle_beta 63.231535
_cell_angle_gamma 90.000000
_cell_volume 630.167359
_symmetry_space_group_name_H-M "P 2/C"
_symmetry_group_IT_number 13
_symmetry_cell_setting 'monoclinic'
loop_
_space_group_symop_operation_xyz
x,y,z
-x,y,1/2-z
-x,-y,-z
x,-y,1/2+z
loop_
_atom_site_type_symbol
_atom_site_label
_atom_site_fract_x
_atom_site_fract_y
_atom_site_fract_z
Si Si1 0.604270 0.644506 0.501861
Si Si2 0.642013 0.181360 0.299278
Si Si3 0.803814 0.912228 0.988814
Si Si4 0.117573 0.259725 0.765371
O O1 0.500000 0.500000 0.500000
O O2 0.647357 0.659615 0.661658
O O3 0.510034 0.820885 0.554896
O O4 0.739898 0.648803 0.325543
O O5 0.699120 0.005658 0.174198
O O6 0.730458 0.206935 0.401714
O O7 0.904057 0.804233 0.039715
O O8 0.864515 0.081541 0.857564
O O9 0.000000 0.363850 0.750000
#
# Coordination Sequence:
#
# PCOD9230028 Si02
#       4
#     4   4   4   4
#     4  10  22  37  55  80 115 157 204 240 276 341
#     4   9  20  36  59  86 114 149 193 250 296 337
#     4   9  19  35  59  92 119 145 190 244 305 361
#     4  10  20  35  58  87 122 156 188 240 303 357
#
# _framework density 25.390080000000001
#
# number of rings (size 3 to 8) (size 9 to 14) (size 15 to 20)
#    0.000    2.500    0.000    0.750    0.000   23.000 
#    0.000    0.000    0.000   30.000    0.000    0.000 
#    0.000    0.000    0.000    0.000    0.000    0.000 
#
# Total GULP energy -89264.108754 kJ/mol
# GULP energy per Si atom -5579.006797 kJ/mol
# Density = 2.533229 g / cm^3
# Si number density = 25.390080 Si / 1000 Ang^3
#
#
#
# Elastic Constant Matrix: (Units=GPa)
#
#
# Indices 1 2 3 4 5 6 
#
# 1 177.1824 49.1225 39.9229 0.0000 33.8468 0.0000
# 2 49.1225 64.3526 28.7202 0.0000 14.2584 0.0000
# 3 39.9229 28.7202 66.1317 0.0000 25.4387 0.0000
# 4 0.0000 0.0000 0.0000 24.2244 0.0000 10.0518
# 5 33.8468 14.2584 25.4387 0.0000 61.7839 0.0000
# 6 0.0000 0.0000 0.0000 10.0518 0.0000 34.8825
#
#
#
# Elastic Compliance Matrix: (Units=1/GPa)
#
#
# Indices 1 2 3 4 5 6 
#
# 1 0.007792 -0.004620 -0.001741 0.000000 -0.002485 0.000000
# 2 -0.004620 0.022089 -0.006911 0.000000 0.000279 0.000000
# 3 -0.001741 -0.006911 0.021617 0.000000 -0.006352 0.000000
# 4 0.000000 0.000000 0.000000 0.046887 0.000000 -0.013511
# 5 -0.002485 0.000279 -0.006352 0.000000 0.020098 0.000000
# 6 0.000000 0.000000 0.000000 -0.013511 0.000000 0.032561
#
#
# Mechanical properties :
#
#
# Convention : Reuss Voigt Hill
#
# Bulk Modulus (GPa) = 40.07557 60.35534 50.21545
# Shear Modulus (GPa) = 26.89526 36.83822 31.86674
#
# Velocity S-wave (km/s) = 3.25819 3.81319 3.54656
# Velocity P-wave (km/s) = 5.47473 6.57343 6.04908
#
# Compressibility (1/GPa) = 0.02495286
#
# Stress axis : x y z
#
# Youngs Moduli (GPa) = 128.33818 45.27234 46.25915
#
# Poissons Ratio (x) = 0.20916 0.08056
# Poissons Ratio (y) = 0.59292 0.31970
# Poissons Ratio (z) = 0.22349 0.31288
#
# Static dielectric constant tensor:
#      x y z
#    x 2.058470 0.000000 -0.030380 
#    y 0.000000 2.135570 0.000000 
#    z -0.030380 0.000000 2.104320 
# 
# From -- ./inp_files/14407.got.cif
#   From: 2010.05.17/outbox.cif.g08.bks.cpg/sg13_8_cif.got.tgz:14407.got - 2010.06.03 16:44:36.
