data_PCOD9230019
_publ_section_title
;
Structure prediction by ZEFSAII (Michael W. Deem and Ramdas Pophale) SiO2 
 PCOD9230019
Probable space group: P 2/C
;
_chemical_formula_sum "Si O2"
_cell_formula_units_Z 30
_cell_length_a 12.594857
_cell_length_b 5.219533
_cell_length_c 28.594904
_cell_angle_alpha 90.000000
_cell_angle_beta 117.928208
_cell_angle_gamma 90.000000
_cell_volume 1660.876590
_symmetry_space_group_name_H-M "P 2/C"
_symmetry_group_IT_number 13
_symmetry_cell_setting 'monoclinic'
loop_
_space_group_symop_operation_xyz
x,y,z
-x,y,1/2-z
-x,-y,-z
x,-y,1/2+z
loop_
_atom_site_type_symbol
_atom_site_label
_atom_site_fract_x
_atom_site_fract_y
_atom_site_fract_z
Si Si1 0.171663 0.093476 0.776624
Si Si2 0.576951 0.152518 0.176188
Si Si3 0.283260 0.520166 0.229658
Si Si4 0.080793 0.272086 0.857550
Si Si5 0.649764 0.769309 0.054701
Si Si6 0.482069 0.725653 0.935402
Si Si7 0.500000 0.835929 0.250000
Si Si8 0.931132 0.213112 0.323297
O O1 0.305367 0.001469 0.817382
O O2 0.102346 0.859597 0.737484
O O3 0.193351 0.292079 0.738787
O O4 0.109326 0.210091 0.808836
O O5 0.634728 0.398165 0.212951
O O6 0.498769 0.219470 0.115256
O O7 0.518307 0.000719 0.206960
O O8 0.379148 0.670483 0.218730
O O9 0.200593 0.309733 0.187091
O O10 0.208124 0.255807 0.909856
O O11 0.022146 0.551800 0.848084
O O12 0.993024 0.042211 0.856074
O O13 0.585826 0.544376 0.071608
O O14 0.601808 0.046254 0.061448
O O15 0.600332 0.726926 0.991971
#
# Coordination Sequence:
#
# PCOD9230019 Si02
#       8
#     4   4   4   4   4   4   2   4
#     4  10  21  32  50  76 113 150 188 220 271 338
#     4  10  20  35  58  83 111 152 186 243 286 342
#     4  10  21  38  52  81 115 146 188 235 280 343
#     4  12  22  33  50  78 114 157 185 223 265 339
#     4  10  21  36  55  82 112 156 194 232 277 337
#     4  10  20  37  57  80 114 148 195 240 284 330
#     4  10  22  38  58  84 114 146 196 238 300 336
#     4  11  24  32  50  75 114 152 189 218 273 333
#
# _framework density 18.062750999999999
#
# number of rings (size 3 to 8) (size 9 to 14) (size 15 to 20)
#    0.000    1.600    2.667    2.400    7.467    0.000 
#    0.000    0.000    0.000    0.000    0.000    1.867 
#    0.000    0.533    0.000    0.000    0.000    0.000 
#
# Total GULP energy -167342.144715 kJ/mol
# GULP energy per Si atom -5578.071491 kJ/mol
# Density = 1.802164 g / cm^3
# Si number density = 18.062751 Si / 1000 Ang^3
#
#
#
# Elastic Constant Matrix: (Units=GPa)
#
#
# Indices 1 2 3 4 5 6 
#
# 1 68.0336 29.1573 38.9354 0.0000 11.6835 0.0000
# 2 29.1573 92.6686 14.9944 0.0000 11.6606 0.0000
# 3 38.9354 14.9944 87.8426 0.0000 28.2645 0.0000
# 4 0.0000 0.0000 0.0000 12.3353 0.0000 11.1912
# 5 11.6835 11.6606 28.2645 0.0000 27.8288 0.0000
# 6 0.0000 0.0000 0.0000 11.1912 0.0000 21.1375
#
#
#
# Elastic Compliance Matrix: (Units=1/GPa)
#
#
# Indices 1 2 3 4 5 6 
#
# 1 0.022324 -0.005814 -0.009909 0.000000 0.003128 0.000000
# 2 -0.005814 0.012928 0.001973 0.000000 -0.004979 0.000000
# 3 -0.009909 0.001973 0.021341 0.000000 -0.018341 0.000000
# 4 0.000000 0.000000 0.000000 0.156002 0.000000 -0.082595
# 5 0.003128 -0.004979 -0.018341 0.000000 0.055336 0.000000
# 6 0.000000 0.000000 0.000000 -0.082595 0.000000 0.091039
#
#
# Mechanical properties :
#
#
# Convention : Reuss Voigt Hill
#
# Bulk Modulus (GPa) = 34.37412 46.07988 40.22700
# Shear Modulus (GPa) = 12.62090 23.29084 17.95587
#
# Velocity S-wave (km/s) = 2.64621 3.59477 3.15633
# Velocity P-wave (km/s) = 5.32994 6.54188 5.96676
#
# Compressibility (1/GPa) = 0.02909165
#
# Stress axis : x y z
#
# Youngs Moduli (GPa) = 44.79446 77.35178 46.85838
#
# Poissons Ratio (x) = 0.44975 0.46432
# Poissons Ratio (y) = 0.26045 -0.09243
# Poissons Ratio (z) = 0.44387 -0.15258
#
# Static dielectric constant tensor:
#      x y z
#    x 1.654740 0.000000 0.034380 
#    y 0.000000 1.698140 0.000000 
#    z 0.034380 0.000000 1.615170 
# 
# From -- ./inp_files/85864.got.cif
#   From: 2010.05.17/outbox.cif.g08.bks.cpg/sg13_43_cif.got.tgz:85864.got - 2010.06.03 16:44:36.
