data_PCOD9230014
_publ_section_title
;
Structure prediction by ZEFSAII (Michael W. Deem and Ramdas Pophale) SiO2 
 PCOD9230014
Probable space group: P 2/C
;
_chemical_formula_sum "Si O2"
_cell_formula_units_Z 24
_cell_length_a 14.721601
_cell_length_b 10.349517
_cell_length_c 17.034853
_cell_angle_alpha 90.000000
_cell_angle_beta 32.160872
_cell_angle_gamma 90.000000
_cell_volume 1381.556260
_symmetry_space_group_name_H-M "P 2/C"
_symmetry_group_IT_number 13
_symmetry_cell_setting 'monoclinic'
loop_
_space_group_symop_operation_xyz
x,y,z
-x,y,1/2-z
-x,-y,-z
x,-y,1/2+z
loop_
_atom_site_type_symbol
_atom_site_label
_atom_site_fract_x
_atom_site_fract_y
_atom_site_fract_z
Si Si1 0.815199 0.532019 0.923802
Si Si2 0.668132 0.766670 0.683287
Si Si3 0.817549 0.221331 0.918811
Si Si4 0.492788 0.870109 0.955802
Si Si5 0.491169 0.380170 0.566311
Si Si6 0.194071 0.516857 0.386882
O O1 0.784787 0.376716 0.937143
O O2 0.000000 0.559518 0.750000
O O3 0.657726 0.604277 0.998836
O O4 0.814978 0.561520 0.016341
O O5 0.500000 0.759042 0.750000
O O6 0.807752 0.811727 0.518174
O O7 0.635070 0.853242 0.783493
O O8 0.715313 0.623661 0.677847
O O9 0.000000 0.196182 0.750000
O O10 0.679474 0.146464 0.968633
O O11 0.499541 0.750117 0.010450
O O12 0.500000 0.000000 0.000000
O O13 0.500000 0.500000 0.500000
O O14 0.315761 0.394865 0.744038
O O15 0.000000 0.500000 0.500000
#
# Coordination Sequence:
#
# PCOD9230014 Si02
#       6
#     4   4   4   4   4   4
#     4  10  20  35  57  92 119 149 190 245 298 349
#     4   9  18  36  58  81 116 151 194 234 287 348
#     4   9  18  35  62  84 111 151 202 233 283 358
#     4  11  23  38  58  86 116 158 199 237 292 349
#     4  12  20  36  59  85 118 149 192 245 296 342
#     4  11  21  32  58  92 117 148 193 245 297 348
#
# _framework density 17.371714999999998
#
# number of rings (size 3 to 8) (size 9 to 14) (size 15 to 20)
#    0.000    1.667    3.333    3.500    4.667    0.000 
#    0.000    6.667    0.000    0.000    0.000    0.000 
#    0.000    0.000    0.000    0.000    0.000    0.000 
#
# Total GULP energy -133882.337739 kJ/mol
# GULP energy per Si atom -5578.430739 kJ/mol
# Density = 1.733218 g / cm^3
# Si number density = 17.371715 Si / 1000 Ang^3
#
#
#
# Elastic Constant Matrix: (Units=GPa)
#
#
# Indices 1 2 3 4 5 6 
#
# 1 110.8885 47.5979 53.9482 0.0000 21.9209 0.0000
# 2 47.5979 85.3014 42.5021 0.0000 21.3904 0.0000
# 3 53.9482 42.5021 150.0967 0.0000 32.6704 0.0000
# 4 0.0000 0.0000 0.0000 11.3073 0.0000 7.6960
# 5 21.9209 21.3904 32.6704 0.0000 32.7586 0.0000
# 6 0.0000 0.0000 0.0000 7.6960 0.0000 25.7809
#
#
#
# Elastic Compliance Matrix: (Units=1/GPa)
#
#
# Indices 1 2 3 4 5 6 
#
# 1 0.013114 -0.005342 -0.002618 0.000000 -0.002676 0.000000
# 2 -0.005342 0.016986 -0.001601 0.000000 -0.005920 0.000000
# 3 -0.002618 -0.001601 0.009513 0.000000 -0.006690 0.000000
# 4 0.000000 0.000000 0.000000 0.110990 0.000000 -0.033132
# 5 -0.002676 -0.005920 -0.006690 0.000000 0.042854 0.000000
# 6 0.000000 0.000000 0.000000 -0.033132 0.000000 0.048679
#
#
# Mechanical properties :
#
#
# Convention : Reuss Voigt Hill
#
# Bulk Modulus (GPa) = 48.80442 70.48700 59.64571
# Shear Modulus (GPa) = 18.65053 27.45191 23.05122
#
# Velocity S-wave (km/s) = 3.28016 3.97957 3.64667
# Velocity P-wave (km/s) = 6.51929 7.86001 7.22083
#
# Compressibility (1/GPa) = 0.02048995
#
# Stress axis : x y z
#
# Youngs Moduli (GPa) = 76.25524 58.87114 105.11931
#
# Poissons Ratio (x) = 0.31448 0.27524
# Poissons Ratio (y) = 0.40734 0.16834
# Poissons Ratio (z) = 0.19966 0.09428
#
# Static dielectric constant tensor:
#      x y z
#    x 1.596060 0.000000 0.007470 
#    y 0.000000 1.561720 0.000000 
#    z 0.007470 0.000000 1.645790 
# 
# From -- ./inp_files/46539.got.cif
#   From: 2010.05.17/outbox.cif.g08.bks.cpg/sg13_24_cif.got.tgz:46539.got - 2010.06.03 16:44:36.
