data_PCOD9230458
_publ_section_title
;
Structure prediction by ZEFSAII (Michael W. Deem and Ramdas Pophale) SiO2 
 PCOD9230458
Probable space group: P 2/C
;
_chemical_formula_sum "Si O2"
_cell_formula_units_Z 24
_cell_length_a 15.757444
_cell_length_b 7.988600
_cell_length_c 9.509198
_cell_angle_alpha 90.000000
_cell_angle_beta 111.866359
_cell_angle_gamma 90.000000
_cell_volume 1110.897775
_symmetry_space_group_name_H-M "P 2/C"
_symmetry_group_IT_number 13
_symmetry_cell_setting 'monoclinic'
loop_
_space_group_symop_operation_xyz
x,y,z
-x,y,1/2-z
-x,-y,-z
x,-y,1/2+z
loop_
_atom_site_type_symbol
_atom_site_label
_atom_site_fract_x
_atom_site_fract_y
_atom_site_fract_z
Si Si1 0.699839 0.829115 0.175171
Si Si2 0.000000 0.977716 0.750000
Si Si3 0.375105 0.180561 0.389200
Si Si4 0.500000 0.660329 0.750000
Si Si5 0.666308 0.584570 0.377336
Si Si6 0.877772 0.961088 0.430841
Si Si7 0.220787 0.282312 0.070871
O O1 0.656920 0.665871 0.217874
O O2 0.778923 0.886473 0.334311
O O3 0.631842 0.981727 0.109396
O O4 0.746863 0.792534 0.056928
O O5 0.924523 0.891548 0.601691
O O6 0.059484 0.070502 0.667068
O O7 0.465297 0.235328 0.361992
O O8 0.354048 0.271172 0.522444
O O9 0.291926 0.240091 0.237932
O O10 0.414533 0.547901 0.652120
O O11 0.763014 0.482494 0.440682
O O12 0.865683 0.164267 0.443049
#
# Coordination Sequence:
#
# PCOD9230458 Si02
#       7
#     4   2   4   2   4   4   4
#     4  11  22  39  61  93 117 162 213 249 295 373
#     4  10  20  36  64  96 128 160 206 250 304 350
#     4  10  21  37  61  86 117 160 208 249 296 359
#     4  10  22  40  58  92 126 160 198 254 316 356
#     4  11  23  40  63  87 123 164 201 257 314 355
#     4  10  20  37  63  95 123 167 204 249 294 367
#     4  10  20  37  58  89 122 158 203 245 303 363
#
# _framework density 21.604147999999999
#
# number of rings (size 3 to 8) (size 9 to 14) (size 15 to 20)
#    0.000    1.667    1.667    4.500    2.333    2.000 
#    0.000    5.000    0.000    6.000    0.000    0.000 
#    0.000    0.000    0.000    0.000    0.000    0.000 
#
# Total GULP energy -133800.487983 kJ/mol
# GULP energy per Si atom -5575.020333 kJ/mol
# Density = 2.155498 g / cm^3
# Si number density = 21.604148 Si / 1000 Ang^3
#
#
#
# Elastic Constant Matrix: (Units=GPa)
#
#
# Indices 1 2 3 4 5 6 
#
# 1 76.9312 30.6859 20.0093 0.0000 -13.6770 0.0000
# 2 30.6859 90.4244 3.5041 0.0000 -8.3748 0.0000
# 3 20.0093 3.5041 103.3987 0.0000 -9.0352 0.0000
# 4 0.0000 0.0000 0.0000 27.7597 0.0000 15.2335
# 5 -13.6770 -8.3748 -9.0352 0.0000 36.2198 0.0000
# 6 0.0000 0.0000 0.0000 15.2335 0.0000 -46.1557
#
#
#
# Elastic Compliance Matrix: (Units=1/GPa)
#
#
# Indices 1 2 3 4 5 6 
#
# 1 0.016495 -0.005089 -0.002636 0.000000 0.004395 0.000000
# 2 -0.005089 0.012873 0.000655 0.000000 0.001218 0.000000
# 3 -0.002636 0.000655 0.010310 0.000000 0.001728 0.000000
# 4 0.000000 0.000000 0.000000 0.030499 0.000000 0.010066
# 5 0.004395 0.001218 0.001728 0.000000 0.029981 0.000000
# 6 0.000000 0.000000 0.000000 0.010066 0.000000 -0.018343
#
#
# Mechanical properties :
#
#
# Convention : Reuss Voigt Hill
#
# Bulk Modulus (GPa) = 39.15417 42.12811 40.64114
# Shear Modulus (GPa) = 47.86164 18.00175 32.93170
#
# Velocity S-wave (km/s) = 4.71190 2.88975 3.90849
# Velocity P-wave (km/s) = 6.91126 5.53864 6.26267
#
# Compressibility (1/GPa) = 0.02554006
#
# Stress axis : x y z
#
# Youngs Moduli (GPa) = 60.62403 77.68049 96.99181
#
# Poissons Ratio (x) = 0.39528 0.25563
# Poissons Ratio (y) = 0.30849 -0.06352
# Poissons Ratio (z) = 0.15978 -0.05087
#
# Static dielectric constant tensor:
#      x y z
#    x 1.823720 0.000000 0.048190 
#    y 0.000000 1.826550 0.000000 
#    z 0.048190 0.000000 1.780650 
# 
# From -- ./inp_files/18064.got.cif
#   From: 2010.05.17/outbox.cif.g08.bks.cpg/sg13_10_cif.got.tgz:18064.got - 2010.06.03 16:44:36.
