data_PCOD9230264
_publ_section_title
;
Structure prediction by ZEFSAII (Michael W. Deem and Ramdas Pophale) SiO2 
 PCOD9230264
Probable space group: P 2/C
;
_chemical_formula_sum "Si O2"
_cell_formula_units_Z 20
_cell_length_a 12.982047
_cell_length_b 5.911919
_cell_length_c 14.978069
_cell_angle_alpha 90.000000
_cell_angle_beta 140.802391
_cell_angle_gamma 90.000000
_cell_volume 726.511462
_symmetry_space_group_name_H-M "P 2/C"
_symmetry_group_IT_number 13
_symmetry_cell_setting 'monoclinic'
loop_
_space_group_symop_operation_xyz
x,y,z
-x,y,1/2-z
-x,-y,-z
x,-y,1/2+z
loop_
_atom_site_type_symbol
_atom_site_label
_atom_site_fract_x
_atom_site_fract_y
_atom_site_fract_z
Si Si1 0.143187 0.949693 0.298289
Si Si2 0.894797 0.437679 0.562501
Si Si3 0.450013 0.424330 0.612612
Si Si4 0.468962 0.919589 0.621353
Si Si5 0.114686 0.805696 0.614793
O O1 0.278953 0.909751 0.463303
O O2 0.000000 0.090746 0.250000
O O3 0.038427 0.731447 0.194084
O O4 0.215085 0.073955 0.260444
O O5 0.747852 0.547466 0.521048
O O6 0.810791 0.307310 0.422376
O O7 0.997874 0.631678 0.584841
O O8 0.500000 0.416711 0.750000
O O9 0.518318 0.663842 0.621730
O O10 0.508469 0.179412 0.615950
O O11 0.500000 0.926397 0.750000
O O12 0.000000 0.000000 0.500000
#
# Coordination Sequence:
#
# PCOD9230264 Si02
#       5
#     4   4   4   4   4
#     4  11  20  33  60  95 118 159 205 265 307 370
#     4  10  20  36  58  91 124 165 206 260 315 374
#     4  10  21  38  61  89 124 166 208 257 311 368
#     4  10  22  38  58  90 127 161 203 259 312 365
#     4   9  21  36  55  88 128 162 203 257 319 372
#
# _framework density 27.528811000000001
#
# number of rings (size 3 to 8) (size 9 to 14) (size 15 to 20)
#    0.000    2.000    2.000    1.200    5.600    0.800 
#    0.000    0.000    0.000    9.600    0.000    0.000 
#    0.000    0.000    0.000    0.000    0.000    0.000 
#
# Total GULP energy -111516.165294 kJ/mol
# GULP energy per Si atom -5575.808265 kJ/mol
# Density = 2.746615 g / cm^3
# Si number density = 27.528811 Si / 1000 Ang^3
#
#
#
# Elastic Constant Matrix: (Units=GPa)
#
#
# Indices 1 2 3 4 5 6 
#
# 1 67.8628 77.1270 34.5061 0.0000 0.9848 0.0000
# 2 77.1270 250.1806 32.8175 0.0000 6.7582 0.0000
# 3 34.5061 32.8175 192.4461 0.0000 4.0570 0.0000
# 4 0.0000 0.0000 0.0000 34.4570 0.0000 2.0975
# 5 0.9848 6.7582 4.0570 0.0000 39.4608 0.0000
# 6 0.0000 0.0000 0.0000 2.0975 0.0000 34.7501
#
#
#
# Elastic Compliance Matrix: (Units=1/GPa)
#
#
# Indices 1 2 3 4 5 6 
#
# 1 0.024470 -0.007151 -0.003188 0.000000 0.000942 0.000000
# 2 -0.007151 0.006194 0.000245 0.000000 -0.000908 0.000000
# 3 -0.003188 0.000245 0.005738 0.000000 -0.000552 0.000000
# 4 0.000000 0.000000 0.000000 0.029129 0.000000 -0.001758
# 5 0.000942 -0.000908 -0.000552 0.000000 0.025530 0.000000
# 6 0.000000 0.000000 0.000000 -0.001758 0.000000 0.028883
#
#
# Mechanical properties :
#
#
# Convention : Reuss Voigt Hill
#
# Bulk Modulus (GPa) = 61.67485 88.82120 75.24803
# Shear Modulus (GPa) = 34.35561 46.13617 40.24589
#
# Velocity S-wave (km/s) = 3.53652 4.09825 3.82770
# Velocity P-wave (km/s) = 6.25527 7.39791 6.85045
#
# Compressibility (1/GPa) = 0.01621406
#
# Stress axis : x y z
#
# Youngs Moduli (GPa) = 40.86601 161.44529 174.28517
#
# Poissons Ratio (x) = 1.15451 0.55562
# Poissons Ratio (y) = 0.29224 -0.04271
# Poissons Ratio (z) = 0.13028 -0.03957
#
# Static dielectric constant tensor:
#      x y z
#    x 2.337810 0.000000 -0.053300 
#    y 0.000000 2.233660 0.000000 
#    z -0.053300 0.000000 2.202250 
# 
# From -- ./inp_files/62320.got.cif
#   From: 2010.05.17/outbox.cif.g08.bks.cpg/sg13_32_cif.got.tgz:62320.got - 2010.06.03 16:44:36.
