data_PCOD9230882
_publ_section_title
;
Structure prediction by ZEFSAII (Michael W. Deem and Ramdas Pophale) SiO2 
 PCOD9230882
Probable space group: P 2/C
;
_chemical_formula_sum "Si O2"
_cell_formula_units_Z 24
_cell_length_a 16.825409
_cell_length_b 8.784521
_cell_length_c 17.541142
_cell_angle_alpha 90.000000
_cell_angle_beta 23.063555
_cell_angle_gamma 90.000000
_cell_volume 1015.670291
_symmetry_space_group_name_H-M "P 2/C"
_symmetry_group_IT_number 13
_symmetry_cell_setting 'monoclinic'
loop_
_space_group_symop_operation_xyz
x,y,z
-x,y,1/2-z
-x,-y,-z
x,-y,1/2+z
loop_
_atom_site_type_symbol
_atom_site_label
_atom_site_fract_x
_atom_site_fract_y
_atom_site_fract_z
Si Si1 0.663831 0.693416 0.542712
Si Si2 0.878805 0.049616 0.028253
Si Si3 0.103216 0.352376 0.317732
Si Si4 0.846832 0.299104 0.680045
Si Si5 0.000000 0.444333 0.250000
Si Si6 0.000000 0.051949 0.750000
Si Si7 0.455742 0.196958 0.094326
O O1 0.500000 0.726643 0.750000
O O2 0.809842 0.554682 0.434227
O O3 0.528673 0.668859 0.586719
O O4 0.807182 0.839199 0.402512
O O5 0.644400 0.068655 0.262397
O O6 0.935946 0.985733 0.892727
O O7 0.957038 0.225151 0.952549
O O8 0.000000 0.000000 0.000000
O O9 0.163906 0.526913 0.283299
O O10 0.281859 0.247133 0.190288
O O11 0.901400 0.310378 0.543053
O O12 0.062601 0.344804 0.265554
O O13 0.661161 0.188048 0.864019
#
# Coordination Sequence:
#
# PCOD9230882 Si02
#       7
#     4   4   4   4   2   2   4
#     4  11  21  33  60  93 117 152 212 264 301 343
#     4  11  24  40  61  92 118 157 204 262 317 366
#     4  10  22  34  59  89 129 164 194 250 302 362
#     4  10  20  38  59  88 120 156 203 251 301 357
#     4  11  22  34  51  92 134 164 199 239 302 368
#     4  11  20  40  61  88 122 148 199 279 310 346
#     4  11  21  38  63  90 119 159 204 249 310 365
#
# _framework density 23.629714
#
# number of rings (size 3 to 8) (size 9 to 14) (size 15 to 20)
#    0.000    1.333    5.000    1.500    4.667    0.667 
#    0.000    3.333    0.000    0.000    0.000    0.000 
#    0.000    0.000    0.000    0.000    0.000    0.000 
#
# Total GULP energy -133707.416968 kJ/mol
# GULP energy per Si atom -5571.142374 kJ/mol
# Density = 2.357593 g / cm^3
# Si number density = 23.629714 Si / 1000 Ang^3
#
#
#
# Elastic Constant Matrix: (Units=GPa)
#
#
# Indices 1 2 3 4 5 6 
#
# 1 163.8361 9.0878 48.9118 0.0000 24.4748 0.0000
# 2 9.0878 51.4565 23.5831 0.0000 5.2991 0.0000
# 3 48.9118 23.5831 200.1667 0.0000 16.8855 0.0000
# 4 0.0000 0.0000 0.0000 17.5002 0.0000 5.9215
# 5 24.4748 5.2991 16.8855 0.0000 41.3693 0.0000
# 6 0.0000 0.0000 0.0000 5.9215 0.0000 28.2870
#
#
#
# Elastic Compliance Matrix: (Units=1/GPa)
#
#
# Indices 1 2 3 4 5 6 
#
# 1 0.007069 -0.000239 -0.001397 0.000000 -0.003581 0.000000
# 2 -0.000239 0.020668 -0.002242 0.000000 -0.001590 0.000000
# 3 -0.001397 -0.002242 0.005704 0.000000 -0.001214 0.000000
# 4 0.000000 0.000000 0.000000 0.061498 0.000000 -0.012874
# 5 -0.003581 -0.001590 -0.001214 0.000000 0.026991 0.000000
# 6 0.000000 0.000000 0.000000 -0.012874 0.000000 0.038047
#
#
# Mechanical properties :
#
#
# Convention : Reuss Voigt Hill
#
# Bulk Modulus (GPa) = 38.93631 64.29162 51.61396
# Shear Modulus (GPa) = 28.36162 39.68975 34.02568
#
# Velocity S-wave (km/s) = 3.46822 4.10280 3.79879
# Velocity P-wave (km/s) = 5.70540 7.05060 6.41337
#
# Compressibility (1/GPa) = 0.02568297
#
# Stress axis : x y z
#
# Youngs Moduli (GPa) = 141.46268 48.38479 175.32053
#
# Poissons Ratio (x) = 0.01158 0.24493
# Poissons Ratio (y) = 0.03386 0.39313
# Poissons Ratio (z) = 0.19763 0.10850
#
# Static dielectric constant tensor:
#      x y z
#    x 1.961090 0.000000 0.082130 
#    y 0.000000 1.992630 0.000000 
#    z 0.082130 0.000000 1.972340 
# 
# From -- ./inp_files/53490.got.cif
#   From: 2010.05.17/outbox.cif.g08.bks.cpg/sg13_27_cif.got.tgz:53490.got - 2010.06.03 16:44:36.
