data_PCOD9230374
_publ_section_title
;
Structure prediction by ZEFSAII (Michael W. Deem and Ramdas Pophale) SiO2 
 PCOD9230374
Probable space group: P 2/C
;
_chemical_formula_sum "Si O2"
_cell_formula_units_Z 24
_cell_length_a 9.899178
_cell_length_b 14.185576
_cell_length_c 8.513538
_cell_angle_alpha 90.000000
_cell_angle_beta 90.065230
_cell_angle_gamma 90.000000
_cell_volume 1195.517412
_symmetry_space_group_name_H-M "P 2/C"
_symmetry_group_IT_number 13
_symmetry_cell_setting 'monoclinic'
loop_
_space_group_symop_operation_xyz
x,y,z
-x,y,1/2-z
-x,-y,-z
x,-y,1/2+z
loop_
_atom_site_type_symbol
_atom_site_label
_atom_site_fract_x
_atom_site_fract_y
_atom_site_fract_z
Si Si1 0.161352 0.602954 0.562173
Si Si2 0.469054 0.103722 0.434036
Si Si3 0.968297 0.896898 0.934243
Si Si4 0.718655 0.205425 0.564981
Si Si5 0.780844 0.796897 0.430410
Si Si6 0.160356 0.398493 0.437253
O O1 0.240377 0.689049 0.484011
O O2 0.204177 0.500654 0.499121
O O3 0.176836 0.607566 0.749973
O O4 0.000503 0.610924 0.527526
O O5 0.500000 0.105760 0.250000
O O6 0.567084 0.177426 0.521847
O O7 0.317206 0.135600 0.470478
O O8 0.500000 0.000000 0.500000
O O9 0.000000 0.891321 0.750000
O O10 0.067075 0.826607 0.027506
O O11 0.816390 0.864778 0.968234
O O12 0.000000 0.000000 0.000000
O O13 0.748525 0.190857 0.748087
O O14 0.765168 0.688499 0.481286
#
# Coordination Sequence:
#
# PCOD9230374 Si02
#       6
#     4   4   4   4   4   4
#     4  10  20  36  61  93 129 166 207 255 312 371
#     4  12  26  46  67  90 125 168 212 258 314 378
#     4  12  24  40  61  90 123 160 206 260 314 368
#     4  12  24  41  64  93 126 164 209 258 313 372
#     4  12  24  41  64  93 126 164 209 258 313 372
#     4  10  20  36  61  93 129 166 207 255 312 371
#
# _framework density 20.07499
#
# number of rings (size 3 to 8) (size 9 to 14) (size 15 to 20)
#    0.000    0.667    1.667    8.000    0.000    1.333 
#    0.000    0.833    0.000    0.000    0.000    0.000 
#    0.000    0.000    0.000    0.000    0.000    0.000 
#
# Total GULP energy -134358.393020 kJ/mol
# GULP energy per Si atom -5598.266376 kJ/mol
# Density = 2.002930 g / cm^3
# Si number density = 20.074990 Si / 1000 Ang^3
#
#
#
# Elastic Constant Matrix: (Units=GPa)
#
#
# Indices 1 2 3 4 5 6 
#
# 1 26.5271 -12.9135 -12.9242 0.0000 -0.0076 0.0000
# 2 -12.9135 112.5171 10.7822 0.0000 -3.9860 0.0000
# 3 -12.9242 10.7822 108.7085 0.0000 2.6804 0.0000
# 4 0.0000 0.0000 0.0000 28.1409 0.0000 2.2927
# 5 -0.0076 -3.9860 2.6804 0.0000 28.8088 0.0000
# 6 0.0000 0.0000 0.0000 2.2927 0.0000 29.8799
#
#
#
# Elastic Compliance Matrix: (Units=1/GPa)
#
#
# Indices 1 2 3 4 5 6 
#
# 1 0.042059 0.004397 0.004559 0.000000 0.000195 0.000000
# 2 0.004397 0.009483 -0.000451 0.000000 0.001355 0.000000
# 3 0.004559 -0.000451 0.009810 0.000000 -0.000974 0.000000
# 4 0.000000 0.000000 0.000000 0.035759 0.000000 -0.002744
# 5 0.000195 0.001355 -0.000974 0.000000 0.034990 0.000000
# 6 0.000000 0.000000 0.000000 -0.002744 0.000000 0.033678
#
#
# Mechanical properties :
#
#
# Convention : Reuss Voigt Hill
#
# Bulk Modulus (GPa) = 12.76112 24.18240 18.47176
# Shear Modulus (GPa) = 28.58949 34.88648 31.73799
#
# Velocity S-wave (km/s) = 3.77786 4.17323 3.98046
# Velocity P-wave (km/s) = 5.03986 5.94081 5.50879
#
# Compressibility (1/GPa) = 0.07836300
#
# Stress axis : x y z
#
# Youngs Moduli (GPa) = 23.77599 105.44687 101.93946
#
# Poissons Ratio (x) = -0.46366 -0.46478
# Poissons Ratio (y) = -0.10455 0.04600
# Poissons Ratio (z) = -0.10840 0.04758
#
# Static dielectric constant tensor:
#      x y z
#    x 1.670150 0.000000 -0.005780 
#    y 0.000000 1.652270 0.000000 
#    z -0.005780 0.000000 1.677160 
# 
# From -- ./inp_files/12488.got.cif
#   From: 2010.05.17/outbox.cif.g08.bks.cpg/sg13_7_cif.got.tgz:12488.got - 2010.06.03 16:44:36.
