data_PCOD9230162
_publ_section_title
;
Structure prediction by ZEFSAII (Michael W. Deem and Ramdas Pophale) SiO2 
 PCOD9230162
Probable space group: P 2/C
;
_chemical_formula_sum "Si O2"
_cell_formula_units_Z 28
_cell_length_a 6.667532
_cell_length_b 7.428800
_cell_length_c 30.759846
_cell_angle_alpha 90.000000
_cell_angle_beta 119.852592
_cell_angle_gamma 90.000000
_cell_volume 1321.422635
_symmetry_space_group_name_H-M "P 2/C"
_symmetry_group_IT_number 13
_symmetry_cell_setting 'monoclinic'
loop_
_space_group_symop_operation_xyz
x,y,z
-x,y,1/2-z
-x,-y,-z
x,-y,1/2+z
loop_
_atom_site_type_symbol
_atom_site_label
_atom_site_fract_x
_atom_site_fract_y
_atom_site_fract_z
Si Si1 0.355661 0.720962 0.377966
Si Si2 0.884698 0.614750 0.690776
Si Si3 0.187801 0.161879 0.948037
Si Si4 0.593486 0.788485 0.545452
Si Si5 0.520367 0.101583 0.370985
Si Si6 0.161718 0.598741 0.053047
Si Si7 0.916089 0.333789 0.377815
O O1 0.241661 0.570959 0.335757
O O2 0.182011 0.793146 0.396435
O O3 0.572120 0.635477 0.427531
O O4 0.449913 0.892839 0.361518
O O5 0.691306 0.772828 0.668439
O O6 0.000000 0.607204 0.750000
O O7 0.074462 0.644469 0.672948
O O8 0.958673 0.212300 0.948568
O O9 0.274654 0.958684 0.961905
O O10 0.390814 0.276933 0.992945
O O11 0.470358 0.852488 0.576528
O O12 0.810651 0.668674 0.581256
O O13 0.758136 0.162573 0.373780
O O14 0.171923 0.487750 0.099323
O O15 0.000000 0.500000 0.000000
#
# Coordination Sequence:
#
# PCOD9230162 Si02
#       7
#     4   4   4   4   4   4   4
#     4  11  23  42  64  92 131 168 211 266 318 386
#     4  11  25  45  69  91 121 164 218 274 334 382
#     4  10  20  36  55  89 128 171 210 253 306 377
#     4   9  20  35  58  86 126 170 212 250 309 378
#     4  10  22  42  65  91 127 163 212 270 321 382
#     4  12  23  33  61  96 132 171 211 249 315 387
#     4  11  21  39  62  88 127 163 207 264 314 374
#
# _framework density 21.189285000000002
#
# number of rings (size 3 to 8) (size 9 to 14) (size 15 to 20)
#    0.000    1.429    2.857    2.571    2.000    2.286 
#    0.000    5.714    3.143    0.000    0.000    0.000 
#    0.000    0.000    0.000    0.000    0.000    0.000 
#
# Total GULP energy -156370.158752 kJ/mol
# GULP energy per Si atom -5584.648527 kJ/mol
# Density = 2.114106 g / cm^3
# Si number density = 21.189285 Si / 1000 Ang^3
#
#
#
# Elastic Constant Matrix: (Units=GPa)
#
#
# Indices 1 2 3 4 5 6 
#
# 1 102.5170 23.7412 29.1462 0.0000 -10.8093 0.0000
# 2 23.7412 76.5991 26.4636 0.0000 0.6604 0.0000
# 3 29.1462 26.4636 113.4100 0.0000 -5.6079 0.0000
# 4 0.0000 0.0000 0.0000 17.3724 0.0000 3.0997
# 5 -10.8093 0.6604 -5.6079 0.0000 21.4439 0.0000
# 6 0.0000 0.0000 0.0000 3.0997 0.0000 36.9595
#
#
#
# Elastic Compliance Matrix: (Units=1/GPa)
#
#
# Indices 1 2 3 4 5 6 
#
# 1 0.011579 -0.002936 -0.002024 0.000000 0.005398 0.000000
# 2 -0.002936 0.014981 -0.002874 0.000000 -0.002693 0.000000
# 3 -0.002024 -0.002874 0.010093 0.000000 0.001708 0.000000
# 4 0.000000 0.000000 0.000000 0.058437 0.000000 -0.004901
# 5 0.005398 -0.002693 0.001708 0.000000 0.049884 0.000000
# 6 0.000000 0.000000 0.000000 -0.004901 0.000000 0.027468
#
#
# Mechanical properties :
#
#
# Convention : Reuss Voigt Hill
#
# Bulk Modulus (GPa) = 47.65418 50.13647 48.89533
# Shear Modulus (GPa) = 25.62727 29.36686 27.49706
#
# Velocity S-wave (km/s) = 3.48148 3.72685 3.60625
# Velocity P-wave (km/s) = 6.22089 6.49860 6.36126
#
# Compressibility (1/GPa) = 0.02098452
#
# Stress axis : x y z
#
# Youngs Moduli (GPa) = 86.36370 66.74996 99.08031
#
# Poissons Ratio (x) = 0.19599 0.20051
# Poissons Ratio (y) = 0.25358 0.28479
# Poissons Ratio (z) = 0.17478 0.19186
#
# Static dielectric constant tensor:
#      x y z
#    x 1.808030 0.000000 0.001240 
#    y 0.000000 1.841110 0.000000 
#    z 0.001240 0.000000 1.760510 
# 
# From -- ./inp_files/95115.got.cif
#   From: 2010.05.17/outbox.cif.g08.bks.cpg/sg13_48_cif.got.tgz:95115.got - 2010.06.03 16:44:36.
