data_PCOD9230479
_publ_section_title
;
Structure prediction by ZEFSAII (Michael W. Deem and Ramdas Pophale) SiO2 
 PCOD9230479
Probable space group: P 2/C
;
_chemical_formula_sum "Si O2"
_cell_formula_units_Z 28
_cell_length_a 9.283721
_cell_length_b 8.607641
_cell_length_c 17.638348
_cell_angle_alpha 90.000000
_cell_angle_beta 97.481381
_cell_angle_gamma 90.000000
_cell_volume 1397.498195
_symmetry_space_group_name_H-M "P 2/C"
_symmetry_group_IT_number 13
_symmetry_cell_setting 'monoclinic'
loop_
_space_group_symop_operation_xyz
x,y,z
-x,y,1/2-z
-x,-y,-z
x,-y,1/2+z
loop_
_atom_site_type_symbol
_atom_site_label
_atom_site_fract_x
_atom_site_fract_y
_atom_site_fract_z
Si Si1 0.890218 0.862604 0.468875
Si Si2 0.677919 0.657806 0.884126
Si Si3 0.500000 0.485069 0.750000
Si Si4 0.617755 0.740550 0.132607
Si Si5 0.575135 0.004878 0.423059
Si Si6 0.051900 0.302297 0.840279
Si Si7 0.500000 0.500000 0.000000
Si Si8 0.988105 0.396353 0.074771
O O1 0.732340 0.927675 0.441571
O O2 0.948825 0.776562 0.396844
O O3 0.886619 0.743745 0.540059
O O4 0.000000 0.000000 0.500000
O O5 0.614492 0.590221 0.802412
O O6 0.851570 0.668356 0.896348
O O7 0.601135 0.821162 0.896447
O O8 0.625251 0.536519 0.944307
O O9 0.411812 0.375230 0.800477
O O10 0.527079 0.897795 0.135492
O O11 0.788761 0.769650 0.137958
O O12 0.561547 0.647285 0.055299
O O13 0.500000 0.000000 0.500000
O O14 0.000000 0.284258 0.750000
O O15 0.062244 0.485439 0.863599
O O16 0.000000 0.500000 0.000000
#
# Coordination Sequence:
#
# PCOD9230479 Si02
#       8
#     4   4   2   4   4   4   2   4
#     4  11  23  43  67 100 133 178 224 281 345 407
#     4  11  22  43  60 100 127 174 220 271 332 399
#     4  10  26  40  68  92 136 176 220 266 336 408
#     4  11  24  41  65 100 134 172 227 274 347 400
#     4  12  25  40  70  99 136 170 226 288 344 399
#     4  11  25  43  67  98 135 180 231 282 341 414
#     4  10  20  36  66  90 128 164 220 276 316 394
#     4  10  22  38  69  91 129 168 228 273 327 391
#
# _framework density 20.035803999999999
#
# number of rings (size 3 to 8) (size 9 to 14) (size 15 to 20)
#    0.000    1.143    2.857    3.429   12.000    0.571 
#    0.000    0.714    0.000    0.000    0.000    0.000 
#    0.000    0.000    0.000    0.000    0.000    0.000 
#
# Total GULP energy -155943.629753 kJ/mol
# GULP energy per Si atom -5569.415348 kJ/mol
# Density = 1.999020 g / cm^3
# Si number density = 20.035804 Si / 1000 Ang^3
#
#
#
# Elastic Constant Matrix: (Units=GPa)
#
#
# Indices 1 2 3 4 5 6 
#
# 1 106.3342 33.0847 22.7430 0.0000 7.5772 0.0000
# 2 33.0847 84.3941 34.9008 0.0000 5.6757 0.0000
# 3 22.7430 34.9008 76.7394 0.0000 -7.6195 0.0000
# 4 0.0000 0.0000 0.0000 29.4015 0.0000 -0.1813
# 5 7.5772 5.6757 -7.6195 0.0000 14.6940 0.0000
# 6 0.0000 0.0000 0.0000 -0.1813 0.0000 37.5258
#
#
#
# Elastic Compliance Matrix: (Units=1/GPa)
#
#
# Indices 1 2 3 4 5 6 
#
# 1 0.011311 -0.002947 -0.002613 0.000000 -0.006049 0.000000
# 2 -0.002947 0.016761 -0.007635 0.000000 -0.008913 0.000000
# 3 -0.002613 -0.007635 0.018665 0.000000 0.013975 0.000000
# 4 0.000000 0.000000 0.000000 0.034013 0.000000 0.000164
# 5 -0.006049 -0.008913 0.013975 0.000000 0.081864 0.000000
# 6 0.000000 0.000000 0.000000 0.000164 0.000000 0.026649
#
#
# Mechanical properties :
#
#
# Convention : Reuss Voigt Hill
#
# Bulk Modulus (GPa) = 49.14209 49.88052 49.51131
# Shear Modulus (GPa) = 22.47851 28.10686 25.29269
#
# Velocity S-wave (km/s) = 3.35314 3.74950 3.55685
# Velocity P-wave (km/s) = 6.29061 6.61020 6.45238
#
# Compressibility (1/GPa) = 0.02034915
#
# Stress axis : x y z
#
# Youngs Moduli (GPa) = 88.40898 59.66178 53.57586
#
# Poissons Ratio (x) = 0.17582 0.13997
# Poissons Ratio (y) = 0.26054 0.40903
# Poissons Ratio (z) = 0.23097 0.45549
#
# Static dielectric constant tensor:
#      x y z
#    x 1.690220 0.000000 0.006330 
#    y 0.000000 1.733620 0.000000 
#    z 0.006330 0.000000 1.713650 
# 
# From -- ./inp_files/63887.got.cif
#   From: 2010.05.17/outbox.cif.g08.bks.cpg/sg13_32_cif.got.tgz:63887.got - 2010.06.03 16:44:36.
