data_PCOD9230543
_publ_section_title
;
Structure prediction by ZEFSAII (Michael W. Deem and Ramdas Pophale) SiO2 
 PCOD9230543
Probable space group: P 2/C
;
_chemical_formula_sum "Si O2"
_cell_formula_units_Z 32
_cell_length_a 6.249801
_cell_length_b 12.753075
_cell_length_c 24.154259
_cell_angle_alpha 90.000000
_cell_angle_beta 64.654369
_cell_angle_gamma 90.000000
_cell_volume 1739.879794
_symmetry_space_group_name_H-M "P 2/C"
_symmetry_group_IT_number 13
_symmetry_cell_setting 'monoclinic'
loop_
_space_group_symop_operation_xyz
x,y,z
-x,y,1/2-z
-x,-y,-z
x,-y,1/2+z
loop_
_atom_site_type_symbol
_atom_site_label
_atom_site_fract_x
_atom_site_fract_y
_atom_site_fract_z
Si Si1 0.234153 0.463068 0.187731
Si Si2 0.014880 0.853253 0.959030
Si Si3 0.750743 0.050871 0.958366
Si Si4 0.346865 0.330054 0.391075
Si Si5 0.454678 0.331963 0.815895
Si Si6 0.372744 0.610067 0.008563
Si Si7 0.475996 0.216192 0.926241
Si Si8 0.032520 0.474164 0.891591
O O1 0.419135 0.365122 0.169367
O O2 0.363006 0.571191 0.192301
O O3 0.000000 0.444565 0.250000
O O4 0.147961 0.482617 0.134423
O O5 0.175896 0.771477 0.906531
O O6 0.937398 0.955511 0.931953
O O7 0.770920 0.811719 0.014873
O O8 0.165128 0.888408 0.996027
O O9 0.679634 0.130289 0.917257
O O10 0.500000 0.000000 0.000000
O O11 0.429032 0.332228 0.445756
O O12 0.179367 0.429649 0.399068
O O13 0.500000 0.288160 0.750000
O O14 0.453733 0.245769 0.864478
O O15 0.203606 0.390881 0.844159
O O16 0.500000 0.500000 0.000000
O O17 0.440867 0.678728 0.053037
O O18 0.096237 0.585283 0.044333
#
# Coordination Sequence:
#
# PCOD9230543 Si02
#       8
#     4   4   4   4   4   4   4   4
#     4  11  22  38  52  73 118 163 204 240 275 338
#     4  10  20  37  57  87 121 143 189 246 306 365
#     4   9  20  37  59  81 122 145 181 244 310 358
#     4  11  22  32  55  83 114 155 197 235 293 352
#     4  11  22  35  54  78 116 166 202 232 274 344
#     4  12  19  32  49  81 121 156 183 224 288 350
#     4  11  21  34  55  85 122 157 192 233 299 362
#     4  11  21  35  51  76 120 159 191 234 279 335
#
# _framework density 18.392075999999999
#
# number of rings (size 3 to 8) (size 9 to 14) (size 15 to 20)
#    0.000    1.250    5.000    2.625    0.000    0.000 
#    0.000    0.000    0.000    0.000    0.000    0.000 
#   63.750    0.000    0.000    0.000    0.000    0.000 
#
# Total GULP energy -178342.078764 kJ/mol
# GULP energy per Si atom -5573.189961 kJ/mol
# Density = 1.835021 g / cm^3
# Si number density = 18.392076 Si / 1000 Ang^3
#
#
#
# Elastic Constant Matrix: (Units=GPa)
#
#
# Indices 1 2 3 4 5 6 
#
# 1 75.2685 31.7935 21.6896 0.0000 -10.2357 0.0000
# 2 31.7935 93.4403 32.9369 0.0000 -5.2602 0.0000
# 3 21.6896 32.9369 75.7408 0.0000 -8.0311 0.0000
# 4 0.0000 0.0000 0.0000 12.2087 0.0000 1.1675
# 5 -10.2357 -5.2602 -8.0311 0.0000 35.7185 0.0000
# 6 0.0000 0.0000 0.0000 1.1675 0.0000 30.2018
#
#
#
# Elastic Compliance Matrix: (Units=1/GPa)
#
#
# Indices 1 2 3 4 5 6 
#
# 1 0.016353 -0.004544 -0.002337 0.000000 0.003492 0.000000
# 2 -0.004544 0.013916 -0.004785 0.000000 -0.000329 0.000000
# 3 -0.002337 -0.004785 0.016193 0.000000 0.002267 0.000000
# 4 0.000000 0.000000 0.000000 0.082213 0.000000 -0.003178
# 5 0.003492 -0.000329 0.002267 0.000000 0.029459 0.000000
# 6 0.000000 0.000000 0.000000 -0.003178 0.000000 0.033233
#
#
# Mechanical properties :
#
#
# Convention : Reuss Voigt Hill
#
# Bulk Modulus (GPa) = 43.23222 46.36551 44.79886
# Shear Modulus (GPa) = 22.48091 26.16109 24.32100
#
# Velocity S-wave (km/s) = 3.49996 3.77558 3.64038
# Velocity P-wave (km/s) = 6.31584 6.65364 6.48694
#
# Compressibility (1/GPa) = 0.02313090
#
# Stress axis : x y z
#
# Youngs Moduli (GPa) = 61.14937 71.85739 61.75349
#
# Poissons Ratio (x) = 0.32652 0.14430
# Poissons Ratio (y) = 0.27787 0.29551
# Poissons Ratio (z) = 0.14289 0.34386
#
# Static dielectric constant tensor:
#      x y z
#    x 1.691640 0.000000 -0.035290 
#    y 0.000000 1.647030 0.000000 
#    z -0.035290 0.000000 1.653290 
# 
# From -- ./inp_files/83786.got.cif
#   From: 2010.05.17/outbox.cif.g08.bks.cpg/sg13_42_cif.got.tgz:83786.got - 2010.06.03 16:44:36.
