data_PCOD9230475
_publ_section_title
;
Structure prediction by ZEFSAII (Michael W. Deem and Ramdas Pophale) SiO2 
 PCOD9230475
Probable space group: P 2/C
;
_chemical_formula_sum "Si O2"
_cell_formula_units_Z 26
_cell_length_a 8.673948
_cell_length_b 21.111892
_cell_length_c 8.690695
_cell_angle_alpha 90.000000
_cell_angle_beta 48.672283
_cell_angle_gamma 90.000000
_cell_volume 1195.106130
_symmetry_space_group_name_H-M "P 2/C"
_symmetry_group_IT_number 13
_symmetry_cell_setting 'monoclinic'
loop_
_space_group_symop_operation_xyz
x,y,z
-x,y,1/2-z
-x,-y,-z
x,-y,1/2+z
loop_
_atom_site_type_symbol
_atom_site_label
_atom_site_fract_x
_atom_site_fract_y
_atom_site_fract_z
Si Si1 0.775751 0.573166 0.481992
Si Si2 0.245405 0.155828 0.609815
Si Si3 0.239813 0.440115 0.139095
Si Si4 0.753191 0.056517 0.665755
Si Si5 0.753942 0.296776 0.864633
Si Si6 0.000000 0.011253 0.250000
Si Si7 0.500000 0.943066 0.750000
Si Si8 0.500000 0.653702 0.250000
O O1 0.687240 0.509765 0.464475
O O2 0.768093 0.565676 0.670563
O O3 0.679145 0.640631 0.502658
O O4 0.000000 0.575324 0.250000
O O5 0.307487 0.125056 0.733906
O O6 0.325635 0.227128 0.537471
O O7 0.341042 0.103898 0.433247
O O8 0.000000 0.159930 0.750000
O O9 0.000000 0.433607 0.250000
O O10 0.370425 0.389496 0.955189
O O11 0.828213 0.054562 0.441560
O O12 0.610417 0.995203 0.782682
O O13 0.933851 0.035994 0.660124
O O14 0.669240 0.308963 0.745266
O O15 0.000000 0.294605 0.750000
#
# Coordination Sequence:
#
# PCOD9230475 Si02
#       8
#     4   4   4   4   4   2   2   2
#     4  10  20  40  67 101 136 184 228 283 349 401
#     4  11  23  43  65  89 134 174 211 267 335 396
#     4  11  22  39  70 103 143 177 230 296 343 402
#     4  11  20  39  61  96 124 159 209 269 317 389
#     4  10  24  46  70  93 140 184 225 280 337 408
#     4  10  20  36  66  88 124 162 200 260 332 378
#     4  12  24  37  67 102 122 166 220 270 330 394
#     4  12  26  45  69 106 136 180 240 282 342 414
#
# _framework density 21.755389999999998
#
# number of rings (size 3 to 8) (size 9 to 14) (size 15 to 20)
#    0.000    1.231    2.308    6.000    0.000    4.923 
#    0.000    0.000   11.846    0.000    0.000    0.000 
#    0.000    0.000    0.000    0.000    0.000    0.000 
#
# Total GULP energy -144743.102899 kJ/mol
# GULP energy per Si atom -5567.042419 kJ/mol
# Density = 2.170587 g / cm^3
# Si number density = 21.755390 Si / 1000 Ang^3
#
#
#
# Elastic Constant Matrix: (Units=GPa)
#
#
# Indices 1 2 3 4 5 6 
#
# 1 111.3454 59.7938 47.5353 0.0000 14.9994 0.0000
# 2 59.7938 154.5387 41.6057 0.0000 6.3423 0.0000
# 3 47.5353 41.6057 136.3783 0.0000 12.2351 0.0000
# 4 0.0000 0.0000 0.0000 61.8010 0.0000 -20.2952
# 5 14.9994 6.3423 12.2351 0.0000 37.7737 0.0000
# 6 0.0000 0.0000 0.0000 -20.2952 0.0000 31.0622
#
#
#
# Elastic Compliance Matrix: (Units=1/GPa)
#
#
# Indices 1 2 3 4 5 6 
#
# 1 0.012880 -0.004049 -0.002942 0.000000 -0.003482 0.000000
# 2 -0.004049 0.008332 -0.001184 0.000000 0.000592 0.000000
# 3 -0.002942 -0.001184 0.008854 0.000000 -0.001501 0.000000
# 4 0.000000 0.000000 0.000000 0.020601 0.000000 0.013460
# 5 -0.003482 0.000592 -0.001501 0.000000 0.028243 0.000000
# 6 0.000000 0.000000 0.000000 0.013460 0.000000 0.040988
#
#
# Mechanical properties :
#
#
# Convention : Reuss Voigt Hill
#
# Bulk Modulus (GPa) = 72.90208 77.79244 75.34726
# Shear Modulus (GPa) = 35.50661 43.01591 39.26126
#
# Velocity S-wave (km/s) = 4.04429 4.45146 4.25275
# Velocity P-wave (km/s) = 7.44251 7.89025 7.66965
#
# Compressibility (1/GPa) = 0.01371703
#
# Stress axis : x y z
#
# Youngs Moduli (GPa) = 77.63817 120.02255 112.94643
#
# Poissons Ratio (x) = 0.48593 0.33228
# Poissons Ratio (y) = 0.31433 0.13370
# Poissons Ratio (z) = 0.22841 0.14208
#
# Static dielectric constant tensor:
#      x y z
#    x 1.999390 0.000000 -0.069710 
#    y 0.000000 1.836110 0.000000 
#    z -0.069710 0.000000 1.911040 
# 
# From -- ./inp_files/13645.got.cif
#   From: 2010.05.17/outbox.cif.g08.bks.cpg/sg13_7_cif.got.tgz:13645.got - 2010.06.03 16:44:36.
