data_PCOD9230461
_publ_section_title
;
Structure prediction by ZEFSAII (Michael W. Deem and Ramdas Pophale) SiO2 
 PCOD9230461
Probable space group: P 2/C
;
_chemical_formula_sum "Si O2"
_cell_formula_units_Z 16
_cell_length_a 9.577910
_cell_length_b 10.408463
_cell_length_c 8.849772
_cell_angle_alpha 90.000000
_cell_angle_beta 68.148889
_cell_angle_gamma 90.000000
_cell_volume 818.859817
_symmetry_space_group_name_H-M "P 2/C"
_symmetry_group_IT_number 13
_symmetry_cell_setting 'monoclinic'
loop_
_space_group_symop_operation_xyz
x,y,z
-x,y,1/2-z
-x,-y,-z
x,-y,1/2+z
loop_
_atom_site_type_symbol
_atom_site_label
_atom_site_fract_x
_atom_site_fract_y
_atom_site_fract_z
Si Si1 0.324254 0.522968 0.595998
Si Si2 0.920765 0.381409 0.119037
Si Si3 0.957805 0.866186 0.092760
Si Si4 0.679725 0.300708 0.692221
O O1 0.500000 0.500000 0.500000
O O2 0.255319 0.602084 0.765440
O O3 0.275323 0.379823 0.672436
O O4 0.282967 0.605895 0.465049
O O5 0.000000 0.379057 0.250000
O O6 0.000000 0.500000 0.000000
O O7 0.952031 0.251262 0.019234
O O8 0.783408 0.824169 0.143275
O O9 0.000000 0.873003 0.250000
O O10 0.000000 0.000000 0.000000
O O11 0.500000 0.277511 0.750000
#
# Coordination Sequence:
#
# PCOD9230461 Si02
#       4
#     4   4   4   4
#     4  10  20  36  64  99 132 166 210 268 335 386
#     4  12  21  37  66  97 133 169 218 273 328 386
#     4  12  27  44  67  94 132 180 233 277 332 401
#     4  10  22  41  67  98 138 169 217 274 339 397
#
# _framework density 19.539363000000002
#
# number of rings (size 3 to 8) (size 9 to 14) (size 15 to 20)
#    0.000    1.000    5.000    1.500    3.500    0.000 
#    0.000    1.250    0.000    0.000    0.000    0.000 
#    0.000    0.000    0.000    0.000    0.000    0.000 
#
# Total GULP energy -89099.808829 kJ/mol
# GULP energy per Si atom -5568.738052 kJ/mol
# Density = 1.949489 g / cm^3
# Si number density = 19.539363 Si / 1000 Ang^3
#
#
#
# Elastic Constant Matrix: (Units=GPa)
#
#
# Indices 1 2 3 4 5 6 
#
# 1 101.5836 62.4666 64.9932 0.0000 -14.4150 0.0000
# 2 62.4666 171.8309 93.7817 0.0000 0.6897 0.0000
# 3 64.9932 93.7817 165.7925 0.0000 -7.6874 0.0000
# 4 0.0000 0.0000 0.0000 49.3740 0.0000 -7.2873
# 5 -14.4150 0.6897 -7.6874 0.0000 50.9989 0.0000
# 6 0.0000 0.0000 0.0000 -7.2873 0.0000 26.5217
#
#
#
# Elastic Compliance Matrix: (Units=1/GPa)
#
#
# Indices 1 2 3 4 5 6 
#
# 1 0.014826 -0.003364 -0.003739 0.000000 0.003673 0.000000
# 2 -0.003364 0.009218 -0.003973 0.000000 -0.001674 0.000000
# 3 -0.003739 -0.003973 0.009766 0.000000 0.000469 0.000000
# 4 0.000000 0.000000 0.000000 0.021110 0.000000 0.005800
# 5 0.003673 -0.001674 0.000469 0.000000 0.020740 0.000000
# 6 0.000000 0.000000 0.000000 0.005800 0.000000 0.039299
#
#
# Mechanical properties :
#
#
# Convention : Reuss Voigt Hill
#
# Bulk Modulus (GPa) = 85.77424 97.96555 91.86990
# Shear Modulus (GPa) = 35.46206 39.90995 37.68600
#
# Velocity S-wave (km/s) = 4.26479 4.52435 4.39649
# Velocity P-wave (km/s) = 8.26104 8.80564 8.53768
#
# Compressibility (1/GPa) = 0.01165851
#
# Stress axis : x y z
#
# Youngs Moduli (GPa) = 67.44931 108.48755 102.39149
#
# Poissons Ratio (x) = 0.36494 0.38283
# Poissons Ratio (y) = 0.22689 0.40680
# Poissons Ratio (z) = 0.25219 0.43102
#
# Static dielectric constant tensor:
#      x y z
#    x 1.775640 0.000000 0.006950 
#    y 0.000000 1.644530 0.000000 
#    z 0.006950 0.000000 1.723490 
# 
# From -- ./inp_files/14737.got.cif
#   From: 2010.05.17/outbox.cif.g08.bks.cpg/sg13_8_cif.got.tgz:14737.got - 2010.06.03 16:44:36.
