data_PCOD9230709
_publ_section_title
;
Structure prediction by ZEFSAII (Michael W. Deem and Ramdas Pophale) SiO2 
 PCOD9230709
Probable space group: P 2/C
;
_chemical_formula_sum "Si O2"
_cell_formula_units_Z 28
_cell_length_a 4.806200
_cell_length_b 14.971850
_cell_length_c 16.516893
_cell_angle_alpha 90.000000
_cell_angle_beta 59.181158
_cell_angle_gamma 90.000000
_cell_volume 1020.688873
_symmetry_space_group_name_H-M "P 2/C"
_symmetry_group_IT_number 13
_symmetry_cell_setting 'monoclinic'
loop_
_space_group_symop_operation_xyz
x,y,z
-x,y,1/2-z
-x,-y,-z
x,-y,1/2+z
loop_
_atom_site_type_symbol
_atom_site_label
_atom_site_fract_x
_atom_site_fract_y
_atom_site_fract_z
Si Si1 0.172675 0.191312 0.836841
Si Si2 0.208358 0.392126 0.013021
Si Si3 0.708359 0.892126 0.013021
Si Si4 0.749999 0.750000 0.500000
Si Si5 0.327325 0.308688 0.163158
Si Si6 0.591652 0.501945 0.654428
Si Si7 0.091653 0.998055 0.154428
O O1 0.500000 0.225360 0.750000
O O2 0.122135 0.092072 0.812107
O O3 0.134492 0.173600 0.942325
O O4 0.853767 0.249750 0.882154
O O5 0.365508 0.326400 0.057675
O O6 0.997095 0.336416 0.981568
O O7 0.955871 0.458212 0.094724
O O8 0.451459 0.448130 0.921870
O O9 0.497096 0.836416 0.981568
O O10 0.951460 0.948131 0.921870
O O11 0.455872 0.958212 0.094724
O O12 0.646232 0.749750 0.617846
O O13 0.377865 0.407928 0.187892
O O14 0.000000 0.274640 0.250000
O O15 0.500000 0.452119 0.750000
O O16 0.000000 0.047882 0.250000
#
# Coordination Sequence:
#
# PCOD9230709 Si02
#       7
#     4   4   4   4   4   4   4
#     4  11  21  39  64  87 126 169 204 259 321 370
#     4  10  21  39  60  89 125 159 209 260 311 372
#     4  10  21  39  60  89 125 159 209 260 311 372
#     4  10  24  38  58  88 122 168 208 254 308 382
#     4  11  21  39  64  87 126 169 204 259 321 370
#     4  10  20  37  62  92 119 159 212 259 310 371
#     4  10  20  37  62  92 119 159 212 259 310 371
#
# _framework density 27.432452000000001
#
# number of rings (size 3 to 8) (size 9 to 14) (size 15 to 20)
#    0.000    1.714    2.857    1.714    0.000    1.143 
#    0.000    2.857    0.000    0.000    0.000    0.000 
#    0.000    0.000    0.000    0.000    0.000    0.000 
#
# Total GULP energy -155934.930306 kJ/mol
# GULP energy per Si atom -5569.104654 kJ/mol
# Density = 2.737001 g / cm^3
# Si number density = 27.432452 Si / 1000 Ang^3
#
#
#
# Elastic Constant Matrix: (Units=GPa)
#
#
# Indices 1 2 3 4 5 6 
#
# 1 83.1519 34.0678 14.7512 0.0000 3.8662 0.0000
# 2 34.0678 81.3346 43.8198 0.0000 -1.6168 0.0000
# 3 14.7512 43.8198 209.3480 0.0000 -27.2123 0.0000
# 4 0.0000 0.0000 0.0000 17.5503 0.0000 5.2404
# 5 3.8662 -1.6168 -27.2123 0.0000 55.4594 0.0000
# 6 0.0000 0.0000 0.0000 5.2404 0.0000 45.7687
#
#
#
# Elastic Compliance Matrix: (Units=1/GPa)
#
#
# Indices 1 2 3 4 5 6 
#
# 1 0.014599 -0.006203 0.000122 0.000000 -0.001139 0.000000
# 2 -0.006203 0.016555 -0.003107 0.000000 -0.000610 0.000000
# 3 0.000122 -0.003107 0.005774 0.000000 0.002734 0.000000
# 4 0.000000 0.000000 0.000000 0.058996 0.000000 -0.006755
# 5 -0.001139 -0.000610 0.002734 0.000000 0.019434 0.000000
# 6 0.000000 0.000000 0.000000 -0.006755 0.000000 0.022622
#
#
# Mechanical properties :
#
#
# Convention : Reuss Voigt Hill
#
# Bulk Modulus (GPa) = 53.90708 62.12357 58.01532
# Shear Modulus (GPa) = 30.76127 42.50205 36.63166
#
# Velocity S-wave (km/s) = 3.35228 3.94043 3.65820
# Velocity P-wave (km/s) = 5.88874 6.58770 6.24800
#
# Compressibility (1/GPa) = 0.01855044
#
# Stress axis : x y z
#
# Youngs Moduli (GPa) = 68.49786 60.40407 173.19079
#
# Poissons Ratio (x) = 0.37469 -0.02108
# Poissons Ratio (y) = 0.42490 0.53818
# Poissons Ratio (z) = -0.00834 0.18770
#
# Static dielectric constant tensor:
#      x y z
#    x 2.751920 0.000000 -0.132560 
#    y 0.000000 2.415160 0.000000 
#    z -0.132560 0.000000 2.265590 
# 
# From -- ./inp_files/44378.got.cif
#   From: 2010.05.17/outbox.cif.g08.bks.cpg/sg13_23_cif.got.tgz:44378.got - 2010.06.03 16:44:36.
