data_PCOD9230448
_publ_section_title
;
Structure prediction by ZEFSAII (Michael W. Deem and Ramdas Pophale) SiO2 
 PCOD9230448
Probable space group: P 2/C
;
_chemical_formula_sum "Si O2"
_cell_formula_units_Z 16
_cell_length_a 9.687995
_cell_length_b 10.271627
_cell_length_c 9.688591
_cell_angle_alpha 90.000000
_cell_angle_beta 129.409317
_cell_angle_gamma 90.000000
_cell_volume 744.912963
_symmetry_space_group_name_H-M "P 2/C"
_symmetry_group_IT_number 13
_symmetry_cell_setting 'monoclinic'
loop_
_space_group_symop_operation_xyz
x,y,z
-x,y,1/2-z
-x,-y,-z
x,-y,1/2+z
loop_
_atom_site_type_symbol
_atom_site_label
_atom_site_fract_x
_atom_site_fract_y
_atom_site_fract_z
Si Si1 0.410290 0.312442 0.047774
Si Si2 0.341918 0.413401 0.537417
Si Si3 0.708918 0.142254 0.925757
Si Si4 0.191160 0.932632 0.301333
O O1 0.500000 0.278870 0.250000
O O2 0.279139 0.438647 0.977873
O O3 0.565242 0.361490 0.042855
O O4 0.312755 0.188883 0.923659
O O5 0.500000 0.429182 0.750000
O O6 0.226249 0.291798 0.516899
O O7 0.500000 0.145492 0.750000
O O8 0.807918 0.070034 0.863533
O O9 0.731166 0.063677 0.081243
O O10 0.000000 0.914861 0.250000
#
# Coordination Sequence:
#
# PCOD9230448 Si02
#       4
#     4   4   4   4
#     4  10  20  36  64  90 113 152 201 239 290 346
#     4   9  18  37  63  88 113 146 203 248 275 335
#     4  11  22  41  63  86 114 157 205 240 280 349
#     4  12  25  40  57  89 126 154 189 247 301 344
#
# _framework density 21.479018
#
# number of rings (size 3 to 8) (size 9 to 14) (size 15 to 20)
#    0.000    1.500    5.000    2.250    3.500    0.000 
#    0.000    2.500    0.000    0.000    0.000    0.000 
#    0.000    0.000    0.000    0.000    0.000    0.000 
#
# Total GULP energy -89336.422264 kJ/mol
# GULP energy per Si atom -5583.526391 kJ/mol
# Density = 2.143013 g / cm^3
# Si number density = 21.479018 Si / 1000 Ang^3
#
#
#
# Elastic Constant Matrix: (Units=GPa)
#
#
# Indices 1 2 3 4 5 6 
#
# 1 59.5002 -16.6491 10.8548 0.0000 -12.2103 0.0000
# 2 -16.6491 123.6580 5.6228 0.0000 0.8724 0.0000
# 3 10.8548 5.6228 34.5475 0.0000 -24.3004 0.0000
# 4 0.0000 0.0000 0.0000 8.6495 0.0000 -23.8352
# 5 -12.2103 0.8724 -24.3004 0.0000 34.4107 0.0000
# 6 0.0000 0.0000 0.0000 -23.8352 0.0000 16.7701
#
#
#
# Elastic Compliance Matrix: (Units=1/GPa)
#
#
# Indices 1 2 3 4 5 6 
#
# 1 0.019062 0.002691 -0.003413 0.000000 0.004286 0.000000
# 2 0.002691 0.008617 -0.003438 0.000000 -0.001691 0.000000
# 3 -0.003413 -0.003438 0.059187 0.000000 0.040673 0.000000
# 4 0.000000 0.000000 0.000000 -0.039639 0.000000 -0.056339
# 5 0.004286 -0.001691 0.040673 0.000000 0.059347 0.000000
# 6 0.000000 0.000000 0.000000 -0.056339 0.000000 -0.020445
#
#
# Mechanical properties :
#
#
# Convention : Reuss Voigt Hill
#
# Bulk Modulus (GPa) = 12.73112 24.15140 18.44126
# Shear Modulus (GPa) = 41.44915 26.49118 33.97017
#
# Velocity S-wave (km/s) = 4.39766 3.51572 3.98119
# Velocity P-wave (km/s) = 5.63258 5.26773 5.45321
#
# Compressibility (1/GPa) = 0.07854768
#
# Stress axis : x y z
#
# Youngs Moduli (GPa) = 52.46083 116.04386 16.89570
#
# Poissons Ratio (x) = -0.31232 0.05766
# Poissons Ratio (y) = -0.14119 0.05808
# Poissons Ratio (z) = 0.17904 0.39893
#
# Static dielectric constant tensor:
#      x y z
#    x 1.810670 0.000000 -0.034070 
#    y 0.000000 1.851550 0.000000 
#    z -0.034070 0.000000 1.805670 
# 
# From -- ./inp_files/11153.got.cif
#   From: 2010.05.17/outbox.cif.g08.bks.cpg/sg13_6_cif.got.tgz:11153.got - 2010.06.03 16:44:36.
