data_PCOD9230382
_publ_section_title
;
Structure prediction by ZEFSAII (Michael W. Deem and Ramdas Pophale) SiO2 
 PCOD9230382
Probable space group: P 2/C
;
_chemical_formula_sum "Si O2"
_cell_formula_units_Z 22
_cell_length_a 8.958904
_cell_length_b 13.943989
_cell_length_c 12.396845
_cell_angle_alpha 90.000000
_cell_angle_beta 35.091437
_cell_angle_gamma 90.000000
_cell_volume 890.292121
_symmetry_space_group_name_H-M "P 2/C"
_symmetry_group_IT_number 13
_symmetry_cell_setting 'monoclinic'
loop_
_space_group_symop_operation_xyz
x,y,z
-x,y,1/2-z
-x,-y,-z
x,-y,1/2+z
loop_
_atom_site_type_symbol
_atom_site_label
_atom_site_fract_x
_atom_site_fract_y
_atom_site_fract_z
Si Si1 0.051279 0.648016 0.526401
Si Si2 0.745201 0.782552 0.826906
Si Si3 0.000000 0.318161 0.750000
Si Si4 0.752265 0.539953 0.526148
Si Si5 0.758040 0.805060 0.223943
Si Si6 0.785508 0.008388 0.280410
O O1 0.183987 0.572165 0.528024
O O2 0.226195 0.739448 0.390989
O O3 0.782837 0.692498 0.727438
O O4 0.988206 0.586233 0.456968
O O5 0.000000 0.775814 0.750000
O O6 0.781590 0.882631 0.741089
O O7 0.494854 0.788479 0.051137
O O8 0.983722 0.243175 0.661845
O O9 0.234147 0.392894 0.586983
O O10 0.500000 0.543997 0.750000
O O11 0.802493 0.918809 0.189001
O O12 0.000000 0.999765 0.250000
O O13 0.500000 0.000000 0.500000
#
# Coordination Sequence:
#
# PCOD9230382 Si02
#       6
#     4   4   2   4   4   4
#     4  10  23  37  55  87 111 148 195 236 283 344
#     4  10  22  36  57  85 118 151 185 232 291 342
#     4  10  20  36  62  80 104 158 188 234 294 330
#     4  10  22  38  56  81 115 144 194 242 281 341
#     4  10  20  37  61  82 113 150 192 232 284 344
#     4   9  18  36  60  88 120 154 194 240 288 354
#
# _framework density 24.710992999999998
#
# number of rings (size 3 to 8) (size 9 to 14) (size 15 to 20)
#    0.000    2.182    0.909    1.091    3.818    0.727 
#    0.000    5.455    0.000    4.364    0.000    0.000 
#    0.000    0.000    0.000    0.000    0.000    0.000 
#
# Total GULP energy -122690.699400 kJ/mol
# GULP energy per Si atom -5576.849973 kJ/mol
# Density = 2.465475 g / cm^3
# Si number density = 24.710993 Si / 1000 Ang^3
#
#
#
# Elastic Constant Matrix: (Units=GPa)
#
#
# Indices 1 2 3 4 5 6 
#
# 1 23.8883 4.4793 -3.8099 0.0000 -4.1267 0.0000
# 2 4.4793 180.8432 43.6983 0.0000 10.7059 0.0000
# 3 -3.8099 43.6983 126.6131 0.0000 -3.7341 0.0000
# 4 0.0000 0.0000 0.0000 41.5337 0.0000 2.9975
# 5 -4.1267 10.7059 -3.7341 0.0000 29.4408 0.0000
# 6 0.0000 0.0000 0.0000 2.9975 0.0000 12.5014
#
#
#
# Elastic Compliance Matrix: (Units=1/GPa)
#
#
# Indices 1 2 3 4 5 6 
#
# 1 0.043843 -0.002052 0.002239 0.000000 0.007175 0.000000
# 2 -0.002052 0.006313 -0.002325 0.000000 -0.002878 0.000000
# 3 0.002239 -0.002325 0.008835 0.000000 0.002280 0.000000
# 4 0.000000 0.000000 0.000000 0.024501 0.000000 -0.005875
# 5 0.007175 -0.002878 0.002280 0.000000 0.036308 0.000000
# 6 0.000000 0.000000 0.000000 -0.005875 0.000000 0.081399
#
#
# Mechanical properties :
#
#
# Convention : Reuss Voigt Hill
#
# Bulk Modulus (GPa) = 18.27664 46.67554 32.47609
# Shear Modulus (GPa) = 22.35003 35.82699 29.08851
#
# Velocity S-wave (km/s) = 3.01068 3.81181 3.43468
# Velocity P-wave (km/s) = 4.41563 6.18892 5.37590
#
# Compressibility (1/GPa) = 0.05471465
#
# Stress axis : x y z
#
# Youngs Moduli (GPa) = 22.80875 158.40962 113.18303
#
# Poissons Ratio (x) = 0.32502 -0.25342
# Poissons Ratio (y) = 0.04680 0.26319
# Poissons Ratio (z) = -0.05107 0.36836
#
# Static dielectric constant tensor:
#      x y z
#    x 2.055590 0.000000 0.075840 
#    y 0.000000 2.021860 0.000000 
#    z 0.075840 0.000000 1.991860 
# 
# From -- ./inp_files/26323.got.cif
#   From: 2010.05.17/outbox.cif.g08.bks.cpg/sg13_14_cif.got.tgz:26323.got - 2010.06.03 16:44:36.
