data_PCOD9230437
_publ_section_title
;
Structure prediction by ZEFSAII (Michael W. Deem and Ramdas Pophale) SiO2 
 PCOD9230437
Probable space group: P 2/C
;
_chemical_formula_sum "Si O2"
_cell_formula_units_Z 16
_cell_length_a 10.708546
_cell_length_b 13.209709
_cell_length_c 10.109114
_cell_angle_alpha 90.000000
_cell_angle_beta 151.845972
_cell_angle_gamma 90.000000
_cell_volume 674.737452
_symmetry_space_group_name_H-M "P 2/C"
_symmetry_group_IT_number 13
_symmetry_cell_setting 'monoclinic'
loop_
_space_group_symop_operation_xyz
x,y,z
-x,y,1/2-z
-x,-y,-z
x,-y,1/2+z
loop_
_atom_site_type_symbol
_atom_site_label
_atom_site_fract_x
_atom_site_fract_y
_atom_site_fract_z
Si Si1 0.169837 0.580733 0.246832
Si Si2 0.665389 0.388479 0.019561
Si Si3 0.524890 0.898609 0.111650
Si Si4 0.958240 0.235371 0.442073
O O1 0.258695 0.503954 0.445359
O O2 0.448276 0.607423 0.434797
O O3 0.000000 0.500000 0.000000
O O4 0.017992 0.687376 0.119612
O O5 0.500000 0.337118 0.750000
O O6 0.916777 0.324029 0.296300
O O7 0.500000 0.914224 0.250000
O O8 0.803294 0.842031 0.351189
O O9 0.304097 0.827946 0.835330
O O10 0.500000 0.000000 0.000000
#
# Coordination Sequence:
#
# PCOD9230437 Si02
#       4
#     4   4   4   4
#     4   9  20  35  60  95 138 170 214 268 317 394
#     4  10  20  36  63  97 137 175 221 266 323 394
#     4  12  27  46  74 100 131 173 232 296 353 406
#     4  11  22  41  69  97 130 178 227 278 335 413
#
# _framework density 23.712927000000001
#
# number of rings (size 3 to 8) (size 9 to 14) (size 15 to 20)
#    0.000    1.500    2.500    2.250    3.500    3.000 
#    0.000    1.250   16.500    0.000    0.000    0.000 
#    0.000    0.000    0.000    0.000    0.000    0.000 
#
# Total GULP energy -89068.698424 kJ/mol
# GULP energy per Si atom -5566.793652 kJ/mol
# Density = 2.365896 g / cm^3
# Si number density = 23.712927 Si / 1000 Ang^3
#
#
#
# Elastic Constant Matrix: (Units=GPa)
#
#
# Indices 1 2 3 4 5 6 
#
# 1 57.1031 24.8734 29.3415 0.0000 -7.3074 0.0000
# 2 24.8734 178.0887 58.6018 0.0000 -12.7400 0.0000
# 3 29.3415 58.6018 178.3758 0.0000 13.0165 0.0000
# 4 0.0000 0.0000 0.0000 55.2867 0.0000 6.8012
# 5 -7.3074 -12.7400 13.0165 0.0000 32.7522 0.0000
# 6 0.0000 0.0000 0.0000 6.8012 0.0000 1.0583
#
#
#
# Elastic Compliance Matrix: (Units=1/GPa)
#
#
# Indices 1 2 3 4 5 6 
#
# 1 0.020501 -0.001394 -0.003305 0.000000 0.005345 0.000000
# 2 -0.001394 0.006773 -0.002230 0.000000 0.003210 0.000000
# 3 -0.003305 -0.002230 0.007209 0.000000 -0.004470 0.000000
# 4 0.000000 0.000000 0.000000 0.086370 0.000000 -0.555064
# 5 0.005345 0.003210 -0.004470 0.000000 0.034750 0.000000
# 6 0.000000 0.000000 0.000000 -0.555064 0.000000 4.512092
#
#
# Mechanical properties :
#
#
# Convention : Reuss Voigt Hill
#
# Bulk Modulus (GPa) = 48.48158 71.02234 59.75196
# Shear Modulus (GPa) = 1.06646 37.86950 19.46798
#
# Velocity S-wave (km/s) = 0.67135 4.00058 2.86839
# Velocity P-wave (km/s) = 4.59244 7.16627 6.01855
#
# Compressibility (1/GPa) = 0.02062639
#
# Stress axis : x y z
#
# Youngs Moduli (GPa) = 48.77755 147.63725 138.72360
#
# Poissons Ratio (x) = 0.20575 0.45841
# Poissons Ratio (y) = 0.06798 0.30939
# Poissons Ratio (z) = 0.16119 0.32927
#
# Static dielectric constant tensor:
#      x y z
#    x 1.896440 0.000000 0.251480 
#    y 0.000000 2.032240 0.000000 
#    z 0.251480 0.000000 1.495610 
# 
# From -- ./inp_files/34094.got.cif
#   From: 2010.05.17/outbox.cif.g08.bks.cpg/sg13_18_cif.got.tgz:34094.got - 2010.06.03 16:44:36.
