data_PCOD9230290
_publ_section_title
;
Structure prediction by ZEFSAII (Michael W. Deem and Ramdas Pophale) SiO2 
 PCOD9230290
Probable space group: P 2/C
;
_chemical_formula_sum "Si O2"
_cell_formula_units_Z 24
_cell_length_a 7.484615
_cell_length_b 11.990267
_cell_length_c 19.854132
_cell_angle_alpha 90.000000
_cell_angle_beta 141.843887
_cell_angle_gamma 90.000000
_cell_volume 1100.782548
_symmetry_space_group_name_H-M "P 2/C"
_symmetry_group_IT_number 13
_symmetry_cell_setting 'monoclinic'
loop_
_space_group_symop_operation_xyz
x,y,z
-x,y,1/2-z
-x,-y,-z
x,-y,1/2+z
loop_
_atom_site_type_symbol
_atom_site_label
_atom_site_fract_x
_atom_site_fract_y
_atom_site_fract_z
Si Si1 0.698119 0.388244 0.133197
Si Si2 0.240361 0.860298 0.868376
Si Si3 0.114301 0.128540 0.959843
Si Si4 0.830543 0.098554 0.364602
Si Si5 0.184421 0.355056 0.625536
Si Si6 0.211332 0.444395 0.490913
O O1 0.693642 0.258082 0.148890
O O2 0.442638 0.463573 0.084738
O O3 0.000000 0.433919 0.250000
O O4 0.682645 0.394334 0.047643
O O5 0.564834 0.905638 0.970107
O O6 0.000000 0.920450 0.750000
O O7 0.068010 0.844220 0.886836
O O8 0.119917 0.123300 0.042531
O O9 0.017330 0.252733 0.910287
O O10 0.889766 0.033550 0.870685
O O11 0.500000 0.127800 0.250000
O O12 0.500000 0.339191 0.750000
O O13 0.178975 0.359058 0.542253
O O14 0.063776 0.478046 0.607343
#
# Coordination Sequence:
#
# PCOD9230290 Si02
#       6
#     4   4   4   4   4   4
#     4  10  20  36  59  88 119 156 200 251 300 358
#     4  11  21  39  63  88 121 159 202 255 308 363
#     4  11  23  41  62  89 123 160 204 257 307 366
#     4  11  23  40  64  90 121 160 205 255 310 368
#     4  11  22  39  60  87 122 162 203 250 307 365
#     4  10  21  37  59  86 122 159 203 245 304 363
#
# _framework density 21.802672000000001
#
# number of rings (size 3 to 8) (size 9 to 14) (size 15 to 20)
#    0.000    1.333    3.333    3.000    0.000    0.000 
#    0.000    0.833    0.000    0.000    0.000    0.000 
#    0.000    0.000    0.000    0.000    0.000    0.000 
#
# Total GULP energy -133935.053519 kJ/mol
# GULP energy per Si atom -5580.627230 kJ/mol
# Density = 2.175305 g / cm^3
# Si number density = 21.802672 Si / 1000 Ang^3
#
#
#
# Elastic Constant Matrix: (Units=GPa)
#
#
# Indices 1 2 3 4 5 6 
#
# 1 99.1794 10.2038 18.7065 0.0000 18.7993 0.0000
# 2 10.2038 66.1985 14.5628 0.0000 5.0625 0.0000
# 3 18.7065 14.5628 80.3098 0.0000 24.0940 0.0000
# 4 0.0000 0.0000 0.0000 -0.1658 0.0000 -1.8227
# 5 18.7993 5.0625 24.0940 0.0000 32.4566 0.0000
# 6 0.0000 0.0000 0.0000 -1.8227 0.0000 25.0651
#
#
#
# Elastic Compliance Matrix: (Units=1/GPa)
#
#
# Indices 1 2 3 4 5 6 
#
# 1 0.011458 -0.001163 -0.000671 0.000000 -0.005957 0.000000
# 2 -0.001163 0.015856 -0.002656 0.000000 0.000172 0.000000
# 3 -0.000671 -0.002656 0.016530 0.000000 -0.011468 0.000000
# 4 0.000000 0.000000 0.000000 -3.351856 0.000000 -0.243743
# 5 -0.005957 0.000172 -0.011468 0.000000 0.042748 0.000000
# 6 0.000000 0.000000 0.000000 -0.243743 0.000000 0.022171
#
#
# Mechanical properties :
#
#
# Convention : Reuss Voigt Hill
#
# Bulk Modulus (GPa) = 28.68180 36.95933 32.82056
# Shear Modulus (GPa) = -1.55160 24.95217 11.70029
#
# Velocity S-wave (km/s) = -0.84451 3.38665 2.31907
# Velocity P-wave (km/s) = 3.49754 5.68164 4.71773
#
# Compressibility (1/GPa) = 0.03486532
#
# Stress axis : x y z
#
# Youngs Moduli (GPa) = 87.27435 63.06574 60.49497
#
# Poissons Ratio (x) = 0.07335 0.04058
# Poissons Ratio (y) = 0.10150 0.16068
# Poissons Ratio (z) = 0.05854 0.16750
#
# Static dielectric constant tensor:
#      x y z
#    x 1.802360 0.000000 0.031600 
#    y 0.000000 1.825480 0.000000 
#    z 0.031600 0.000000 1.808010 
# 
# From -- ./inp_files/80189.got.cif
#   From: 2010.05.17/outbox.cif.g08.bks.cpg/sg13_41_cif.got.tgz:80189.got - 2010.06.03 16:44:36.
