data_PCOD9230249
_publ_section_title
;
Structure prediction by ZEFSAII (Michael W. Deem and Ramdas Pophale) SiO2 
 PCOD9230249
Probable space group: P 2/C
;
_chemical_formula_sum "Si O2"
_cell_formula_units_Z 30
_cell_length_a 9.379323
_cell_length_b 5.733532
_cell_length_c 28.375497
_cell_angle_alpha 90.000000
_cell_angle_beta 104.514304
_cell_angle_gamma 90.000000
_cell_volume 1477.238939
_symmetry_space_group_name_H-M "P 2/C"
_symmetry_group_IT_number 13
_symmetry_cell_setting 'monoclinic'
loop_
_space_group_symop_operation_xyz
x,y,z
-x,y,1/2-z
-x,-y,-z
x,-y,1/2+z
loop_
_atom_site_type_symbol
_atom_site_label
_atom_site_fract_x
_atom_site_fract_y
_atom_site_fract_z
Si Si1 0.634996 0.120033 0.326299
Si Si2 0.941574 0.627971 0.838010
Si Si3 0.488225 0.149840 0.889676
Si Si4 0.577093 0.746688 0.497171
Si Si5 0.377416 0.546698 0.814591
Si Si6 0.000000 0.910097 0.750000
Si Si7 0.214753 0.250809 0.725576
Si Si8 0.240192 0.797109 0.895477
O O1 0.592518 0.044206 0.375531
O O2 0.671498 0.902105 0.295267
O O3 0.782070 0.273518 0.338396
O O4 0.491389 0.269764 0.302480
O O5 0.908140 0.359581 0.820326
O O6 0.067880 0.726256 0.882659
O O7 0.993767 0.750554 0.794475
O O8 0.460620 0.329979 0.845329
O O9 0.327857 0.042924 0.891792
O O10 0.579826 0.252645 0.940693
O O11 0.500000 0.500000 0.500000
O O12 0.703330 0.741309 0.547255
O O13 0.500000 0.000000 0.500000
O O14 0.280293 0.455206 0.763174
O O15 0.296139 0.651009 0.854140
O O16 0.140006 0.076479 0.756618
#
# Coordination Sequence:
#
# PCOD9230249 Si02
#       8
#     4   4   4   4   4   2   4   4
#     4  10  25  40  56  87 125 167 212 254 314 385
#     4  11  22  39  57  84 127 166 203 254 315 382
#     4  10  21  39  64  92 122 160 211 265 318 378
#     4  10  20  40  67 103 128 159 210 280 328 383
#     4  11  21  38  63  85 120 165 214 261 315 366
#     4  10  20  36  58  86 122 160 214 254 310 374
#     4  11  23  38  59  89 125 170 212 262 311 375
#     4  10  21  37  64  96 119 159 210 262 323 382
#
# _framework density 20.308156
#
# number of rings (size 3 to 8) (size 9 to 14) (size 15 to 20)
#    0.000    1.600    1.333    3.600    0.000    7.467 
#    0.000    0.667    0.000    3.200    0.000    0.000 
#    0.000    0.000    0.000    0.000    0.000    0.000 
#
# Total GULP energy -167043.782524 kJ/mol
# GULP energy per Si atom -5568.126084 kJ/mol
# Density = 2.026193 g / cm^3
# Si number density = 20.308156 Si / 1000 Ang^3
#
#
#
# Elastic Constant Matrix: (Units=GPa)
#
#
# Indices 1 2 3 4 5 6 
#
# 1 56.0687 10.4567 15.5017 0.0000 3.3569 0.0000
# 2 10.4567 65.4278 10.5473 0.0000 5.2598 0.0000
# 3 15.5017 10.5473 96.5838 0.0000 23.9034 0.0000
# 4 0.0000 0.0000 0.0000 20.9940 0.0000 13.2109
# 5 3.3569 5.2598 23.9034 0.0000 24.7197 0.0000
# 6 0.0000 0.0000 0.0000 13.2109 0.0000 -18.5095
#
#
#
# Elastic Compliance Matrix: (Units=1/GPa)
#
#
# Indices 1 2 3 4 5 6 
#
# 1 0.019103 -0.002640 -0.002990 0.000000 0.000859 0.000000
# 2 -0.002640 0.016014 -0.000750 0.000000 -0.002324 0.000000
# 3 -0.002990 -0.000750 0.014166 0.000000 -0.013132 0.000000
# 4 0.000000 0.000000 0.000000 0.032870 0.000000 0.023460
# 5 0.000859 -0.002324 -0.013132 0.000000 0.053530 0.000000
# 6 0.000000 0.000000 0.000000 0.023460 0.000000 -0.037282
#
#
# Mechanical properties :
#
#
# Convention : Reuss Voigt Hill
#
# Bulk Modulus (GPa) = 27.38111 32.34351 29.86231
# Shear Modulus (GPa) = 40.54007 17.54580 29.04294
#
# Velocity S-wave (km/s) = 4.47278 2.94254 3.78578
# Velocity P-wave (km/s) = 6.33928 5.24458 5.81774
#
# Compressibility (1/GPa) = 0.03652153
#
# Stress axis : x y z
#
# Youngs Moduli (GPa) = 52.34791 62.44668 70.59338
#
# Poissons Ratio (x) = 0.16486 0.21110
# Poissons Ratio (y) = 0.13820 0.05294
# Poissons Ratio (z) = 0.15654 0.04683
#
# Static dielectric constant tensor:
#      x y z
#    x 1.763870 0.000000 0.032330 
#    y 0.000000 1.765570 0.000000 
#    z 0.032330 0.000000 1.801130 
# 
# From -- ./inp_files/95537.got.cif
#   From: 2010.05.17/outbox.cif.g08.bks.cpg/sg13_48_cif.got.tgz:95537.got - 2010.06.03 16:44:36.
