data_PCOD9230934
_publ_section_title
;
Structure prediction by ZEFSAII (Michael W. Deem and Ramdas Pophale) SiO2 
 PCOD9230934
Probable space group: P 2/C
;
_chemical_formula_sum "Si O2"
_cell_formula_units_Z 26
_cell_length_a 7.144404
_cell_length_b 9.567459
_cell_length_c 19.552312
_cell_angle_alpha 90.000000
_cell_angle_beta 122.631196
_cell_angle_gamma 90.000000
_cell_volume 1125.524076
_symmetry_space_group_name_H-M "P 2/C"
_symmetry_group_IT_number 13
_symmetry_cell_setting 'monoclinic'
loop_
_space_group_symop_operation_xyz
x,y,z
-x,y,1/2-z
-x,-y,-z
x,-y,1/2+z
loop_
_atom_site_type_symbol
_atom_site_label
_atom_site_fract_x
_atom_site_fract_y
_atom_site_fract_z
Si Si1 0.500000 0.103944 0.250000
Si Si2 0.000000 0.230272 0.750000
Si Si3 0.972612 0.462047 0.861781
Si Si4 0.757959 0.957565 0.089065
Si Si5 0.950588 0.231301 0.358764
Si Si6 0.064686 0.749370 0.485886
Si Si7 0.431230 0.133247 0.626569
Si Si8 0.500000 0.644567 0.250000
O O1 0.723079 0.188232 0.275748
O O2 0.571196 0.000858 0.325230
O O3 0.980050 0.348176 0.685931
O O4 0.112510 0.112144 0.821493
O O5 0.039541 0.617338 0.855160
O O6 0.083624 0.400141 0.952213
O O7 0.704183 0.449290 0.814100
O O8 0.513779 0.919700 0.069337
O O9 0.807271 0.866652 0.031741
O O10 0.863943 0.111154 0.106845
O O11 0.879303 0.252549 0.423986
O O12 0.808196 0.797408 0.427712
O O13 0.567654 0.249896 0.699964
#
# Coordination Sequence:
#
# PCOD9230934 Si02
#       8
#     2   2   4   4   4   4   4   2
#     4  11  23  38  60  94 132 158 212 270 322 376
#     4  10  20  38  60  92 118 162 220 254 312 388
#     4  10  21  38  66  88 128 173 211 264 323 378
#     4  11  21  38  68  91 125 164 210 269 315 378
#     4  12  24  40  61  97 131 168 209 273 328 373
#     4  10  23  43  64  90 129 172 217 258 318 395
#     4  10  20  39  67  94 119 168 218 258 321 379
#     4   9  17  38  64  92 122 168 222 260 302 398
#
# _framework density 23.100348
#
# number of rings (size 3 to 8) (size 9 to 14) (size 15 to 20)
#    0.000    1.538    3.077    2.308    0.000    2.462 
#    0.000    0.000    0.000    3.692    0.000    0.000 
#    0.000    0.000    0.000    0.000    0.000    0.000 
#
# Total GULP energy -144969.263558 kJ/mol
# GULP energy per Si atom -5575.740906 kJ/mol
# Density = 2.304777 g / cm^3
# Si number density = 23.100348 Si / 1000 Ang^3
#
#
#
# Elastic Constant Matrix: (Units=GPa)
#
#
# Indices 1 2 3 4 5 6 
#
# 1 52.8639 -6.3880 -27.4443 0.0000 7.8931 0.0000
# 2 -6.3880 169.5982 8.7276 0.0000 -10.4855 0.0000
# 3 -27.4443 8.7276 50.4472 0.0000 -8.8576 0.0000
# 4 0.0000 0.0000 0.0000 8.4534 0.0000 10.0453
# 5 7.8931 -10.4855 -8.8576 0.0000 50.2754 0.0000
# 6 0.0000 0.0000 0.0000 10.0453 0.0000 3.9498
#
#
#
# Elastic Compliance Matrix: (Units=1/GPa)
#
#
# Indices 1 2 3 4 5 6 
#
# 1 0.026502 0.000171 0.014100 0.000000 -0.001641 0.000000
# 2 0.000171 0.006009 -0.000754 0.000000 0.001093 0.000000
# 3 0.014100 -0.000754 0.028076 0.000000 0.002575 0.000000
# 4 0.000000 0.000000 0.000000 -0.058500 0.000000 0.148778
# 5 -0.001641 0.001093 0.002575 0.000000 0.020830 0.000000
# 6 0.000000 0.000000 0.000000 0.148778 0.000000 -0.125200
#
#
# Mechanical properties :
#
#
# Convention : Reuss Voigt Hill
#
# Bulk Modulus (GPa) = 11.41283 24.74445 18.07864
# Shear Modulus (GPa) = -49.94546 32.40332 -8.77107
#
# Velocity S-wave (km/s) = -4.65489 3.74935 -1.95069
# Velocity P-wave (km/s) = 4.89279 5.42941 1.66419
#
# Compressibility (1/GPa) = 0.08762066
#
# Stress axis : x y z
#
# Youngs Moduli (GPa) = 37.73279 166.41242 35.61750
#
# Poissons Ratio (x) = -0.02849 -0.50220
# Poissons Ratio (y) = -0.00646 0.02687
# Poissons Ratio (z) = -0.53203 0.12556
#
# Static dielectric constant tensor:
#      x y z
#    x 17.040240 0.000000 11.889380 
#    y 0.000000 1.832400 0.000000 
#    z 11.889380 0.000000 10.911590 
# 
# From -- ./inp_files/75428.got.cif
#   From: 2010.05.17/outbox.cif.g08.bks.cpg/sg13_38_cif.got.tgz:75428.got - 2010.06.03 16:44:36.
