data_PCOD9230392
_publ_section_title
;
Structure prediction by ZEFSAII (Michael W. Deem and Ramdas Pophale) SiO2 
 PCOD9230392
Probable space group: P 2/C
;
_chemical_formula_sum "Si O2"
_cell_formula_units_Z 20
_cell_length_a 7.991241
_cell_length_b 8.491321
_cell_length_c 20.846501
_cell_angle_alpha 90.000000
_cell_angle_beta 38.433759
_cell_angle_gamma 90.000000
_cell_volume 879.306436
_symmetry_space_group_name_H-M "P 2/C"
_symmetry_group_IT_number 13
_symmetry_cell_setting 'monoclinic'
loop_
_space_group_symop_operation_xyz
x,y,z
-x,y,1/2-z
-x,-y,-z
x,-y,1/2+z
loop_
_atom_site_type_symbol
_atom_site_label
_atom_site_fract_x
_atom_site_fract_y
_atom_site_fract_z
Si Si1 0.900937 0.161031 0.909140
Si Si2 0.578743 0.617508 0.418707
Si Si3 0.268436 0.109158 0.409355
Si Si4 0.000000 0.601483 0.750000
Si Si5 0.058950 0.788239 0.600267
Si Si6 0.500000 0.874684 0.250000
O O1 0.787741 0.256708 0.884298
O O2 0.890103 0.973151 0.901378
O O3 0.707397 0.189828 0.029301
O O4 0.210268 0.207367 0.832632
O O5 0.500000 0.500000 0.500000
O O6 0.738438 0.510496 0.321078
O O7 0.307825 0.712586 0.486348
O O8 0.488140 0.988920 0.316365
O O9 0.191312 0.220190 0.373347
O O10 0.000000 0.000000 0.500000
O O11 0.023392 0.702914 0.678491
#
# Coordination Sequence:
#
# PCOD9230392 Si02
#       6
#     4   4   4   2   4   2
#     4  10  20  36  62  88 111 149 193 239 287 337
#     4  10  22  37  55  84 121 152 185 232 283 340
#     4   8  17  33  57  86 112 137 186 247 283 326
#     4  10  22  36  52  82 120 152 188 232 280 338
#     4   9  19  38  59  83 112 152 193 236 286 336
#     4   8  16  30  54  90 114 134 184 242 288 330
#
# _framework density 22.745200000000001
#
# number of rings (size 3 to 8) (size 9 to 14) (size 15 to 20)
#    0.000    3.200    0.000    0.600    0.000   12.000 
#    0.000    6.000    0.000   24.000    0.000    0.000 
#    0.000    0.000    0.000    0.000    0.000    0.000 
#
# Total GULP energy -111547.074098 kJ/mol
# GULP energy per Si atom -5577.353705 kJ/mol
# Density = 2.269343 g / cm^3
# Si number density = 22.745200 Si / 1000 Ang^3
#
#
#
# Elastic Constant Matrix: (Units=GPa)
#
#
# Indices 1 2 3 4 5 6 
#
# 1 40.5555 21.7225 19.7970 0.0000 10.6425 0.0000
# 2 21.7225 80.4994 24.3952 0.0000 3.7126 0.0000
# 3 19.7970 24.3952 100.4560 0.0000 9.1951 0.0000
# 4 0.0000 0.0000 0.0000 20.6302 0.0000 -13.1533
# 5 10.6425 3.7126 9.1951 0.0000 34.7475 0.0000
# 6 0.0000 0.0000 0.0000 -13.1533 0.0000 -12.6258
#
#
#
# Elastic Compliance Matrix: (Units=1/GPa)
#
#
# Indices 1 2 3 4 5 6 
#
# 1 0.032587 -0.007229 -0.003918 0.000000 -0.008171 0.000000
# 2 -0.007229 0.015025 -0.002336 0.000000 0.001227 0.000000
# 3 -0.003918 -0.002336 0.011439 0.000000 -0.001577 0.000000
# 4 0.000000 0.000000 0.000000 0.029126 0.000000 -0.030343
# 5 -0.008171 0.001227 -0.001577 0.000000 0.031568 0.000000
# 6 0.000000 0.000000 0.000000 -0.030343 0.000000 -0.047592
#
#
# Mechanical properties :
#
#
# Convention : Reuss Voigt Hill
#
# Bulk Modulus (GPa) = 31.16989 39.26004 35.21496
# Shear Modulus (GPa) = 45.53145 18.92347 32.22746
#
# Velocity S-wave (km/s) = 4.47901 2.88753 3.76824
# Velocity P-wave (km/s) = 6.36258 5.33061 5.86932
#
# Compressibility (1/GPa) = 0.03208225
#
# Stress axis : x y z
#
# Youngs Moduli (GPa) = 30.68732 66.55741 87.42378
#
# Poissons Ratio (x) = 0.48115 0.34256
# Poissons Ratio (y) = 0.22184 0.20425
# Poissons Ratio (z) = 0.12025 0.15550
#
# Static dielectric constant tensor:
#      x y z
#    x 1.893690 0.000000 0.008640 
#    y 0.000000 1.853490 0.000000 
#    z 0.008640 0.000000 1.945840 
# 
# From -- ./inp_files/75549.got.cif
#   From: 2010.05.17/outbox.cif.g08.bks.cpg/sg13_38_cif.got.tgz:75549.got - 2010.06.03 16:44:36.
