data_PCOD9230419
_publ_section_title
;
Structure prediction by ZEFSAII (Michael W. Deem and Ramdas Pophale) SiO2 
 PCOD9230419
Probable space group: P 2/C
;
_chemical_formula_sum "Si O2"
_cell_formula_units_Z 24
_cell_length_a 9.813334
_cell_length_b 8.947951
_cell_length_c 21.369718
_cell_angle_alpha 90.000000
_cell_angle_beta 144.792230
_cell_angle_gamma 90.000000
_cell_volume 1081.859261
_symmetry_space_group_name_H-M "P 2/C"
_symmetry_group_IT_number 13
_symmetry_cell_setting 'monoclinic'
loop_
_space_group_symop_operation_xyz
x,y,z
-x,y,1/2-z
-x,-y,-z
x,-y,1/2+z
loop_
_atom_site_type_symbol
_atom_site_label
_atom_site_fract_x
_atom_site_fract_y
_atom_site_fract_z
Si Si1 0.007841 0.681759 0.000837
Si Si2 0.441238 0.313807 0.083042
Si Si3 0.362070 0.150834 0.932235
Si Si4 0.728084 0.152259 0.292301
Si Si5 0.178092 0.838872 0.229109
Si Si6 0.490476 0.404303 0.812906
O O1 0.812567 0.731766 0.979713
O O2 0.922595 0.754280 0.903475
O O3 0.000000 0.500000 0.000000
O O4 0.289420 0.710071 0.109897
O O5 0.648476 0.224440 0.196718
O O6 0.476965 0.484580 0.117384
O O7 0.452958 0.278089 0.014128
O O8 0.356878 0.164816 0.855659
O O9 0.086588 0.144819 0.846549
O O10 0.500000 0.000000 0.000000
O O11 0.500000 0.157319 0.250000
O O12 0.785676 0.980231 0.301446
O O13 0.243148 0.680656 0.223268
O O14 0.500000 0.492136 0.750000
#
# Coordination Sequence:
#
# PCOD9230419 Si02
#       6
#     4   4   4   4   4   4
#     4   9  19  35  62  99 134 167 211 274 338 399
#     4  10  20  39  66  91 129 174 215 266 328 397
#     4  11  24  44  65  87 129 178 231 271 319 384
#     4  10  20  36  62  95 125 167 219 267 331 397
#     4  11  25  41  64  94 131 173 221 278 328 391
#     4  11  22  40  66 101 137 164 210 277 342 399
#
# _framework density 22.18403
#
# number of rings (size 3 to 8) (size 9 to 14) (size 15 to 20)
#    0.000    1.667    1.667    4.000    2.333    2.000 
#    0.000    4.167    7.333    0.000    0.000    0.000 
#    0.000    0.000    0.000    0.000    0.000    0.000 
#
# Total GULP energy -133894.728492 kJ/mol
# GULP energy per Si atom -5578.947021 kJ/mol
# Density = 2.213354 g / cm^3
# Si number density = 22.184030 Si / 1000 Ang^3
#
#
#
# Elastic Constant Matrix: (Units=GPa)
#
#
# Indices 1 2 3 4 5 6 
#
# 1 45.7495 30.8018 22.1888 0.0000 -9.1461 0.0000
# 2 30.8018 91.2069 22.3075 0.0000 -12.2253 0.0000
# 3 22.1888 22.3075 89.9292 0.0000 -15.1746 0.0000
# 4 0.0000 0.0000 0.0000 42.0100 0.0000 -6.5113
# 5 -9.1461 -12.2253 -15.1746 0.0000 47.9921 0.0000
# 6 0.0000 0.0000 0.0000 -6.5113 0.0000 33.2921
#
#
#
# Elastic Compliance Matrix: (Units=1/GPa)
#
#
# Indices 1 2 3 4 5 6 
#
# 1 0.030660 -0.008856 -0.005031 0.000000 0.001996 0.000000
# 2 -0.008856 0.014449 -0.001123 0.000000 0.001638 0.000000
# 3 -0.005031 -0.001123 0.013130 0.000000 0.002907 0.000000
# 4 0.000000 0.000000 0.000000 0.024548 0.000000 0.004801
# 5 0.001996 0.001638 0.002907 0.000000 0.022554 0.000000
# 6 0.000000 0.000000 0.000000 0.004801 0.000000 0.030976
#
#
# Mechanical properties :
#
#
# Convention : Reuss Voigt Hill
#
# Bulk Modulus (GPa) = 35.43696 41.94244 38.68970
# Shear Modulus (GPa) = 28.45052 34.76467 31.60760
#
# Velocity S-wave (km/s) = 3.58505 3.96296 3.77873
# Velocity P-wave (km/s) = 5.75722 6.31567 6.04290
#
# Compressibility (1/GPa) = 0.02821913
#
# Stress axis : x y z
#
# Youngs Moduli (GPa) = 32.61572 69.20864 76.16015
#
# Poissons Ratio (x) = 0.61293 0.38318
# Poissons Ratio (y) = 0.28885 0.08550
# Poissons Ratio (z) = 0.16410 0.07770
#
# Static dielectric constant tensor:
#      x y z
#    x 1.874590 0.000000 -0.059880 
#    y 0.000000 1.832110 0.000000 
#    z -0.059880 0.000000 1.965090 
# 
# From -- ./inp_files/86418.got.cif
#   From: 2010.05.17/outbox.cif.g08.bks.cpg/sg13_44_cif.got.tgz:86418.got - 2010.06.03 16:44:36.
