data_PCOD9230712
_publ_section_title
;
Structure prediction by ZEFSAII (Michael W. Deem and Ramdas Pophale) SiO2 
 PCOD9230712
Probable space group: P 2/C
;
_chemical_formula_sum "Si O2"
_cell_formula_units_Z 28
_cell_length_a 13.132676
_cell_length_b 8.050593
_cell_length_c 12.150087
_cell_angle_alpha 90.000000
_cell_angle_beta 100.853346
_cell_angle_gamma 90.000000
_cell_volume 1261.599958
_symmetry_space_group_name_H-M "P 2/C"
_symmetry_group_IT_number 13
_symmetry_cell_setting 'monoclinic'
loop_
_space_group_symop_operation_xyz
x,y,z
-x,y,1/2-z
-x,-y,-z
x,-y,1/2+z
loop_
_atom_site_type_symbol
_atom_site_label
_atom_site_fract_x
_atom_site_fract_y
_atom_site_fract_z
Si Si1 0.826912 0.242942 0.319998
Si Si2 0.766328 0.839344 0.574443
Si Si3 0.415607 0.639299 0.513726
Si Si4 0.019489 0.991691 0.869784
Si Si5 0.231894 0.562073 0.090845
Si Si6 0.357261 0.948353 0.608736
Si Si7 0.609241 0.248501 0.731226
O O1 0.761263 0.247506 0.192352
O O2 0.936661 0.155241 0.328196
O O3 0.841835 0.424547 0.373497
O O4 0.753393 0.133904 0.384116
O O5 0.809859 0.704893 0.496392
O O6 0.857007 0.971536 0.608765
O O7 0.666011 0.924067 0.497784
O O8 0.500000 0.500000 0.500000
O O9 0.318263 0.536817 0.538605
O O10 0.433510 0.793999 0.600413
O O11 0.388951 0.737904 0.397640
O O12 0.000000 0.098952 0.750000
O O13 0.000000 0.000000 0.000000
O O14 0.294878 0.652207 0.200028
O O15 0.386366 0.065826 0.716008
O O16 0.500000 0.324756 0.750000
#
# Coordination Sequence:
#
# PCOD9230712 Si02
#       7
#     4   4   4   4   4   4   4
#     4  10  20  38  60  89 119 164 202 252 321 374
#     4  10  20  38  61  89 125 161 204 257 315 379
#     4  11  22  41  61  86 119 160 207 258 318 371
#     4  10  20  37  62  92 129 163 212 262 316 391
#     4  10  22  39  59  85 122 161 204 256 315 382
#     4  10  22  38  61  88 121 158 207 257 309 387
#     4  11  22  40  57  86 118 156 211 253 314 374
#
# _framework density 22.194040000000001
#
# number of rings (size 3 to 8) (size 9 to 14) (size 15 to 20)
#    0.000    1.714    2.857    1.714    0.000    1.143 
#    7.714    1.429    0.000    0.000    0.000    0.000 
#    0.000    0.000    0.000    0.000    0.000    0.000 
#
# Total GULP energy -155880.717859 kJ/mol
# GULP energy per Si atom -5567.168495 kJ/mol
# Density = 2.214353 g / cm^3
# Si number density = 22.194040 Si / 1000 Ang^3
#
#
#
# Elastic Constant Matrix: (Units=GPa)
#
#
# Indices 1 2 3 4 5 6 
#
# 1 32.4484 10.5191 -11.9284 0.0000 -3.0164 0.0000
# 2 10.5191 83.0668 40.4665 0.0000 4.4236 0.0000
# 3 -11.9284 40.4665 119.8253 0.0000 -7.3147 0.0000
# 4 0.0000 0.0000 0.0000 22.7703 0.0000 -14.4947
# 5 -3.0164 4.4236 -7.3147 0.0000 25.7835 0.0000
# 6 0.0000 0.0000 0.0000 -14.4947 0.0000 27.4847
#
#
#
# Elastic Compliance Matrix: (Units=1/GPa)
#
#
# Indices 1 2 3 4 5 6 
#
# 1 0.036874 -0.008501 0.007015 0.000000 0.007763 0.000000
# 2 -0.008501 0.016769 -0.006865 0.000000 -0.005819 0.000000
# 3 0.007015 -0.006865 0.011686 0.000000 0.005314 0.000000
# 4 0.000000 0.000000 0.000000 0.066111 0.000000 0.034865
# 5 0.007763 -0.005819 0.005314 0.000000 0.042199 0.000000
# 6 0.000000 0.000000 0.000000 0.034865 0.000000 0.054771
#
#
# Mechanical properties :
#
#
# Convention : Reuss Voigt Hill
#
# Bulk Modulus (GPa) = 20.56323 34.82831 27.69577
# Shear Modulus (GPa) = 19.13364 28.29323 23.71344
#
# Velocity S-wave (km/s) = 2.93935 3.57432 3.27228
# Velocity P-wave (km/s) = 4.56125 5.72373 5.17524
#
# Compressibility (1/GPa) = 0.04863049
#
# Stress axis : x y z
#
# Youngs Moduli (GPa) = 27.11910 59.63406 85.56899
#
# Poissons Ratio (x) = 0.50692 -0.60030
# Poissons Ratio (y) = 0.23053 0.58739
# Poissons Ratio (z) = -0.19025 0.40936
#
# Static dielectric constant tensor:
#      x y z
#    x 1.781450 0.000000 -0.040380 
#    y 0.000000 1.847500 0.000000 
#    z -0.040380 0.000000 1.910740 
# 
# From -- ./inp_files/36253.got.cif
#   From: 2010.05.17/outbox.cif.g08.bks.cpg/sg13_19_cif.got.tgz:36253.got - 2010.06.03 16:44:36.
