data_PCOD9230037
_publ_section_title
;
Structure prediction by ZEFSAII (Michael W. Deem and Ramdas Pophale) SiO2 
 PCOD9230037
Probable space group: P 2/C
;
_chemical_formula_sum "Si O2"
_cell_formula_units_Z 28
_cell_length_a 6.557881
_cell_length_b 16.922947
_cell_length_c 14.161609
_cell_angle_alpha 90.000000
_cell_angle_beta 125.260417
_cell_angle_gamma 90.000000
_cell_volume 1283.298796
_symmetry_space_group_name_H-M "P 2/C"
_symmetry_group_IT_number 13
_symmetry_cell_setting 'monoclinic'
loop_
_space_group_symop_operation_xyz
x,y,z
-x,y,1/2-z
-x,-y,-z
x,-y,1/2+z
loop_
_atom_site_type_symbol
_atom_site_label
_atom_site_fract_x
_atom_site_fract_y
_atom_site_fract_z
Si Si1 0.271618 0.460984 0.563011
Si Si2 0.720401 0.431849 0.155890
Si Si3 0.578086 0.259840 0.086896
Si Si4 0.641711 0.717170 0.383492
Si Si5 0.777037 0.102507 0.072488
Si Si6 0.121627 0.171421 0.028857
Si Si7 0.758190 0.925317 0.125636
O O1 0.309800 0.443161 0.463268
O O2 0.500733 0.519611 0.647572
O O3 0.284835 0.374722 0.612929
O O4 0.000000 0.500000 0.500000
O O5 0.697033 0.337792 0.163197
O O6 0.000000 0.460500 0.250000
O O7 0.741126 0.180764 0.124701
O O8 0.518804 0.276802 0.957454
O O9 0.345565 0.233698 0.088362
O O10 0.500000 0.741458 0.250000
O O11 0.881125 0.773175 0.452329
O O12 0.762137 0.020077 0.122253
O O13 0.533303 0.098749 0.935573
O O14 0.040528 0.114318 0.091720
O O15 0.188057 0.113523 0.961160
O O16 0.000000 0.898726 0.250000
#
# Coordination Sequence:
#
# PCOD9230037 Si02
#       7
#     4   4   4   4   4   4   4
#     4  10  22  40  58  85 121 153 197 248 299 363
#     4  10  22  39  62  87 116 157 200 247 304 363
#     4   9  20  39  56  83 116 151 192 246 299 350
#     4  10  22  34  55  86 114 150 193 242 294 360
#     4   9  20  38  55  83 118 151 194 246 291 346
#     4  10  20  35  59  80 120 152 191 241 296 350
#     4  10  21  34  58  84 115 156 194 240 295 351
#
# _framework density 21.818769
#
# number of rings (size 3 to 8) (size 9 to 14) (size 15 to 20)
#    0.000    2.286    0.000    1.286    8.000    0.571 
#    0.000    0.000    0.000   15.429    0.000    0.000 
#    0.000    0.000    0.000    0.000    0.000    0.000 
#
# Total GULP energy -156000.393546 kJ/mol
# GULP energy per Si atom -5571.442627 kJ/mol
# Density = 2.176911 g / cm^3
# Si number density = 21.818769 Si / 1000 Ang^3
#
#
#
# Elastic Constant Matrix: (Units=GPa)
#
#
# Indices 1 2 3 4 5 6 
#
# 1 109.2394 25.7948 5.7282 0.0000 17.3073 0.0000
# 2 25.7948 129.1535 -7.1058 0.0000 9.4432 0.0000
# 3 5.7282 -7.1058 47.6934 0.0000 13.7471 0.0000
# 4 0.0000 0.0000 0.0000 -42.7780 0.0000 19.0276
# 5 17.3073 9.4432 13.7471 0.0000 24.4406 0.0000
# 6 0.0000 0.0000 0.0000 19.0276 0.0000 28.1523
#
#
#
# Elastic Compliance Matrix: (Units=1/GPa)
#
#
# Indices 1 2 3 4 5 6 
#
# 1 0.010643 -0.001563 0.000581 0.000000 -0.007260 0.000000
# 2 -0.001563 0.008450 0.002469 0.000000 -0.003547 0.000000
# 3 0.000581 0.002469 0.025850 0.000000 -0.015906 0.000000
# 4 0.000000 0.000000 0.000000 -0.017973 0.000000 0.012148
# 5 -0.007260 -0.003547 -0.015906 0.000000 0.056373 0.000000
# 6 0.000000 0.000000 0.000000 0.012148 0.000000 0.027311
#
#
# Mechanical properties :
#
#
# Convention : Reuss Voigt Hill
#
# Bulk Modulus (GPa) = 20.86884 37.21340 29.04112
# Shear Modulus (GPa) = 40.43630 19.40758 29.92194
#
# Velocity S-wave (km/s) = 4.30964 2.98567 3.70724
# Velocity P-wave (km/s) = 5.86084 5.38315 5.62707
#
# Compressibility (1/GPa) = 0.04791832
#
# Stress axis : x y z
#
# Youngs Moduli (GPa) = 93.95869 118.34263 38.68484
#
# Poissons Ratio (x) = 0.18495 -0.02249
# Poissons Ratio (y) = 0.14684 -0.09551
# Poissons Ratio (z) = -0.05464 -0.29219
#
# Static dielectric constant tensor:
#      x y z
#    x 1.826910 0.000000 0.008600 
#    y 0.000000 1.797730 0.000000 
#    z 0.008600 0.000000 1.865040 
# 
# From -- ./inp_files/44513.got.cif
#   From: 2010.05.17/outbox.cif.g08.bks.cpg/sg13_23_cif.got.tgz:44513.got - 2010.06.03 16:44:36.
