data_PCOD9230505
_publ_section_title
;
Structure prediction by ZEFSAII (Michael W. Deem and Ramdas Pophale) SiO2 
 PCOD9230505
Probable space group: P 2/C
;
_chemical_formula_sum "Si O2"
_cell_formula_units_Z 22
_cell_length_a 10.482941
_cell_length_b 13.921981
_cell_length_c 7.441320
_cell_angle_alpha 90.000000
_cell_angle_beta 91.756442
_cell_angle_gamma 90.000000
_cell_volume 1085.500576
_symmetry_space_group_name_H-M "P 2/C"
_symmetry_group_IT_number 13
_symmetry_cell_setting 'monoclinic'
loop_
_space_group_symop_operation_xyz
x,y,z
-x,y,1/2-z
-x,-y,-z
x,-y,1/2+z
loop_
_atom_site_type_symbol
_atom_site_label
_atom_site_fract_x
_atom_site_fract_y
_atom_site_fract_z
Si Si1 0.365054 0.751277 0.188125
Si Si2 0.981966 0.662921 0.534796
Si Si3 0.000000 0.030538 0.250000
Si Si4 0.127593 0.138324 0.533758
Si Si5 0.703085 0.402452 0.087678
Si Si6 0.737542 0.384511 0.510093
O O1 0.500000 0.793791 0.250000
O O2 0.264791 0.826200 0.101932
O O3 0.307333 0.700159 0.362153
O O4 0.382022 0.667425 0.038022
O O5 0.107720 0.612113 0.465865
O O6 0.000000 0.671516 0.750000
O O7 0.963834 0.768899 0.452570
O O8 0.845551 0.611485 0.508913
O O9 0.108156 0.102130 0.330429
O O10 0.076853 0.955041 0.132130
O O11 0.706432 0.372462 0.296986
O O12 0.676428 0.515110 0.070964
#
# Coordination Sequence:
#
# PCOD9230505 Si02
#       6
#     4   4   2   4   4   4
#     4  11  25  42  59  82 123 171 209 240 282 353
#     4   9  18  32  57  88 125 149 188 249 310 359
#     4  10  20  36  70  92 116 140 180 254 326 374
#     4  10  20  39  60  94 117 148 188 245 310 370
#     4  10  21  36  56  87 119 160 207 253 293 346
#     4  11  20  37  58  87 120 164 207 252 299 333
#
# _framework density 20.267144999999999
#
# number of rings (size 3 to 8) (size 9 to 14) (size 15 to 20)
#    0.000    1.818    2.727    1.636    0.000    3.636 
#    0.000    0.909    0.000    0.000    0.000    0.000 
#    0.000    0.000    0.000    0.000    0.000    0.000 
#
# Total GULP energy -122734.475671 kJ/mol
# GULP energy per Si atom -5578.839803 kJ/mol
# Density = 2.022102 g / cm^3
# Si number density = 20.267145 Si / 1000 Ang^3
#
#
#
# Elastic Constant Matrix: (Units=GPa)
#
#
# Indices 1 2 3 4 5 6 
#
# 1 62.2698 27.8075 31.1844 0.0000 30.4258 0.0000
# 2 27.8075 96.0066 22.1523 0.0000 13.9599 0.0000
# 3 31.1844 22.1523 65.9473 0.0000 9.1064 0.0000
# 4 0.0000 0.0000 0.0000 7.9080 0.0000 -7.9618
# 5 30.4258 13.9599 9.1064 0.0000 29.4393 0.0000
# 6 0.0000 0.0000 0.0000 -7.9618 0.0000 7.0314
#
#
#
# Elastic Compliance Matrix: (Units=1/GPa)
#
#
# Indices 1 2 3 4 5 6 
#
# 1 0.044061 -0.003776 -0.014129 0.000000 -0.039376 0.000000
# 2 -0.003776 0.012179 -0.002138 0.000000 -0.001211 0.000000
# 3 -0.014129 -0.002138 0.021317 0.000000 0.009023 0.000000
# 4 0.000000 0.000000 0.000000 -0.903177 0.000000 -1.022674
# 5 -0.039376 -0.001211 0.009023 0.000000 0.072448 0.000000
# 6 0.000000 0.000000 0.000000 -1.022674 0.000000 -1.015763
#
#
# Mechanical properties :
#
#
# Convention : Reuss Voigt Hill
#
# Bulk Modulus (GPa) = 26.68795 42.94577 34.81686
# Shear Modulus (GPa) = -2.91315 18.41437 7.75061
#
# Velocity S-wave (km/s) = -1.20021 3.01754 1.95768
# Velocity P-wave (km/s) = 3.35798 5.77725 4.72507
#
# Compressibility (1/GPa) = 0.03747010
#
# Stress axis : x y z
#
# Youngs Moduli (GPa) = 22.69568 82.10748 46.91024
#
# Poissons Ratio (x) = 0.31006 0.66281
# Poissons Ratio (y) = 0.08570 0.10030
# Poissons Ratio (z) = 0.32068 0.17556
#
# Static dielectric constant tensor:
#      x y z
#    x 1.720390 0.000000 0.008860 
#    y 0.000000 1.682850 0.000000 
#    z 0.008860 0.000000 1.852740 
# 
# From -- ./inp_files/12552.got.cif
#   From: 2010.05.17/outbox.cif.g08.bks.cpg/sg13_7_cif.got.tgz:12552.got - 2010.06.03 16:44:36.
