data_PCOD9230887
_publ_section_title
;
Structure prediction by ZEFSAII (Michael W. Deem and Ramdas Pophale) SiO2 
 PCOD9230887
Probable space group: P 2/C
;
_chemical_formula_sum "Si O2"
_cell_formula_units_Z 28
_cell_length_a 15.382487
_cell_length_b 5.545358
_cell_length_c 16.890359
_cell_angle_alpha 90.000000
_cell_angle_beta 106.576191
_cell_angle_gamma 90.000000
_cell_volume 1380.894513
_symmetry_space_group_name_H-M "P 2/C"
_symmetry_group_IT_number 13
_symmetry_cell_setting 'monoclinic'
loop_
_space_group_symop_operation_xyz
x,y,z
-x,y,1/2-z
-x,-y,-z
x,-y,1/2+z
loop_
_atom_site_type_symbol
_atom_site_label
_atom_site_fract_x
_atom_site_fract_y
_atom_site_fract_z
Si Si1 0.631181 0.053723 0.127264
Si Si2 0.191610 0.829015 0.731774
Si Si3 0.742522 0.312646 0.572867
Si Si4 0.612340 0.304330 0.962834
Si Si5 0.892877 0.337449 0.733678
Si Si6 0.478904 0.646397 0.659088
Si Si7 0.292068 0.920120 0.596566
O O1 0.719126 0.188319 0.187974
O O2 0.547958 0.134300 0.160470
O O3 0.675788 0.793535 0.123640
O O4 0.595648 0.121392 0.030128
O O5 0.139804 0.573278 0.725141
O O6 0.226127 0.883000 0.652257
O O7 0.136265 0.070448 0.742731
O O8 0.689683 0.531964 0.521247
O O9 0.838057 0.364560 0.637079
O O10 0.751759 0.129537 0.501020
O O11 0.524105 0.448542 0.911222
O O12 0.658245 0.176317 0.899477
O O13 0.000000 0.345850 0.750000
O O14 0.500000 0.539990 0.750000
O O15 0.376657 0.741819 0.630828
#
# Coordination Sequence:
#
# PCOD9230887 Si02
#       7
#     4   4   4   4   4   4   4
#     4  10  20  38  59  90 125 176 219 259 312 373
#     4  11  23  42  69  96 134 167 211 268 333 384
#     4   9  21  40  64  86 128 170 212 265 323 388
#     4  10  21  38  60  84 123 175 220 261 313 378
#     4  11  24  45  72  99 124 164 217 269 328 404
#     4  11  22  35  55  92 134 169 225 264 305 363
#     4  10  23  39  59  91 131 173 211 266 319 378
#
# _framework density 20.276710999999999
#
# number of rings (size 3 to 8) (size 9 to 14) (size 15 to 20)
#    0.000    1.714    2.857    0.857    4.000    6.857 
#    0.000    1.429    0.000    0.000    0.000    0.000 
#    0.000    0.000    0.000    0.000    0.000    0.000 
#
# Total GULP energy -156094.543085 kJ/mol
# GULP energy per Si atom -5574.805110 kJ/mol
# Density = 2.023056 g / cm^3
# Si number density = 20.276711 Si / 1000 Ang^3
#
#
#
# Elastic Constant Matrix: (Units=GPa)
#
#
# Indices 1 2 3 4 5 6 
#
# 1 114.4652 28.1924 43.5475 0.0000 11.2117 0.0000
# 2 28.1924 71.7328 13.0966 0.0000 5.4527 0.0000
# 3 43.5475 13.0966 79.7697 0.0000 4.8907 0.0000
# 4 0.0000 0.0000 0.0000 18.0256 0.0000 3.6237
# 5 11.2117 5.4527 4.8907 0.0000 28.4649 0.0000
# 6 0.0000 0.0000 0.0000 3.6237 0.0000 20.3169
#
#
#
# Elastic Compliance Matrix: (Units=1/GPa)
#
#
# Indices 1 2 3 4 5 6 
#
# 1 0.012121 -0.003458 -0.005859 0.000000 -0.003105 0.000000
# 2 -0.003458 0.015518 -0.000567 0.000000 -0.001513 0.000000
# 3 -0.005859 -0.000567 0.015847 0.000000 -0.000306 0.000000
# 4 0.000000 0.000000 0.000000 0.057540 0.000000 -0.010263
# 5 -0.003105 -0.001513 -0.000306 0.000000 0.036697 0.000000
# 6 0.000000 0.000000 0.000000 -0.010263 0.000000 0.051051
#
#
# Mechanical properties :
#
#
# Convention : Reuss Voigt Hill
#
# Bulk Modulus (GPa) = 42.16319 48.40453 45.28386
# Shear Modulus (GPa) = 23.10031 25.43689 24.26860
#
# Velocity S-wave (km/s) = 3.37894 3.54572 3.46334
# Velocity P-wave (km/s) = 6.00517 6.37861 6.19470
#
# Compressibility (1/GPa) = 0.02371737
#
# Stress axis : x y z
#
# Youngs Moduli (GPa) = 82.50033 64.44002 63.10535
#
# Poissons Ratio (x) = 0.22284 0.36973
# Poissons Ratio (y) = 0.28530 0.03579
# Poissons Ratio (z) = 0.48337 0.03655
#
# Static dielectric constant tensor:
#      x y z
#    x 1.698250 0.000000 -0.031350 
#    y 0.000000 1.848140 0.000000 
#    z -0.031350 0.000000 1.742650 
# 
# From -- ./inp_files/67321.got.cif
#   From: 2010.05.17/outbox.cif.g08.bks.cpg/sg13_34_cif.got.tgz:67321.got - 2010.06.03 16:44:36.
