data_PCOD9230381
_publ_section_title
;
Structure prediction by ZEFSAII (Michael W. Deem and Ramdas Pophale) SiO2 
 PCOD9230381
Probable space group: P 2/C
;
_chemical_formula_sum "Si O2"
_cell_formula_units_Z 14
_cell_length_a 8.983476
_cell_length_b 10.139461
_cell_length_c 8.865881
_cell_angle_alpha 90.000000
_cell_angle_beta 47.700990
_cell_angle_gamma 90.000000
_cell_volume 597.314652
_symmetry_space_group_name_H-M "P 2/C"
_symmetry_group_IT_number 13
_symmetry_cell_setting 'monoclinic'
loop_
_space_group_symop_operation_xyz
x,y,z
-x,y,1/2-z
-x,-y,-z
x,-y,1/2+z
loop_
_atom_site_type_symbol
_atom_site_label
_atom_site_fract_x
_atom_site_fract_y
_atom_site_fract_z
Si Si1 0.684359 0.317042 0.203462
Si Si2 0.767076 0.417226 0.464290
Si Si3 0.000000 0.973698 0.250000
Si Si4 0.117736 0.818515 0.428546
O O1 0.500000 0.243854 0.250000
O O2 0.647888 0.371655 0.397298
O O3 0.720003 0.443623 0.071179
O O4 0.886810 0.232639 0.075030
O O5 0.756042 0.305228 0.600461
O O6 0.000000 0.422363 0.250000
O O7 0.849003 0.884046 0.255319
O O8 0.882328 0.068995 0.444558
#
# Coordination Sequence:
#
# PCOD9230381 Si02
#       4
#     4   4   2   4
#     4  11  22  36  56  87 119 141 175 234 290 327
#     4  10  20  37  58  84 111 145 189 227 269 336
#     4  10  20  36  62  80 102 152 194 230 254 318
#     4  10  20  37  60  81 109 142 198 221 268 325
#
# _framework density 23.438231999999999
#
# number of rings (size 3 to 8) (size 9 to 14) (size 15 to 20)
#    0.000    1.714    4.286    4.286    6.000    0.000 
#    0.000    1.429    0.000    0.000    0.000    0.000 
#    0.000    0.000    0.000    0.000    0.000    0.000 
#
# Total GULP energy -78300.023312 kJ/mol
# GULP energy per Si atom -5592.858808 kJ/mol
# Density = 2.338489 g / cm^3
# Si number density = 23.438232 Si / 1000 Ang^3
#
#
#
# Elastic Constant Matrix: (Units=GPa)
#
#
# Indices 1 2 3 4 5 6 
#
# 1 128.6261 23.5709 39.3710 0.0000 23.6808 0.0000
# 2 23.5709 80.3006 28.3048 0.0000 9.9633 0.0000
# 3 39.3710 28.3048 68.9455 0.0000 23.0280 0.0000
# 4 0.0000 0.0000 0.0000 24.4970 0.0000 32.8086
# 5 23.6808 9.9633 23.0280 0.0000 34.4964 0.0000
# 6 0.0000 0.0000 0.0000 32.8086 0.0000 5.6415
#
#
#
# Elastic Compliance Matrix: (Units=1/GPa)
#
#
# Indices 1 2 3 4 5 6 
#
# 1 0.009877 -0.001037 -0.003925 0.000000 -0.003860 0.000000
# 2 -0.001037 0.014671 -0.005474 0.000000 0.000128 0.000000
# 3 -0.003925 -0.005474 0.022605 0.000000 -0.010814 0.000000
# 4 0.000000 0.000000 0.000000 -0.006013 0.000000 0.034970
# 5 -0.003860 0.000128 -0.010814 0.000000 0.038821 0.000000
# 6 0.000000 0.000000 0.000000 0.034970 0.000000 -0.026110
#
#
# Mechanical properties :
#
#
# Convention : Reuss Voigt Hill
#
# Bulk Modulus (GPa) = 38.04977 51.15173 44.60075
# Shear Modulus (GPa) = 59.89368 25.36869 42.63119
#
# Velocity S-wave (km/s) = 5.06056 3.29350 4.26945
# Velocity P-wave (km/s) = 7.10036 6.02779 6.58594
#
# Compressibility (1/GPa) = 0.02628137
#
# Stress axis : x y z
#
# Youngs Moduli (GPa) = 101.24979 68.16150 44.23820
#
# Poissons Ratio (x) = 0.07066 0.17363
# Poissons Ratio (y) = 0.10496 0.24216
# Poissons Ratio (z) = 0.39740 0.37311
#
# Static dielectric constant tensor:
#      x y z
#    x 1.911340 0.000000 -0.021270 
#    y 0.000000 1.874910 0.000000 
#    z -0.021270 0.000000 1.935900 
# 
# From -- ./inp_files/10800.got.cif
#   From: 2010.05.17/outbox.cif.g08.bks.cpg/sg13_6_cif.got.tgz:10800.got - 2010.06.03 16:44:36.
