data_PCOD9230855
_publ_section_title
;
Structure prediction by ZEFSAII (Michael W. Deem and Ramdas Pophale) SiO2 
 PCOD9230855
Probable space group: P 2/C
;
_chemical_formula_sum "Si O2"
_cell_formula_units_Z 28
_cell_length_a 17.000183
_cell_length_b 6.360503
_cell_length_c 27.505561
_cell_angle_alpha 90.000000
_cell_angle_beta 26.288658
_cell_angle_gamma 90.000000
_cell_volume 1317.240532
_symmetry_space_group_name_H-M "P 2/C"
_symmetry_group_IT_number 13
_symmetry_cell_setting 'monoclinic'
loop_
_space_group_symop_operation_xyz
x,y,z
-x,y,1/2-z
-x,-y,-z
x,-y,1/2+z
loop_
_atom_site_type_symbol
_atom_site_label
_atom_site_fract_x
_atom_site_fract_y
_atom_site_fract_z
Si Si1 0.136872 0.705310 0.861744
Si Si2 0.695376 0.913036 0.201949
Si Si3 0.500000 0.739149 0.750000
Si Si4 0.165128 0.284083 0.711648
Si Si5 0.579362 0.587139 0.344285
Si Si6 0.799906 0.454773 0.573331
Si Si7 0.189252 0.480145 0.097305
Si Si8 0.000000 0.901317 0.750000
O O1 0.296175 0.605530 0.742868
O O2 0.146860 0.613337 0.911741
O O3 0.146702 0.957163 0.859043
O O4 0.948712 0.602940 0.951916
O O5 0.593043 0.764389 0.295333
O O6 0.755241 0.763577 0.124918
O O7 0.581248 0.102283 0.243910
O O8 0.629147 0.579535 0.649858
O O9 0.317771 0.314462 0.666433
O O10 0.218787 0.412475 0.633680
O O11 0.120714 0.050826 0.717084
O O12 0.975896 0.386179 0.832891
O O13 0.377384 0.526265 0.466629
O O14 0.116066 0.248511 0.150888
#
# Coordination Sequence:
#
# PCOD9230855 Si02
#       8
#     4   4   2   4   4   4   4   2
#     4   9  20  37  57  81 115 149 196 248 295 354
#     4  10  21  36  61  87 117 154 207 249 299 366
#     4  10  20  38  58  84 116 162 200 246 308 356
#     4   9  20  39  62  87 120 165 203 243 307 360
#     4  11  22  38  58  96 125 157 201 256 311 355
#     4   9  18  38  59  76 111 158 198 238 294 362
#     4   9  20  39  62  84 124 162 203 249 297 368
#     4   8  18  38  60  88 116 164 204 242 290 374
#
# _framework density 21.256557000000001
#
# number of rings (size 3 to 8) (size 9 to 14) (size 15 to 20)
#    0.000    2.857    0.000    1.286    0.000    6.286 
#   12.857    0.000    0.000    0.000    0.000    0.000 
#    0.000    0.000    0.000    0.000    0.000    0.000 
#
# Total GULP energy -156129.421937 kJ/mol
# GULP energy per Si atom -5576.050783 kJ/mol
# Density = 2.120818 g / cm^3
# Si number density = 21.256557 Si / 1000 Ang^3
#
#
#
# Elastic Constant Matrix: (Units=GPa)
#
#
# Indices 1 2 3 4 5 6 
#
# 1 24.3778 1.5182 2.2652 0.0000 -2.0127 0.0000
# 2 1.5182 118.4497 41.6273 0.0000 -5.3895 0.0000
# 3 2.2652 41.6273 150.8607 0.0000 -13.4952 0.0000
# 4 0.0000 0.0000 0.0000 9.7591 0.0000 -6.3835
# 5 -2.0127 -5.3895 -13.4952 0.0000 22.9697 0.0000
# 6 0.0000 0.0000 0.0000 -6.3835 0.0000 19.6677
#
#
#
# Elastic Compliance Matrix: (Units=1/GPa)
#
#
# Indices 1 2 3 4 5 6 
#
# 1 0.041343 -0.000292 -0.000235 0.000000 0.003416 0.000000
# 2 -0.000292 0.009362 -0.002517 0.000000 0.000692 0.000000
# 3 -0.000235 -0.002517 0.007675 0.000000 0.003898 0.000000
# 4 0.000000 0.000000 0.000000 0.130085 0.000000 0.042221
# 5 0.003416 0.000692 0.003898 0.000000 0.046288 0.000000
# 6 0.000000 0.000000 0.000000 0.042221 0.000000 0.064548
#
#
# Mechanical properties :
#
#
# Convention : Reuss Voigt Hill
#
# Bulk Modulus (GPa) = 19.12290 42.72329 30.92310
# Shear Modulus (GPa) = 15.48848 27.03115 21.25982
#
# Velocity S-wave (km/s) = 2.70227 3.56991 3.16595
# Velocity P-wave (km/s) = 4.33037 6.09383 5.28616
#
# Compressibility (1/GPa) = 0.05229331
#
# Stress axis : x y z
#
# Youngs Moduli (GPa) = 24.18792 106.81233 130.28639
#
# Poissons Ratio (x) = 0.03119 0.03056
# Poissons Ratio (y) = 0.00706 0.32793
# Poissons Ratio (z) = 0.00567 0.26885
#
# Static dielectric constant tensor:
#      x y z
#    x 1.988420 0.000000 -0.134110 
#    y 0.000000 1.754540 0.000000 
#    z -0.134110 0.000000 1.831500 
# 
# From -- ./inp_files/93165.got.cif
#   From: 2010.05.17/outbox.cif.g08.bks.cpg/sg13_47_cif.got.tgz:93165.got - 2010.06.03 16:44:36.
