data_PCOD9230693
_publ_section_title
;
Structure prediction by ZEFSAII (Michael W. Deem and Ramdas Pophale) SiO2 
 PCOD9230693
Probable space group: P 2/C
;
_chemical_formula_sum "Si O2"
_cell_formula_units_Z 26
_cell_length_a 7.896374
_cell_length_b 20.485016
_cell_length_c 9.465241
_cell_angle_alpha 90.000000
_cell_angle_beta 49.768008
_cell_angle_gamma 90.000000
_cell_volume 1168.874944
_symmetry_space_group_name_H-M "P 2/C"
_symmetry_group_IT_number 13
_symmetry_cell_setting 'monoclinic'
loop_
_space_group_symop_operation_xyz
x,y,z
-x,y,1/2-z
-x,-y,-z
x,-y,1/2+z
loop_
_atom_site_type_symbol
_atom_site_label
_atom_site_fract_x
_atom_site_fract_y
_atom_site_fract_z
Si Si1 0.242562 0.576299 0.866915
Si Si2 0.602302 0.814297 0.849300
Si Si3 0.040667 0.707415 0.887238
Si Si4 0.204150 0.948746 0.747152
Si Si5 0.876052 0.913733 0.169701
Si Si6 0.000000 0.498813 0.750000
Si Si7 0.788575 0.228536 0.754665
O O1 0.500000 0.565415 0.750000
O O2 0.187968 0.652860 0.883605
O O3 0.155715 0.542348 0.768993
O O4 0.125368 0.545664 0.067590
O O5 0.500000 0.821243 0.750000
O O6 0.829758 0.775406 0.705153
O O7 0.641137 0.888637 0.880115
O O8 0.436349 0.771148 0.033574
O O9 0.000000 0.683954 0.750000
O O10 0.834054 0.721757 0.102294
O O11 0.000000 0.954551 0.750000
O O12 0.283020 0.022895 0.732594
O O13 0.078762 0.928142 0.956533
O O14 0.777505 0.843545 0.190372
O O15 0.000000 0.904635 0.250000
O O16 0.000000 0.234287 0.750000
#
# Coordination Sequence:
#
# PCOD9230693 Si02
#       7
#     4   4   4   4   4   2   4
#     4  11  24  45  77 109 146 191 230 278 340 406
#     4  12  23  40  66  91 126 177 224 277 354 414
#     4  12  26  45  66 100 140 176 227 288 336 403
#     4  10  20  37  62  87 121 162 212 286 344 405
#     4   9  18  37  60  85 120 163 214 276 343 406
#     4  10  24  48  74 114 150 184 230 282 332 398
#     4  11  23  41  64  90 126 177 228 279 339 418
#
# _framework density 22.243611000000001
#
# number of rings (size 3 to 8) (size 9 to 14) (size 15 to 20)
#    0.000    1.231    3.846    2.308    1.077    1.231 
#    0.000    0.000    0.000    0.000    0.000    0.000 
#    0.000    0.000    0.000    0.000    0.000    0.000 
#
# Total GULP energy -145194.970585 kJ/mol
# GULP energy per Si atom -5584.421946 kJ/mol
# Density = 2.219298 g / cm^3
# Si number density = 22.243611 Si / 1000 Ang^3
#
#
#
# Elastic Constant Matrix: (Units=GPa)
#
#
# Indices 1 2 3 4 5 6 
#
# 1 77.5225 27.0625 42.2526 0.0000 9.9817 0.0000
# 2 27.0625 80.3678 31.5639 0.0000 2.0683 0.0000
# 3 42.2526 31.5639 120.1301 0.0000 11.2849 0.0000
# 4 0.0000 0.0000 0.0000 1.7999 0.0000 -11.7169
# 5 9.9817 2.0683 11.2849 0.0000 29.9709 0.0000
# 6 0.0000 0.0000 0.0000 -11.7169 0.0000 -3.2631
#
#
#
# Elastic Compliance Matrix: (Units=1/GPa)
#
#
# Indices 1 2 3 4 5 6 
#
# 1 0.017303 -0.003878 -0.004718 0.000000 -0.003719 0.000000
# 2 -0.003878 0.014749 -0.002630 0.000000 0.001264 0.000000
# 3 -0.004718 -0.002630 0.010895 0.000000 -0.002350 0.000000
# 4 0.000000 0.000000 0.000000 0.022794 0.000000 -0.081845
# 5 -0.003719 0.001264 -0.002350 0.000000 0.035402 0.000000
# 6 0.000000 0.000000 0.000000 -0.081845 0.000000 -0.012573
#
#
# Mechanical properties :
#
#
# Convention : Reuss Voigt Hill
#
# Bulk Modulus (GPa) = 48.78935 53.30870 51.04902
# Shear Modulus (GPa) = 42.42518 17.51095 29.96807
#
# Velocity S-wave (km/s) = 4.37200 2.80882 3.67449
# Velocity P-wave (km/s) = 6.88967 5.87683 6.40331
#
# Compressibility (1/GPa) = 0.02049628
#
# Stress axis : x y z
#
# Youngs Moduli (GPa) = 57.79193 67.80091 91.78189
#
# Poissons Ratio (x) = 0.26294 0.43300
# Poissons Ratio (y) = 0.22412 0.24139
# Poissons Ratio (z) = 0.27265 0.17832
#
# Static dielectric constant tensor:
#      x y z
#    x 1.721760 0.000000 -0.406190 
#    y 0.000000 1.879980 0.000000 
#    z -0.406190 0.000000 0.123200 
# 
# From -- ./inp_files/13618.got.cif
#   From: 2010.05.17/outbox.cif.g08.bks.cpg/sg13_7_cif.got.tgz:13618.got - 2010.06.03 16:44:36.
