data_PCOD9230720
_publ_section_title
;
Structure prediction by ZEFSAII (Michael W. Deem and Ramdas Pophale) SiO2 
 PCOD9230720
Probable space group: P 2/C
;
_chemical_formula_sum "Si O2"
_cell_formula_units_Z 26
_cell_length_a 7.979765
_cell_length_b 9.723206
_cell_length_c 18.946081
_cell_angle_alpha 90.000000
_cell_angle_beta 56.275187
_cell_angle_gamma 90.000000
_cell_volume 1222.623852
_symmetry_space_group_name_H-M "P 2/C"
_symmetry_group_IT_number 13
_symmetry_cell_setting 'monoclinic'
loop_
_space_group_symop_operation_xyz
x,y,z
-x,y,1/2-z
-x,-y,-z
x,-y,1/2+z
loop_
_atom_site_type_symbol
_atom_site_label
_atom_site_fract_x
_atom_site_fract_y
_atom_site_fract_z
Si Si1 0.500000 0.333545 0.250000
Si Si2 0.729508 0.049939 0.944336
Si Si3 0.757394 0.726345 0.561381
Si Si4 0.382590 0.261515 0.634568
Si Si5 0.810154 0.764853 0.976493
Si Si6 0.159455 0.456205 0.777466
Si Si7 0.229516 0.474629 0.557151
O O1 0.395378 0.251764 0.338361
O O2 0.678829 0.427291 0.241456
O O3 0.746807 0.136986 0.868615
O O4 0.752599 0.155244 0.003533
O O5 0.500000 0.000000 0.000000
O O6 0.848261 0.909397 0.928765
O O7 0.707196 0.583206 0.533668
O O8 0.984209 0.721149 0.535698
O O9 0.618388 0.223797 0.574249
O O10 0.286000 0.320613 0.727776
O O11 0.348496 0.388463 0.587856
O O12 0.754891 0.637881 0.938350
O O13 0.000000 0.486571 0.750000
O O14 0.005496 0.436137 0.877532
#
# Coordination Sequence:
#
# PCOD9230720 Si02
#       7
#     2   4   4   4   4   4   4
#     4  12  24  40  64  94 134 158 212 272 316 372
#     4   9  21  40  65  84 123 167 207 258 313 383
#     4  11  23  39  63  93 126 163 213 265 319 381
#     4   9  20  37  62  92 125 162 207 259 309 379
#     4  11  19  35  64  93 118 162 208 254 320 368
#     4  10  22  38  61  95 134 161 207 263 318 367
#     4  10  20  37  62  95 122 163 212 259 316 377
#
# _framework density 21.265740999999998
#
# number of rings (size 3 to 8) (size 9 to 14) (size 15 to 20)
#    0.000    1.846    1.538    2.308    2.154    6.154 
#    0.000    0.000   37.231    0.000    0.000    0.000 
#    0.000    0.000    0.000    0.000    0.000    0.000 
#
# Total GULP energy -145044.335491 kJ/mol
# GULP energy per Si atom -5578.628288 kJ/mol
# Density = 2.121734 g / cm^3
# Si number density = 21.265741 Si / 1000 Ang^3
#
#
#
# Elastic Constant Matrix: (Units=GPa)
#
#
# Indices 1 2 3 4 5 6 
#
# 1 70.9328 3.7172 -1.2348 0.0000 -22.0824 0.0000
# 2 3.7172 107.4723 7.6645 0.0000 7.0266 0.0000
# 3 -1.2348 7.6645 87.0880 0.0000 -15.6930 0.0000
# 4 0.0000 0.0000 0.0000 15.7735 0.0000 -2.1992
# 5 -22.0824 7.0266 -15.6930 0.0000 26.9285 0.0000
# 6 0.0000 0.0000 0.0000 -2.1992 0.0000 24.5094
#
#
#
# Elastic Compliance Matrix: (Units=1/GPa)
#
#
# Indices 1 2 3 4 5 6 
#
# 1 0.020418 -0.002282 0.004039 0.000000 0.019693 0.000000
# 2 -0.002282 0.009883 -0.001904 0.000000 -0.005559 0.000000
# 3 0.004039 -0.001904 0.013848 0.000000 0.011879 0.000000
# 4 0.000000 0.000000 0.000000 0.064201 0.000000 0.005761
# 5 0.019693 -0.005559 0.011879 0.000000 0.061658 0.000000
# 6 0.000000 0.000000 0.000000 0.005761 0.000000 0.041318
#
#
# Mechanical properties :
#
#
# Convention : Reuss Voigt Hill
#
# Bulk Modulus (GPa) = 22.80197 31.75409 27.27803
# Shear Modulus (GPa) = 22.10065 30.46535 26.28300
#
# Velocity S-wave (km/s) = 3.22725 3.78908 3.51940
# Velocity P-wave (km/s) = 4.96312 5.84014 5.41940
#
# Compressibility (1/GPa) = 0.04385586
#
# Stress axis : x y z
#
# Youngs Moduli (GPa) = 48.97524 101.18484 72.21243
#
# Poissons Ratio (x) = 0.23088 -0.29166
# Poissons Ratio (y) = 0.11175 0.13749
# Poissons Ratio (z) = -0.19781 0.19265
#
# Static dielectric constant tensor:
#      x y z
#    x 1.802370 0.000000 0.007290 
#    y 0.000000 1.999350 0.000000 
#    z 0.007290 0.000000 1.833480 
# 
# From -- ./inp_files/75928.got.cif
#   From: 2010.05.17/outbox.cif.g08.bks.cpg/sg13_38_cif.got.tgz:75928.got - 2010.06.03 16:44:36.
