data_PCOD9230814
_publ_section_title
;
Structure prediction by ZEFSAII (Michael W. Deem and Ramdas Pophale) SiO2 
 PCOD9230814
Probable space group: P 2/C
;
_chemical_formula_sum "Si O2"
_cell_formula_units_Z 26
_cell_length_a 10.824899
_cell_length_b 8.785550
_cell_length_c 20.949093
_cell_angle_alpha 90.000000
_cell_angle_beta 143.251603
_cell_angle_gamma 90.000000
_cell_volume 1192.006490
_symmetry_space_group_name_H-M "P 2/C"
_symmetry_group_IT_number 13
_symmetry_cell_setting 'monoclinic'
loop_
_space_group_symop_operation_xyz
x,y,z
-x,y,1/2-z
-x,-y,-z
x,-y,1/2+z
loop_
_atom_site_type_symbol
_atom_site_label
_atom_site_fract_x
_atom_site_fract_y
_atom_site_fract_z
Si Si1 0.259362 0.739619 0.745937
Si Si2 0.000000 0.316613 0.750000
Si Si3 0.282376 0.926644 0.427172
Si Si4 0.712406 0.269304 0.444705
Si Si5 0.118924 0.568027 0.157998
Si Si6 0.500000 0.746023 0.250000
Si Si7 0.781273 0.025263 0.375708
Si Si8 0.000000 0.163919 0.250000
O O1 0.483958 0.662863 0.850736
O O2 0.134648 0.612658 0.655295
O O3 0.239182 0.910118 0.705795
O O4 0.164219 0.746853 0.777010
O O5 0.802888 0.208947 0.652796
O O6 0.937901 0.399396 0.790624
O O7 0.281641 0.855313 0.496526
O O8 0.500000 0.000000 0.500000
O O9 0.118722 0.059526 0.349677
O O10 0.697919 0.174303 0.374894
O O11 0.919223 0.366632 0.537660
O O12 0.334829 0.647411 0.223571
O O13 0.656972 0.873473 0.343302
O O14 0.000000 0.000000 0.500000
#
# Coordination Sequence:
#
# PCOD9230814 Si02
#       8
#     4   2   4   4   4   2   4   2
#     4  12  26  45  71 101 143 182 229 287 345 416
#     4   9  23  44  66  96 144 176 232 280 340 416
#     4  10  20  37  69 101 133 177 229 289 339 393
#     4  11  23  44  69  97 139 179 231 281 344 409
#     4  11  27  47  68 103 142 188 223 286 354 417
#     4  12  26  42  72 102 136 176 236 282 344 402
#     4  12  25  44  70 102 136 176 234 290 339 404
#     4  11  23  42  70 104 138 174 240 280 342 408
#
# _framework density 21.811962000000001
#
# number of rings (size 3 to 8) (size 9 to 14) (size 15 to 20)
#    0.000    0.923    4.615    1.385    8.615    1.846 
#    2.769    2.308    0.000    0.000    0.000    0.000 
#    0.000    0.000    0.000    0.000    0.000    0.000 
#
# Total GULP energy -144747.571132 kJ/mol
# GULP energy per Si atom -5567.214274 kJ/mol
# Density = 2.176232 g / cm^3
# Si number density = 21.811962 Si / 1000 Ang^3
#
#
#
# Elastic Constant Matrix: (Units=GPa)
#
#
# Indices 1 2 3 4 5 6 
#
# 1 76.8008 16.2084 25.3714 0.0000 10.0005 0.0000
# 2 16.2084 74.0324 10.6176 0.0000 8.3344 0.0000
# 3 25.3714 10.6176 109.0015 0.0000 24.8050 0.0000
# 4 0.0000 0.0000 0.0000 18.8117 0.0000 -23.7769
# 5 10.0005 8.3344 24.8050 0.0000 39.1550 0.0000
# 6 0.0000 0.0000 0.0000 -23.7769 0.0000 -65.9351
#
#
#
# Elastic Compliance Matrix: (Units=1/GPa)
#
#
# Indices 1 2 3 4 5 6 
#
# 1 0.014702 -0.002654 -0.002848 0.000000 -0.001386 0.000000
# 2 -0.002654 0.014377 -0.000281 0.000000 -0.002204 0.000000
# 3 -0.002848 -0.000281 0.011317 0.000000 -0.006382 0.000000
# 4 0.000000 0.000000 0.000000 0.036515 0.000000 -0.013168
# 5 -0.001386 -0.002204 -0.006382 0.000000 0.030406 0.000000
# 6 0.000000 0.000000 0.000000 -0.013168 0.000000 -0.010418
#
#
# Mechanical properties :
#
#
# Convention : Reuss Voigt Hill
#
# Bulk Modulus (GPa) = 34.68716 40.46995 37.57856
# Shear Modulus (GPa) = 42.34563 12.24881 27.29722
#
# Velocity S-wave (km/s) = 4.41091 2.37231 3.54146
# Velocity P-wave (km/s) = 6.47138 5.10863 5.82996
#
# Compressibility (1/GPa) = 0.02882911
#
# Stress axis : x y z
#
# Youngs Moduli (GPa) = 68.01688 69.55464 88.36388
#
# Poissons Ratio (x) = 0.18462 0.25168
# Poissons Ratio (y) = 0.18054 0.02483
# Poissons Ratio (z) = 0.19373 0.01954
#
# Static dielectric constant tensor:
#      x y z
#    x 1.768780 0.000000 0.059380 
#    y 0.000000 1.795510 0.000000 
#    z 0.059380 0.000000 1.759750 
# 
# From -- ./inp_files/86476.got.cif
#   From: 2010.05.17/outbox.cif.g08.bks.cpg/sg13_44_cif.got.tgz:86476.got - 2010.06.03 16:44:36.
