data_PCOD9230548
_publ_section_title
;
Structure prediction by ZEFSAII (Michael W. Deem and Ramdas Pophale) SiO2 
 PCOD9230548
Probable space group: P 2/C
;
_chemical_formula_sum "Si O2"
_cell_formula_units_Z 30
_cell_length_a 15.240532
_cell_length_b 6.762524
_cell_length_c 14.461662
_cell_angle_alpha 90.000000
_cell_angle_beta 116.605478
_cell_angle_gamma 90.000000
_cell_volume 1332.658264
_symmetry_space_group_name_H-M "P 2/C"
_symmetry_group_IT_number 13
_symmetry_cell_setting 'monoclinic'
loop_
_space_group_symop_operation_xyz
x,y,z
-x,y,1/2-z
-x,-y,-z
x,-y,1/2+z
loop_
_atom_site_type_symbol
_atom_site_label
_atom_site_fract_x
_atom_site_fract_y
_atom_site_fract_z
Si Si1 0.071427 0.104042 0.139384
Si Si2 0.464276 0.694598 0.634451
Si Si3 0.365749 0.440609 0.812152
Si Si4 0.691003 0.403543 0.932069
Si Si5 0.849810 0.500859 0.748136
Si Si6 0.118628 0.249452 0.552140
Si Si7 0.000000 0.784517 0.250000
Si Si8 0.524474 0.888159 0.417217
O O1 0.123443 0.268121 0.227878
O O2 0.141642 0.970331 0.106297
O O3 0.017182 0.935076 0.173829
O O4 0.988361 0.217917 0.041981
O O5 0.500000 0.610083 0.750000
O O6 0.557215 0.612579 0.621387
O O7 0.359237 0.607375 0.556930
O O8 0.459862 0.925715 0.640950
O O9 0.328131 0.425268 0.687986
O O10 0.265468 0.470838 0.819734
O O11 0.429665 0.244952 0.854514
O O12 0.803053 0.330686 0.985676
O O13 0.620029 0.244264 0.946145
O O14 0.879584 0.400926 0.861045
O O15 0.909207 0.368247 0.702896
O O16 0.500000 0.000000 0.500000
#
# Coordination Sequence:
#
# PCOD9230548 Si02
#       8
#     4   4   4   4   4   4   2   4
#     4  10  20  37  58  83 115 151 189 237 293 340
#     4   9  18  35  58  78 102 141 181 223 273 324
#     4   9  20  36  56  80 105 141 190 231 268 328
#     4   9  19  36  55  81 108 137 186 234 272 330
#     4  10  20  37  58  81 111 147 188 237 289 343
#     4   9  20  36  59  85 110 142 193 246 285 339
#     4  10  22  36  52  80 116 150 188 228 276 354
#     4  11  22  35  53  80 115 146 177 225 279 334
#
# _framework density 22.511396999999999
#
# number of rings (size 3 to 8) (size 9 to 14) (size 15 to 20)
#    0.000    2.400    0.000    2.800    0.000    9.600 
#    0.000    4.000    0.000    0.000    0.000    0.000 
#    0.000    0.000    0.000    0.000    0.000    0.000 
#
# Total GULP energy -167129.805411 kJ/mol
# GULP energy per Si atom -5570.993514 kJ/mol
# Density = 2.246016 g / cm^3
# Si number density = 22.511397 Si / 1000 Ang^3
#
#
#
# Elastic Constant Matrix: (Units=GPa)
#
#
# Indices 1 2 3 4 5 6 
#
# 1 116.5309 45.0467 -3.5899 0.0000 4.1251 0.0000
# 2 45.0467 138.7004 0.6414 0.0000 15.0276 0.0000
# 3 -3.5899 0.6414 34.7169 0.0000 -0.7995 0.0000
# 4 0.0000 0.0000 0.0000 20.7584 0.0000 -5.7374
# 5 4.1251 15.0276 -0.7995 0.0000 17.7988 0.0000
# 6 0.0000 0.0000 0.0000 -5.7374 0.0000 3.2150
#
#
#
# Elastic Compliance Matrix: (Units=1/GPa)
#
#
# Indices 1 2 3 4 5 6 
#
# 1 0.009858 -0.003263 0.001092 0.000000 0.000519 0.000000
# 2 -0.003263 0.009019 -0.000663 0.000000 -0.006888 0.000000
# 3 0.001092 -0.000663 0.028967 0.000000 0.001608 0.000000
# 4 0.000000 0.000000 0.000000 0.095060 0.000000 0.169640
# 5 0.000519 -0.006888 0.001608 0.000000 0.061951 0.000000
# 6 0.000000 0.000000 0.000000 0.169640 0.000000 0.613776
#
#
# Mechanical properties :
#
#
# Convention : Reuss Voigt Hill
#
# Bulk Modulus (GPa) = 23.71048 41.57160 32.64104
# Shear Modulus (GPa) = 5.96405 24.87778 15.42092
#
# Velocity S-wave (km/s) = 1.62945 3.32794 2.62014
# Velocity P-wave (km/s) = 3.75442 5.76835 4.86670
#
# Compressibility (1/GPa) = 0.04217544
#
# Stress axis : x y z
#
# Youngs Moduli (GPa) = 101.44036 110.87836 34.52258
#
# Poissons Ratio (x) = 0.36179 -0.03769
# Poissons Ratio (y) = 0.33100 0.02288
# Poissons Ratio (z) = -0.11073 0.07348
#
# Static dielectric constant tensor:
#      x y z
#    x 1.893490 0.000000 -0.047920 
#    y 0.000000 1.772630 0.000000 
#    z -0.047920 0.000000 1.907200 
# 
# From -- ./inp_files/67593.got.cif
#   From: 2010.05.17/outbox.cif.g08.bks.cpg/sg13_34_cif.got.tgz:67593.got - 2010.06.03 16:44:36.
