data_PCOD9230280
_publ_section_title
;
Structure prediction by ZEFSAII (Michael W. Deem and Ramdas Pophale) SiO2 
 PCOD9230280
Probable space group: P 2/C
;
_chemical_formula_sum "Si O2"
_cell_formula_units_Z 24
_cell_length_a 23.174581
_cell_length_b 9.792934
_cell_length_c 16.513568
_cell_angle_alpha 90.000000
_cell_angle_beta 161.599889
_cell_angle_gamma 90.000000
_cell_volume 1182.967015
_symmetry_space_group_name_H-M "P 2/C"
_symmetry_group_IT_number 13
_symmetry_cell_setting 'monoclinic'
loop_
_space_group_symop_operation_xyz
x,y,z
-x,y,1/2-z
-x,-y,-z
x,-y,1/2+z
loop_
_atom_site_type_symbol
_atom_site_label
_atom_site_fract_x
_atom_site_fract_y
_atom_site_fract_z
Si Si1 0.811932 0.000536 0.696363
Si Si2 0.999295 0.484327 0.402594
Si Si3 0.011903 0.792382 0.360775
Si Si4 0.815444 0.262084 0.950616
Si Si5 0.678840 0.997188 0.683727
Si Si6 0.317698 0.276028 0.559121
O O1 0.654676 0.012701 0.554991
O O2 0.845818 0.127436 0.682839
O O3 0.778086 0.862707 0.601278
O O4 0.000000 0.000000 0.000000
O O5 0.000000 0.500000 0.500000
O O6 0.006362 0.633906 0.374258
O O7 0.158216 0.390569 0.573966
O O8 0.815222 0.402880 0.135327
O O9 0.000000 0.814914 0.250000
O O10 0.200463 0.862077 0.641472
O O11 0.000000 0.253177 0.250000
O O12 0.792316 0.127153 0.867128
O O13 0.661202 0.269764 0.815250
O O14 0.500000 0.000000 0.500000
O O15 0.500000 0.291268 0.750000
#
# Coordination Sequence:
#
# PCOD9230280 Si02
#       6
#     4   4   4   4   4   4
#     4  10  20  36  59  86 114 152 193 231 284 350
#     4  11  22  40  61  82 112 155 195 231 282 351
#     4  11  21  37  58  83 112 149 191 234 280 337
#     4  10  20  38  60  81 111 155 191 223 282 357
#     4  11  21  36  58  88 116 145 188 241 284 327
#     4  11  22  39  60  86 116 152 193 238 285 340
#
# _framework density 20.287970999999999
#
# number of rings (size 3 to 8) (size 9 to 14) (size 15 to 20)
#    0.000    1.333    0.000   11.000    0.000    0.000 
#    0.000    9.167    0.000    0.000    0.000    0.000 
#    0.000    0.000    0.000    0.000    0.000    0.000 
#
# Total GULP energy -134069.375729 kJ/mol
# GULP energy per Si atom -5586.223989 kJ/mol
# Density = 2.024179 g / cm^3
# Si number density = 20.287971 Si / 1000 Ang^3
#
#
#
# Elastic Constant Matrix: (Units=GPa)
#
#
# Indices 1 2 3 4 5 6 
#
# 1 179.3105 47.8928 21.5393 0.0000 17.1073 0.0000
# 2 47.8928 160.7298 31.3563 0.0000 7.8809 0.0000
# 3 21.5393 31.3563 33.4227 0.0000 22.2430 0.0000
# 4 0.0000 0.0000 0.0000 14.5634 0.0000 -0.6909
# 5 17.1073 7.8809 22.2430 0.0000 41.1234 0.0000
# 6 0.0000 0.0000 0.0000 -0.6909 0.0000 46.8635
#
#
#
# Elastic Compliance Matrix: (Units=1/GPa)
#
#
# Indices 1 2 3 4 5 6 
#
# 1 0.006314 -0.001469 -0.001766 0.000000 -0.001390 0.000000
# 2 -0.001469 0.008348 -0.009729 0.000000 0.004274 0.000000
# 3 -0.001766 -0.009729 0.060084 0.000000 -0.029899 0.000000
# 4 0.000000 0.000000 0.000000 0.068714 0.000000 0.001013
# 5 -0.001390 0.004274 -0.029899 0.000000 0.040248 0.000000
# 6 0.000000 0.000000 0.000000 0.001013 0.000000 0.021353
#
#
# Mechanical properties :
#
#
# Convention : Reuss Voigt Hill
#
# Bulk Modulus (GPa) = 20.48463 63.89332 42.18898
# Shear Modulus (GPa) = 20.22153 38.68836 29.45494
#
# Velocity S-wave (km/s) = 3.16052 4.37161 3.81444
# Velocity P-wave (km/s) = 4.84122 7.55268 6.34351
#
# Compressibility (1/GPa) = 0.04881708
#
# Stress axis : x y z
#
# Youngs Moduli (GPa) = 158.37944 119.79278 16.64346
#
# Poissons Ratio (x) = 0.17594 0.02940
# Poissons Ratio (y) = 0.23261 0.16193
# Poissons Ratio (z) = 0.27973 1.16549
#
# Static dielectric constant tensor:
#      x y z
#    x 1.842610 0.000000 -0.020830 
#    y 0.000000 1.680770 0.000000 
#    z -0.020830 0.000000 1.836090 
# 
# From -- ./inp_files/71307.got.cif
#   From: 2010.05.17/outbox.cif.g08.bks.cpg/sg13_36_cif.got.tgz:71307.got - 2010.06.03 16:44:36.
