data_PCOD9230041
_publ_section_title
;
Structure prediction by ZEFSAII (Michael W. Deem and Ramdas Pophale) SiO2 
 PCOD9230041
Probable space group: P 2/C
;
_chemical_formula_sum "Si O2"
_cell_formula_units_Z 32
_cell_length_a 26.541131
_cell_length_b 5.990575
_cell_length_c 13.209263
_cell_angle_alpha 90.000000
_cell_angle_beta 135.380974
_cell_angle_gamma 90.000000
_cell_volume 1475.178265
_symmetry_space_group_name_H-M "P 2/C"
_symmetry_group_IT_number 13
_symmetry_cell_setting 'monoclinic'
loop_
_space_group_symop_operation_xyz
x,y,z
-x,y,1/2-z
-x,-y,-z
x,-y,1/2+z
loop_
_atom_site_type_symbol
_atom_site_label
_atom_site_fract_x
_atom_site_fract_y
_atom_site_fract_z
Si Si1 0.452960 0.302235 0.481651
Si Si2 0.701696 0.168348 0.485183
Si Si3 0.074880 0.768193 0.096153
Si Si4 0.215806 0.460625 0.738343
Si Si5 0.956232 0.394914 0.289290
Si Si6 0.323534 0.522377 0.227682
Si Si7 0.417489 0.917976 0.267244
Si Si8 0.174249 0.850392 0.824315
O O1 0.500000 0.500000 0.500000
O O2 0.375669 0.411762 0.388078
O O3 0.506178 0.201139 0.641220
O O4 0.436602 0.112742 0.374718
O O5 0.734303 0.283158 0.630571
O O6 0.685433 0.359887 0.380613
O O7 0.628233 0.027387 0.388411
O O8 0.765183 0.004019 0.538613
O O9 0.133677 0.615365 0.123750
O O10 0.052012 0.628483 0.162782
O O11 0.119391 0.987701 0.186398
O O12 0.005658 0.773259 0.926669
O O13 0.247445 0.464038 0.672262
O O14 0.214153 0.687932 0.801694
O O15 0.876463 0.291153 0.173541
O O16 0.000000 0.426341 0.250000
O O17 0.363556 0.743602 0.245389
#
# Coordination Sequence:
#
# PCOD9230041 Si02
#       8
#     4   4   4   4   4   4   4   4
#     4   8  16  31  55  83 110 149 194 236 287 344
#     4  10  21  35  56  83 114 151 194 242 292 346
#     4   9  21  38  54  80 116 148 184 237 291 343
#     4  10  22  37  56  84 118 150 192 242 289 349
#     4  10  21  37  59  83 110 146 190 236 285 350
#     4  10  20  35  59  85 113 154 198 240 291 351
#     4   9  17  33  57  80 112 150 189 240 293 340
#     4  10  21  38  56  79 116 152 188 240 294 342
#
# _framework density 21.692294
#
# number of rings (size 3 to 8) (size 9 to 14) (size 15 to 20)
#    0.000    2.500    0.000    1.125    0.000    9.500 
#    0.000    0.000    0.000   53.250    0.000    0.000 
#    0.000    0.000    0.000    0.000    0.000    0.000 
#
# Total GULP energy -178405.982980 kJ/mol
# GULP energy per Si atom -5575.186968 kJ/mol
# Density = 2.164292 g / cm^3
# Si number density = 21.692294 Si / 1000 Ang^3
#
#
#
# Elastic Constant Matrix: (Units=GPa)
#
#
# Indices 1 2 3 4 5 6 
#
# 1 33.7617 5.0037 -5.0875 0.0000 0.2704 0.0000
# 2 5.0037 68.8583 27.4660 0.0000 10.7842 0.0000
# 3 -5.0875 27.4660 89.8533 0.0000 24.7708 0.0000
# 4 0.0000 0.0000 0.0000 46.5324 0.0000 23.0560
# 5 0.2704 10.7842 24.7708 0.0000 15.1589 0.0000
# 6 0.0000 0.0000 0.0000 23.0560 0.0000 13.7644
#
#
#
# Elastic Compliance Matrix: (Units=1/GPa)
#
#
# Indices 1 2 3 4 5 6 
#
# 1 0.030725 -0.003068 0.004052 0.000000 -0.004987 0.000000
# 2 -0.003068 0.017191 -0.003771 0.000000 -0.006013 0.000000
# 3 0.004052 -0.003771 0.021458 0.000000 -0.032454 0.000000
# 4 0.000000 0.000000 0.000000 0.126383 0.000000 -0.211697
# 5 -0.004987 -0.006013 -0.032454 0.000000 0.123368 0.000000
# 6 0.000000 0.000000 0.000000 -0.211697 0.000000 0.427254
#
#
# Mechanical properties :
#
#
# Convention : Reuss Voigt Hill
#
# Bulk Modulus (GPa) = 15.67361 27.47085 21.57223
# Shear Modulus (GPa) = 6.46648 26.09720 16.28184
#
# Velocity S-wave (km/s) = 1.72843 3.47228 2.74265
# Velocity P-wave (km/s) = 3.35029 5.36349 4.47166
#
# Compressibility (1/GPa) = 0.06380152
#
# Stress axis : x y z
#
# Youngs Moduli (GPa) = 32.54712 58.16853 46.60179
#
# Poissons Ratio (x) = 0.17846 -0.18885
# Poissons Ratio (y) = 0.09985 0.17573
# Poissons Ratio (z) = -0.13189 0.21935
#
# Static dielectric constant tensor:
#      x y z
#    x 1.731410 0.000000 0.019190 
#    y 0.000000 1.841460 0.000000 
#    z 0.019190 0.000000 1.823690 
# 
# From -- ./inp_files/59775.got.cif
#   From: 2010.05.17/outbox.cif.g08.bks.cpg/sg13_30_cif.got.tgz:59775.got - 2010.06.03 16:44:36.
