data_PCOD9230244
_publ_section_title
;
Structure prediction by ZEFSAII (Michael W. Deem and Ramdas Pophale) SiO2 
 PCOD9230244
Probable space group: P 2/C
;
_chemical_formula_sum "Si O2"
_cell_formula_units_Z 24
_cell_length_a 19.335079
_cell_length_b 12.520500
_cell_length_c 19.839069
_cell_angle_alpha 90.000000
_cell_angle_beta 14.134869
_cell_angle_gamma 90.000000
_cell_volume 1172.853686
_symmetry_space_group_name_H-M "P 2/C"
_symmetry_group_IT_number 13
_symmetry_cell_setting 'monoclinic'
loop_
_space_group_symop_operation_xyz
x,y,z
-x,y,1/2-z
-x,-y,-z
x,-y,1/2+z
loop_
_atom_site_type_symbol
_atom_site_label
_atom_site_fract_x
_atom_site_fract_y
_atom_site_fract_z
Si Si1 0.696417 0.966708 0.253872
Si Si2 0.870721 0.734838 0.303940
Si Si3 0.695049 0.177815 0.198884
Si Si4 0.552398 0.745149 0.983752
Si Si5 0.188027 0.490287 0.514331
Si Si6 0.921592 0.594670 0.022086
O O1 0.585246 0.846299 0.345572
O O2 0.500000 0.000000 0.500000
O O3 0.649301 0.050824 0.238236
O O4 0.000000 0.000000 0.000000
O O5 0.536439 0.752026 0.621780
O O6 0.000000 0.782457 0.250000
O O7 0.996844 0.795983 0.120508
O O8 0.996533 0.615671 0.181370
O O9 0.646417 0.213002 0.321571
O O10 0.295487 0.663285 0.228865
O O11 0.824227 0.671496 0.744535
O O12 0.500000 0.467955 0.250000
O O13 0.215356 0.547833 0.416703
O O14 0.000000 0.548554 0.750000
O O15 0.000000 0.500000 0.000000
#
# Coordination Sequence:
#
# PCOD9230244 Si02
#       6
#     4   4   4   4   4   4
#     4  10  20  36  58  86 115 152 188 231 302 378
#     4  11  22  36  57  85 115 153 196 241 296 365
#     4  11  20  36  59  85 118 149 187 245 306 358
#     4  11  22  37  59  89 121 154 195 249 306 356
#     4  11  23  41  60  83 119 165 202 237 300 379
#     4  12  24  38  61  92 123 155 205 263 303 346
#
# _framework density 20.462911999999999
#
# number of rings (size 3 to 8) (size 9 to 14) (size 15 to 20)
#    0.000    1.000    0.000   11.000    0.000    0.000 
#    0.000    0.000    0.000   10.000    0.000    0.000 
#    0.000    0.000    0.000    0.000    0.000    0.000 
#
# Total GULP energy -133677.268697 kJ/mol
# GULP energy per Si atom -5569.886196 kJ/mol
# Density = 2.041634 g / cm^3
# Si number density = 20.462912 Si / 1000 Ang^3
#
#
#
# Elastic Constant Matrix: (Units=GPa)
#
#
# Indices 1 2 3 4 5 6 
#
# 1 71.4908 29.3212 1.6293 0.0000 -0.6636 0.0000
# 2 29.3212 102.6170 19.6608 0.0000 -5.5276 0.0000
# 3 1.6293 19.6608 110.2859 0.0000 -5.5440 0.0000
# 4 0.0000 0.0000 0.0000 28.7392 0.0000 -3.0893
# 5 -0.6636 -5.5276 -5.5440 0.0000 41.7037 0.0000
# 6 0.0000 0.0000 0.0000 -3.0893 0.0000 14.9804
#
#
#
# Elastic Compliance Matrix: (Units=1/GPa)
#
#
# Indices 1 2 3 4 5 6 
#
# 1 0.015886 -0.004666 0.000583 0.000000 -0.000288 0.000000
# 2 -0.004666 0.011511 -0.001923 0.000000 0.001196 0.000000
# 3 0.000583 -0.001923 0.009452 0.000000 0.001011 0.000000
# 4 0.000000 0.000000 0.000000 0.035584 0.000000 0.007338
# 5 -0.000288 0.001196 0.001011 0.000000 0.024267 0.000000
# 6 0.000000 0.000000 0.000000 0.007338 0.000000 0.068267
#
#
# Mechanical properties :
#
#
# Convention : Reuss Voigt Hill
#
# Bulk Modulus (GPa) = 40.26423 42.84627 41.55525
# Shear Modulus (GPa) = 26.98912 32.67015 29.82963
#
# Velocity S-wave (km/s) = 3.63565 4.00003 3.82218
# Velocity P-wave (km/s) = 6.11092 6.50519 6.31114
#
# Compressibility (1/GPa) = 0.02483594
#
# Stress axis : x y z
#
# Youngs Moduli (GPa) = 62.94978 86.87228 105.79348
#
# Poissons Ratio (x) = 0.40537 -0.06164
# Poissons Ratio (y) = 0.29374 0.20345
# Poissons Ratio (z) = -0.03668 0.16706
#
# Static dielectric constant tensor:
#      x y z
#    x 1.782680 0.000000 -0.035640 
#    y 0.000000 1.868360 0.000000 
#    z -0.035640 0.000000 1.754350 
# 
# From -- ./inp_files/89023.got.cif
#   From: 2010.05.17/outbox.cif.g08.bks.cpg/sg13_45_cif.got.tgz:89023.got - 2010.06.03 16:44:36.
