data_PCOD9230891
_publ_section_title
;
Structure prediction by ZEFSAII (Michael W. Deem and Ramdas Pophale) SiO2 
 PCOD9230891
Probable space group: P 2/C
;
_chemical_formula_sum "Si O2"
_cell_formula_units_Z 18
_cell_length_a 9.466992
_cell_length_b 9.345532
_cell_length_c 9.555082
_cell_angle_alpha 90.000000
_cell_angle_beta 64.055161
_cell_angle_gamma 90.000000
_cell_volume 760.176295
_symmetry_space_group_name_H-M "P 2/C"
_symmetry_group_IT_number 13
_symmetry_cell_setting 'monoclinic'
loop_
_space_group_symop_operation_xyz
x,y,z
-x,y,1/2-z
-x,-y,-z
x,-y,1/2+z
loop_
_atom_site_type_symbol
_atom_site_label
_atom_site_fract_x
_atom_site_fract_y
_atom_site_fract_z
Si Si1 0.403836 0.183499 0.030546
Si Si2 0.500000 0.014258 0.750000
Si Si3 0.244574 0.255793 0.592559
Si Si4 0.138228 0.259252 0.330265
Si Si5 0.000000 0.497094 0.750000
Si Si6 0.000000 0.004445 0.750000
O O1 0.258607 0.273919 0.147654
O O2 0.427114 0.076125 0.153933
O O3 0.376288 0.108111 0.892954
O O4 0.575018 0.253678 0.940105
O O5 0.235488 0.262977 0.429049
O O6 0.147512 0.390755 0.688251
O O7 0.147825 0.110811 0.669832
O O8 0.021806 0.392508 0.368796
O O9 0.045554 0.109817 0.351434
#
# Coordination Sequence:
#
# PCOD9230891 Si02
#       6
#     4   2   4   4   2   2
#     4  11  22  39  68  95 134 163 221 264 329 377
#     4  10  20  38  60 106 130 162 196 280 328 386
#     4  11  22  42  64  96 127 174 213 273 317 391
#     4  11  22  42  64  96 127 174 213 273 317 391
#     4  10  26  44  60  88 136 178 220 258 326 382
#     4  10  22  36  64  96 132 162 212 264 340 382
#
# _framework density 23.678716999999999
#
# number of rings (size 3 to 8) (size 9 to 14) (size 15 to 20)
#    0.000    1.333    2.222    4.000    0.000    0.889 
#   20.000    0.000    0.000    0.000    0.000    0.000 
#    0.000    0.000    0.000    0.000    0.000    0.000 
#
# Total GULP energy -100537.312866 kJ/mol
# GULP energy per Si atom -5585.406270 kJ/mol
# Density = 2.362482 g / cm^3
# Si number density = 23.678717 Si / 1000 Ang^3
#
#
#
# Elastic Constant Matrix: (Units=GPa)
#
#
# Indices 1 2 3 4 5 6 
#
# 1 100.8181 36.0560 17.6964 0.0000 -26.3816 0.0000
# 2 36.0560 138.8165 39.4369 0.0000 -18.8420 0.0000
# 3 17.6964 39.4369 86.5887 0.0000 5.9130 0.0000
# 4 0.0000 0.0000 0.0000 55.4857 0.0000 -0.2319
# 5 -26.3816 -18.8420 5.9130 0.0000 31.8874 0.0000
# 6 0.0000 0.0000 0.0000 -0.2319 0.0000 22.2096
#
#
#
# Elastic Compliance Matrix: (Units=1/GPa)
#
#
# Indices 1 2 3 4 5 6 
#
# 1 0.013843 -0.001190 -0.003060 0.000000 0.011317 0.000000
# 2 -0.001190 0.009525 -0.004469 0.000000 0.005472 0.000000
# 3 -0.003060 -0.004469 0.014749 0.000000 -0.007907 0.000000
# 4 0.000000 0.000000 0.000000 0.018023 0.000000 0.000188
# 5 0.011317 0.005472 -0.007907 0.000000 0.045423 0.000000
# 6 0.000000 0.000000 0.000000 0.000188 0.000000 0.045027
#
#
# Mechanical properties :
#
#
# Convention : Reuss Voigt Hill
#
# Bulk Modulus (GPa) = 48.35573 56.95579 52.65576
# Shear Modulus (GPa) = 29.25304 37.45214 33.35259
#
# Velocity S-wave (km/s) = 3.51866 3.98135 3.75713
# Velocity P-wave (km/s) = 6.08062 6.72612 6.41149
#
# Compressibility (1/GPa) = 0.02068007
#
# Stress axis : x y z
#
# Youngs Moduli (GPa) = 72.23897 104.98467 67.79922
#
# Poissons Ratio (x) = 0.12495 0.20746
# Poissons Ratio (y) = 0.08598 0.30298
# Poissons Ratio (z) = 0.22104 0.46915
#
# Static dielectric constant tensor:
#      x y z
#    x 1.934780 0.000000 -0.041200 
#    y 0.000000 1.941070 0.000000 
#    z -0.041200 0.000000 1.932320 
# 
# From -- ./inp_files/14782.got.cif
#   From: 2010.05.17/outbox.cif.g08.bks.cpg/sg13_8_cif.got.tgz:14782.got - 2010.06.03 16:44:36.
