data_PCOD9230536
_publ_section_title
;
Structure prediction by ZEFSAII (Michael W. Deem and Ramdas Pophale) SiO2 
 PCOD9230536
Probable space group: P 2/C
;
_chemical_formula_sum "Si O2"
_cell_formula_units_Z 22
_cell_length_a 13.487274
_cell_length_b 12.686299
_cell_length_c 17.082101
_cell_angle_alpha 90.000000
_cell_angle_beta 157.446082
_cell_angle_gamma 90.000000
_cell_volume 1121.051145
_symmetry_space_group_name_H-M "P 2/C"
_symmetry_group_IT_number 13
_symmetry_cell_setting 'monoclinic'
loop_
_space_group_symop_operation_xyz
x,y,z
-x,y,1/2-z
-x,-y,-z
x,-y,1/2+z
loop_
_atom_site_type_symbol
_atom_site_label
_atom_site_fract_x
_atom_site_fract_y
_atom_site_fract_z
Si Si1 0.500000 0.354497 0.250000
Si Si2 0.711785 0.977484 0.758203
Si Si3 0.288114 0.492386 0.237032
Si Si4 0.258975 0.884239 0.892438
Si Si5 0.464297 0.329130 0.488511
Si Si6 0.289635 0.797838 0.475446
O O1 0.424613 0.431362 0.265716
O O2 0.701139 0.275604 0.440341
O O3 0.523185 0.078126 0.626784
O O4 0.713780 0.761592 0.606855
O O5 0.750755 0.947706 0.695883
O O6 0.000000 0.000000 0.000000
O O7 0.308872 0.417235 0.327519
O O8 0.391603 0.606230 0.338731
O O9 0.000000 0.500000 0.000000
O O10 0.524904 0.117322 0.154025
O O11 0.000000 0.905720 0.750000
O O12 0.642512 0.271416 0.552770
O O13 0.000000 0.841326 0.250000
#
# Coordination Sequence:
#
# PCOD9230536 Si02
#       6
#     2   4   4   4   4   4
#     4  10  22  34  58  90 110 148 200 236 280 338
#     4  10  23  40  60  87 118 150 190 239 288 341
#     4  10  20  37  57  82 116 152 190 237 285 335
#     4  10  22  40  60  85 117 155 193 233 286 344
#     4   9  21  37  56  83 117 152 191 237 284 337
#     4  10  20  37  60  86 116 153 192 236 287 341
#
# _framework density 19.624438999999999
#
# number of rings (size 3 to 8) (size 9 to 14) (size 15 to 20)
#    0.000    2.182    0.000    1.636    0.000   12.364 
#    0.000    1.818    0.000    0.000    0.000    0.000 
#    0.000    0.000    0.000    0.000    0.000    0.000 
#
# Total GULP energy -122592.931134 kJ/mol
# GULP energy per Si atom -5572.405961 kJ/mol
# Density = 1.957977 g / cm^3
# Si number density = 19.624439 Si / 1000 Ang^3
#
#
#
# Elastic Constant Matrix: (Units=GPa)
#
#
# Indices 1 2 3 4 5 6 
#
# 1 60.3457 36.1421 38.5872 0.0000 -0.3486 0.0000
# 2 36.1421 84.5719 40.1564 0.0000 5.3856 0.0000
# 3 38.5872 40.1564 163.3566 0.0000 8.9109 0.0000
# 4 0.0000 0.0000 0.0000 20.6320 0.0000 -9.7318
# 5 -0.3486 5.3856 8.9109 0.0000 25.9872 0.0000
# 6 0.0000 0.0000 0.0000 -9.7318 0.0000 11.6733
#
#
#
# Elastic Compliance Matrix: (Units=1/GPa)
#
#
# Indices 1 2 3 4 5 6 
#
# 1 0.024266 -0.008806 -0.003755 0.000000 0.003438 0.000000
# 2 -0.008806 0.016655 -0.001854 0.000000 -0.002934 0.000000
# 3 -0.003755 -0.001854 0.007588 0.000000 -0.002268 0.000000
# 4 0.000000 0.000000 0.000000 0.079881 0.000000 0.066595
# 5 0.003438 -0.002934 -0.002268 0.000000 0.039912 0.000000
# 6 0.000000 0.000000 0.000000 0.066595 0.000000 0.141185
#
#
# Mechanical properties :
#
#
# Convention : Reuss Voigt Hill
#
# Bulk Modulus (GPa) = 50.81569 59.78287 55.29928
# Shear Modulus (GPa) = 14.49794 24.55105 19.52449
#
# Velocity S-wave (km/s) = 2.72098 3.54085 3.15764
# Velocity P-wave (km/s) = 5.98514 6.87360 6.44470
#
# Compressibility (1/GPa) = 0.01967896
#
# Stress axis : x y z
#
# Youngs Moduli (GPa) = 41.20941 60.04281 131.78793
#
# Poissons Ratio (x) = 0.52876 0.49484
# Poissons Ratio (y) = 0.36291 0.24431
# Poissons Ratio (z) = 0.15473 0.11131
#
# Static dielectric constant tensor:
#      x y z
#    x 1.674440 0.000000 -0.001980 
#    y 0.000000 1.612470 0.000000 
#    z -0.001980 0.000000 1.688770 
# 
# From -- ./inp_files/68609.got.cif
#   From: 2010.05.17/outbox.cif.g08.bks.cpg/sg13_35_cif.got.tgz:68609.got - 2010.06.03 16:44:36.
