data_PCOD9230414
_publ_section_title
;
Structure prediction by ZEFSAII (Michael W. Deem and Ramdas Pophale) SiO2 
 PCOD9230414
Probable space group: P 2/C
;
_chemical_formula_sum "Si O2"
_cell_formula_units_Z 24
_cell_length_a 22.305552
_cell_length_b 5.652327
_cell_length_c 22.084212
_cell_angle_alpha 90.000000
_cell_angle_beta 156.694464
_cell_angle_gamma 90.000000
_cell_volume 1101.579980
_symmetry_space_group_name_H-M "P 2/C"
_symmetry_group_IT_number 13
_symmetry_cell_setting 'monoclinic'
loop_
_space_group_symop_operation_xyz
x,y,z
-x,y,1/2-z
-x,-y,-z
x,-y,1/2+z
loop_
_atom_site_type_symbol
_atom_site_label
_atom_site_fract_x
_atom_site_fract_y
_atom_site_fract_z
Si Si1 0.576659 0.420738 0.221087
Si Si2 0.292839 0.015123 0.868973
Si Si3 0.249783 0.469956 0.391844
Si Si4 0.500000 0.053844 0.250000
Si Si5 0.000000 0.336328 0.250000
Si Si6 0.344788 0.959437 0.782228
Si Si7 0.769684 0.806647 0.447694
O O1 0.511214 0.211190 0.201231
O O2 0.713025 0.541820 0.382552
O O3 0.643212 0.321049 0.220473
O O4 0.426009 0.570861 0.073424
O O5 0.248905 0.271108 0.857693
O O6 0.268161 0.025721 0.773820
O O7 0.217880 0.772298 0.824516
O O8 0.475856 0.980893 0.046660
O O9 0.135008 0.478891 0.342123
O O10 0.650699 0.904498 0.386079
O O11 0.073100 0.186503 0.372351
O O12 0.259969 0.068871 0.644760
#
# Coordination Sequence:
#
# PCOD9230414 Si02
#       7
#     4   4   4   2   2   4   4
#     4  10  20  38  66  93 128 167 225 282 336 394
#     4  10  22  42  72 102 134 167 223 283 339 397
#     4  11  24  43  66  99 134 177 219 273 336 399
#     4  10  20  36  62  94 122 174 224 288 332 394
#     4  12  28  42  62  94 140 188 226 272 332 414
#     4   9  21  38  70 103 124 166 223 288 340 392
#     4  11  22  41  61  94 133 177 226 279 337 398
#
# _framework density 21.786887
#
# number of rings (size 3 to 8) (size 9 to 14) (size 15 to 20)
#    0.000    1.667    1.667    2.500    7.000    2.667 
#    6.000    1.667    0.000    0.000    0.000    0.000 
#    0.000    0.000    0.000    0.000    0.000    0.000 
#
# Total GULP energy -133681.443707 kJ/mol
# GULP energy per Si atom -5570.060154 kJ/mol
# Density = 2.173730 g / cm^3
# Si number density = 21.786887 Si / 1000 Ang^3
#
#
#
# Elastic Constant Matrix: (Units=GPa)
#
#
# Indices 1 2 3 4 5 6 
#
# 1 126.8551 58.8183 41.3678 0.0000 -15.2420 0.0000
# 2 58.8183 82.5788 15.5021 0.0000 -0.2310 0.0000
# 3 41.3678 15.5021 94.5992 0.0000 -20.8269 0.0000
# 4 0.0000 0.0000 0.0000 -53.5242 0.0000 -16.2975
# 5 -15.2420 -0.2310 -20.8269 0.0000 28.1655 0.0000
# 6 0.0000 0.0000 0.0000 -16.2975 0.0000 27.9193
#
#
#
# Elastic Compliance Matrix: (Units=1/GPa)
#
#
# Indices 1 2 3 4 5 6 
#
# 1 0.013877 -0.009216 -0.003490 0.000000 0.004854 0.000000
# 2 -0.009216 0.018681 -0.000114 0.000000 -0.004918 0.000000
# 3 -0.003490 -0.000114 0.013975 0.000000 0.008444 0.000000
# 4 0.000000 0.000000 0.000000 -0.015864 0.000000 -0.009260
# 5 0.004854 -0.004918 0.008444 0.000000 0.044335 0.000000
# 6 0.000000 0.000000 0.000000 -0.009260 0.000000 0.030412
#
#
# Mechanical properties :
#
#
# Convention : Reuss Voigt Hill
#
# Bulk Modulus (GPa) = 47.86002 59.48993 53.67498
# Shear Modulus (GPa) = 36.22667 13.06846 24.64756
#
# Velocity S-wave (km/s) = 4.08214 2.45180 3.36713
# Velocity P-wave (km/s) = 6.65083 5.94809 6.30925
#
# Compressibility (1/GPa) = 0.02089427
#
# Stress axis : x y z
#
# Youngs Moduli (GPa) = 72.06115 53.52955 71.55784
#
# Poissons Ratio (x) = 0.49330 0.24971
# Poissons Ratio (y) = 0.66408 0.00817
# Poissons Ratio (z) = 0.25147 0.00611
#
# Static dielectric constant tensor:
#      x y z
#    x 1.815000 0.000000 -0.022060 
#    y 0.000000 1.897780 0.000000 
#    z -0.022060 0.000000 1.839440 
# 
# From -- ./inp_files/88726.got.cif
#   From: 2010.05.17/outbox.cif.g08.bks.cpg/sg13_45_cif.got.tgz:88726.got - 2010.06.03 16:44:36.
