data_PCOD9230745
_publ_section_title
;
Structure prediction by ZEFSAII (Michael W. Deem and Ramdas Pophale) SiO2 
 PCOD9230745
Probable space group: P 2/C
;
_chemical_formula_sum "Si O2"
_cell_formula_units_Z 32
_cell_length_a 8.430718
_cell_length_b 12.232974
_cell_length_c 29.882732
_cell_angle_alpha 90.000000
_cell_angle_beta 147.820427
_cell_angle_gamma 90.000000
_cell_volume 1641.335382
_symmetry_space_group_name_H-M "P 2/C"
_symmetry_group_IT_number 13
_symmetry_cell_setting 'monoclinic'
loop_
_space_group_symop_operation_xyz
x,y,z
-x,y,1/2-z
-x,-y,-z
x,-y,1/2+z
loop_
_atom_site_type_symbol
_atom_site_label
_atom_site_fract_x
_atom_site_fract_y
_atom_site_fract_z
Si Si1 0.691879 0.626768 0.750001
Si Si2 0.177454 0.233505 0.411908
Si Si3 0.158999 0.239075 0.906351
Si Si4 0.600468 0.000949 0.847888
Si Si5 0.013136 0.999053 0.152110
Si Si6 0.188385 0.620402 0.250002
Si Si7 0.779122 0.760924 0.406354
Si Si8 0.206021 0.233504 0.088095
O O1 0.500000 0.626267 0.750000
O O2 0.751539 0.503587 0.750001
O O3 0.492351 0.692033 0.666501
O O4 0.993359 0.692030 0.833504
O O5 0.507833 0.272756 0.501533
O O6 0.989761 0.233346 0.413255
O O7 0.180060 0.108823 0.394590
O O8 0.161271 0.114793 0.888086
O O9 0.997260 0.316387 0.832307
O O10 0.961220 0.238757 0.903740
O O11 0.797717 0.000732 0.849239
O O12 0.259804 0.996700 0.749999
O O13 0.667239 0.114795 0.888084
O O14 0.687468 0.891180 0.894588
O O15 0.496597 0.683608 0.332313
O O16 0.000000 0.621972 0.250000
O O17 0.998656 0.727245 0.498471
#
# Coordination Sequence:
#
# PCOD9230745 Si02
#       8
#     4   4   4   4   4   4   4   4
#     4  10  22  41  64  86 114 157 201 246 297 348
#     4  10  20  37  63  92 121 155 197 240 290 351
#     4  11  22  38  62  90 124 159 193 237 294 355
#     4   9  16  32  60  90 121 157 192 233 289 350
#     4   9  16  32  60  90 121 157 192 233 289 350
#     4  12  26  43  62  84 114 153 203 256 295 344
#     4  11  22  38  62  90 124 159 193 237 294 355
#     4  10  20  37  63  92 121 155 197 240 290 351
#
# _framework density 19.496317999999999
#
# number of rings (size 3 to 8) (size 9 to 14) (size 15 to 20)
#    0.000    1.750    2.500    2.625    0.000    2.000 
#    0.000    1.250    0.000    0.000    0.000    0.000 
#    0.000    0.000    0.000    0.000    0.000    0.000 
#
# Total GULP energy -178815.527044 kJ/mol
# GULP energy per Si atom -5587.985220 kJ/mol
# Density = 1.945194 g / cm^3
# Si number density = 19.496318 Si / 1000 Ang^3
#
#
#
# Elastic Constant Matrix: (Units=GPa)
#
#
# Indices 1 2 3 4 5 6 
#
# 1 26.2105 30.4667 30.7498 0.0000 1.4466 0.0000
# 2 30.4667 156.3328 84.9020 0.0000 1.7306 0.0000
# 3 30.7498 84.9020 182.3887 0.0000 3.5266 0.0000
# 4 0.0000 0.0000 0.0000 -0.6064 0.0000 0.0751
# 5 1.4466 1.7306 3.5266 0.0000 20.5089 0.0000
# 6 0.0000 0.0000 0.0000 0.0751 0.0000 -3.0144
#
#
#
# Elastic Compliance Matrix: (Units=1/GPa)
#
#
# Indices 1 2 3 4 5 6 
#
# 1 0.053310 -0.007370 -0.005515 0.000000 -0.002190 0.000000
# 2 -0.007370 0.009580 -0.003222 0.000000 0.000265 0.000000
# 3 -0.005515 -0.003222 0.007926 0.000000 -0.000702 0.000000
# 4 0.000000 0.000000 0.000000 -1.654287 0.000000 -0.041233
# 5 -0.002190 0.000265 -0.000702 0.000000 0.049012 0.000000
# 6 0.000000 0.000000 0.000000 -0.041233 0.000000 -0.332767
#
#
# Mechanical properties :
#
#
# Convention : Reuss Voigt Hill
#
# Bulk Modulus (GPa) = 25.90513 73.01878 49.46195
# Shear Modulus (GPa) = -2.74402 17.96518 7.61058
#
# Velocity S-wave (km/s) = -1.18765 3.03886 1.97790
# Velocity P-wave (km/s) = 3.38162 7.06023 5.53544
#
# Compressibility (1/GPa) = 0.03860239
#
# Stress axis : x y z
#
# Youngs Moduli (GPa) = 18.75815 104.38651 126.16785
#
# Poissons Ratio (x) = 0.76934 0.69578
# Poissons Ratio (y) = 0.13825 0.40651
# Poissons Ratio (z) = 0.10345 0.33633
#
# Static dielectric constant tensor:
#      x y z
#    x 1.664620 0.000000 -0.000110 
#    y 0.000000 1.671200 0.000000 
#    z -0.000110 0.000000 1.661250 
# 
# From -- ./inp_files/96162.got.cif
#   From: 2010.05.17/outbox.cif.g08.bks.cpg/sg13_49_cif.got.tgz:96162.got - 2010.06.03 16:44:36.
