data_PCOD9230615
_publ_section_title
;
Structure prediction by ZEFSAII (Michael W. Deem and Ramdas Pophale) SiO2 
 PCOD9230615
Probable space group: P 2/C
;
_chemical_formula_sum "Si O2"
_cell_formula_units_Z 26
_cell_length_a 13.789384
_cell_length_b 6.591714
_cell_length_c 14.225138
_cell_angle_alpha 90.000000
_cell_angle_beta 97.192947
_cell_angle_gamma 90.000000
_cell_volume 1282.827749
_symmetry_space_group_name_H-M "P 2/C"
_symmetry_group_IT_number 13
_symmetry_cell_setting 'monoclinic'
loop_
_space_group_symop_operation_xyz
x,y,z
-x,y,1/2-z
-x,-y,-z
x,-y,1/2+z
loop_
_atom_site_type_symbol
_atom_site_label
_atom_site_fract_x
_atom_site_fract_y
_atom_site_fract_z
Si Si1 0.802700 0.604316 0.764276
Si Si2 0.500000 0.403753 0.250000
Si Si3 0.894393 0.736769 0.965594
Si Si4 0.660811 0.729397 0.288109
Si Si5 0.912267 0.635562 0.595294
Si Si6 0.746171 0.100647 0.990287
Si Si7 0.633824 0.107696 0.164274
O O1 0.835977 0.622448 0.875416
O O2 0.749733 0.387825 0.747516
O O3 0.891571 0.626991 0.703005
O O4 0.725955 0.780984 0.726966
O O5 0.584077 0.550703 0.299436
O O6 0.545026 0.260122 0.174772
O O7 0.998416 0.778067 0.927088
O O8 0.923931 0.589880 0.054829
O O9 0.822211 0.914997 0.988125
O O10 0.698248 0.839816 0.385932
O O11 0.616233 0.895674 0.213508
O O12 0.813288 0.717016 0.536111
O O13 0.664748 0.070021 0.060824
#
# Coordination Sequence:
#
# PCOD9230615 Si02
#       7
#     4   2   4   4   4   4   4
#     4  10  20  37  60  85 120 168 200 242 302 346
#     4  10  24  42  64  90 118 152 196 254 308 368
#     4  11  20  37  59  88 125 160 206 248 292 348
#     4  11  21  41  64  86 123 155 201 250 304 367
#     4  10  22  36  57  88 126 162 207 248 285 350
#     4  11  22  38  64  89 120 164 199 246 305 353
#     4  10  22  41  62  89 120 153 199 250 302 367
#
# _framework density 20.267724000000001
#
# number of rings (size 3 to 8) (size 9 to 14) (size 15 to 20)
#    0.000    1.538    3.077    2.308    0.000    0.615 
#    0.000    3.077    0.000    0.000    0.000    0.000 
#    0.000    0.000    0.000    0.000    0.000    0.000 
#
# Total GULP energy -145091.229615 kJ/mol
# GULP energy per Si atom -5580.431908 kJ/mol
# Density = 2.022159 g / cm^3
# Si number density = 20.267724 Si / 1000 Ang^3
#
#
#
# Elastic Constant Matrix: (Units=GPa)
#
#
# Indices 1 2 3 4 5 6 
#
# 1 100.0761 40.8832 25.3171 0.0000 -38.9240 0.0000
# 2 40.8832 85.3812 32.9008 0.0000 -25.3602 0.0000
# 3 25.3171 32.9008 54.9120 0.0000 -28.4188 0.0000
# 4 0.0000 0.0000 0.0000 19.0285 0.0000 1.1049
# 5 -38.9240 -25.3602 -28.4188 0.0000 27.1113 0.0000
# 6 0.0000 0.0000 0.0000 1.1049 0.0000 35.2046
#
#
#
# Elastic Compliance Matrix: (Units=1/GPa)
#
#
# Indices 1 2 3 4 5 6 
#
# 1 0.029865 -0.004160 0.019453 0.000000 0.059378 0.000000
# 2 -0.004160 0.017227 -0.006896 0.000000 0.002913 0.000000
# 3 0.019453 -0.006896 0.053529 0.000000 0.077589 0.000000
# 4 0.000000 0.000000 0.000000 0.052649 0.000000 -0.001652
# 5 0.059378 0.002913 0.077589 0.000000 0.206190 0.000000
# 6 0.000000 0.000000 0.000000 -0.001652 0.000000 0.028457
#
#
# Mechanical properties :
#
#
# Convention : Reuss Voigt Hill
#
# Bulk Modulus (GPa) = 8.51676 48.73016 28.62346
# Shear Modulus (GPa) = 12.18740 25.68677 18.93708
#
# Velocity S-wave (km/s) = 2.45484 3.56388 3.06002
# Velocity P-wave (km/s) = 3.49947 6.40550 5.16123
#
# Compressibility (1/GPa) = 0.11741555
#
# Stress axis : x y z
#
# Youngs Moduli (GPa) = 33.48376 58.04993 18.68162
#
# Poissons Ratio (x) = 0.24148 -0.36342
# Poissons Ratio (y) = 0.13929 0.12882
# Poissons Ratio (z) = -0.65137 0.40030
#
# Static dielectric constant tensor:
#      x y z
#    x 1.762880 0.000000 -0.015570 
#    y 0.000000 1.720210 0.000000 
#    z -0.015570 0.000000 1.681210 
# 
# From -- ./inp_files/52294.got.cif
#   From: 2010.05.17/outbox.cif.g08.bks.cpg/sg13_27_cif.got.tgz:52294.got - 2010.06.03 16:44:36.
