data_PCOD9230872
_publ_section_title
;
Structure prediction by ZEFSAII (Michael W. Deem and Ramdas Pophale) SiO2 
 PCOD9230872
Probable space group: P 2/C
;
_chemical_formula_sum "Si O2"
_cell_formula_units_Z 24
_cell_length_a 21.788788
_cell_length_b 10.846459
_cell_length_c 21.799146
_cell_angle_alpha 90.000000
_cell_angle_beta 13.068319
_cell_angle_gamma 90.000000
_cell_volume 1164.891659
_symmetry_space_group_name_H-M "P 2/C"
_symmetry_group_IT_number 13
_symmetry_cell_setting 'monoclinic'
loop_
_space_group_symop_operation_xyz
x,y,z
-x,y,1/2-z
-x,-y,-z
x,-y,1/2+z
loop_
_atom_site_type_symbol
_atom_site_label
_atom_site_fract_x
_atom_site_fract_y
_atom_site_fract_z
Si Si1 0.830245 0.748514 0.352401
Si Si2 0.168501 0.147256 0.923679
Si Si3 0.012089 0.359105 0.312274
Si Si4 0.601791 0.139939 0.406897
Si Si5 0.507954 0.495710 0.316245
Si Si6 0.673030 0.866873 0.700651
O O1 0.648263 0.628834 0.513986
O O2 0.590939 0.850971 0.585584
O O3 0.000000 0.729073 0.250000
O O4 0.064358 0.793604 0.078707
O O5 0.403826 0.198301 0.649998
O O6 0.250918 0.010963 0.866655
O O7 0.093280 0.236444 0.052853
O O8 0.903119 0.137918 0.139755
O O9 0.819763 0.470433 0.524276
O O10 0.000000 0.349767 0.250000
O O11 0.321402 0.394835 0.023626
O O12 0.596054 0.185810 0.342800
O O13 0.500000 0.000000 0.500000
O O14 0.500000 0.494669 0.250000
#
# Coordination Sequence:
#
# PCOD9230872 Si02
#       6
#     4   4   4   4   4   4
#     4  12  23  38  60  87 118 153 192 240 294 346
#     4  11  21  38  62  89 119 153 193 241 294 346
#     4  10  21  37  61  87 115 150 190 239 290 340
#     4  10  20  38  60  83 115 160 205 230 271 353
#     4  10  20  38  59  81 111 156 202 228 269 348
#     4  11  22  37  60  89 119 153 191 239 293 346
#
# _framework density 20.602774
#
# number of rings (size 3 to 8) (size 9 to 14) (size 15 to 20)
#    0.000    1.333    0.000   10.000    0.000    0.667 
#    0.000    6.667    0.000   21.000    0.000    0.000 
#    0.000    0.000    0.000    0.000    0.000    0.000 
#
# Total GULP energy -133893.688745 kJ/mol
# GULP energy per Si atom -5578.903698 kJ/mol
# Density = 2.055588 g / cm^3
# Si number density = 20.602774 Si / 1000 Ang^3
#
#
#
# Elastic Constant Matrix: (Units=GPa)
#
#
# Indices 1 2 3 4 5 6 
#
# 1 67.4764 46.8271 43.6857 0.0000 10.6880 0.0000
# 2 46.8271 79.3547 41.3123 0.0000 17.3156 0.0000
# 3 43.6857 41.3123 137.8512 0.0000 13.6751 0.0000
# 4 0.0000 0.0000 0.0000 39.7152 0.0000 5.3404
# 5 10.6880 17.3156 13.6751 0.0000 50.4921 0.0000
# 6 0.0000 0.0000 0.0000 5.3404 0.0000 7.2775
#
#
#
# Elastic Compliance Matrix: (Units=1/GPa)
#
#
# Indices 1 2 3 4 5 6 
#
# 1 0.027294 -0.013783 -0.004537 0.000000 0.000178 0.000000
# 2 -0.013783 0.022729 -0.002014 0.000000 -0.004331 0.000000
# 3 -0.004537 -0.002014 0.009384 0.000000 -0.000891 0.000000
# 4 0.000000 0.000000 0.000000 0.027936 0.000000 -0.020500
# 5 0.000178 -0.004331 -0.000891 0.000000 0.021494 0.000000
# 6 0.000000 0.000000 0.000000 -0.020500 0.000000 0.152454
#
#
# Mechanical properties :
#
#
# Convention : Reuss Voigt Hill
#
# Bulk Modulus (GPa) = 53.36424 60.92583 57.14503
# Shear Modulus (GPa) = 16.22297 29.68742 22.95520
#
# Velocity S-wave (km/s) = 2.80914 3.80009 3.34155
# Velocity P-wave (km/s) = 6.03982 6.99215 6.53336
#
# Compressibility (1/GPa) = 0.01873914
#
# Stress axis : x y z
#
# Youngs Moduli (GPa) = 36.63779 43.99721 106.56734
#
# Poissons Ratio (x) = 0.60643 0.48346
# Poissons Ratio (y) = 0.50499 0.21461
# Poissons Ratio (z) = 0.16621 0.08860
#
# Static dielectric constant tensor:
#      x y z
#    x 1.745780 0.000000 0.013270 
#    y 0.000000 1.771210 0.000000 
#    z 0.013270 0.000000 1.729840 
# 
# From -- ./inp_files/89027.got.cif
#   From: 2010.05.17/outbox.cif.g08.bks.cpg/sg13_45_cif.got.tgz:89027.got - 2010.06.03 16:44:36.
