data_PCOD9230118
_publ_section_title
;
Structure prediction by ZEFSAII (Michael W. Deem and Ramdas Pophale) SiO2 
 PCOD9230118
Probable space group: P 2/C
;
_chemical_formula_sum "Si O2"
_cell_formula_units_Z 28
_cell_length_a 12.726973
_cell_length_b 8.384919
_cell_length_c 11.896607
_cell_angle_alpha 90.000000
_cell_angle_beta 63.600834
_cell_angle_gamma 90.000000
_cell_volume 1137.152011
_symmetry_space_group_name_H-M "P 2/C"
_symmetry_group_IT_number 13
_symmetry_cell_setting 'monoclinic'
loop_
_space_group_symop_operation_xyz
x,y,z
-x,y,1/2-z
-x,-y,-z
x,-y,1/2+z
loop_
_atom_site_type_symbol
_atom_site_label
_atom_site_fract_x
_atom_site_fract_y
_atom_site_fract_z
Si Si1 0.944478 0.820209 0.954483
Si Si2 0.479176 0.379561 0.613234
Si Si3 0.287159 0.600091 0.777115
Si Si4 0.906359 0.349510 0.704278
Si Si5 0.706860 0.217327 0.459167
Si Si6 0.183837 0.893223 0.882660
Si Si7 0.291208 0.110794 0.650932
O O1 0.958311 0.730601 0.067281
O O2 0.836279 0.738687 0.942110
O O3 0.889995 0.996654 0.998391
O O4 0.077228 0.838492 0.847908
O O5 0.500000 0.500000 0.500000
O O6 0.399901 0.488467 0.733699
O O7 0.602613 0.293701 0.581109
O O8 0.396420 0.234264 0.611920
O O9 0.179080 0.485561 0.800898
O O10 0.306835 0.707542 0.657413
O O11 0.251398 0.733009 0.886037
O O12 0.826507 0.215709 0.803208
O O13 0.000000 0.407721 0.750000
O O14 0.691724 0.027245 0.449106
O O15 0.269577 0.015492 0.778402
#
# Coordination Sequence:
#
# PCOD9230118 Si02
#       7
#     4   4   4   4   4   4   4
#     4  10  22  37  57  91 119 152 202 250 289 356
#     4   9  18  37  60  89 118 158 205 240 289 358
#     4   9  20  38  58  85 119 161 192 236 301 357
#     4  10  22  37  55  84 122 157 189 238 306 359
#     4  10  20  35  64  87 117 155 206 245 286 339
#     4   9  20  37  56  85 124 150 198 239 300 350
#     4   9  19  34  59  84 116 158 196 242 293 348
#
# _framework density 24.622917000000001
#
# number of rings (size 3 to 8) (size 9 to 14) (size 15 to 20)
#    0.000    2.571    0.000    0.429    8.000    1.714 
#    0.000    7.857    0.000    5.143    0.000    0.000 
#    0.000    0.000    0.000    0.000    0.000    0.000 
#
# Total GULP energy -156345.191433 kJ/mol
# GULP energy per Si atom -5583.756837 kJ/mol
# Density = 2.456687 g / cm^3
# Si number density = 24.622917 Si / 1000 Ang^3
#
#
#
# Elastic Constant Matrix: (Units=GPa)
#
#
# Indices 1 2 3 4 5 6 
#
# 1 79.3048 20.0445 25.7313 0.0000 -5.9596 0.0000
# 2 20.0445 145.6388 48.3692 0.0000 -17.9469 0.0000
# 3 25.7313 48.3692 68.8097 0.0000 -21.3534 0.0000
# 4 0.0000 0.0000 0.0000 47.1060 0.0000 -17.6005
# 5 -5.9596 -17.9469 -21.3534 0.0000 23.6922 0.0000
# 6 0.0000 0.0000 0.0000 -17.6005 0.0000 20.1125
#
#
#
# Elastic Compliance Matrix: (Units=1/GPa)
#
#
# Indices 1 2 3 4 5 6 
#
# 1 0.014410 -0.000299 -0.005725 0.000000 -0.001762 0.000000
# 2 -0.000299 0.009004 -0.005726 0.000000 0.001585 0.000000
# 3 -0.005725 -0.005726 0.026247 0.000000 0.017878 0.000000
# 4 0.000000 0.000000 0.000000 0.031542 0.000000 0.027603
# 5 -0.001762 0.001585 0.017878 0.000000 0.059079 0.000000
# 6 0.000000 0.000000 0.000000 0.027603 0.000000 0.073876
#
#
# Mechanical properties :
#
#
# Convention : Reuss Voigt Hill
#
# Bulk Modulus (GPa) = 38.22435 53.56035 45.89235
# Shear Modulus (GPa) = 20.29392 31.48936 25.89164
#
# Velocity S-wave (km/s) = 2.87398 3.58000 3.24624
# Velocity P-wave (km/s) = 5.15467 6.23602 5.72095
#
# Compressibility (1/GPa) = 0.02616134
#
# Stress axis : x y z
#
# Youngs Moduli (GPa) = 69.39444 111.05622 38.09971
#
# Poissons Ratio (x) = 0.03320 0.21813
# Poissons Ratio (y) = 0.02075 0.21816
# Poissons Ratio (z) = 0.39731 0.63590
#
# Static dielectric constant tensor:
#      x y z
#    x 1.979730 0.000000 0.015400 
#    y 0.000000 1.986240 0.000000 
#    z 0.015400 0.000000 2.042880 
# 
# From -- ./inp_files/52984.got.cif
#   From: 2010.05.17/outbox.cif.g08.bks.cpg/sg13_27_cif.got.tgz:52984.got - 2010.06.03 16:44:36.
