data_PCOD9230372
_publ_section_title
;
Structure prediction by ZEFSAII (Michael W. Deem and Ramdas Pophale) SiO2 
 PCOD9230372
Probable space group: P 2/C
;
_chemical_formula_sum "Si O2"
_cell_formula_units_Z 20
_cell_length_a 10.094072
_cell_length_b 5.639982
_cell_length_c 19.732616
_cell_angle_alpha 90.000000
_cell_angle_beta 42.282740
_cell_angle_gamma 90.000000
_cell_volume 755.802106
_symmetry_space_group_name_H-M "P 2/C"
_symmetry_group_IT_number 13
_symmetry_cell_setting 'monoclinic'
loop_
_space_group_symop_operation_xyz
x,y,z
-x,y,1/2-z
-x,-y,-z
x,-y,1/2+z
loop_
_atom_site_type_symbol
_atom_site_label
_atom_site_fract_x
_atom_site_fract_y
_atom_site_fract_z
Si Si1 0.232189 0.908511 0.996734
Si Si2 0.779788 0.413606 0.460135
Si Si3 0.205198 0.059025 0.770499
Si Si4 0.179012 0.308907 0.377128
Si Si5 0.500000 0.678884 0.250000
Si Si6 0.000000 0.383188 0.750000
O O1 0.329563 0.662768 0.985203
O O2 0.006387 0.899743 0.111073
O O3 0.315300 0.154466 0.994978
O O4 0.210640 0.887773 0.923527
O O5 0.958566 0.396971 0.447812
O O6 0.889304 0.453358 0.346772
O O7 0.394176 0.175192 0.732420
O O8 0.160905 0.197951 0.718988
O O9 0.239274 0.786683 0.779028
O O10 0.326429 0.513441 0.341293
#
# Coordination Sequence:
#
# PCOD9230372 Si02
#       6
#     4   4   4   4   2   2
#     4  10  21  37  64  93 122 154 218 263 300 353
#     4  10  20  36  61  93 118 161 203 261 302 355
#     4  10  22  39  61  93 122 166 202 261 309 369
#     4  11  22  37  62  95 124 160 210 264 311 364
#     4  12  22  38  58  94 132 158 204 252 336 358
#     4  10  20  40  62  92 128 158 214 254 306 374
#
# _framework density 26.461955
#
# number of rings (size 3 to 8) (size 9 to 14) (size 15 to 20)
#    0.000    1.600    4.000    3.600    2.800    7.200 
#    0.000    0.000    0.000    6.000    0.000    1.400 
#    0.000    0.000    0.000    0.000    0.000    0.000 
#
# Total GULP energy -111677.844124 kJ/mol
# GULP energy per Si atom -5583.892206 kJ/mol
# Density = 2.640173 g / cm^3
# Si number density = 26.461955 Si / 1000 Ang^3
#
#
#
# Elastic Constant Matrix: (Units=GPa)
#
#
# Indices 1 2 3 4 5 6 
#
# 1 97.2380 27.7400 17.3697 0.0000 3.1470 0.0000
# 2 27.7400 179.9751 27.4872 0.0000 7.4723 0.0000
# 3 17.3697 27.4872 95.6603 0.0000 18.2628 0.0000
# 4 0.0000 0.0000 0.0000 3.4818 0.0000 -6.0407
# 5 3.1470 7.4723 18.2628 0.0000 41.7773 0.0000
# 6 0.0000 0.0000 0.0000 -6.0407 0.0000 25.4624
#
#
#
# Elastic Compliance Matrix: (Units=1/GPa)
#
#
# Indices 1 2 3 4 5 6 
#
# 1 0.010980 -0.001453 -0.001602 0.000000 0.000133 0.000000
# 2 -0.001453 0.006008 -0.001395 0.000000 -0.000355 0.000000
# 3 -0.001602 -0.001395 0.012083 0.000000 -0.004912 0.000000
# 4 0.000000 0.000000 0.000000 0.488129 0.000000 0.115804
# 5 0.000133 -0.000355 -0.004912 0.000000 0.026137 0.000000
# 6 0.000000 0.000000 0.000000 0.115804 0.000000 0.066747
#
#
# Mechanical properties :
#
#
# Convention : Reuss Voigt Hill
#
# Bulk Modulus (GPa) = 49.57267 57.56302 53.56784
# Shear Modulus (GPa) = 7.99095 34.16273 21.07684
#
# Velocity S-wave (km/s) = 1.73964 3.59696 2.82529
# Velocity P-wave (km/s) = 4.77591 6.24910 5.56150
#
# Compressibility (1/GPa) = 0.02017241
#
# Stress axis : x y z
#
# Youngs Moduli (GPa) = 91.07101 166.44230 82.76128
#
# Poissons Ratio (x) = 0.24190 0.13255
# Poissons Ratio (y) = 0.13236 0.11542
# Poissons Ratio (z) = 0.14586 0.23212
#
# Static dielectric constant tensor:
#      x y z
#    x 2.031010 0.000000 0.094410 
#    y 0.000000 2.278630 0.000000 
#    z 0.094410 0.000000 2.170590 
# 
# From -- ./inp_files/74428.got.cif
#   From: 2010.05.17/outbox.cif.g08.bks.cpg/sg13_38_cif.got.tgz:74428.got - 2010.06.03 16:44:36.
