data_PCOD9230941
_publ_section_title
;
Structure prediction by ZEFSAII (Michael W. Deem and Ramdas Pophale) SiO2 
 PCOD9230941
Probable space group: P 2/C
;
_chemical_formula_sum "Si O2"
_cell_formula_units_Z 30
_cell_length_a 11.550909
_cell_length_b 9.295136
_cell_length_c 12.750011
_cell_angle_alpha 90.000000
_cell_angle_beta 97.525872
_cell_angle_gamma 90.000000
_cell_volume 1357.141633
_symmetry_space_group_name_H-M "P 2/C"
_symmetry_group_IT_number 13
_symmetry_cell_setting 'monoclinic'
loop_
_space_group_symop_operation_xyz
x,y,z
-x,y,1/2-z
-x,-y,-z
x,-y,1/2+z
loop_
_atom_site_type_symbol
_atom_site_label
_atom_site_fract_x
_atom_site_fract_y
_atom_site_fract_z
Si Si1 0.288178 0.222085 0.149444
Si Si2 0.534438 0.991280 0.382343
Si Si3 0.061299 0.379574 0.582078
Si Si4 0.000000 0.580861 0.750000
Si Si5 0.817157 0.277094 0.592906
Si Si6 0.756959 0.592962 0.665314
Si Si7 0.722572 0.792632 0.488778
Si Si8 0.731560 0.998149 0.184027
O O1 0.292462 0.358333 0.227762
O O2 0.226407 0.098780 0.215338
O O3 0.409233 0.145275 0.136911
O O4 0.229183 0.253038 0.031187
O O5 0.629583 0.861896 0.397909
O O6 0.500000 0.000000 0.500000
O O7 0.408058 0.976116 0.314380
O O8 0.171759 0.290671 0.556133
O O9 0.000000 0.500000 0.500000
O O10 0.078212 0.478981 0.685466
O O11 0.956108 0.275595 0.598840
O O12 0.893212 0.655675 0.677100
O O13 0.769586 0.430127 0.628139
O O14 0.783146 0.157221 0.672321
O O15 0.679973 0.674397 0.568289
O O16 0.753646 0.921337 0.574682
#
# Coordination Sequence:
#
# PCOD9230941 Si02
#       8
#     4   4   4   2   4   4   4   4
#     4  11  22  42  71  94 134 190 221 289 359 411
#     4  10  20  42  70  90 130 180 226 282 360 403
#     4  11  21  38  64  95 142 182 220 281 360 411
#     4  10  20  38  60  94 130 192 212 276 344 426
#     4  11  22  43  66 104 138 175 232 297 339 423
#     4  10  23  38  65 102 135 176 242 271 351 428
#     4  10  20  40  66  96 128 183 226 278 348 426
#     4  10  23  43  68  99 129 180 238 282 350 423
#
# _framework density 22.105281999999999
#
# number of rings (size 3 to 8) (size 9 to 14) (size 15 to 20)
#    0.000    1.600    5.333    1.200    0.000    2.667 
#    0.000    0.667    0.000    0.000    0.000    0.000 
#    0.000    0.000    0.000    0.000    0.000    0.000 
#
# Total GULP energy -167125.644687 kJ/mol
# GULP energy per Si atom -5570.854823 kJ/mol
# Density = 2.205497 g / cm^3
# Si number density = 22.105282 Si / 1000 Ang^3
#
#
#
# Elastic Constant Matrix: (Units=GPa)
#
#
# Indices 1 2 3 4 5 6 
#
# 1 98.6401 45.2386 28.2263 0.0000 -16.3169 0.0000
# 2 45.2386 109.1327 45.2745 0.0000 -7.0095 0.0000
# 3 28.2263 45.2745 123.1734 0.0000 5.4277 0.0000
# 4 0.0000 0.0000 0.0000 49.9969 0.0000 -9.9713
# 5 -16.3169 -7.0095 5.4277 0.0000 38.2625 0.0000
# 6 0.0000 0.0000 0.0000 -9.9713 0.0000 44.1651
#
#
#
# Elastic Compliance Matrix: (Units=1/GPa)
#
#
# Indices 1 2 3 4 5 6 
#
# 1 0.013582 -0.004615 -0.001644 0.000000 0.005180 0.000000
# 2 -0.004615 0.012635 -0.003625 0.000000 0.000861 0.000000
# 3 -0.001644 -0.003625 0.009950 0.000000 -0.002777 0.000000
# 4 0.000000 0.000000 0.000000 0.020944 0.000000 0.004729
# 5 0.005180 0.000861 -0.002777 0.000000 0.028896 0.000000
# 6 0.000000 0.000000 0.000000 0.004729 0.000000 0.023710
#
#
# Mechanical properties :
#
#
# Convention : Reuss Voigt Hill
#
# Bulk Modulus (GPa) = 60.97933 63.15833 62.06883
# Shear Modulus (GPa) = 37.05030 40.63202 38.84116
#
# Velocity S-wave (km/s) = 4.09844 4.29197 4.19632
# Velocity P-wave (km/s) = 7.07404 7.29349 7.18460
#
# Compressibility (1/GPa) = 0.01639900
#
# Stress axis : x y z
#
# Youngs Moduli (GPa) = 73.62770 79.14334 100.50184
#
# Poissons Ratio (x) = 0.36527 0.16525
# Poissons Ratio (y) = 0.33981 0.36428
# Poissons Ratio (z) = 0.12106 0.28686
#
# Static dielectric constant tensor:
#      x y z
#    x 1.857520 0.000000 0.003900 
#    y 0.000000 2.034760 0.000000 
#    z 0.003900 0.000000 2.033170 
# 
# From -- ./inp_files/50025.got.cif
#   From: 2010.05.17/outbox.cif.g08.bks.cpg/sg13_26_cif.got.tgz:50025.got - 2010.06.03 16:44:36.
