data_PCOD9230719
_publ_section_title
;
Structure prediction by ZEFSAII (Michael W. Deem and Ramdas Pophale) SiO2 
 PCOD9230719
Probable space group: P 2/C
;
_chemical_formula_sum "Si O2"
_cell_formula_units_Z 20
_cell_length_a 10.639396
_cell_length_b 5.355684
_cell_length_c 17.655470
_cell_angle_alpha 90.000000
_cell_angle_beta 52.943014
_cell_angle_gamma 90.000000
_cell_volume 802.849213
_symmetry_space_group_name_H-M "P 2/C"
_symmetry_group_IT_number 13
_symmetry_cell_setting 'monoclinic'
loop_
_space_group_symop_operation_xyz
x,y,z
-x,y,1/2-z
-x,-y,-z
x,-y,1/2+z
loop_
_atom_site_type_symbol
_atom_site_label
_atom_site_fract_x
_atom_site_fract_y
_atom_site_fract_z
Si Si1 0.200359 0.265050 0.299640
Si Si2 0.922888 0.763717 0.077112
Si Si3 0.000000 0.487398 0.750000
Si Si4 0.675217 0.749173 0.046243
Si Si5 0.767705 0.250826 0.953757
Si Si6 0.500000 0.487397 0.750000
O O1 0.131549 0.504548 0.368449
O O2 0.383052 0.325106 0.247609
O O3 0.121730 0.325104 0.247608
O O4 0.150976 0.995424 0.349024
O O5 0.849873 0.762878 0.020214
O O6 0.109699 0.762882 0.020214
O O7 0.112526 0.306704 0.658833
O O8 0.569808 0.693296 0.158833
O O9 0.666407 0.499999 1.000000
O O10 0.665745 0.999999 0.999999
#
# Coordination Sequence:
#
# PCOD9230719 Si02
#       6
#     4   4   2   4   4   2
#     4  10  22  39  66  89 125 166 203 253 314 365
#     4  10  20  37  62  95 121 154 209 269 312 357
#     4  10  24  44  62  94 128 164 208 260 308 370
#     4  11  22  37  62  92 126 165 206 255 313 369
#     4  11  22  37  62  92 126 165 206 255 313 369
#     4  10  24  44  62  94 128 164 208 260 308 370
#
# _framework density 24.911276999999998
#
# number of rings (size 3 to 8) (size 9 to 14) (size 15 to 20)
#    0.000    1.600    0.000    6.000    0.000   14.400 
#    0.000    2.000    0.000    0.000    0.000    0.000 
#    0.000    0.000    0.000    0.000    0.000    0.000 
#
# Total GULP energy -111572.813768 kJ/mol
# GULP energy per Si atom -5578.640688 kJ/mol
# Density = 2.485458 g / cm^3
# Si number density = 24.911277 Si / 1000 Ang^3
#
#
#
# Elastic Constant Matrix: (Units=GPa)
#
#
# Indices 1 2 3 4 5 6 
#
# 1 109.9590 19.7934 -7.9640 0.0000 1.2948 0.0000
# 2 19.7934 242.7803 87.3126 0.0000 -0.9795 0.0000
# 3 -7.9640 87.3126 146.4997 0.0000 -1.8265 0.0000
# 4 0.0000 0.0000 0.0000 54.8880 0.0000 -0.6241
# 5 1.2948 -0.9795 -1.8265 0.0000 14.2455 0.0000
# 6 0.0000 0.0000 0.0000 -0.6241 0.0000 11.8006
#
#
#
# Elastic Compliance Matrix: (Units=1/GPa)
#
#
# Indices 1 2 3 4 5 6 
#
# 1 0.009410 -0.001210 0.001223 0.000000 -0.000782 0.000000
# 2 -0.001210 0.005398 -0.003282 0.000000 0.000060 0.000000
# 3 0.001223 -0.003282 0.008859 0.000000 0.000799 0.000000
# 4 0.000000 0.000000 0.000000 0.018230 0.000000 0.000964
# 5 -0.000782 0.000060 0.000799 0.000000 0.070375 0.000000
# 6 0.000000 0.000000 0.000000 0.000964 0.000000 0.084793
#
#
# Mechanical properties :
#
#
# Convention : Reuss Voigt Hill
#
# Bulk Modulus (GPa) = 58.38429 77.50256 67.94342
# Shear Modulus (GPa) = 23.88765 42.85994 33.37380
#
# Velocity S-wave (km/s) = 3.09999 4.15240 3.66417
# Velocity P-wave (km/s) = 6.02503 7.35995 6.72569
#
# Compressibility (1/GPa) = 0.01712790
#
# Stress axis : x y z
#
# Youngs Moduli (GPa) = 106.27070 185.24272 112.88368
#
# Poissons Ratio (x) = 0.22418 -0.13806
# Poissons Ratio (y) = 0.12861 0.37053
# Poissons Ratio (z) = -0.12997 0.60804
#
# Static dielectric constant tensor:
#      x y z
#    x 2.033430 0.000000 -0.000490 
#    y 0.000000 1.982550 0.000000 
#    z -0.000490 0.000000 2.067800 
# 
# From -- ./inp_files/65207.got.cif
#   From: 2010.05.17/outbox.cif.g08.bks.cpg/sg13_33_cif.got.tgz:65207.got - 2010.06.03 16:44:36.
