data_PCOD9230045
_publ_section_title
;
Structure prediction by ZEFSAII (Michael W. Deem and Ramdas Pophale) SiO2 
 PCOD9230045
Probable space group: P 2/C
;
_chemical_formula_sum "Si O2"
_cell_formula_units_Z 28
_cell_length_a 9.668762
_cell_length_b 10.316155
_cell_length_c 25.108820
_cell_angle_alpha 90.000000
_cell_angle_beta 144.913217
_cell_angle_gamma 90.000000
_cell_volume 1439.608037
_symmetry_space_group_name_H-M "P 2/C"
_symmetry_group_IT_number 13
_symmetry_cell_setting 'monoclinic'
loop_
_space_group_symop_operation_xyz
x,y,z
-x,y,1/2-z
-x,-y,-z
x,-y,1/2+z
loop_
_atom_site_type_symbol
_atom_site_label
_atom_site_fract_x
_atom_site_fract_y
_atom_site_fract_z
Si Si1 0.684942 0.140740 0.513907
Si Si2 0.000000 0.485143 0.750000
Si Si3 0.659093 0.376398 0.065672
Si Si4 0.766749 0.977590 0.152497
Si Si5 0.500000 0.702127 0.250000
Si Si6 0.190490 0.383465 0.497471
Si Si7 0.313506 0.274122 0.802690
Si Si8 0.006248 0.665554 0.455848
O O1 0.517276 0.256185 0.483344
O O2 0.792595 0.063599 0.598522
O O3 0.880431 0.210610 0.537960
O O4 0.489293 0.049358 0.423506
O O5 0.801781 0.577787 0.662216
O O6 0.891855 0.385116 0.760010
O O7 0.840807 0.348762 0.074020
O O8 0.500000 0.500000 0.000000
O O9 0.752936 0.848212 0.183234
O O10 0.000000 0.050804 0.250000
O O11 0.609167 0.769158 0.231969
O O12 0.738137 0.633182 0.348734
O O13 0.457673 0.339823 0.597208
O O14 0.021974 0.319637 0.489392
O O15 0.162350 0.537826 0.494648
#
# Coordination Sequence:
#
# PCOD9230045 Si02
#       8
#     4   2   4   4   2   4   4   4
#     4  11  23  40  63  90 121 161 206 263 310 363
#     4  12  22  32  66  92 124 158 200 262 312 362
#     4  12  21  37  60  95 123 156 199 255 313 370
#     4  11  23  39  66  87 121 164 214 261 307 368
#     4  10  22  32  60  86 118 156 208 252 298 382
#     4  10  20  35  59  85 126 158 191 250 309 372
#     4  11  20  37  57  91 115 160 207 249 303 366
#     4  10  20  37  57  88 123 158 197 249 318 364
#
# _framework density 19.449738
#
# number of rings (size 3 to 8) (size 9 to 14) (size 15 to 20)
#    0.000    1.143    5.000    1.714    1.000    0.000 
#    0.000    2.857    3.143    0.000    0.000    0.000 
#    0.000    0.000    0.000    0.000    0.000    0.000 
#
# Total GULP energy -156130.311380 kJ/mol
# GULP energy per Si atom -5576.082549 kJ/mol
# Density = 1.940547 g / cm^3
# Si number density = 19.449738 Si / 1000 Ang^3
#
#
#
# Elastic Constant Matrix: (Units=GPa)
#
#
# Indices 1 2 3 4 5 6 
#
# 1 110.3026 14.3638 10.0737 0.0000 -7.4557 0.0000
# 2 14.3638 41.5772 20.9806 0.0000 5.1734 0.0000
# 3 10.0737 20.9806 94.5400 0.0000 -0.5473 0.0000
# 4 0.0000 0.0000 0.0000 16.4960 0.0000 3.6386
# 5 -7.4557 5.1734 -0.5473 0.0000 26.0363 0.0000
# 6 0.0000 0.0000 0.0000 3.6386 0.0000 22.4970
#
#
#
# Elastic Compliance Matrix: (Units=1/GPa)
#
#
# Indices 1 2 3 4 5 6 
#
# 1 0.009809 -0.003731 -0.000197 0.000000 0.003546 0.000000
# 2 -0.003731 0.029318 -0.006149 0.000000 -0.007023 0.000000
# 3 -0.000197 -0.006149 0.011971 0.000000 0.001417 0.000000
# 4 0.000000 0.000000 0.000000 0.062864 0.000000 -0.010167
# 5 0.003546 -0.007023 0.001417 0.000000 0.040849 0.000000
# 6 0.000000 0.000000 0.000000 -0.010167 0.000000 0.046095
#
#
# Mechanical properties :
#
#
# Convention : Reuss Voigt Hill
#
# Bulk Modulus (GPa) = 32.31601 37.47290 34.89446
# Shear Modulus (GPa) = 21.61001 26.40596 24.00799
#
# Velocity S-wave (km/s) = 3.33689 3.68863 3.51716
# Velocity P-wave (km/s) = 5.61228 6.11961 5.87143
#
# Compressibility (1/GPa) = 0.03094441
#
# Stress axis : x y z
#
# Youngs Moduli (GPa) = 101.94218 34.10931 83.53250
#
# Poissons Ratio (x) = 0.12726 0.01644
# Poissons Ratio (y) = 0.38034 0.51367
# Poissons Ratio (z) = 0.02006 0.20975
#
# Static dielectric constant tensor:
#      x y z
#    x 1.741690 0.000000 0.003440 
#    y 0.000000 1.665400 0.000000 
#    z 0.003440 0.000000 1.743700 
# 
# From -- ./inp_files/85167.got.cif
#   From: 2010.05.17/outbox.cif.g08.bks.cpg/sg13_43_cif.got.tgz:85167.got - 2010.06.03 16:44:36.
