data_PCOD9230216
_publ_section_title
;
Structure prediction by ZEFSAII (Michael W. Deem and Ramdas Pophale) SiO2 
 PCOD9230216
Probable space group: P 2/C
;
_chemical_formula_sum "Si O2"
_cell_formula_units_Z 28
_cell_length_a 6.239329
_cell_length_b 15.761871
_cell_length_c 15.967187
_cell_angle_alpha 90.000000
_cell_angle_beta 60.974473
_cell_angle_gamma 90.000000
_cell_volume 1373.048934
_symmetry_space_group_name_H-M "P 2/C"
_symmetry_group_IT_number 13
_symmetry_cell_setting 'monoclinic'
loop_
_space_group_symop_operation_xyz
x,y,z
-x,y,1/2-z
-x,-y,-z
x,-y,1/2+z
loop_
_atom_site_type_symbol
_atom_site_label
_atom_site_fract_x
_atom_site_fract_y
_atom_site_fract_z
Si Si1 0.000000 0.218988 0.750000
Si Si2 0.746777 0.695655 0.155108
Si Si3 0.000000 0.590334 0.750000
Si Si4 0.503550 0.337997 0.153000
Si Si5 0.870264 0.942966 0.953518
Si Si6 0.900509 0.206097 0.017704
Si Si7 0.307698 0.903935 0.098448
Si Si8 0.179475 0.500306 0.386268
O O1 0.959267 0.280941 0.680516
O O2 0.776479 0.154311 0.808822
O O3 0.500000 0.721123 0.250000
O O4 0.732311 0.596354 0.140178
O O5 0.844422 0.747886 0.057003
O O6 0.775821 0.650484 0.821146
O O7 0.929376 0.533953 0.681830
O O8 0.500000 0.309697 0.250000
O O9 0.694100 0.276483 0.072183
O O10 0.609501 0.433443 0.131819
O O11 0.031567 0.857691 0.919438
O O12 0.824741 0.004259 0.882974
O O13 0.596737 0.918596 0.036328
O O14 0.000000 0.000000 0.000000
O O15 0.794985 0.147739 0.962629
O O16 0.000000 0.500000 0.500000
#
# Coordination Sequence:
#
# PCOD9230216 Si02
#       8
#     2   4   2   4   4   4   4   4
#     4  10  21  36  56  89 122 146 192 249 302 362
#     4  11  21  36  58  88 121 155 198 254 303 361
#     4  10  23  40  60  83 124 166 214 273 306 366
#     4  10  22  41  59  84 121 162 212 258 304 365
#     4   9  18  36  58  79 111 150 190 241 300 368
#     4  10  20  36  57  86 116 155 199 246 308 364
#     4   9  19  35  57  85 116 150 191 240 305 372
#     4  11  22  41  62  90 124 169 215 258 319 376
#
# _framework density 20.392572999999999
#
# number of rings (size 3 to 8) (size 9 to 14) (size 15 to 20)
#    0.000    2.000    1.429    2.571    0.000    2.857 
#    5.143    4.286    0.000    0.857    0.000    0.000 
#    0.000    0.000    0.000    0.000    0.000    0.000 
#
# Total GULP energy -155990.229318 kJ/mol
# GULP energy per Si atom -5571.079619 kJ/mol
# Density = 2.034616 g / cm^3
# Si number density = 20.392573 Si / 1000 Ang^3
#
#
#
# Elastic Constant Matrix: (Units=GPa)
#
#
# Indices 1 2 3 4 5 6 
#
# 1 60.8975 42.0205 12.6515 0.0000 -26.4967 0.0000
# 2 42.0205 138.2497 34.2407 0.0000 -14.6629 0.0000
# 3 12.6515 34.2407 81.1815 0.0000 -21.4124 0.0000
# 4 0.0000 0.0000 0.0000 15.6653 0.0000 3.4528
# 5 -26.4967 -14.6629 -21.4124 0.0000 29.4202 0.0000
# 6 0.0000 0.0000 0.0000 3.4528 0.0000 7.8452
#
#
#
# Elastic Compliance Matrix: (Units=1/GPa)
#
#
# Indices 1 2 3 4 5 6 
#
# 1 0.035191 -0.008964 0.006779 0.000000 0.032161 0.000000
# 2 -0.008964 0.010449 -0.004661 0.000000 -0.006258 0.000000
# 3 0.006779 -0.004661 0.017605 0.000000 0.016596 0.000000
# 4 0.000000 0.000000 0.000000 0.070693 0.000000 -0.031113
# 5 0.032161 -0.006258 0.016596 0.000000 0.071914 0.000000
# 6 0.000000 0.000000 0.000000 -0.031113 0.000000 0.141160
#
#
# Mechanical properties :
#
#
# Convention : Reuss Voigt Hill
#
# Bulk Modulus (GPa) = 20.18030 50.90601 35.54315
# Shear Modulus (GPa) = 13.25485 23.34721 18.30103
#
# Velocity S-wave (km/s) = 2.55224 3.38729 2.99897
# Velocity P-wave (km/s) = 4.31308 6.34945 5.42762
#
# Compressibility (1/GPa) = 0.04955328
#
# Stress axis : x y z
#
# Youngs Moduli (GPa) = 28.41604 95.70716 56.80352
#
# Poissons Ratio (x) = 0.85795 -0.38509
# Poissons Ratio (y) = 0.25473 0.26474
# Poissons Ratio (z) = -0.19264 0.44605
#
# Static dielectric constant tensor:
#      x y z
#    x 1.610360 0.000000 -0.038240 
#    y 0.000000 1.735600 0.000000 
#    z -0.038240 0.000000 1.776660 
# 
# From -- ./inp_files/61541.got.cif
#   From: 2010.05.17/outbox.cif.g08.bks.cpg/sg13_31_cif.got.tgz:61541.got - 2010.06.03 16:44:36.
