data_PCOD9230871
_publ_section_title
;
Structure prediction by ZEFSAII (Michael W. Deem and Ramdas Pophale) SiO2 
 PCOD9230871
Probable space group: P 2/C
;
_chemical_formula_sum "Si O2"
_cell_formula_units_Z 20
_cell_length_a 9.234479
_cell_length_b 8.395893
_cell_length_c 20.831472
_cell_angle_alpha 90.000000
_cell_angle_beta 147.496153
_cell_angle_gamma 90.000000
_cell_volume 867.883726
_symmetry_space_group_name_H-M "P 2/C"
_symmetry_group_IT_number 13
_symmetry_cell_setting 'monoclinic'
loop_
_space_group_symop_operation_xyz
x,y,z
-x,y,1/2-z
-x,-y,-z
x,-y,1/2+z
loop_
_atom_site_type_symbol
_atom_site_label
_atom_site_fract_x
_atom_site_fract_y
_atom_site_fract_z
Si Si1 0.184830 0.772364 0.699904
Si Si2 0.010891 0.768346 0.488780
Si Si3 0.419664 0.743930 0.001726
Si Si4 0.568008 0.956594 0.377435
Si Si5 0.391283 0.401751 0.054913
O O1 0.127177 0.740804 0.603822
O O2 0.389782 0.651372 0.810471
O O3 0.898761 0.768844 0.628482
O O4 0.324629 0.944956 0.757093
O O5 0.097041 0.624372 0.475453
O O6 0.703556 0.817783 0.385404
O O7 0.184283 0.917116 0.525326
O O8 0.508821 0.884139 0.082498
O O9 0.441826 0.578320 0.049066
O O10 0.570144 0.715028 0.991620
#
# Coordination Sequence:
#
# PCOD9230871 Si02
#       5
#     4   4   4   4   4
#     4  10  20  38  59  80 117 159 194 243 297 343
#     4   9  19  36  58  84 116 149 192 246 293 342
#     4  10  22  37  58  87 121 157 195 240 290 350
#     4   9  18  35  57  84 114 147 192 239 289 346
#     4  10  20  38  59  85 121 155 195 242 290 349
#
# _framework density 23.044561000000002
#
# number of rings (size 3 to 8) (size 9 to 14) (size 15 to 20)
#    0.000    2.400    0.000    3.000    0.000    6.400 
#    0.000   20.000    0.000    4.800    0.000    0.000 
#    0.000    0.000    0.000    0.000    0.000    0.000 
#
# Total GULP energy -111812.017792 kJ/mol
# GULP energy per Si atom -5590.600890 kJ/mol
# Density = 2.299211 g / cm^3
# Si number density = 23.044561 Si / 1000 Ang^3
#
#
#
# Elastic Constant Matrix: (Units=GPa)
#
#
# Indices 1 2 3 4 5 6 
#
# 1 117.4578 46.7547 38.4321 0.0000 -11.4657 0.0000
# 2 46.7547 66.4197 39.1728 0.0000 -14.8952 0.0000
# 3 38.4321 39.1728 85.7084 0.0000 -2.0337 0.0000
# 4 0.0000 0.0000 0.0000 25.1117 0.0000 -5.4615
# 5 -11.4657 -14.8952 -2.0337 0.0000 24.7746 0.0000
# 6 0.0000 0.0000 0.0000 -5.4615 0.0000 45.9460
#
#
#
# Elastic Compliance Matrix: (Units=1/GPa)
#
#
# Indices 1 2 3 4 5 6 
#
# 1 0.012130 -0.006935 -0.002240 0.000000 0.001260 0.000000
# 2 -0.006935 0.028579 -0.009639 0.000000 0.013181 0.000000
# 3 -0.002240 -0.009639 0.016948 0.000000 -0.005441 0.000000
# 4 0.000000 0.000000 0.000000 0.040879 0.000000 0.004859
# 5 0.001260 0.013181 -0.005441 0.000000 0.048425 0.000000
# 6 0.000000 0.000000 0.000000 0.004859 0.000000 0.022342
#
#
# Mechanical properties :
#
#
# Convention : Reuss Voigt Hill
#
# Bulk Modulus (GPa) = 49.92782 57.58944 53.75863
# Shear Modulus (GPa) = 23.40735 28.84823 26.12779
#
# Velocity S-wave (km/s) = 3.19053 3.54198 3.37084
# Velocity P-wave (km/s) = 5.94016 6.46314 6.20716
#
# Compressibility (1/GPa) = 0.02002892
#
# Stress axis : x y z
#
# Youngs Moduli (GPa) = 82.43935 34.99104 59.00335
#
# Poissons Ratio (x) = 0.24267 0.13214
# Poissons Ratio (y) = 0.57174 0.56875
# Poissons Ratio (z) = 0.18463 0.33729
#
# Static dielectric constant tensor:
#      x y z
#    x 1.883510 0.000000 0.010350 
#    y 0.000000 1.944850 0.000000 
#    z 0.010350 0.000000 1.849460 
# 
# From -- ./inp_files/75851.got.cif
#   From: 2010.05.17/outbox.cif.g08.bks.cpg/sg13_38_cif.got.tgz:75851.got - 2010.06.03 16:44:36.
