data_PCOD9230034
_publ_section_title
;
Structure prediction by ZEFSAII (Michael W. Deem and Ramdas Pophale) SiO2 
 PCOD9230034
Probable space group: P 2/C
;
_chemical_formula_sum "Si O2"
_cell_formula_units_Z 30
_cell_length_a 21.240022
_cell_length_b 6.739216
_cell_length_c 25.832243
_cell_angle_alpha 90.000000
_cell_angle_beta 155.580385
_cell_angle_gamma 90.000000
_cell_volume 1528.670625
_symmetry_space_group_name_H-M "P 2/C"
_symmetry_group_IT_number 13
_symmetry_cell_setting 'monoclinic'
loop_
_space_group_symop_operation_xyz
x,y,z
-x,y,1/2-z
-x,-y,-z
x,-y,1/2+z
loop_
_atom_site_type_symbol
_atom_site_label
_atom_site_fract_x
_atom_site_fract_y
_atom_site_fract_z
Si Si1 0.889375 0.083569 0.852659
Si Si2 0.174084 0.184315 0.813481
Si Si3 0.555987 0.513770 0.983544
Si Si4 0.280896 0.405678 0.704587
Si Si5 0.792862 0.821855 0.867788
Si Si6 0.746411 0.802189 0.566497
Si Si7 0.532144 0.916514 0.213753
Si Si8 0.000000 0.508309 0.250000
O O1 0.851568 0.120881 0.764891
O O2 0.818214 0.263392 0.833117
O O3 0.816371 0.891260 0.825844
O O4 0.069955 0.075922 0.997859
O O5 0.337276 0.293679 0.942020
O O6 0.054637 0.347650 0.744807
O O7 0.170243 0.988348 0.845510
O O8 0.653785 0.319622 0.041051
O O9 0.500000 0.500000 0.000000
O O10 0.412917 0.506255 0.838138
O O11 0.188970 0.587887 0.612748
O O12 0.362489 0.271321 0.722726
O O13 0.630929 0.898396 0.766999
O O14 0.624735 0.883682 0.434445
O O15 0.862820 0.638578 0.631612
O O16 0.500000 0.932013 0.250000
#
# Coordination Sequence:
#
# PCOD9230034 Si02
#       8
#     4   4   4   4   4   4   4   2
#     4  10  22  37  58  90 118 155 196 242 299 356
#     4  11  22  38  61  86 121 161 194 246 310 346
#     4  10  20  35  58  92 119 148 200 244 292 371
#     4  10  20  39  59  86 122 153 195 249 298 348
#     4  10  22  38  58  87 121 151 201 244 288 359
#     4  10  23  40  59  88 119 154 197 248 295 351
#     4  10  23  41  60  85 116 157 203 242 287 352
#     4  10  24  40  56  86 120 150 204 242 284 372
#
# _framework density 19.624894999999999
#
# number of rings (size 3 to 8) (size 9 to 14) (size 15 to 20)
#    0.000    1.867    1.333    1.600    1.867    4.267 
#    0.000    0.000    0.000    0.000    0.000    0.000 
#    0.000    0.000    0.000    0.000    0.000    0.000 
#
# Total GULP energy -167515.332975 kJ/mol
# GULP energy per Si atom -5583.844432 kJ/mol
# Density = 1.958023 g / cm^3
# Si number density = 19.624895 Si / 1000 Ang^3
#
#
#
# Elastic Constant Matrix: (Units=GPa)
#
#
# Indices 1 2 3 4 5 6 
#
# 1 94.9443 26.9961 34.0892 0.0000 -0.4621 0.0000
# 2 26.9961 89.2185 19.5598 0.0000 -3.2803 0.0000
# 3 34.0892 19.5598 64.8939 0.0000 8.9463 0.0000
# 4 0.0000 0.0000 0.0000 27.5488 0.0000 4.5005
# 5 -0.4621 -3.2803 8.9463 0.0000 20.5475 0.0000
# 6 0.0000 0.0000 0.0000 4.5005 0.0000 10.9924
#
#
#
# Elastic Compliance Matrix: (Units=1/GPa)
#
#
# Indices 1 2 3 4 5 6 
#
# 1 0.013727 -0.002548 -0.006840 0.000000 0.002880 0.000000
# 2 -0.002548 0.012747 -0.002953 0.000000 0.003264 0.000000
# 3 -0.006840 -0.002953 0.021255 0.000000 -0.009880 0.000000
# 4 0.000000 0.000000 0.000000 0.038901 0.000000 -0.015927
# 5 0.002880 0.003264 -0.009880 0.000000 0.053555 0.000000
# 6 0.000000 0.000000 0.000000 -0.015927 0.000000 0.097493
#
#
# Mechanical properties :
#
#
# Convention : Reuss Voigt Hill
#
# Bulk Modulus (GPa) = 43.39141 45.59407 44.49274
# Shear Modulus (GPa) = 18.51560 23.04517 20.78039
#
# Velocity S-wave (km/s) = 3.07494 3.43050 3.25757
# Velocity P-wave (km/s) = 5.89622 6.24294 6.07205
#
# Compressibility (1/GPa) = 0.02304604
#
# Stress axis : x y z
#
# Youngs Moduli (GPa) = 72.85009 78.45017 47.04776
#
# Poissons Ratio (x) = 0.19990 0.32180
# Poissons Ratio (y) = 0.18563 0.13895
# Poissons Ratio (z) = 0.49828 0.23170
#
# Static dielectric constant tensor:
#      x y z
#    x 1.659000 0.000000 0.036730 
#    y 0.000000 1.709050 0.000000 
#    z 0.036730 0.000000 1.691070 
# 
# From -- ./inp_files/88380.got.cif
#   From: 2010.05.17/outbox.cif.g08.bks.cpg/sg13_45_cif.got.tgz:88380.got - 2010.06.03 16:44:36.
