data_PCOD9230757
_publ_section_title
;
Structure prediction by ZEFSAII (Michael W. Deem and Ramdas Pophale) SiO2 
 PCOD9230757
Probable space group: P 2/C
;
_chemical_formula_sum "Si O2"
_cell_formula_units_Z 28
_cell_length_a 9.705249
_cell_length_b 5.276787
_cell_length_c 26.936216
_cell_angle_alpha 90.000000
_cell_angle_beta 57.799502
_cell_angle_gamma 90.000000
_cell_volume 1167.293235
_symmetry_space_group_name_H-M "P 2/C"
_symmetry_group_IT_number 13
_symmetry_cell_setting 'monoclinic'
loop_
_space_group_symop_operation_xyz
x,y,z
-x,y,1/2-z
-x,-y,-z
x,-y,1/2+z
loop_
_atom_site_type_symbol
_atom_site_label
_atom_site_fract_x
_atom_site_fract_y
_atom_site_fract_z
Si Si1 0.177492 0.076088 0.413424
Si Si2 0.000000 0.083727 0.750000
Si Si3 0.039946 0.128353 0.345808
Si Si4 0.506633 0.238966 0.101569
Si Si5 0.155833 0.628468 0.085557
Si Si6 0.500000 0.000000 0.500000
Si Si7 0.671614 0.737515 0.357034
Si Si8 0.808982 0.732635 0.004072
O O1 0.195907 0.132564 0.351373
O O2 0.310063 0.242322 0.415730
O O3 0.205599 0.802678 0.434642
O O4 0.991981 0.163897 0.458674
O O5 0.936154 0.916043 0.716686
O O6 0.851980 0.245218 0.800720
O O7 0.959515 0.867090 0.382481
O O8 0.923748 0.374936 0.374727
O O9 0.421951 0.987912 0.139371
O O10 0.476385 0.212369 0.048571
O O11 0.417052 0.483954 0.138928
O O12 0.316300 0.731571 0.083945
O O13 0.184162 0.540198 0.024299
O O14 0.663011 0.122189 0.502775
#
# Coordination Sequence:
#
# PCOD9230757 Si02
#       8
#     4   2   4   4   4   2   4   4
#     4   9  21  40  62  94 136 175 209 263 330 399
#     4  10  24  42  72  98 120 172 230 290 326 376
#     4  10  22  39  65  92 125 162 220 270 326 380
#     4  11  24  41  65  98 140 171 214 269 327 398
#     4  10  20  37  63  95 127 162 216 270 311 384
#     4  10  20  38  64 100 134 174 214 262 314 394
#     4  11  23  41  66  97 131 169 228 275 324 378
#     4   9  18  37  63  95 132 177 213 257 324 391
#
# _framework density 23.987117000000001
#
# number of rings (size 3 to 8) (size 9 to 14) (size 15 to 20)
#    0.000    2.000    1.429    1.714    4.000    8.571 
#    0.000    0.714    0.000    3.429    0.000    0.000 
#    0.000    0.000    0.000    0.000    0.000    0.000 
#
# Total GULP energy -155953.638176 kJ/mol
# GULP energy per Si atom -5569.772792 kJ/mol
# Density = 2.393252 g / cm^3
# Si number density = 23.987117 Si / 1000 Ang^3
#
#
#
# Elastic Constant Matrix: (Units=GPa)
#
#
# Indices 1 2 3 4 5 6 
#
# 1 173.8434 43.6341 54.2975 0.0000 17.5640 0.0000
# 2 43.6341 144.3074 30.7367 0.0000 -3.9664 0.0000
# 3 54.2975 30.7367 86.5958 0.0000 14.8473 0.0000
# 4 0.0000 0.0000 0.0000 26.7708 0.0000 -6.4652
# 5 17.5640 -3.9664 14.8473 0.0000 47.3353 0.0000
# 6 0.0000 0.0000 0.0000 -6.4652 0.0000 26.3036
#
#
#
# Elastic Compliance Matrix: (Units=1/GPa)
#
#
# Indices 1 2 3 4 5 6 
#
# 1 0.007513 -0.001489 -0.003892 0.000000 -0.001692 0.000000
# 2 -0.001489 0.007900 -0.002197 0.000000 0.001904 0.000000
# 3 -0.003892 -0.002197 0.015379 0.000000 -0.003564 0.000000
# 4 0.000000 0.000000 0.000000 0.039711 0.000000 0.009761
# 5 -0.001692 0.001904 -0.003564 0.000000 0.023031 0.000000
# 6 0.000000 0.000000 0.000000 0.009761 0.000000 0.040417
#
#
# Mechanical properties :
#
#
# Convention : Reuss Voigt Hill
#
# Bulk Modulus (GPa) = 63.95491 73.56480 68.75985
# Shear Modulus (GPa) = 32.40051 38.48715 35.44383
#
# Velocity S-wave (km/s) = 3.67924 4.00996 3.84815
# Velocity P-wave (km/s) = 6.69097 7.22321 6.96218
#
# Compressibility (1/GPa) = 0.01563602
#
# Stress axis : x y z
#
# Youngs Moduli (GPa) = 133.11023 126.58017 65.02363
#
# Poissons Ratio (x) = 0.18849 0.25307
# Poissons Ratio (y) = 0.19821 0.14284
# Poissons Ratio (z) = 0.51806 0.27807
#
# Static dielectric constant tensor:
#      x y z
#    x 1.981350 0.000000 0.058580 
#    y 0.000000 1.878290 0.000000 
#    z 0.058580 0.000000 1.862550 
# 
# From -- ./inp_files/95615.got.cif
#   From: 2010.05.17/outbox.cif.g08.bks.cpg/sg13_48_cif.got.tgz:95615.got - 2010.06.03 16:44:36.
