data_PCOD9230711
_publ_section_title
;
Structure prediction by ZEFSAII (Michael W. Deem and Ramdas Pophale) SiO2 
 PCOD9230711
Probable space group: P 2/C
;
_chemical_formula_sum "Si O2"
_cell_formula_units_Z 26
_cell_length_a 13.566627
_cell_length_b 8.368106
_cell_length_c 13.971366
_cell_angle_alpha 90.000000
_cell_angle_beta 46.764142
_cell_angle_gamma 90.000000
_cell_volume 1155.556990
_symmetry_space_group_name_H-M "P 2/C"
_symmetry_group_IT_number 13
_symmetry_cell_setting 'monoclinic'
loop_
_space_group_symop_operation_xyz
x,y,z
-x,y,1/2-z
-x,-y,-z
x,-y,1/2+z
loop_
_atom_site_type_symbol
_atom_site_label
_atom_site_fract_x
_atom_site_fract_y
_atom_site_fract_z
Si Si1 0.000000 0.970499 0.750000
Si Si2 0.156327 0.162688 0.976405
Si Si3 0.372467 0.850605 0.621168
Si Si4 0.664964 0.844378 0.652649
Si Si5 0.790726 0.836527 0.269071
Si Si6 0.609611 0.695201 0.093530
Si Si7 0.367884 0.355892 0.500568
O O1 0.119763 0.081281 0.709121
O O2 0.041659 0.865731 0.630579
O O3 0.125801 0.172576 0.884536
O O4 0.248813 0.311421 0.944903
O O5 0.256333 0.008369 0.918313
O O6 0.293386 0.786846 0.768272
O O7 0.358699 0.811153 0.518265
O O8 0.513528 0.766929 0.552332
O O9 0.335262 0.037799 0.660378
O O10 0.500000 0.870764 0.750000
O O11 0.698478 0.713834 0.551283
O O12 0.734686 0.667606 0.343444
O O13 0.500000 0.732998 0.250000
O O14 0.576401 0.528733 0.063095
#
# Coordination Sequence:
#
# PCOD9230711 Si02
#       7
#     2   4   4   4   4   4   4
#     4  12  22  44  68  94 126 168 228 274 316 372
#     4  11  23  40  65  93 126 165 219 269 321 375
#     4  10  20  37  62  92 126 165 213 266 327 388
#     4   9  18  35  60  89 120 159 207 262 322 379
#     4  11  23  41  68  94 126 171 224 277 318 373
#     4  12  23  38  60  96 137 170 203 259 332 402
#     4  11  21  37  60  95 131 166 204 261 335 394
#
# _framework density 22.499970999999999
#
# number of rings (size 3 to 8) (size 9 to 14) (size 15 to 20)
#    0.000    1.231    3.077    4.154    0.000    3.692 
#    0.000    1.538    0.000    1.846    0.000    0.000 
#    0.000    0.000    0.000    0.000    0.000    0.000 
#
# Total GULP energy -144739.888684 kJ/mol
# GULP energy per Si atom -5566.918796 kJ/mol
# Density = 2.244876 g / cm^3
# Si number density = 22.499971 Si / 1000 Ang^3
#
#
#
# Elastic Constant Matrix: (Units=GPa)
#
#
# Indices 1 2 3 4 5 6 
#
# 1 54.7803 7.5191 24.3594 0.0000 35.1704 0.0000
# 2 7.5191 21.0081 34.7272 0.0000 13.1520 0.0000
# 3 24.3594 34.7272 137.8436 0.0000 48.8419 0.0000
# 4 0.0000 0.0000 0.0000 17.3396 0.0000 9.7579
# 5 35.1704 13.1520 48.8419 0.0000 48.6279 0.0000
# 6 0.0000 0.0000 0.0000 9.7579 0.0000 11.0196
#
#
#
# Elastic Compliance Matrix: (Units=1/GPa)
#
#
# Indices 1 2 3 4 5 6 
#
# 1 0.035775 -0.001942 0.004889 0.000000 -0.030260 0.000000
# 2 -0.001942 0.081829 -0.020071 0.000000 -0.000567 0.000000
# 3 0.004889 -0.020071 0.016731 0.000000 -0.014912 0.000000
# 4 0.000000 0.000000 0.000000 0.114957 0.000000 -0.101795
# 5 -0.030260 -0.000567 -0.014912 0.000000 0.057581 0.000000
# 6 0.000000 0.000000 0.000000 -0.101795 0.000000 0.180887
#
#
# Mechanical properties :
#
#
# Convention : Reuss Voigt Hill
#
# Bulk Modulus (GPa) = 9.99138 38.53817 24.26477
# Shear Modulus (GPa) = 9.00300 25.19920 17.10110
#
# Velocity S-wave (km/s) = 2.00250 3.35022 2.75989
# Velocity P-wave (km/s) = 3.13001 5.66838 4.57862
#
# Compressibility (1/GPa) = 0.10008631
#
# Stress axis : x y z
#
# Youngs Moduli (GPa) = 27.95266 12.22056 59.76930
#
# Poissons Ratio (x) = 0.02374 -0.29222
# Poissons Ratio (y) = 0.05430 1.19964
# Poissons Ratio (z) = -0.13667 0.24528
#
# Static dielectric constant tensor:
#      x y z
#    x 1.901050 0.000000 0.022910 
#    y 0.000000 1.844030 0.000000 
#    z 0.022910 0.000000 1.914780 
# 
# From -- ./inp_files/53304.got.cif
#   From: 2010.05.17/outbox.cif.g08.bks.cpg/sg13_27_cif.got.tgz:53304.got - 2010.06.03 16:44:36.
