data_PCOD9230500
_publ_section_title
;
Structure prediction by ZEFSAII (Michael W. Deem and Ramdas Pophale) SiO2 
 PCOD9230500
Probable space group: P 2/C
;
_chemical_formula_sum "Si O2"
_cell_formula_units_Z 18
_cell_length_a 11.539317
_cell_length_b 7.816022
_cell_length_c 10.620459
_cell_angle_alpha 90.000000
_cell_angle_beta 119.256967
_cell_angle_gamma 90.000000
_cell_volume 835.685821
_symmetry_space_group_name_H-M "P 2/C"
_symmetry_group_IT_number 13
_symmetry_cell_setting 'monoclinic'
loop_
_space_group_symop_operation_xyz
x,y,z
-x,y,1/2-z
-x,-y,-z
x,-y,1/2+z
loop_
_atom_site_type_symbol
_atom_site_label
_atom_site_fract_x
_atom_site_fract_y
_atom_site_fract_z
Si Si1 0.778060 0.125251 0.073832
Si Si2 0.032084 0.233707 0.096514
Si Si3 0.416906 0.557528 0.079290
Si Si4 0.000000 0.551424 0.250000
Si Si5 0.220067 0.252644 0.960281
O O1 0.864453 0.156738 0.246024
O O2 0.891604 0.137594 0.026079
O O3 0.722975 0.932830 0.041978
O O4 0.672109 0.276200 0.000997
O O5 0.994020 0.420719 0.130148
O O6 0.108031 0.236595 0.007386
O O7 0.500000 0.593456 0.250000
O O8 0.500000 0.500000 0.000000
O O9 0.325364 0.392710 0.058270
O O10 0.867753 0.662889 0.196690
#
# Coordination Sequence:
#
# PCOD9230500 Si02
#       5
#     4   4   4   2   4
#     4  10  23  42  64  99 129 162 217 269 323 394
#     4  10  20  41  66 102 131 156 208 270 340 397
#     4  12  28  45  65  90 131 181 228 264 310 380
#     4  10  20  36  68  98 132 162 204 264 346 394
#     4  12  23  40  70  94 129 171 206 270 335 383
#
# _framework density 21.539193000000001
#
# number of rings (size 3 to 8) (size 9 to 14) (size 15 to 20)
#    0.000    1.333    4.444    4.000    0.000    3.556 
#    0.000    0.000    0.000    0.000    0.000    0.000 
#    0.000    0.000    0.000    0.000    0.000    0.000 
#
# Total GULP energy -100538.524943 kJ/mol
# GULP energy per Si atom -5585.473608 kJ/mol
# Density = 2.149017 g / cm^3
# Si number density = 21.539193 Si / 1000 Ang^3
#
#
#
# Elastic Constant Matrix: (Units=GPa)
#
#
# Indices 1 2 3 4 5 6 
#
# 1 48.3551 17.2789 -2.8284 0.0000 4.0486 0.0000
# 2 17.2789 196.7992 33.8682 0.0000 24.3893 0.0000
# 3 -2.8284 33.8682 60.7783 0.0000 20.1619 0.0000
# 4 0.0000 0.0000 0.0000 11.1359 0.0000 1.0212
# 5 4.0486 24.3893 20.1619 0.0000 29.3037 0.0000
# 6 0.0000 0.0000 0.0000 1.0212 0.0000 8.0159
#
#
#
# Elastic Compliance Matrix: (Units=1/GPa)
#
#
# Indices 1 2 3 4 5 6 
#
# 1 0.021916 -0.002053 0.003371 0.000000 -0.003638 0.000000
# 2 -0.002053 0.006065 -0.002455 0.000000 -0.003075 0.000000
# 3 0.003371 -0.002455 0.022617 0.000000 -0.013983 0.000000
# 4 0.000000 0.000000 0.000000 0.090861 0.000000 -0.011575
# 5 -0.003638 -0.003075 -0.013983 0.000000 0.046808 0.000000
# 6 0.000000 0.000000 0.000000 -0.011575 0.000000 0.126227
#
#
# Mechanical properties :
#
#
# Convention : Reuss Voigt Hill
#
# Bulk Modulus (GPa) = 20.69418 44.72999 32.71208
# Shear Modulus (GPa) = 15.02056 26.86537 20.94297
#
# Velocity S-wave (km/s) = 2.64362 3.53551 3.12159
# Velocity P-wave (km/s) = 4.35280 6.12196 5.31155
#
# Compressibility (1/GPa) = 0.04832277
#
# Stress axis : x y z
#
# Youngs Moduli (GPa) = 45.62895 164.87375 44.21454
#
# Poissons Ratio (x) = 0.33856 -0.14905
# Poissons Ratio (y) = 0.09370 0.10856
# Poissons Ratio (z) = -0.15382 0.40481
#
# Static dielectric constant tensor:
#      x y z
#    x 1.794120 0.000000 -0.029260 
#    y 0.000000 1.880870 0.000000 
#    z -0.029260 0.000000 1.835860 
# 
# From -- ./inp_files/32768.got.cif
#   From: 2010.05.17/outbox.cif.g08.bks.cpg/sg13_17_cif.got.tgz:32768.got - 2010.06.03 16:44:36.
