data_PCOD9230909
_publ_section_title
;
Structure prediction by ZEFSAII (Michael W. Deem and Ramdas Pophale) SiO2 
 PCOD9230909
Probable space group: P 2/C
;
_chemical_formula_sum "Si O2"
_cell_formula_units_Z 26
_cell_length_a 16.729069
_cell_length_b 5.356763
_cell_length_c 24.498619
_cell_angle_alpha 90.000000
_cell_angle_beta 31.244732
_cell_angle_gamma 90.000000
_cell_volume 1138.747872
_symmetry_space_group_name_H-M "P 2/C"
_symmetry_group_IT_number 13
_symmetry_cell_setting 'monoclinic'
loop_
_space_group_symop_operation_xyz
x,y,z
-x,y,1/2-z
-x,-y,-z
x,-y,1/2+z
loop_
_atom_site_type_symbol
_atom_site_label
_atom_site_fract_x
_atom_site_fract_y
_atom_site_fract_z
Si Si1 0.727274 0.482330 0.400074
Si Si2 0.562633 0.228245 0.907521
Si Si3 0.983023 0.902354 0.448041
Si Si4 0.000000 0.773180 0.250000
Si Si5 0.161280 0.115728 0.247091
Si Si6 0.671295 0.095004 0.171988
Si Si7 0.733731 0.409493 0.704463
O O1 0.621309 0.264575 0.487026
O O2 0.612175 0.679801 0.439239
O O3 0.859615 0.611987 0.357437
O O4 0.821968 0.373978 0.293461
O O5 0.664756 0.979718 0.841513
O O6 0.630466 0.395278 0.818973
O O7 0.800044 0.884315 0.549192
O O8 0.060686 0.087598 0.359627
O O9 0.088543 0.654270 0.383996
O O10 0.000000 0.000000 0.500000
O O11 0.079961 0.937280 0.249958
O O12 0.500000 0.120244 0.250000
O O13 0.709304 0.329876 0.188818
O O14 0.685755 0.828176 0.194558
#
# Coordination Sequence:
#
# PCOD9230909 Si02
#       7
#     4   4   4   2   4   4   4
#     4  10  20  38  60  85 123 157 206 258 310 379
#     4   9  21  36  61  92 110 158 212 258 311 372
#     4   9  21  40  65  94 118 170 219 264 318 383
#     4  10  22  38  52  92 126 164 200 246 326 384
#     4  10  20  39  61  86 127 159 211 262 317 383
#     4  11  23  42  61  93 130 163 212 266 321 384
#     4  10  22  41  65  90 124 165 212 263 319 384
#
# _framework density 22.832097000000001
#
# number of rings (size 3 to 8) (size 9 to 14) (size 15 to 20)
#    0.000    2.154    0.000    1.846    6.462    1.231 
#   13.846    0.000    0.000    0.000    0.000    0.000 
#    0.000    0.000    0.000    0.000    0.000    0.000 
#
# Total GULP energy -145098.310320 kJ/mol
# GULP energy per Si atom -5580.704243 kJ/mol
# Density = 2.278013 g / cm^3
# Si number density = 22.832097 Si / 1000 Ang^3
#
#
#
# Elastic Constant Matrix: (Units=GPa)
#
#
# Indices 1 2 3 4 5 6 
#
# 1 57.8503 27.0407 52.9863 0.0000 -24.6199 0.0000
# 2 27.0407 91.0147 20.4634 0.0000 -2.7866 0.0000
# 3 52.9863 20.4634 154.4425 0.0000 -12.4815 0.0000
# 4 0.0000 0.0000 0.0000 13.1256 0.0000 -2.1965
# 5 -24.6199 -2.7866 -12.4815 0.0000 45.3563 0.0000
# 6 0.0000 0.0000 0.0000 -2.1965 0.0000 28.7622
#
#
#
# Elastic Compliance Matrix: (Units=1/GPa)
#
#
# Indices 1 2 3 4 5 6 
#
# 1 0.038407 -0.008484 -0.010647 0.000000 0.017397 0.000000
# 2 -0.008484 0.013203 0.000874 0.000000 -0.003554 0.000000
# 3 -0.010647 0.000874 0.009766 0.000000 -0.003038 0.000000
# 4 0.000000 0.000000 0.000000 0.077173 0.000000 0.005893
# 5 0.017397 -0.003554 -0.003038 0.000000 0.030436 0.000000
# 6 0.000000 0.000000 0.000000 0.005893 0.000000 0.035218
#
#
# Mechanical properties :
#
#
# Convention : Reuss Voigt Hill
#
# Bulk Modulus (GPa) = 40.22150 56.03203 48.12676
# Shear Modulus (GPa) = 20.08003 30.96997 25.52500
#
# Velocity S-wave (km/s) = 2.96879 3.68696 3.34719
# Velocity P-wave (km/s) = 5.42274 6.53598 6.00521
#
# Compressibility (1/GPa) = 0.02486233
#
# Stress axis : x y z
#
# Youngs Moduli (GPa) = 26.03704 75.74270 102.39412
#
# Poissons Ratio (x) = 0.64263 1.09015
# Poissons Ratio (y) = 0.22091 -0.08952
# Poissons Ratio (z) = 0.27720 -0.06622
#
# Static dielectric constant tensor:
#      x y z
#    x 1.876630 0.000000 -0.033150 
#    y 0.000000 1.901100 0.000000 
#    z -0.033150 0.000000 1.885850 
# 
# From -- ./inp_files/87707.got.cif
#   From: 2010.05.17/outbox.cif.g08.bks.cpg/sg13_44_cif.got.tgz:87707.got - 2010.06.03 16:44:36.
