data_PCOD9230442
_publ_section_title
;
Structure prediction by ZEFSAII (Michael W. Deem and Ramdas Pophale) SiO2 
 PCOD9230442
Probable space group: P 2/C
;
_chemical_formula_sum "Si O2"
_cell_formula_units_Z 30
_cell_length_a 23.099995
_cell_length_b 12.376589
_cell_length_c 8.899737
_cell_angle_alpha 90.000000
_cell_angle_beta 41.138104
_cell_angle_gamma 90.000000
_cell_volume 1673.918219
_symmetry_space_group_name_H-M "P 2/C"
_symmetry_group_IT_number 13
_symmetry_cell_setting 'monoclinic'
loop_
_space_group_symop_operation_xyz
x,y,z
-x,y,1/2-z
-x,-y,-z
x,-y,1/2+z
loop_
_atom_site_type_symbol
_atom_site_label
_atom_site_fract_x
_atom_site_fract_y
_atom_site_fract_z
Si Si1 0.209713 0.486674 0.189503
Si Si2 0.619049 0.589880 0.784381
Si Si3 0.500000 0.542458 0.750000
Si Si4 0.870374 0.293645 0.674263
Si Si5 0.042375 0.648017 0.009098
Si Si6 0.105203 0.917598 0.565893
Si Si7 0.255107 0.717529 0.799170
Si Si8 0.845808 0.863503 0.691418
O O1 0.177975 0.604168 0.306104
O O2 0.120662 0.430388 0.298626
O O3 0.237991 0.398192 0.254830
O O4 0.296141 0.514816 0.923196
O O5 0.563512 0.605313 0.740681
O O6 0.655532 0.700384 0.784423
O O7 0.560152 0.530529 0.023608
O O8 0.867119 0.187381 0.582020
O O9 0.967975 0.331026 0.530769
O O10 0.819988 0.268212 0.928440
O O11 0.000000 0.607314 0.250000
O O12 0.084802 0.764990 0.962548
O O13 0.140630 0.900121 0.664331
O O14 0.000000 0.921286 0.750000
O O15 0.137891 0.031649 0.439942
O O16 0.243601 0.807230 0.693697
#
# Coordination Sequence:
#
# PCOD9230442 Si02
#       8
#     4   4   2   4   4   4   4   4
#     4  10  21  33  56  78 122 157 191 240 279 340
#     4  10  20  38  56  91 115 162 181 233 286 354
#     4  10  20  36  64  84 122 152 190 214 290 376
#     4  11  22  36  51  79 110 161 208 241 285 332
#     4  11  20  36  53  75 110 165 206 243 287 329
#     4  12  24  36  55  76 107 150 215 268 285 329
#     4  10  21  40  56  78 119 154 188 246 285 341
#     4  11  23  38  55  74 105 152 200 258 301 324
#
# _framework density 17.922021000000001
#
# number of rings (size 3 to 8) (size 9 to 14) (size 15 to 20)
#    0.000    1.333    5.333    2.000    0.000    4.800 
#    0.000    0.000    0.000    0.000    0.000    0.000 
#    0.000   28.800    0.000    0.533    0.000    0.000 
#
# Total GULP energy -167278.739282 kJ/mol
# GULP energy per Si atom -5575.957976 kJ/mol
# Density = 1.788123 g / cm^3
# Si number density = 17.922021 Si / 1000 Ang^3
#
#
#
# Elastic Constant Matrix: (Units=GPa)
#
#
# Indices 1 2 3 4 5 6 
#
# 1 126.9650 51.1061 44.7858 0.0000 11.4490 0.0000
# 2 51.1061 116.5409 31.6262 0.0000 4.8555 0.0000
# 3 44.7858 31.6262 67.2571 0.0000 -1.6768 0.0000
# 4 0.0000 0.0000 0.0000 17.4356 0.0000 1.6509
# 5 11.4490 4.8555 -1.6768 0.0000 27.2032 0.0000
# 6 0.0000 0.0000 0.0000 1.6509 0.0000 1.8977
#
#
#
# Elastic Compliance Matrix: (Units=1/GPa)
#
#
# Indices 1 2 3 4 5 6 
#
# 1 0.011928 -0.003256 -0.006532 0.000000 -0.004841 0.000000
# 2 -0.003256 0.010840 -0.002947 0.000000 -0.000746 0.000000
# 3 -0.006532 -0.002947 0.020717 0.000000 0.004552 0.000000
# 4 0.000000 0.000000 0.000000 0.062502 0.000000 -0.054372
# 5 -0.004841 -0.000746 0.004552 0.000000 0.039212 0.000000
# 6 0.000000 0.000000 0.000000 -0.054372 0.000000 0.574243
#
#
# Mechanical properties :
#
#
# Convention : Reuss Voigt Hill
#
# Bulk Modulus (GPa) = 55.51457 62.86658 59.19057
# Shear Modulus (GPa) = 6.65853 21.52363 14.09108
#
# Velocity S-wave (km/s) = 1.92960 3.46925 2.80705
# Velocity P-wave (km/s) = 6.00061 7.15553 6.60337
#
# Compressibility (1/GPa) = 0.01801329
#
# Stress axis : x y z
#
# Youngs Moduli (GPa) = 83.83956 92.25489 48.26880
#
# Poissons Ratio (x) = 0.30040 0.31529
# Poissons Ratio (y) = 0.27300 0.14227
# Poissons Ratio (z) = 0.54764 0.27191
#
# Static dielectric constant tensor:
#      x y z
#    x 1.712780 0.000000 -0.002930 
#    y 0.000000 1.595470 0.000000 
#    z -0.002930 0.000000 1.635050 
# 
# From -- ./inp_files/24137.got.cif
#   From: 2010.05.17/outbox.cif.g08.bks.cpg/sg13_13_cif.got.tgz:24137.got - 2010.06.03 16:44:36.
