data_PCOD9230809
_publ_section_title
;
Structure prediction by ZEFSAII (Michael W. Deem and Ramdas Pophale) SiO2 
 PCOD9230809
Probable space group: P 2/C
;
_chemical_formula_sum "Si O2"
_cell_formula_units_Z 28
_cell_length_a 14.371300
_cell_length_b 5.556731
_cell_length_c 24.436786
_cell_angle_alpha 90.000000
_cell_angle_beta 141.478475
_cell_angle_gamma 90.000000
_cell_volume 1215.385689
_symmetry_space_group_name_H-M "P 2/C"
_symmetry_group_IT_number 13
_symmetry_cell_setting 'monoclinic'
loop_
_space_group_symop_operation_xyz
x,y,z
-x,y,1/2-z
-x,-y,-z
x,-y,1/2+z
loop_
_atom_site_type_symbol
_atom_site_label
_atom_site_fract_x
_atom_site_fract_y
_atom_site_fract_z
Si Si1 0.667167 0.587856 0.568225
Si Si2 0.658177 0.042532 0.977079
Si Si3 0.126773 0.650816 0.430698
Si Si4 0.669908 0.963084 0.700646
Si Si5 0.872603 0.291656 0.737083
Si Si6 0.347233 0.483138 0.745534
Si Si7 0.310383 0.573401 0.104288
O O1 0.500000 0.500000 0.500000
O O2 0.653239 0.849714 0.535852
O O3 0.755563 0.468640 0.557558
O O4 0.759887 0.495027 0.662833
O O5 0.663981 0.198483 0.923613
O O6 0.497313 0.910941 0.898556
O O7 0.820214 0.922752 0.048827
O O8 0.174799 0.562210 0.512202
O O9 0.962076 0.623430 0.332225
O O10 0.715265 0.733310 0.758004
O O11 0.788471 0.040434 0.708975
O O12 0.661680 0.229244 0.725835
O O13 0.000000 0.259960 0.750000
O O14 0.524940 0.545498 0.822989
O O15 0.284521 0.413588 0.656930
#
# Coordination Sequence:
#
# PCOD9230809 Si02
#       7
#     4   4   4   4   4   4   4
#     4  10  20  39  63  94 125 172 227 284 335 408
#     4  10  20  37  67  94 127 172 236 271 343 408
#     4  10  21  40  61  93 130 177 219 284 343 413
#     4  11  22  42  64 102 132 175 226 284 331 408
#     4  10  23  45  59  93 139 173 226 281 350 402
#     4  10  22  38  69  99 133 170 229 285 335 403
#     4   9  20  37  64  98 129 170 218 285 340 404
#
# _framework density 23.037953999999999
#
# number of rings (size 3 to 8) (size 9 to 14) (size 15 to 20)
#    0.000    2.000    2.857    0.000    2.000    1.714 
#   12.857    4.286    0.000    0.000    0.000    0.000 
#    0.000    0.000    0.000    0.000    0.000    0.000 
#
# Total GULP energy -155943.651650 kJ/mol
# GULP energy per Si atom -5569.416130 kJ/mol
# Density = 2.298552 g / cm^3
# Si number density = 23.037954 Si / 1000 Ang^3
#
#
#
# Elastic Constant Matrix: (Units=GPa)
#
#
# Indices 1 2 3 4 5 6 
#
# 1 51.2439 28.1447 40.5528 0.0000 -0.7024 0.0000
# 2 28.1447 58.4105 34.6880 0.0000 -1.3498 0.0000
# 3 40.5528 34.6880 184.3137 0.0000 -8.9305 0.0000
# 4 0.0000 0.0000 0.0000 25.7380 0.0000 0.5678
# 5 -0.7024 -1.3498 -8.9305 0.0000 32.8552 0.0000
# 6 0.0000 0.0000 0.0000 0.5678 0.0000 18.3655
#
#
#
# Elastic Compliance Matrix: (Units=1/GPa)
#
#
# Indices 1 2 3 4 5 6 
#
# 1 0.029264 -0.011564 -0.004312 0.000000 -0.001021 0.000000
# 2 -0.011564 0.023845 -0.001933 0.000000 0.000207 0.000000
# 3 -0.004312 -0.001933 0.006820 0.000000 0.001682 0.000000
# 4 0.000000 0.000000 0.000000 0.038880 0.000000 -0.001202
# 5 -0.001021 0.000207 0.001682 0.000000 0.030880 0.000000
# 6 0.000000 0.000000 0.000000 -0.001202 0.000000 0.054487
#
#
# Mechanical properties :
#
#
# Convention : Reuss Voigt Hill
#
# Bulk Modulus (GPa) = 41.13391 55.63765 48.38578
# Shear Modulus (GPa) = 21.93976 28.09725 25.01851
#
# Velocity S-wave (km/s) = 3.08933 3.49608 3.29898
# Velocity P-wave (km/s) = 5.53344 6.36393 5.96316
#
# Compressibility (1/GPa) = 0.02431084
#
# Stress axis : x y z
#
# Youngs Moduli (GPa) = 34.17187 41.93754 146.63616
#
# Poissons Ratio (x) = 0.48494 0.63228
# Poissons Ratio (y) = 0.39515 0.28351
# Poissons Ratio (z) = 0.14734 0.08108
#
# Static dielectric constant tensor:
#      x y z
#    x 1.938590 0.000000 -0.025320 
#    y 0.000000 2.155660 0.000000 
#    z -0.025320 0.000000 1.842700 
# 
# From -- ./inp_files/93170.got.cif
#   From: 2010.05.17/outbox.cif.g08.bks.cpg/sg13_47_cif.got.tgz:93170.got - 2010.06.03 16:44:36.
