data_PCOD9230900
_publ_section_title
;
Structure prediction by ZEFSAII (Michael W. Deem and Ramdas Pophale) SiO2 
 PCOD9230900
Probable space group: P 2/C
;
_chemical_formula_sum "Si O2"
_cell_formula_units_Z 32
_cell_length_a 15.038285
_cell_length_b 20.140220
_cell_length_c 14.807321
_cell_angle_alpha 90.000000
_cell_angle_beta 161.069180
_cell_angle_gamma 90.000000
_cell_volume 1454.973355
_symmetry_space_group_name_H-M "P 2/C"
_symmetry_group_IT_number 13
_symmetry_cell_setting 'monoclinic'
loop_
_space_group_symop_operation_xyz
x,y,z
-x,y,1/2-z
-x,-y,-z
x,-y,1/2+z
loop_
_atom_site_type_symbol
_atom_site_label
_atom_site_fract_x
_atom_site_fract_y
_atom_site_fract_z
Si Si1 0.734593 0.405442 0.548420
Si Si2 0.251357 0.028144 0.560201
Si Si3 0.969972 0.733548 0.964677
Si Si4 0.477411 0.899678 0.876875
Si Si5 0.230906 0.523220 0.792384
Si Si6 0.054004 0.884742 0.036163
Si Si7 0.524713 0.346086 0.538625
Si Si8 0.758437 0.229586 0.449883
O O1 0.816478 0.478262 0.665713
O O2 0.606086 0.368933 0.514007
O O3 0.000000 0.376484 0.750000
O O4 0.500000 0.414179 0.250000
O O5 0.500000 0.065627 0.750000
O O6 0.154769 0.070455 0.552251
O O7 0.394808 0.961857 0.737007
O O8 0.000000 0.015357 0.250000
O O9 0.076012 0.806070 0.041331
O O10 0.182954 0.676255 0.141919
O O11 0.663193 0.719097 0.638572
O O12 0.919791 0.733347 0.024994
O O13 0.396170 0.832891 0.745208
O O14 0.264078 0.900637 0.754373
O O15 0.777716 0.899720 0.209402
O O16 0.326416 0.599415 0.894526
O O17 0.000000 0.500000 0.500000
O O18 0.500000 0.500000 0.000000
O O19 0.500000 0.265754 0.250000
O O20 0.000000 0.208949 0.750000
#
# Coordination Sequence:
#
# PCOD9230900 Si02
#       8
#     4   4   4   4   4   4   4   4
#     4  11  22  36  59  91 123 146 181 244 302 338
#     4  12  24  39  63  92 116 146 196 260 313 350
#     4  11  23  37  57  82 115 163 203 229 275 342
#     4  11  21  39  61  85 115 155 198 238 299 368
#     4  10  20  38  60  82 114 153 190 228 279 335
#     4  11  23  41  61  84 120 159 197 243 291 353
#     4  11  22  38  59  84 114 158 201 231 272 348
#     4  11  21  34  52  80 119 154 187 237 291 348
#
# _framework density 21.99353
#
# number of rings (size 3 to 8) (size 9 to 14) (size 15 to 20)
#    0.000    1.000    0.000   10.500    0.000    3.000 
#    0.000    0.000    0.000    4.500    0.000    0.000 
#    0.000    0.000    0.000    0.000    0.000    0.000 
#
# Total GULP energy -178647.026999 kJ/mol
# GULP energy per Si atom -5582.719594 kJ/mol
# Density = 2.194347 g / cm^3
# Si number density = 21.993530 Si / 1000 Ang^3
#
#
#
# Elastic Constant Matrix: (Units=GPa)
#
#
# Indices 1 2 3 4 5 6 
#
# 1 31.6473 21.2831 1.3653 0.0000 3.6684 0.0000
# 2 21.2831 88.7371 13.2835 0.0000 0.9920 0.0000
# 3 1.3653 13.2835 117.5107 0.0000 1.2253 0.0000
# 4 0.0000 0.0000 0.0000 26.1287 0.0000 11.2712
# 5 3.6684 0.9920 1.2253 0.0000 28.0188 0.0000
# 6 0.0000 0.0000 0.0000 11.2712 0.0000 22.9572
#
#
#
# Elastic Compliance Matrix: (Units=1/GPa)
#
#
# Indices 1 2 3 4 5 6 
#
# 1 0.038330 -0.009237 0.000648 0.000000 -0.004720 0.000000
# 2 -0.009237 0.013693 -0.001449 0.000000 0.000788 0.000000
# 3 0.000648 -0.001449 0.008670 0.000000 -0.000413 0.000000
# 4 0.000000 0.000000 0.000000 0.048556 0.000000 -0.023839
# 5 -0.004720 0.000788 -0.000413 0.000000 0.036298 0.000000
# 6 0.000000 0.000000 0.000000 -0.023839 0.000000 0.055264
#
#
# Mechanical properties :
#
#
# Convention : Reuss Voigt Hill
#
# Bulk Modulus (GPa) = 24.62038 34.41765 29.51902
# Shear Modulus (GPa) = 21.32872 28.88515 25.10693
#
# Velocity S-wave (km/s) = 3.11750 3.62795 3.38236
# Velocity P-wave (km/s) = 4.91702 5.76474 5.35767
#
# Compressibility (1/GPa) = 0.04061675
#
# Stress axis : x y z
#
# Youngs Moduli (GPa) = 26.08950 73.03091 115.33490
#
# Poissons Ratio (x) = 0.67461 -0.07475
# Poissons Ratio (y) = 0.24100 0.16709
# Poissons Ratio (z) = -0.01691 0.10580
#
# Static dielectric constant tensor:
#      x y z
#    x 1.850260 0.000000 0.031250 
#    y 0.000000 1.952870 0.000000 
#    z 0.031250 0.000000 1.785420 
# 
# From -- ./inp_files/54010.got.cif
#   From: 2010.05.17/outbox.cif.g08.bks.cpg/sg13_28_cif.got.tgz:54010.got - 2010.06.03 16:44:36.
