data_PCOD9230677
_publ_section_title
;
Structure prediction by ZEFSAII (Michael W. Deem and Ramdas Pophale) SiO2 
 PCOD9230677
Probable space group: P 2/C
;
_chemical_formula_sum "Si O2"
_cell_formula_units_Z 26
_cell_length_a 10.162998
_cell_length_b 10.288440
_cell_length_c 14.380204
_cell_angle_alpha 90.000000
_cell_angle_beta 121.716903
_cell_angle_gamma 90.000000
_cell_volume 1279.058512
_symmetry_space_group_name_H-M "P 2/C"
_symmetry_group_IT_number 13
_symmetry_cell_setting 'monoclinic'
loop_
_space_group_symop_operation_xyz
x,y,z
-x,y,1/2-z
-x,-y,-z
x,-y,1/2+z
loop_
_atom_site_type_symbol
_atom_site_label
_atom_site_fract_x
_atom_site_fract_y
_atom_site_fract_z
Si Si1 0.946502 0.637010 0.095968
Si Si2 0.000000 0.841901 0.750000
Si Si3 0.509823 0.097651 0.641514
Si Si4 0.968832 0.351070 0.404576
Si Si5 0.376347 0.404169 0.288342
Si Si6 0.342527 0.854370 0.896924
Si Si7 0.731874 0.329716 0.674010
O O1 0.790509 0.676450 0.089799
O O2 0.933370 0.482729 0.070147
O O3 0.103541 0.655315 0.212309
O O4 0.976097 0.705615 0.009654
O O5 0.984162 0.749088 0.655504
O O6 0.168467 0.905057 0.808892
O O7 0.500000 0.094526 0.750000
O O8 0.373738 0.144558 0.519685
O O9 0.644708 0.200522 0.669749
O O10 0.547976 0.955467 0.615899
O O11 0.791709 0.389966 0.321305
O O12 0.500000 0.397375 0.250000
O O13 0.376765 0.286624 0.363674
O O14 0.370504 0.544018 0.337795
#
# Coordination Sequence:
#
# PCOD9230677 Si02
#       7
#     4   2   4   4   4   4   4
#     4   9  18  34  55  87 125 165 193 251 312 347
#     4  10  20  40  64  90 108 158 218 246 284 364
#     4  11  25  44  62  91 127 162 192 253 315 359
#     4   9  18  33  58  85 125 157 202 253 300 349
#     4  10  20  37  61  92 119 162 209 250 293 364
#     4  10  24  44  66  85 124 163 201 250 300 366
#     4  10  21  37  59  92 127 155 205 255 300 358
#
# _framework density 20.327451
#
# number of rings (size 3 to 8) (size 9 to 14) (size 15 to 20)
#    0.000    2.154    0.000    3.692    4.308    1.846 
#    8.308    0.769    0.000    0.000    0.000    0.000 
#    0.000    0.000    0.000    0.000    0.000    0.000 
#
# Total GULP energy -144914.449471 kJ/mol
# GULP energy per Si atom -5573.632672 kJ/mol
# Density = 2.028118 g / cm^3
# Si number density = 20.327451 Si / 1000 Ang^3
#
#
#
# Elastic Constant Matrix: (Units=GPa)
#
#
# Indices 1 2 3 4 5 6 
#
# 1 76.2154 15.6812 29.5964 0.0000 -18.0434 0.0000
# 2 15.6812 62.9389 23.2710 0.0000 -7.2973 0.0000
# 3 29.5964 23.2710 102.8031 0.0000 -34.0985 0.0000
# 4 0.0000 0.0000 0.0000 23.0627 0.0000 7.8417
# 5 -18.0434 -7.2973 -34.0985 0.0000 29.4206 0.0000
# 6 0.0000 0.0000 0.0000 7.8417 0.0000 15.9602
#
#
#
# Elastic Compliance Matrix: (Units=1/GPa)
#
#
# Indices 1 2 3 4 5 6 
#
# 1 0.016000 -0.002545 -0.001600 0.000000 0.007327 0.000000
# 2 -0.002545 0.017748 -0.003805 0.000000 -0.001569 0.000000
# 3 -0.001600 -0.003805 0.016912 0.000000 0.017676 0.000000
# 4 0.000000 0.000000 0.000000 0.052057 0.000000 -0.025577
# 5 0.007327 -0.001569 0.017676 0.000000 0.058581 0.000000
# 6 0.000000 0.000000 0.000000 -0.025577 0.000000 0.075223
#
#
# Mechanical properties :
#
#
# Convention : Reuss Voigt Hill
#
# Bulk Modulus (GPa) = 28.76907 42.11717 35.44312
# Shear Modulus (GPa) = 18.93883 25.24928 22.09406
#
# Velocity S-wave (km/s) = 3.05567 3.52821 3.30040
# Velocity P-wave (km/s) = 5.16072 6.11245 5.65663
#
# Compressibility (1/GPa) = 0.03475955
#
# Stress axis : x y z
#
# Youngs Moduli (GPa) = 62.49855 56.34573 59.12864
#
# Poissons Ratio (x) = 0.14342 0.09460
# Poissons Ratio (y) = 0.15908 0.22499
# Poissons Ratio (z) = 0.09999 0.21440
#
# Static dielectric constant tensor:
#      x y z
#    x 1.725880 0.000000 0.009470 
#    y 0.000000 1.699550 0.000000 
#    z 0.009470 0.000000 1.764150 
# 
# From -- ./inp_files/50178.got.cif
#   From: 2010.05.17/outbox.cif.g08.bks.cpg/sg13_26_cif.got.tgz:50178.got - 2010.06.03 16:44:36.
