data_PCOD9230513
_publ_section_title
;
Structure prediction by ZEFSAII (Michael W. Deem and Ramdas Pophale) SiO2 
 PCOD9230513
Probable space group: P 2/C
;
_chemical_formula_sum "Si O2"
_cell_formula_units_Z 28
_cell_length_a 7.551716
_cell_length_b 19.734786
_cell_length_c 16.858280
_cell_angle_alpha 90.000000
_cell_angle_beta 144.727484
_cell_angle_gamma 90.000000
_cell_volume 1450.834262
_symmetry_space_group_name_H-M "P 2/C"
_symmetry_group_IT_number 13
_symmetry_cell_setting 'monoclinic'
loop_
_space_group_symop_operation_xyz
x,y,z
-x,y,1/2-z
-x,-y,-z
x,-y,1/2+z
loop_
_atom_site_type_symbol
_atom_site_label
_atom_site_fract_x
_atom_site_fract_y
_atom_site_fract_z
Si Si1 0.704437 0.434378 0.087091
Si Si2 0.026336 0.197554 0.613466
Si Si3 0.121644 0.051974 0.885108
Si Si4 0.386878 0.785573 0.080728
Si Si5 0.801455 0.906904 0.602597
Si Si6 0.413009 0.316652 0.085134
Si Si7 0.987762 0.337122 0.408736
O O1 0.502024 0.374391 0.054177
O O2 0.863433 0.406708 0.065390
O O3 0.000000 0.448640 0.250000
O O4 0.500000 0.500000 0.000000
O O5 0.254963 0.217457 0.768299
O O6 0.204447 0.208285 0.596653
O O7 0.996635 0.116608 0.610754
O O8 0.724264 0.245721 0.499828
O O9 0.000000 0.057767 0.750000
O O10 0.048627 0.974400 0.882174
O O11 0.484357 0.064481 0.021081
O O12 0.288483 0.848319 0.990467
O O13 0.258437 0.716750 0.999127
O O14 0.000000 0.883045 0.750000
O O15 0.721520 0.311198 0.251228
O O16 0.158313 0.339995 0.057039
#
# Coordination Sequence:
#
# PCOD9230513 Si02
#       7
#     4   4   4   4   4   4   4
#     4  10  22  38  59  87 115 148 186 223 272 332
#     4  10  21  36  57  80 110 145 185 234 286 335
#     4  10  20  37  53  77 108 146 188 234 287 338
#     4  10  21  37  55  82 110 143 187 235 285 335
#     4  10  22  35  54  77 108 146 189 234 285 340
#     4   9  20  38  58  83 115 150 185 229 279 329
#     4   9  20  38  57  83 117 147 185 231 276 331
#
# _framework density 19.299240999999999
#
# number of rings (size 3 to 8) (size 9 to 14) (size 15 to 20)
#    0.000    2.286    1.429    0.000    4.000    2.857 
#    0.000    0.000    0.000    0.000    0.000    0.000 
#    0.000    0.000    0.000    0.000    0.000    0.000 
#
# Total GULP energy -155992.921328 kJ/mol
# GULP energy per Si atom -5571.175762 kJ/mol
# Density = 1.925531 g / cm^3
# Si number density = 19.299241 Si / 1000 Ang^3
#
#
#
# Elastic Constant Matrix: (Units=GPa)
#
#
# Indices 1 2 3 4 5 6 
#
# 1 45.8601 29.8441 26.0789 0.0000 -2.8085 0.0000
# 2 29.8441 86.3150 37.4934 0.0000 -8.7812 0.0000
# 3 26.0789 37.4934 90.6362 0.0000 -2.4825 0.0000
# 4 0.0000 0.0000 0.0000 74.1928 0.0000 19.5677
# 5 -2.8085 -8.7812 -2.4825 0.0000 17.8123 0.0000
# 6 0.0000 0.0000 0.0000 19.5677 0.0000 20.4012
#
#
#
# Elastic Compliance Matrix: (Units=1/GPa)
#
#
# Indices 1 2 3 4 5 6 
#
# 1 0.030095 -0.008098 -0.005309 0.000000 0.000013 0.000000
# 2 -0.008098 0.017012 -0.004530 0.000000 0.006479 0.000000
# 3 -0.005309 -0.004530 0.014405 0.000000 -0.001063 0.000000
# 4 0.000000 0.000000 0.000000 0.018043 0.000000 -0.017305
# 5 0.000013 0.006479 -0.001063 0.000000 0.059189 0.000000
# 6 0.000000 0.000000 0.000000 -0.017305 0.000000 0.065615
#
#
# Mechanical properties :
#
#
# Convention : Reuss Voigt Hill
#
# Bulk Modulus (GPa) = 39.00343 45.51600 42.25972
# Shear Modulus (GPa) = 20.09807 31.10759 25.60283
#
# Velocity S-wave (km/s) = 3.23056 4.01915 3.64624
# Velocity P-wave (km/s) = 5.84543 6.72113 6.29852
#
# Compressibility (1/GPa) = 0.02563877
#
# Stress axis : x y z
#
# Youngs Moduli (GPa) = 33.22774 58.78109 69.41817
#
# Poissons Ratio (x) = 0.47602 0.36854
# Poissons Ratio (y) = 0.26909 0.31446
# Poissons Ratio (z) = 0.17641 0.26627
#
# Static dielectric constant tensor:
#      x y z
#    x 1.700460 0.000000 0.004280 
#    y 0.000000 1.725130 0.000000 
#    z 0.004280 0.000000 1.687280 
# 
# From -- ./inp_files/76751.got.cif
#   From: 2010.05.17/outbox.cif.g08.bks.cpg/sg13_39_cif.got.tgz:76751.got - 2010.06.03 16:44:36.
