data_PCOD9230994
_publ_section_title
;
Structure prediction by ZEFSAII (Michael W. Deem and Ramdas Pophale) SiO2 
 PCOD9230994
Probable space group: P 2/C
;
_chemical_formula_sum "Si O2"
_cell_formula_units_Z 24
_cell_length_a 22.184776
_cell_length_b 8.304692
_cell_length_c 11.374123
_cell_angle_alpha 90.000000
_cell_angle_beta 146.574534
_cell_angle_gamma 90.000000
_cell_volume 1154.333314
_symmetry_space_group_name_H-M "P 2/C"
_symmetry_group_IT_number 13
_symmetry_cell_setting 'monoclinic'
loop_
_space_group_symop_operation_xyz
x,y,z
-x,y,1/2-z
-x,-y,-z
x,-y,1/2+z
loop_
_atom_site_type_symbol
_atom_site_label
_atom_site_fract_x
_atom_site_fract_y
_atom_site_fract_z
Si Si1 0.146463 0.099201 0.746317
Si Si2 0.304381 0.126095 0.374250
Si Si3 0.709097 0.671719 0.416537
Si Si4 0.940554 0.193074 0.274934
Si Si5 0.446604 0.127725 0.002513
Si Si6 0.665597 0.297607 0.330238
O O1 0.037639 0.189556 0.528121
O O2 0.192661 0.971371 0.724395
O O3 0.115259 0.982869 0.803722
O O4 0.241839 0.219698 0.936824
O O5 0.325035 0.248530 0.514830
O O6 0.312508 0.220313 0.263911
O O7 0.393610 0.983779 0.515342
O O8 0.840536 0.685466 0.626877
O O9 0.674485 0.488862 0.343957
O O10 0.652400 0.779636 0.223650
O O11 0.000000 0.218265 0.250000
O O12 0.545864 0.249808 0.183284
O O13 0.500000 0.000000 0.000000
#
# Coordination Sequence:
#
# PCOD9230994 Si02
#       6
#     4   4   4   4   4   4
#     4  10  21  38  63  89 118 166 216 247 300 369
#     4  10  21  41  64  87 123 167 210 252 298 372
#     4  11  24  40  61  96 128 158 205 259 319 361
#     4  10  20  38  62  87 122 166 212 253 295 368
#     4  10  21  40  63  86 118 162 208 246 296 375
#     4  11  24  40  61  95 128 155 201 263 318 362
#
# _framework density 20.791222999999999
#
# number of rings (size 3 to 8) (size 9 to 14) (size 15 to 20)
#    0.000    1.667    0.000    6.500    0.000    9.333 
#    0.000    7.500    0.000    0.000    0.000    0.000 
#    0.000    0.000    0.000    0.000    0.000    0.000 
#
# Total GULP energy -134051.361940 kJ/mol
# GULP energy per Si atom -5585.473414 kJ/mol
# Density = 2.074390 g / cm^3
# Si number density = 20.791223 Si / 1000 Ang^3
#
#
#
# Elastic Constant Matrix: (Units=GPa)
#
#
# Indices 1 2 3 4 5 6 
#
# 1 112.1789 57.5049 29.3109 0.0000 12.1114 0.0000
# 2 57.5049 132.8938 61.6905 0.0000 3.0895 0.0000
# 3 29.3109 61.6905 111.5630 0.0000 20.3801 0.0000
# 4 0.0000 0.0000 0.0000 30.4685 0.0000 2.3006
# 5 12.1114 3.0895 20.3801 0.0000 25.0471 0.0000
# 6 0.0000 0.0000 0.0000 2.3006 0.0000 26.2830
#
#
#
# Elastic Compliance Matrix: (Units=1/GPa)
#
#
# Indices 1 2 3 4 5 6 
#
# 1 0.012166 -0.005583 0.000986 0.000000 -0.005997 0.000000
# 2 -0.005583 0.013017 -0.006967 0.000000 0.006762 0.000000
# 3 0.000986 -0.006967 0.014667 0.000000 -0.011552 0.000000
# 4 0.000000 0.000000 0.000000 0.033039 0.000000 -0.002892
# 5 -0.005997 0.006762 -0.011552 0.000000 0.051390 0.000000
# 6 0.000000 0.000000 0.000000 -0.002892 0.000000 0.038301
#
#
# Mechanical properties :
#
#
# Convention : Reuss Voigt Hill
#
# Bulk Modulus (GPa) = 59.79553 72.62759 66.21156
# Shear Modulus (GPa) = 26.13959 30.23501 28.18730
#
# Velocity S-wave (km/s) = 3.54961 3.81756 3.68602
# Velocity P-wave (km/s) = 6.75441 7.37830 7.07324
#
# Compressibility (1/GPa) = 0.01672366
#
# Stress axis : x y z
#
# Youngs Moduli (GPa) = 82.19717 76.82078 68.17993
#
# Poissons Ratio (x) = 0.42887 -0.06723
# Poissons Ratio (y) = 0.45888 0.47499
# Poissons Ratio (z) = -0.08106 0.53519
#
# Static dielectric constant tensor:
#      x y z
#    x 1.773960 0.000000 -0.007000 
#    y 0.000000 1.701470 0.000000 
#    z -0.007000 0.000000 1.776790 
# 
# From -- ./inp_files/41631.got.cif
#   From: 2010.05.17/outbox.cif.g08.bks.cpg/sg13_21_cif.got.tgz:41631.got - 2010.06.03 16:44:36.
