data_PCOD9230960
_publ_section_title
;
Structure prediction by ZEFSAII (Michael W. Deem and Ramdas Pophale) SiO2 
 PCOD9230960
Probable space group: P 2/C
;
_chemical_formula_sum "Si O2"
_cell_formula_units_Z 24
_cell_length_a 9.123969
_cell_length_b 8.749470
_cell_length_c 22.706342
_cell_angle_alpha 90.000000
_cell_angle_beta 134.480062
_cell_angle_gamma 90.000000
_cell_volume 1293.311791
_symmetry_space_group_name_H-M "P 2/C"
_symmetry_group_IT_number 13
_symmetry_cell_setting 'monoclinic'
loop_
_space_group_symop_operation_xyz
x,y,z
-x,y,1/2-z
-x,-y,-z
x,-y,1/2+z
loop_
_atom_site_type_symbol
_atom_site_label
_atom_site_fract_x
_atom_site_fract_y
_atom_site_fract_z
Si Si1 0.318072 0.763309 0.104751
Si Si2 0.209784 0.184467 0.275484
Si Si3 0.427460 0.029645 0.046106
Si Si4 0.507867 0.455901 0.181828
Si Si5 0.271060 0.037924 0.175037
Si Si6 0.852003 0.755216 0.966466
O O1 0.486749 0.630973 0.155543
O O2 0.309027 0.869984 0.160398
O O3 0.364490 0.875183 0.062914
O O4 0.084953 0.701163 0.036675
O O5 0.383873 0.103523 0.364145
O O6 0.301284 0.348879 0.282213
O O7 0.000000 0.206091 0.250000
O O8 0.167903 0.073938 0.207764
O O9 0.238830 0.149387 0.003426
O O10 0.500000 0.000000 0.000000
O O11 0.500000 0.457880 0.250000
O O12 0.310167 0.373295 0.097270
O O13 0.500000 0.105255 0.250000
O O14 0.158839 0.125634 0.090978
#
# Coordination Sequence:
#
# PCOD9230960 Si02
#       6
#     4   4   4   4   4   4
#     4  11  23  35  65  92 118 151 206 259 295 346
#     4  11  23  38  62  85 122 164 199 237 307 369
#     4  10  22  38  58  89 125 156 195 248 300 355
#     4  11  21  41  62  87 121 155 204 251 299 358
#     4  11  17  39  61  88 114 155 207 251 287 344
#     4  10  20  38  61  88 119 157 199 242 303 360
#
# _framework density 18.557010999999999
#
# number of rings (size 3 to 8) (size 9 to 14) (size 15 to 20)
#    0.000    1.333    6.667    3.000    4.667    0.000 
#    0.000    5.833    0.000    0.000    0.000    0.000 
#    0.000    0.000    0.000    0.000    0.000    0.000 
#
# Total GULP energy -133836.678498 kJ/mol
# GULP energy per Si atom -5576.528271 kJ/mol
# Density = 1.851477 g / cm^3
# Si number density = 18.557011 Si / 1000 Ang^3
#
#
#
# Elastic Constant Matrix: (Units=GPa)
#
#
# Indices 1 2 3 4 5 6 
#
# 1 131.7710 34.5512 30.7675 0.0000 -17.6108 0.0000
# 2 34.5512 94.4633 9.1251 0.0000 -18.5192 0.0000
# 3 30.7675 9.1251 39.1164 0.0000 -17.6592 0.0000
# 4 0.0000 0.0000 0.0000 21.6952 0.0000 1.6726
# 5 -17.6108 -18.5192 -17.6592 0.0000 30.4091 0.0000
# 6 0.0000 0.0000 0.0000 1.6726 0.0000 16.3893
#
#
#
# Elastic Compliance Matrix: (Units=1/GPa)
#
#
# Indices 1 2 3 4 5 6 
#
# 1 0.010056 -0.003024 -0.007328 0.000000 -0.000273 0.000000
# 2 -0.003024 0.012944 0.002883 0.000000 0.007806 0.000000
# 3 -0.007328 0.002883 0.040026 0.000000 0.020756 0.000000
# 4 0.000000 0.000000 0.000000 0.046459 0.000000 -0.004741
# 5 -0.000273 0.007806 0.020756 0.000000 0.049534 0.000000
# 6 0.000000 0.000000 0.000000 -0.004741 0.000000 0.061499
#
#
# Mechanical properties :
#
#
# Convention : Reuss Voigt Hill
#
# Bulk Modulus (GPa) = 20.79472 46.02645 33.41059
# Shear Modulus (GPa) = 19.88181 26.42584 23.15382
#
# Velocity S-wave (km/s) = 3.27676 3.77773 3.53613
# Velocity P-wave (km/s) = 5.05435 6.62457 5.89200
#
# Compressibility (1/GPa) = 0.04808913
#
# Stress axis : x y z
#
# Youngs Moduli (GPa) = 99.44024 77.25609 24.98351
#
# Poissons Ratio (x) = 0.23361 0.18307
# Poissons Ratio (y) = 0.30070 -0.07202
# Poissons Ratio (z) = 0.72867 -0.22272
#
# Static dielectric constant tensor:
#      x y z
#    x 1.648890 0.000000 0.000490 
#    y 0.000000 1.682520 0.000000 
#    z 0.000490 0.000000 1.666540 
# 
# From -- ./inp_files/46200.got.cif
#   From: 2010.05.17/outbox.cif.g08.bks.cpg/sg13_24_cif.got.tgz:46200.got - 2010.06.03 16:44:36.
