data_PCOD9230200
_publ_section_title
;
Structure prediction by ZEFSAII (Michael W. Deem and Ramdas Pophale) SiO2 
 PCOD9230200
Probable space group: P 2/C
;
_chemical_formula_sum "Si O2"
_cell_formula_units_Z 20
_cell_length_a 10.640563
_cell_length_b 5.166841
_cell_length_c 14.965271
_cell_angle_alpha 90.000000
_cell_angle_beta 79.947730
_cell_angle_gamma 90.000000
_cell_volume 810.131842
_symmetry_space_group_name_H-M "P 2/C"
_symmetry_group_IT_number 13
_symmetry_cell_setting 'monoclinic'
loop_
_space_group_symop_operation_xyz
x,y,z
-x,y,1/2-z
-x,-y,-z
x,-y,1/2+z
loop_
_atom_site_type_symbol
_atom_site_label
_atom_site_fract_x
_atom_site_fract_y
_atom_site_fract_z
Si Si1 0.759224 0.307990 0.174467
Si Si2 0.096578 0.279662 0.525133
Si Si3 0.901976 0.837902 0.188413
Si Si4 0.641064 0.727425 0.413825
Si Si5 0.495737 0.237197 0.124498
O O1 0.801555 0.606349 0.181230
O O2 0.610092 0.250431 0.181535
O O3 0.832462 0.101137 0.227111
O O4 0.816465 0.220931 0.070994
O O5 0.210569 0.323323 0.583128
O O6 0.000000 0.500000 0.500000
O O7 0.996698 0.106879 0.592515
O O8 0.000000 0.738640 0.250000
O O9 0.591725 0.488772 0.362357
O O10 0.567668 0.739661 0.518578
O O11 0.592681 0.985558 0.370984
#
# Coordination Sequence:
#
# PCOD9230200 Si02
#       5
#     4   4   4   4   4
#     4  10  20  36  57  79 106 139 179 218 259 315
#     4   9  20  35  56  82 108 139 178 220 263 312
#     4  11  22  36  55  79 109 141 174 218 268 315
#     4   9  17  29  49  77 105 130 169 218 260 303
#     4   9  17  30  50  76 102 133 170 215 261 302
#
# _framework density 24.687339000000001
#
# number of rings (size 3 to 8) (size 9 to 14) (size 15 to 20)
#    0.000    2.400    0.000    2.400    0.000   12.800 
#    0.000    0.000    0.000    7.200    0.000    0.000 
#    0.000    0.000    0.000    0.000    0.000    0.000 
#
# Total GULP energy -111596.003952 kJ/mol
# GULP energy per Si atom -5579.800198 kJ/mol
# Density = 2.463115 g / cm^3
# Si number density = 24.687339 Si / 1000 Ang^3
#
#
#
# Elastic Constant Matrix: (Units=GPa)
#
#
# Indices 1 2 3 4 5 6 
#
# 1 209.0717 68.9296 23.3677 0.0000 26.1985 0.0000
# 2 68.9296 131.3786 6.7718 0.0000 23.0043 0.0000
# 3 23.3677 6.7718 45.2719 0.0000 7.2851 0.0000
# 4 0.0000 0.0000 0.0000 10.7917 0.0000 -0.4033
# 5 26.1985 23.0043 7.2851 0.0000 51.5174 0.0000
# 6 0.0000 0.0000 0.0000 -0.4033 0.0000 6.4565
#
#
#
# Elastic Compliance Matrix: (Units=1/GPa)
#
#
# Indices 1 2 3 4 5 6 
#
# 1 0.006197 -0.002855 -0.002527 0.000000 -0.001519 0.000000
# 2 -0.002855 0.009592 0.000506 0.000000 -0.002903 0.000000
# 3 -0.002527 0.000506 0.023686 0.000000 -0.002290 0.000000
# 4 0.000000 0.000000 0.000000 0.092881 0.000000 0.005801
# 5 -0.001519 -0.002903 -0.002290 0.000000 0.021803 0.000000
# 6 0.000000 0.000000 0.000000 0.005801 0.000000 0.155245
#
#
# Mechanical properties :
#
#
# Convention : Reuss Voigt Hill
#
# Bulk Modulus (GPa) = 33.64462 64.87336 49.25899
# Shear Modulus (GPa) = 15.19461 32.86333 24.02897
#
# Velocity S-wave (km/s) = 2.48358 3.65249 3.12321
# Velocity P-wave (km/s) = 4.67783 6.64249 5.74477
#
# Compressibility (1/GPa) = 0.02972243
#
# Stress axis : x y z
#
# Youngs Moduli (GPa) = 161.36283 104.25613 42.21889
#
# Poissons Ratio (x) = 0.29767 0.10670
# Poissons Ratio (y) = 0.46072 -0.02137
# Poissons Ratio (z) = 0.40780 -0.05276
#
# Static dielectric constant tensor:
#      x y z
#    x 1.924530 0.000000 -0.099650 
#    y 0.000000 1.856430 0.000000 
#    z -0.099650 0.000000 2.096890 
# 
# From -- ./inp_files/62397.got.cif
#   From: 2010.05.17/outbox.cif.g08.bks.cpg/sg13_32_cif.got.tgz:62397.got - 2010.06.03 16:44:36.
