data_PCOD9230774
_publ_section_title
;
Structure prediction by ZEFSAII (Michael W. Deem and Ramdas Pophale) SiO2 
 PCOD9230774
Probable space group: P 2/C
;
_chemical_formula_sum "Si O2"
_cell_formula_units_Z 28
_cell_length_a 9.194614
_cell_length_b 18.923933
_cell_length_c 15.587090
_cell_angle_alpha 90.000000
_cell_angle_beta 27.488013
_cell_angle_gamma 90.000000
_cell_volume 1251.817336
_symmetry_space_group_name_H-M "P 2/C"
_symmetry_group_IT_number 13
_symmetry_cell_setting 'monoclinic'
loop_
_space_group_symop_operation_xyz
x,y,z
-x,y,1/2-z
-x,-y,-z
x,-y,1/2+z
loop_
_atom_site_type_symbol
_atom_site_label
_atom_site_fract_x
_atom_site_fract_y
_atom_site_fract_z
Si Si1 0.254622 0.542552 0.187512
Si Si2 0.286443 0.411590 0.281122
Si Si3 0.782419 0.333043 0.656776
Si Si4 0.379194 0.151955 0.546269
Si Si5 0.561606 0.101916 0.623459
Si Si6 0.744651 0.706399 0.460937
Si Si7 0.175612 0.028471 0.249073
O O1 0.151293 0.479406 0.303887
O O2 0.324663 0.609183 0.213524
O O3 0.000000 0.562667 0.250000
O O4 0.500000 0.500000 0.000000
O O5 0.500000 0.435138 0.250000
O O6 0.996073 0.371707 0.474575
O O7 0.509557 0.358955 0.107057
O O8 0.500000 0.301828 0.750000
O O9 0.027568 0.282895 0.576851
O O10 0.523076 0.157031 0.566456
O O11 0.449300 0.223389 0.458183
O O12 0.546181 0.084113 0.416926
O O13 0.000000 0.145057 0.750000
O O14 0.500000 0.128886 0.750000
O O15 0.906582 0.067325 0.443225
O O16 0.319858 0.039344 0.720549
O O17 0.000000 0.700702 0.250000
O O18 0.000000 0.013523 0.250000
#
# Coordination Sequence:
#
# PCOD9230774 Si02
#       7
#     4   4   4   4   4   4   4
#     4  12  22  35  60  91 123 158 197 242 301 373
#     4  10  21  39  61  87 120 157 197 252 310 364
#     4  11  22  40  62  89 119 152 199 256 309 362
#     4  10  21  41  63  83 120 170 211 253 309 377
#     4  11  21  37  62  98 130 161 207 263 309 357
#     4  10  22  43  64  83 119 166 208 253 312 381
#     4  10  20  37  64  93 129 170 208 251 308 372
#
# _framework density 22.36748
#
# number of rings (size 3 to 8) (size 9 to 14) (size 15 to 20)
#    0.000    1.429    0.000    8.143    0.000    0.000 
#    0.000   24.286    0.000    0.000    0.000    0.000 
#    0.000    0.000    0.000    0.000    0.000    0.000 
#
# Total GULP energy -156324.082603 kJ/mol
# GULP energy per Si atom -5583.002950 kJ/mol
# Density = 2.231657 g / cm^3
# Si number density = 22.367480 Si / 1000 Ang^3
#
#
#
# Elastic Constant Matrix: (Units=GPa)
#
#
# Indices 1 2 3 4 5 6 
#
# 1 115.8992 61.5704 11.6460 0.0000 2.4984 0.0000
# 2 61.5704 103.7530 1.4910 0.0000 2.3991 0.0000
# 3 11.6460 1.4910 64.5192 0.0000 1.0716 0.0000
# 4 0.0000 0.0000 0.0000 11.5591 0.0000 -2.7399
# 5 2.4984 2.3991 1.0716 0.0000 35.9316 0.0000
# 6 0.0000 0.0000 0.0000 -2.7399 0.0000 22.5608
#
#
#
# Elastic Compliance Matrix: (Units=1/GPa)
#
#
# Indices 1 2 3 4 5 6 
#
# 1 0.012896 -0.007615 -0.002146 0.000000 -0.000324 0.000000
# 2 -0.007615 0.014152 0.001055 0.000000 -0.000447 0.000000
# 3 -0.002146 0.001055 0.015869 0.000000 -0.000394 0.000000
# 4 0.000000 0.000000 0.000000 0.089076 0.000000 0.010818
# 5 -0.000324 -0.000447 -0.000394 0.000000 0.027895 0.000000
# 6 0.000000 0.000000 0.000000 0.010818 0.000000 0.045638
#
#
# Mechanical properties :
#
#
# Convention : Reuss Voigt Hill
#
# Bulk Modulus (GPa) = 39.20837 48.17624 43.69231
# Shear Modulus (GPa) = 21.60382 27.97456 24.78919
#
# Velocity S-wave (km/s) = 3.11120 3.54033 3.33268
# Velocity P-wave (km/s) = 5.52026 6.18847 5.86389
#
# Compressibility (1/GPa) = 0.02550476
#
# Stress axis : x y z
#
# Youngs Moduli (GPa) = 77.54318 70.66037 63.01640
#
# Poissons Ratio (x) = 0.53805 0.13526
# Poissons Ratio (y) = 0.59046 -0.06647
# Poissons Ratio (z) = 0.16644 -0.07454
#
# Static dielectric constant tensor:
#      x y z
#    x 1.872420 0.000000 -0.007080 
#    y 0.000000 1.893450 0.000000 
#    z -0.007080 0.000000 1.925950 
# 
# From -- ./inp_files/48202.got.cif
#   From: 2010.05.17/outbox.cif.g08.bks.cpg/sg13_25_cif.got.tgz:48202.got - 2010.06.03 16:44:36.
