data_PCOD9230075
_publ_section_title
;
Structure prediction by ZEFSAII (Michael W. Deem and Ramdas Pophale) SiO2 
 PCOD9230075
Probable space group: P 2/C
;
_chemical_formula_sum "Si O2"
_cell_formula_units_Z 24
_cell_length_a 13.775967
_cell_length_b 8.980631
_cell_length_c 14.166185
_cell_angle_alpha 90.000000
_cell_angle_beta 43.167521
_cell_angle_gamma 90.000000
_cell_volume 1199.010214
_symmetry_space_group_name_H-M "P 2/C"
_symmetry_group_IT_number 13
_symmetry_cell_setting 'monoclinic'
loop_
_space_group_symop_operation_xyz
x,y,z
-x,y,1/2-z
-x,-y,-z
x,-y,1/2+z
loop_
_atom_site_type_symbol
_atom_site_label
_atom_site_fract_x
_atom_site_fract_y
_atom_site_fract_z
Si Si1 0.134317 0.219934 0.108458
Si Si2 0.652792 0.929346 0.188524
Si Si3 0.645868 0.283992 0.201062
Si Si4 0.659427 0.392249 0.406948
Si Si5 0.650787 0.331577 0.814077
Si Si6 0.131337 0.484219 0.977984
O O1 0.232942 0.281576 0.121035
O O2 0.000000 0.140188 0.250000
O O3 0.224000 0.124502 0.970215
O O4 0.084187 0.372829 0.092955
O O5 0.500000 0.889465 0.250000
O O6 0.662327 0.843732 0.283102
O O7 0.659307 0.106275 0.192432
O O8 0.500000 0.323812 0.250000
O O9 0.635594 0.336722 0.316955
O O10 0.787038 0.362139 0.057469
O O11 0.514195 0.374891 0.567649
O O12 0.703659 0.567023 0.365270
O O13 0.740421 0.396767 0.664320
O O14 0.000000 0.500000 0.000000
#
# Coordination Sequence:
#
# PCOD9230075 Si02
#       6
#     4   4   4   4   4   4
#     4  11  22  38  64  90 121 160 206 258 305 365
#     4  10  20  40  59  88 126 164 199 244 317 377
#     4  10  23  39  61  88 125 162 198 255 314 374
#     4  10  20  35  60  91 118 151 220 253 295 362
#     4   9  19  33  60  86 115 157 204 250 301 356
#     4  10  22  40  60  86 125 157 204 256 315 362
#
# _framework density 20.016511000000001
#
# number of rings (size 3 to 8) (size 9 to 14) (size 15 to 20)
#    0.000    2.000    1.667    2.000    7.000    1.333 
#    0.000    8.333    0.000    0.000    0.000    0.000 
#    0.000    0.000    0.000    0.000    0.000    0.000 
#
# Total GULP energy -133607.786778 kJ/mol
# GULP energy per Si atom -5566.991116 kJ/mol
# Density = 1.997095 g / cm^3
# Si number density = 20.016511 Si / 1000 Ang^3
#
#
#
# Elastic Constant Matrix: (Units=GPa)
#
#
# Indices 1 2 3 4 5 6 
#
# 1 87.9430 27.1822 15.6178 0.0000 5.3034 0.0000
# 2 27.1822 88.2904 22.2265 0.0000 -4.9655 0.0000
# 3 15.6178 22.2265 113.0347 0.0000 -12.1345 0.0000
# 4 0.0000 0.0000 0.0000 20.0461 0.0000 -0.6144
# 5 5.3034 -4.9655 -12.1345 0.0000 19.2833 0.0000
# 6 0.0000 0.0000 0.0000 -0.6144 0.0000 15.2775
#
#
#
# Elastic Compliance Matrix: (Units=1/GPa)
#
#
# Indices 1 2 3 4 5 6 
#
# 1 0.013240 -0.003980 -0.001660 0.000000 -0.005711 0.000000
# 2 -0.003980 0.013165 -0.001670 0.000000 0.003434 0.000000
# 3 -0.001660 -0.001670 0.010089 0.000000 0.006375 0.000000
# 4 0.000000 0.000000 0.000000 0.049947 0.000000 0.002009
# 5 -0.005711 0.003434 0.006375 0.000000 0.058325 0.000000
# 6 0.000000 0.000000 0.000000 0.002009 0.000000 0.065537
#
#
# Mechanical properties :
#
#
# Convention : Reuss Voigt Hill
#
# Bulk Modulus (GPa) = 45.71482 46.59123 46.15303
# Shear Modulus (GPa) = 21.53192 25.87081 23.70136
#
# Velocity S-wave (km/s) = 3.28336 3.59900 3.44480
# Velocity P-wave (km/s) = 6.10426 6.37160 6.23937
#
# Compressibility (1/GPa) = 0.02187474
#
# Stress axis : x y z
#
# Youngs Moduli (GPa) = 75.52736 75.95863 99.11780
#
# Poissons Ratio (x) = 0.30229 0.16453
# Poissons Ratio (y) = 0.30057 0.16555
# Poissons Ratio (z) = 0.12537 0.12687
#
# Static dielectric constant tensor:
#      x y z
#    x 1.783410 0.000000 0.001040 
#    y 0.000000 1.779510 0.000000 
#    z 0.001040 0.000000 1.720910 
# 
# From -- ./inp_files/52901.got.cif
#   From: 2010.05.17/outbox.cif.g08.bks.cpg/sg13_27_cif.got.tgz:52901.got - 2010.06.03 16:44:36.
