data_PCOD9230234
_publ_section_title
;
Structure prediction by ZEFSAII (Michael W. Deem and Ramdas Pophale) SiO2 
 PCOD9230234
Probable space group: P 2/C
;
_chemical_formula_sum "Si O2"
_cell_formula_units_Z 30
_cell_length_a 14.402735
_cell_length_b 6.397556
_cell_length_c 22.522107
_cell_angle_alpha 90.000000
_cell_angle_beta 60.153336
_cell_angle_gamma 90.000000
_cell_volume 1799.979997
_symmetry_space_group_name_H-M "P 2/C"
_symmetry_group_IT_number 13
_symmetry_cell_setting 'monoclinic'
loop_
_space_group_symop_operation_xyz
x,y,z
-x,y,1/2-z
-x,-y,-z
x,-y,1/2+z
loop_
_atom_site_type_symbol
_atom_site_label
_atom_site_fract_x
_atom_site_fract_y
_atom_site_fract_z
Si Si1 0.397381 0.626359 0.701905
Si Si2 0.450870 0.306117 0.053017
Si Si3 0.158023 0.925542 0.975240
Si Si4 0.369228 0.036820 0.977098
Si Si5 0.951796 0.689392 0.053416
Si Si6 0.413928 0.308615 0.849666
Si Si7 0.770696 0.585350 0.644420
Si Si8 0.500000 0.967595 0.750000
O O1 0.392476 0.631644 0.632628
O O2 0.473841 0.429672 0.692381
O O3 0.289105 0.626404 0.774597
O O4 0.460431 0.824786 0.708942
O O5 0.549292 0.155378 0.040605
O O6 0.500000 0.500000 0.000000
O O7 0.372941 0.167722 0.036689
O O8 0.191322 0.783273 0.907336
O O9 0.256848 0.954591 0.987935
O O10 0.117073 0.148204 0.963912
O O11 0.056455 0.817248 0.039728
O O12 0.408993 0.201788 0.915066
O O13 0.869089 0.573527 0.122757
O O14 0.000000 0.500000 0.000000
O O15 0.318975 0.469328 0.867388
O O16 0.408887 0.117700 0.804976
#
# Coordination Sequence:
#
# PCOD9230234 Si02
#       8
#     4   4   4   4   4   4   4   2
#     4  12  22  33  49  79 116 153 185 224 279 340
#     4  11  24  37  51  79 116 155 197 228 262 339
#     4  10  20  36  58  84 111 143 185 236 291 340
#     4  11  22  36  56  77 112 155 191 228 274 330
#     4   9  20  35  55  87 113 134 181 238 296 344
#     4  12  20  32  53  82 115 149 182 221 285 350
#     4  11  20  32  54  85 114 145 179 233 299 343
#     4  12  20  32  50  78 116 146 180 222 286 346
#
# _framework density 16.666853
#
# number of rings (size 3 to 8) (size 9 to 14) (size 15 to 20)
#    0.000    1.067    6.667    1.600    0.000    0.000 
#    0.000    0.000    0.000    0.000    0.000   22.400 
#    0.000    0.000    0.000    0.000    0.000    0.000 
#
# Total GULP energy -167233.004882 kJ/mol
# GULP energy per Si atom -5574.433496 kJ/mol
# Density = 1.662892 g / cm^3
# Si number density = 16.666853 Si / 1000 Ang^3
#
#
#
# Elastic Constant Matrix: (Units=GPa)
#
#
# Indices 1 2 3 4 5 6 
#
# 1 84.6836 33.1359 47.7339 0.0000 -2.1388 0.0000
# 2 33.1359 83.9804 45.5526 0.0000 0.3142 0.0000
# 3 47.7339 45.5526 112.4707 0.0000 3.6915 0.0000
# 4 0.0000 0.0000 0.0000 35.2747 0.0000 -5.3633
# 5 -2.1388 0.3142 3.6915 0.0000 27.4795 0.0000
# 6 0.0000 0.0000 0.0000 -5.3633 0.0000 33.0240
#
#
#
# Elastic Compliance Matrix: (Units=1/GPa)
#
#
# Indices 1 2 3 4 5 6 
#
# 1 0.016372 -0.003411 -0.005635 0.000000 0.002070 0.000000
# 2 -0.003411 0.015983 -0.005033 0.000000 0.000228 0.000000
# 3 -0.005635 -0.005033 0.013393 0.000000 -0.002180 0.000000
# 4 0.000000 0.000000 0.000000 0.029067 0.000000 0.004721
# 5 0.002070 0.000228 -0.002180 0.000000 0.036842 0.000000
# 6 0.000000 0.000000 0.000000 0.004721 0.000000 0.031048
#
#
# Mechanical properties :
#
#
# Convention : Reuss Voigt Hill
#
# Bulk Modulus (GPa) = 56.85266 59.33106 58.09186
# Shear Modulus (GPa) = 28.29263 29.46981 28.88122
#
# Velocity S-wave (km/s) = 4.12459 4.20952 4.16727
# Velocity P-wave (km/s) = 7.54110 7.70080 7.62137
#
# Compressibility (1/GPa) = 0.01758933
#
# Stress axis : x y z
#
# Youngs Moduli (GPa) = 61.08037 62.56810 74.66766
#
# Poissons Ratio (x) = 0.21343 0.42074
# Poissons Ratio (y) = 0.20835 0.37580
# Poissons Ratio (z) = 0.34418 0.31490
#
# Static dielectric constant tensor:
#      x y z
#    x 1.552210 0.000000 -0.018220 
#    y 0.000000 1.600400 0.000000 
#    z -0.018220 0.000000 1.588180 
# 
# From -- ./inp_files/86848.got.cif
#   From: 2010.05.17/outbox.cif.g08.bks.cpg/sg13_44_cif.got.tgz:86848.got - 2010.06.03 16:44:36.
