data_PCOD9230033
_publ_section_title
;
Structure prediction by ZEFSAII (Michael W. Deem and Ramdas Pophale) SiO2 
 PCOD9230033
Probable space group: P 2/C
;
_chemical_formula_sum "Si O2"
_cell_formula_units_Z 32
_cell_length_a 20.881928
_cell_length_b 9.026515
_cell_length_c 26.437527
_cell_angle_alpha 90.000000
_cell_angle_beta 159.259971
_cell_angle_gamma 90.000000
_cell_volume 1764.705169
_symmetry_space_group_name_H-M "P 2/C"
_symmetry_group_IT_number 13
_symmetry_cell_setting 'monoclinic'
loop_
_space_group_symop_operation_xyz
x,y,z
-x,y,1/2-z
-x,-y,-z
x,-y,1/2+z
loop_
_atom_site_type_symbol
_atom_site_label
_atom_site_fract_x
_atom_site_fract_y
_atom_site_fract_z
Si Si1 0.503393 0.133576 0.066080
Si Si2 0.243734 0.636925 0.049370
Si Si3 0.903430 0.342397 0.232429
Si Si4 0.540947 0.520447 0.970109
Si Si5 0.777036 0.007412 0.958174
Si Si6 0.807191 0.047247 0.216947
Si Si7 0.560774 0.505297 0.715981
Si Si8 0.477905 0.863865 0.807293
O O1 0.464929 0.305631 0.040659
O O2 0.698359 0.108917 0.184765
O O3 0.506903 0.075691 0.125185
O O4 0.337363 0.065439 0.912714
O O5 0.263199 0.815834 0.067886
O O6 0.281454 0.559309 0.131212
O O7 0.385937 0.570727 0.113666
O O8 0.046105 0.609549 0.880644
O O9 0.832450 0.181693 0.196519
O O10 0.000000 0.333224 0.250000
O O11 0.737150 0.452328 0.106934
O O12 0.429604 0.466954 0.837128
O O13 0.500000 0.500000 0.000000
O O14 0.658096 0.918395 0.911508
O O15 0.694412 0.940063 0.846148
O O16 0.992241 0.988517 0.123187
O O17 0.543274 0.684445 0.709530
#
# Coordination Sequence:
#
# PCOD9230033 Si02
#       8
#     4   4   4   4   4   4   4   4
#     4  10  23  40  59  85 117 164 195 243 298 363
#     4  10  20  35  58  91 112 149 200 243 292 348
#     4  11  22  38  64  91 118 155 198 251 296 351
#     4  11  22  41  61  85 123 159 199 243 303 360
#     4  10  21  37  59  90 118 151 197 252 291 358
#     4  10  23  40  59  86 120 154 203 241 297 350
#     4  10  20  36  59  86 121 152 192 244 297 358
#     4  10  21  36  59  86 119 154 190 243 309 348
#
# _framework density 18.133338999999999
#
# number of rings (size 3 to 8) (size 9 to 14) (size 15 to 20)
#    0.000    1.750    2.500    3.000    3.500    3.500 
#    0.000    0.625    0.000    0.000    0.000    0.000 
#    0.000    0.000    0.000    0.000    0.000    0.000 
#
# Total GULP energy -178257.181195 kJ/mol
# GULP energy per Si atom -5570.536912 kJ/mol
# Density = 1.809207 g / cm^3
# Si number density = 18.133339 Si / 1000 Ang^3
#
#
#
# Elastic Constant Matrix: (Units=GPa)
#
#
# Indices 1 2 3 4 5 6 
#
# 1 153.6477 19.1164 40.7082 0.0000 -26.3917 0.0000
# 2 19.1164 50.1907 34.8831 0.0000 -6.9810 0.0000
# 3 40.7082 34.8831 110.7661 0.0000 -1.7383 0.0000
# 4 0.0000 0.0000 0.0000 20.7092 0.0000 -2.0283
# 5 -26.3917 -6.9810 -1.7383 0.0000 23.4973 0.0000
# 6 0.0000 0.0000 0.0000 -2.0283 0.0000 28.7061
#
#
#
# Elastic Compliance Matrix: (Units=1/GPa)
#
#
# Indices 1 2 3 4 5 6 
#
# 1 0.009057 0.000185 -0.003230 0.000000 0.009988 0.000000
# 2 0.000185 0.026712 -0.008362 0.000000 0.007525 0.000000
# 3 -0.003230 -0.008362 0.012767 0.000000 -0.005168 0.000000
# 4 0.000000 0.000000 0.000000 0.048624 0.000000 0.003436
# 5 0.009988 0.007525 -0.005168 0.000000 0.055630 0.000000
# 6 0.000000 0.000000 0.000000 0.003436 0.000000 0.035078
#
#
# Mechanical properties :
#
#
# Convention : Reuss Voigt Hill
#
# Bulk Modulus (GPa) = 38.87794 56.00222 47.44008
# Shear Modulus (GPa) = 22.80420 29.24230 26.02325
#
# Velocity S-wave (km/s) = 3.55009 4.02011 3.79239
# Velocity P-wave (km/s) = 6.18795 7.24562 6.73757
#
# Compressibility (1/GPa) = 0.02572153
#
# Stress axis : x y z
#
# Youngs Moduli (GPa) = 110.41349 37.43626 78.32451
#
# Poissons Ratio (x) = -0.00691 0.25298
# Poissons Ratio (y) = -0.02038 0.65495
# Poissons Ratio (z) = 0.35662 0.31304
#
# Static dielectric constant tensor:
#      x y z
#    x 1.667600 0.000000 -0.043670 
#    y 0.000000 1.604400 0.000000 
#    z -0.043670 0.000000 1.627360 
# 
# From -- ./inp_files/93606.got.cif
#   From: 2010.05.17/outbox.cif.g08.bks.cpg/sg13_47_cif.got.tgz:93606.got - 2010.06.03 16:44:36.
