data_PCOD9230246
_publ_section_title
;
Structure prediction by ZEFSAII (Michael W. Deem and Ramdas Pophale) SiO2 
 PCOD9230246
Probable space group: P 2/C
;
_chemical_formula_sum "Si O2"
_cell_formula_units_Z 32
_cell_length_a 9.027910
_cell_length_b 24.582168
_cell_length_c 15.929902
_cell_angle_alpha 90.000000
_cell_angle_beta 28.083953
_cell_angle_gamma 90.000000
_cell_volume 1664.272712
_symmetry_space_group_name_H-M "P 2/C"
_symmetry_group_IT_number 13
_symmetry_cell_setting 'monoclinic'
loop_
_space_group_symop_operation_xyz
x,y,z
-x,y,1/2-z
-x,-y,-z
x,-y,1/2+z
loop_
_atom_site_type_symbol
_atom_site_label
_atom_site_fract_x
_atom_site_fract_y
_atom_site_fract_z
Si Si1 0.121483 0.557657 0.537561
Si Si2 0.879942 0.325793 0.399513
Si Si3 0.879942 0.674207 0.220545
Si Si4 0.119816 0.866727 0.940092
Si Si5 0.121482 0.442343 0.840957
Si Si6 0.122174 0.061216 0.280487
Si Si7 0.119612 0.255837 0.940194
Si Si8 0.877827 0.938784 0.402660
O O1 0.011204 0.612032 0.639074
O O2 0.500000 0.556905 0.350510
O O3 0.026497 0.561980 0.486751
O O4 0.000001 0.500000 0.631462
O O5 0.500000 0.326206 0.589461
O O6 0.984252 0.288482 0.424923
O O7 0.000000 0.306123 0.250000
O O8 0.988797 0.612032 0.150278
O O9 0.984252 0.711518 0.090825
O O10 0.000000 0.693877 0.250000
O O11 0.500000 0.865809 0.750000
O O12 0.018411 0.899461 0.907545
O O13 0.018411 0.899461 0.074045
O O14 0.997057 0.805597 0.001471
O O15 0.000000 0.078648 0.250000
O O16 0.500000 0.059765 0.089619
O O17 0.000001 1.000000 0.356576
O O18 0.500000 0.256119 0.750000
O O19 0.000000 0.921352 0.250000
#
# Coordination Sequence:
#
# PCOD9230246 Si02
#       8
#     4   4   4   4   4   4   4   4
#     4   9  17  32  54  78 107 139 174 218 270 329
#     4  10  21  38  58  80 107 142 182 227 276 328
#     4  10  21  38  58  80 107 142 182 227 276 328
#     4  10  23  39  57  83 115 148 186 232 275 320
#     4   9  17  32  54  78 107 139 174 218 270 329
#     4  10  20  36  58  86 119 151 184 225 272 323
#     4  10  22  41  60  77 106 148 189 228 275 326
#     4  10  20  36  58  86 119 151 184 225 272 323
#
# _framework density 19.227618
#
# number of rings (size 3 to 8) (size 9 to 14) (size 15 to 20)
#    0.000    2.250    1.250    1.875    0.000    5.500 
#    0.000    7.500    0.000    0.000    0.000    0.000 
#    0.000    0.000    0.000    0.000    0.000    0.000 
#
# Total GULP energy -178672.056253 kJ/mol
# GULP energy per Si atom -5583.501758 kJ/mol
# Density = 1.918386 g / cm^3
# Si number density = 19.227618 Si / 1000 Ang^3
#
#
#
# Elastic Constant Matrix: (Units=GPa)
#
#
# Indices 1 2 3 4 5 6 
#
# 1 125.2214 88.3607 35.4557 0.0000 40.0719 0.0000
# 2 88.3607 145.5156 49.1578 0.0000 40.1256 0.0000
# 3 35.4557 49.1578 54.1705 0.0000 32.6512 0.0000
# 4 0.0000 0.0000 0.0000 24.6779 0.0000 -13.3298
# 5 40.0719 40.1256 32.6512 0.0000 32.9029 0.0000
# 6 0.0000 0.0000 0.0000 -13.3298 0.0000 11.6542
#
#
#
# Elastic Compliance Matrix: (Units=1/GPa)
#
#
# Indices 1 2 3 4 5 6 
#
# 1 0.017512 -0.007820 0.006822 0.000000 -0.018560 0.000000
# 2 -0.007820 0.014294 -0.007681 0.000000 -0.000286 0.000000
# 3 0.006822 -0.007681 0.050582 0.000000 -0.049137 0.000000
# 4 0.000000 0.000000 0.000000 0.106027 0.000000 0.121271
# 5 -0.018560 -0.000286 -0.049137 0.000000 0.102107 0.000000
# 6 0.000000 0.000000 0.000000 0.121271 0.000000 0.224513
#
#
# Mechanical properties :
#
#
# Convention : Reuss Voigt Hill
#
# Bulk Modulus (GPa) = 15.37737 74.53954 44.95845
# Shear Modulus (GPa) = 9.02412 23.97587 16.49999
#
# Velocity S-wave (km/s) = 2.16875 3.53505 2.93258
# Velocity P-wave (km/s) = 3.77971 7.45072 5.90760
#
# Compressibility (1/GPa) = 0.06503065
#
# Stress axis : x y z
#
# Youngs Moduli (GPa) = 57.10349 69.95765 19.76974
#
# Poissons Ratio (x) = 0.54709 -0.13487
# Poissons Ratio (y) = 0.44657 0.15184
# Poissons Ratio (z) = -0.38955 0.53732
#
# Static dielectric constant tensor:
#      x y z
#    x 1.671590 0.000000 0.006070 
#    y 0.000000 1.645500 0.000000 
#    z 0.006070 0.000000 1.665660 
# 
# From -- ./inp_files/48288.got.cif
#   From: 2010.05.17/outbox.cif.g08.bks.cpg/sg13_25_cif.got.tgz:48288.got - 2010.06.03 16:44:36.
