data_PCOD9230620
_publ_section_title
;
Structure prediction by ZEFSAII (Michael W. Deem and Ramdas Pophale) SiO2 
 PCOD9230620
Probable space group: P 2/C
;
_chemical_formula_sum "Si O2"
_cell_formula_units_Z 18
_cell_length_a 9.148827
_cell_length_b 20.010314
_cell_length_c 5.426585
_cell_angle_alpha 90.000000
_cell_angle_beta 124.113610
_cell_angle_gamma 90.000000
_cell_volume 822.504054
_symmetry_space_group_name_H-M "P 2/C"
_symmetry_group_IT_number 13
_symmetry_cell_setting 'monoclinic'
loop_
_space_group_symop_operation_xyz
x,y,z
-x,y,1/2-z
-x,-y,-z
x,-y,1/2+z
loop_
_atom_site_type_symbol
_atom_site_label
_atom_site_fract_x
_atom_site_fract_y
_atom_site_fract_z
Si Si1 0.500000 0.224823 0.250000
Si Si2 0.849107 0.166193 0.794758
Si Si3 0.800981 0.974385 0.374756
Si Si4 0.356003 0.347152 0.409688
Si Si5 0.500000 0.455693 0.250000
Si Si6 0.000000 0.286988 0.250000
O O1 0.665274 0.182482 0.492642
O O2 0.429239 0.275767 0.389597
O O3 0.812558 0.104575 0.942096
O O4 0.000000 0.142397 0.750000
O O5 0.922706 0.235024 0.976655
O O6 0.717027 0.012048 0.527068
O O7 0.000000 0.000000 0.500000
O O8 0.349739 0.400822 0.180216
O O9 0.161894 0.332963 0.322810
O O10 0.500000 0.369778 0.750000
O O11 0.500000 0.500000 0.500000
#
# Coordination Sequence:
#
# PCOD9230620 Si02
#       6
#     2   4   4   4   2   2
#     4  11  24  40  60 106 134 179 228 290 356 419
#     4  12  23  38  66  93 136 179 230 291 354 426
#     4  10  20  37  60  86 123 177 232 282 348 415
#     4  11  23  43  71 104 147 173 230 287 336 410
#     4  11  24  48  78 102 142 199 226 270 340 395
#     4  12  24  40  70 108 134 186 226 286 364 402
#
# _framework density 21.884391000000001
#
# number of rings (size 3 to 8) (size 9 to 14) (size 15 to 20)
#    0.000    0.889    7.778    1.333    0.000    0.000 
#    0.000    2.222    0.000    0.000    0.000    0.000 
#    0.000    0.000    0.000    0.000    0.000    0.000 
#
# Total GULP energy -100405.003029 kJ/mol
# GULP energy per Si atom -5578.055724 kJ/mol
# Density = 2.183458 g / cm^3
# Si number density = 21.884391 Si / 1000 Ang^3
#
#
#
# Elastic Constant Matrix: (Units=GPa)
#
#
# Indices 1 2 3 4 5 6 
#
# 1 121.4718 41.1101 50.9260 0.0000 5.1798 0.0000
# 2 41.1101 118.6931 32.0141 0.0000 2.6974 0.0000
# 3 50.9260 32.0141 107.8956 0.0000 7.3612 0.0000
# 4 0.0000 0.0000 0.0000 40.8109 0.0000 -45.2712
# 5 5.1798 2.6974 7.3612 0.0000 43.5080 0.0000
# 6 0.0000 0.0000 0.0000 -45.2712 0.0000 166.1268
#
#
#
# Elastic Compliance Matrix: (Units=1/GPa)
#
#
# Indices 1 2 3 4 5 6 
#
# 1 0.010967 -0.002609 -0.004374 0.000000 -0.000404 0.000000
# 2 -0.002609 0.009779 -0.001669 0.000000 -0.000013 0.000000
# 3 -0.004374 -0.001669 0.011923 0.000000 -0.001393 0.000000
# 4 0.000000 0.000000 0.000000 0.035120 0.000000 0.009570
# 5 -0.000404 -0.000013 -0.001393 0.000000 0.023269 0.000000
# 6 0.000000 0.000000 0.000000 0.009570 0.000000 0.008628
#
#
# Mechanical properties :
#
#
# Convention : Reuss Voigt Hill
#
# Bulk Modulus (GPa) = 65.08985 66.24010 65.66498
# Shear Modulus (GPa) = 40.94599 65.02318 52.98458
#
# Velocity S-wave (km/s) = 4.33021 5.45680 4.92582
# Velocity P-wave (km/s) = 7.40325 8.36876 7.90077
#
# Compressibility (1/GPa) = 0.01536338
#
# Stress axis : x y z
#
# Youngs Moduli (GPa) = 91.18616 102.25628 83.87005
#
# Poissons Ratio (x) = 0.26682 0.36688
# Poissons Ratio (y) = 0.23793 0.14000
# Poissons Ratio (z) = 0.39888 0.17069
#
# Static dielectric constant tensor:
#      x y z
#    x 1.847170 0.000000 -0.080370 
#    y 0.000000 1.796600 0.000000 
#    z -0.080370 0.000000 1.872850 
# 
# From -- ./inp_files/1518.got.cif
#   From: 2010.05.17/outbox.cif.g08.bks.cpg/sg13_1_cif.got.tgz:1518.got - 2010.06.03 16:44:36.
