data_PCOD9230077
_publ_section_title
;
Structure prediction by ZEFSAII (Michael W. Deem and Ramdas Pophale) SiO2 
 PCOD9230077
Probable space group: P 2/C
;
_chemical_formula_sum "Si O2"
_cell_formula_units_Z 16
_cell_length_a 4.976531
_cell_length_b 15.212933
_cell_length_c 8.785996
_cell_angle_alpha 90.000000
_cell_angle_beta 91.864304
_cell_angle_gamma 90.000000
_cell_volume 664.814870
_symmetry_space_group_name_H-M "P 2/C"
_symmetry_group_IT_number 13
_symmetry_cell_setting 'monoclinic'
loop_
_space_group_symop_operation_xyz
x,y,z
-x,y,1/2-z
-x,-y,-z
x,-y,1/2+z
loop_
_atom_site_type_symbol
_atom_site_label
_atom_site_fract_x
_atom_site_fract_y
_atom_site_fract_z
Si Si1 0.014993 0.707202 0.933975
Si Si2 0.526769 0.403493 0.433486
Si Si3 0.622956 0.862650 0.919162
Si Si4 0.238060 0.944365 0.140210
O O1 0.823499 0.627851 0.979222
O O2 0.837631 0.791557 0.980103
O O3 0.000000 0.715086 0.750000
O O4 0.312628 0.672481 0.979716
O O5 0.500000 0.407937 0.250000
O O6 0.500000 0.500000 0.500000
O O7 0.500000 0.841471 0.750000
O O8 0.786612 0.955095 0.919615
O O9 0.357363 0.879431 0.015263
O O10 0.500000 0.953869 0.250000
O O11 0.000000 0.919939 0.250000
#
# Coordination Sequence:
#
# PCOD9230077 Si02
#       4
#     4   4   4   4
#     4  10  20  35  60  91 119 153 206 262 301 360
#     4  10  21  38  61  89 120 154 196 249 314 382
#     4  10  21  38  64  92 123 170 226 266 308 370
#     4  10  23  39  58  89 132 175 214 266 322 368
#
# _framework density 24.066852000000001
#
# number of rings (size 3 to 8) (size 9 to 14) (size 15 to 20)
#    0.000    2.000    0.000    3.750    0.000   15.000 
#    0.000    1.250    0.000   10.500    0.000    0.000 
#    0.000    0.000    0.000    0.000    0.000    0.000 
#
# Total GULP energy -89398.193938 kJ/mol
# GULP energy per Si atom -5587.387121 kJ/mol
# Density = 2.401207 g / cm^3
# Si number density = 24.066852 Si / 1000 Ang^3
#
#
#
# Elastic Constant Matrix: (Units=GPa)
#
#
# Indices 1 2 3 4 5 6 
#
# 1 126.2651 42.4143 28.4769 0.0000 -46.6385 0.0000
# 2 42.4143 133.6717 54.6673 0.0000 -28.8964 0.0000
# 3 28.4769 54.6673 83.8454 0.0000 -39.4241 0.0000
# 4 0.0000 0.0000 0.0000 22.9487 0.0000 -10.1308
# 5 -46.6385 -28.8964 -39.4241 0.0000 42.4126 0.0000
# 6 0.0000 0.0000 0.0000 -10.1308 0.0000 42.5312
#
#
#
# Elastic Compliance Matrix: (Units=1/GPa)
#
#
# Indices 1 2 3 4 5 6 
#
# 1 0.015052 -0.002992 0.006507 0.000000 0.020562 0.000000
# 2 -0.002992 0.010841 -0.007330 0.000000 -0.002718 0.000000
# 3 0.006507 -0.007330 0.027556 0.000000 0.027775 0.000000
# 4 0.000000 0.000000 0.000000 0.048696 0.000000 0.011599
# 5 0.020562 -0.002718 0.027775 0.000000 0.070155 0.000000
# 6 0.000000 0.000000 0.000000 0.011599 0.000000 0.026275
#
#
# Mechanical properties :
#
#
# Convention : Reuss Voigt Hill
#
# Bulk Modulus (GPa) = 21.82539 66.09993 43.96266
# Shear Modulus (GPa) = 22.57566 36.12675 29.35120
#
# Velocity S-wave (km/s) = 3.06607 3.87861 3.49602
# Velocity P-wave (km/s) = 4.65002 6.89803 5.88241
#
# Compressibility (1/GPa) = 0.04581820
#
# Stress axis : x y z
#
# Youngs Moduli (GPa) = 66.43459 92.24623 36.29028
#
# Poissons Ratio (x) = 0.27603 -0.23613
# Poissons Ratio (y) = 0.19879 0.26599
# Poissons Ratio (z) = -0.43227 0.67613
#
# Static dielectric constant tensor:
#      x y z
#    x 1.987940 0.000000 0.035060 
#    y 0.000000 2.024380 0.000000 
#    z 0.035060 0.000000 2.107740 
# 
# From -- ./inp_files/8905.got.cif
#   From: 2010.05.17/outbox.cif.g08.bks.cpg/sg13_5_cif.got.tgz:8905.got - 2010.06.03 16:44:36.
