data_PCOD9230022
_publ_section_title
;
Structure prediction by ZEFSAII (Michael W. Deem and Ramdas Pophale) SiO2 
 PCOD9230022
Probable space group: P 2/C
;
_chemical_formula_sum "Si O2"
_cell_formula_units_Z 24
_cell_length_a 23.825024
_cell_length_b 9.653257
_cell_length_c 17.682151
_cell_angle_alpha 90.000000
_cell_angle_beta 160.883565
_cell_angle_gamma 90.000000
_cell_volume 1331.799805
_symmetry_space_group_name_H-M "P 2/C"
_symmetry_group_IT_number 13
_symmetry_cell_setting 'monoclinic'
loop_
_space_group_symop_operation_xyz
x,y,z
-x,y,1/2-z
-x,-y,-z
x,-y,1/2+z
loop_
_atom_site_type_symbol
_atom_site_label
_atom_site_fract_x
_atom_site_fract_y
_atom_site_fract_z
Si Si1 0.029642 0.202709 0.879043
Si Si2 0.323185 0.995046 0.229933
Si Si3 0.653797 0.500000 0.388442
Si Si4 0.020731 0.506010 0.436864
Si Si5 0.816794 0.312017 0.972573
Si Si6 0.347777 0.176802 0.112554
O O1 0.084919 0.345525 0.987805
O O2 0.838946 0.165416 0.663837
O O3 0.000000 0.222963 0.750000
O O4 0.168529 0.084505 0.069229
O O5 0.352180 0.072539 0.187499
O O6 0.500000 0.000000 0.500000
O O7 0.258397 0.839486 0.135709
O O8 0.500000 0.537016 0.250000
O O9 0.831007 0.508327 0.660275
O O10 0.686740 0.597112 0.358199
O O11 0.632294 0.338450 0.337841
O O12 0.000000 0.500000 0.500000
O O13 0.140208 0.389774 0.551103
O O14 0.000000 0.303624 0.250000
O O15 0.500000 0.145461 0.250000
#
# Coordination Sequence:
#
# PCOD9230022 Si02
#       6
#     4   4   4   4   4   4
#     4   9  18  38  59  75 106 150 181 211 269 340
#     4  11  23  36  53  80 110 145 185 226 270 314
#     4   9  19  36  60  84 107 140 181 219 268 332
#     4  10  20  35  58  85 108 137 180 228 274 317
#     4  10  20  37  57  79 110 144 178 222 273 324
#     4   9  18  36  59  79 104 144 184 214 263 339
#
# _framework density 18.020727000000001
#
# number of rings (size 3 to 8) (size 9 to 14) (size 15 to 20)
#    0.000    2.333    0.000    5.000    0.000    6.000 
#    0.000    7.500    0.000    0.000    0.000    0.000 
#    0.000    0.000    0.000    0.000    0.000    0.000 
#
# Total GULP energy -133859.321351 kJ/mol
# GULP energy per Si atom -5577.471723 kJ/mol
# Density = 1.797971 g / cm^3
# Si number density = 18.020727 Si / 1000 Ang^3
#
#
#
# Elastic Constant Matrix: (Units=GPa)
#
#
# Indices 1 2 3 4 5 6 
#
# 1 109.8721 88.7893 43.8912 0.0000 19.9079 0.0000
# 2 88.7893 154.4670 64.6001 0.0000 12.7169 0.0000
# 3 43.8912 64.6001 64.0385 0.0000 23.3108 0.0000
# 4 0.0000 0.0000 0.0000 23.6379 0.0000 8.3315
# 5 19.9079 12.7169 23.3108 0.0000 38.6040 0.0000
# 6 0.0000 0.0000 0.0000 8.3315 0.0000 7.6139
#
#
#
# Elastic Compliance Matrix: (Units=1/GPa)
#
#
# Indices 1 2 3 4 5 6 
#
# 1 0.018318 -0.009847 -0.000466 0.000000 -0.005921 0.000000
# 2 -0.009847 0.016999 -0.013085 0.000000 0.007380 0.000000
# 3 -0.000466 -0.013085 0.035220 0.000000 -0.016717 0.000000
# 4 0.000000 0.000000 0.000000 0.068865 0.000000 -0.075355
# 5 -0.005921 0.007380 -0.016717 0.000000 0.036621 0.000000
# 6 0.000000 0.000000 0.000000 -0.075355 0.000000 0.213795
#
#
# Mechanical properties :
#
#
# Convention : Reuss Voigt Hill
#
# Bulk Modulus (GPa) = 42.12274 80.32652 61.22463
# Shear Modulus (GPa) = 11.24787 22.71098 16.97943
#
# Velocity S-wave (km/s) = 2.50104 3.55388 3.07288
# Velocity P-wave (km/s) = 5.63610 7.84292 6.82924
#
# Compressibility (1/GPa) = 0.02374014
#
# Stress axis : x y z
#
# Youngs Moduli (GPa) = 54.59073 58.82734 28.39277
#
# Poissons Ratio (x) = 0.57927 0.01324
# Poissons Ratio (y) = 0.53755 0.37153
# Poissons Ratio (z) = 0.02546 0.76977
#
# Static dielectric constant tensor:
#      x y z
#    x 1.618860 0.000000 0.021520 
#    y 0.000000 1.615670 0.000000 
#    z 0.021520 0.000000 1.617660 
# 
# From -- ./inp_files/71331.got.cif
#   From: 2010.05.17/outbox.cif.g08.bks.cpg/sg13_36_cif.got.tgz:71331.got - 2010.06.03 16:44:36.
