data_PCOD9230911
_publ_section_title
;
Structure prediction by ZEFSAII (Michael W. Deem and Ramdas Pophale) SiO2 
 PCOD9230911
Probable space group: P 2/C
;
_chemical_formula_sum "Si O2"
_cell_formula_units_Z 28
_cell_length_a 18.871830
_cell_length_b 13.410394
_cell_length_c 9.847407
_cell_angle_alpha 90.000000
_cell_angle_beta 144.102360
_cell_angle_gamma 90.000000
_cell_volume 1461.255694
_symmetry_space_group_name_H-M "P 2/C"
_symmetry_group_IT_number 13
_symmetry_cell_setting 'monoclinic'
loop_
_space_group_symop_operation_xyz
x,y,z
-x,y,1/2-z
-x,-y,-z
x,-y,1/2+z
loop_
_atom_site_type_symbol
_atom_site_label
_atom_site_fract_x
_atom_site_fract_y
_atom_site_fract_z
Si Si1 0.089925 0.388331 0.007568
Si Si2 0.773678 0.800877 0.201614
Si Si3 0.999560 0.901595 0.410133
Si Si4 0.616948 0.879687 0.736393
Si Si5 0.659871 0.107719 0.778882
Si Si6 0.917421 0.616885 0.500942
Si Si7 0.250466 0.789453 0.819057
O O1 0.208895 0.322809 0.218441
O O2 0.006564 0.387569 0.011181
O O3 0.119546 0.503663 0.020706
O O4 0.000000 0.348335 0.750000
O O5 0.753749 0.867766 0.304662
O O6 0.807086 0.689734 0.299136
O O7 0.884269 0.838929 0.280601
O O8 0.657793 0.813326 0.926271
O O9 0.121400 0.842987 0.632079
O O10 0.000000 0.921121 0.250000
O O11 0.000000 0.000000 0.500000
O O12 0.474022 0.882432 0.491434
O O13 0.677341 0.837395 0.693652
O O14 0.665958 0.992681 0.836766
O O15 0.679974 0.183950 0.934288
O O16 0.000000 0.659041 0.750000
#
# Coordination Sequence:
#
# PCOD9230911 Si02
#       7
#     4   4   4   4   4   4   4
#     4  10  20  38  60  86 119 157 196 240 300 374
#     4  12  23  38  61  87 123 154 195 252 300 360
#     4  12  25  37  57  90 128 162 189 241 315 371
#     4  11  23  43  60  83 115 167 210 243 287 356
#     4  11  25  40  61  84 118 162 211 245 287 355
#     4  10  21  37  59  88 121 155 195 240 302 371
#     4  12  22  38  62  87 120 153 202 253 299 357
#
# _framework density 19.161601000000001
#
# number of rings (size 3 to 8) (size 9 to 14) (size 15 to 20)
#    0.000    0.857    2.857    5.571    2.000    2.286 
#    0.000    0.000    0.000    5.143    0.000    0.000 
#    0.000    0.000    0.000    0.000    0.000    0.000 
#
# Total GULP energy -156516.009382 kJ/mol
# GULP energy per Si atom -5589.857478 kJ/mol
# Density = 1.911799 g / cm^3
# Si number density = 19.161601 Si / 1000 Ang^3
#
#
#
# Elastic Constant Matrix: (Units=GPa)
#
#
# Indices 1 2 3 4 5 6 
#
# 1 67.9791 16.9101 13.0700 0.0000 -8.1787 0.0000
# 2 16.9101 96.0714 42.2658 0.0000 3.2065 0.0000
# 3 13.0700 42.2658 87.3646 0.0000 -18.0912 0.0000
# 4 0.0000 0.0000 0.0000 84.1183 0.0000 176.8002
# 5 -8.1787 3.2065 -18.0912 0.0000 35.6869 0.0000
# 6 0.0000 0.0000 0.0000 176.8002 0.0000 657.8633
#
#
#
# Elastic Compliance Matrix: (Units=1/GPa)
#
#
# Indices 1 2 3 4 5 6 
#
# 1 0.015913 -0.002826 -0.000230 0.000000 0.003784 0.000000
# 2 -0.002826 0.014557 -0.007849 0.000000 -0.005935 0.000000
# 3 -0.000230 -0.007849 0.017221 0.000000 0.009382 0.000000
# 4 0.000000 0.000000 0.000000 0.027320 0.000000 -0.007342
# 5 0.003784 -0.005935 0.009382 0.000000 0.034178 0.000000
# 6 0.000000 0.000000 0.000000 -0.007342 0.000000 0.003493
#
#
# Mechanical properties :
#
#
# Convention : Reuss Voigt Hill
#
# Bulk Modulus (GPa) = 38.63737 43.98966 41.31352
# Shear Modulus (GPa) = 34.93589 167.47832 101.20710
#
# Velocity S-wave (km/s) = 4.27455 9.35910 7.27546
# Velocity P-wave (km/s) = 6.67609 11.82360 9.60124
#
# Compressibility (1/GPa) = 0.02588168
#
# Stress axis : x y z
#
# Youngs Moduli (GPa) = 62.84209 68.69316 58.06959
#
# Poissons Ratio (x) = 0.19414 0.01334
# Poissons Ratio (y) = 0.17760 0.45578
# Poissons Ratio (z) = 0.01443 0.53916
#
# Static dielectric constant tensor:
#      x y z
#    x 1.668830 0.000000 -0.029560 
#    y 0.000000 2.112770 0.000000 
#    z -0.029560 0.000000 1.723640 
# 
# From -- ./inp_files/21978.got.cif
#   From: 2010.05.17/outbox.cif.g08.bks.cpg/sg13_11_cif.got.tgz:21978.got - 2010.06.03 16:44:36.
