data_PCOD9230905
_publ_section_title
;
Structure prediction by ZEFSAII (Michael W. Deem and Ramdas Pophale) SiO2 
 PCOD9230905
Probable space group: P 2/C
;
_chemical_formula_sum "Si O2"
_cell_formula_units_Z 18
_cell_length_a 7.068393
_cell_length_b 8.324667
_cell_length_c 23.024272
_cell_angle_alpha 90.000000
_cell_angle_beta 141.871561
_cell_angle_gamma 90.000000
_cell_volume 836.485966
_symmetry_space_group_name_H-M "P 2/C"
_symmetry_group_IT_number 13
_symmetry_cell_setting 'monoclinic'
loop_
_space_group_symop_operation_xyz
x,y,z
-x,y,1/2-z
-x,-y,-z
x,-y,1/2+z
loop_
_atom_site_type_symbol
_atom_site_label
_atom_site_fract_x
_atom_site_fract_y
_atom_site_fract_z
Si Si1 0.552479 0.816923 0.492999
Si Si2 0.714264 0.309463 0.456133
Si Si3 0.500000 0.186156 0.750000
Si Si4 0.247194 0.869867 0.646046
Si Si5 0.448911 0.647257 0.124822
O O1 0.400156 0.715164 0.506809
O O2 0.449634 0.759253 0.404452
O O3 0.919288 0.795531 0.579363
O O4 0.500000 0.000000 0.500000
O O5 0.667616 0.160888 0.400311
O O6 0.529121 0.460433 0.385393
O O7 0.079916 0.335856 0.544734
O O8 0.395988 0.294207 0.778442
O O9 0.254471 0.058570 0.664540
O O10 0.500000 0.796494 0.750000
#
# Coordination Sequence:
#
# PCOD9230905 Si02
#       5
#     4   4   2   4   4
#     4  11  21  38  65  88 116 159 204 241 291 363
#     4  10  21  40  64  85 120 158 201 238 303 356
#     4  10  20  38  60  84 124 154 196 242 302 344
#     4   9  22  39  60  86 121 155 197 246 297 346
#     4  10  22  39  61  90 121 157 192 251 297 354
#
# _framework density 21.51859
#
# number of rings (size 3 to 8) (size 9 to 14) (size 15 to 20)
#    0.667    1.333    0.000    3.333    1.556    4.444 
#    0.000    3.333    9.778    0.000    0.000    0.000 
#    0.000    0.000    0.000    0.000    0.000    0.000 
#
# Total GULP energy -100424.622474 kJ/mol
# GULP energy per Si atom -5579.145693 kJ/mol
# Density = 2.146961 g / cm^3
# Si number density = 21.518590 Si / 1000 Ang^3
#
#
#
# Elastic Constant Matrix: (Units=GPa)
#
#
# Indices 1 2 3 4 5 6 
#
# 1 141.3417 40.0954 33.1676 0.0000 -46.4638 0.0000
# 2 40.0954 95.6994 20.5105 0.0000 -34.7807 0.0000
# 3 33.1676 20.5105 47.9231 0.0000 -29.8127 0.0000
# 4 0.0000 0.0000 0.0000 18.5651 0.0000 -11.2829
# 5 -46.4638 -34.7807 -29.8127 0.0000 44.1184 0.0000
# 6 0.0000 0.0000 0.0000 -11.2829 0.0000 28.4714
#
#
#
# Elastic Compliance Matrix: (Units=1/GPa)
#
#
# Indices 1 2 3 4 5 6 
#
# 1 0.010858 -0.000584 -0.000755 0.000000 0.010465 0.000000
# 2 -0.000584 0.014746 0.001626 0.000000 0.012109 0.000000
# 3 -0.000755 0.001626 0.036224 0.000000 0.024965 0.000000
# 4 0.000000 0.000000 0.000000 0.070953 0.000000 0.028118
# 5 0.010465 0.012109 0.024965 0.000000 0.060103 0.000000
# 6 0.000000 0.000000 0.000000 0.028118 0.000000 0.046266
#
#
# Mechanical properties :
#
#
# Convention : Reuss Voigt Hill
#
# Bulk Modulus (GPa) = 16.02526 52.50125 34.26326
# Shear Modulus (GPa) = 19.27698 30.97702 25.12700
#
# Velocity S-wave (km/s) = 2.99629 3.79825 3.42085
# Velocity P-wave (km/s) = 4.40836 6.60959 5.61784
#
# Compressibility (1/GPa) = 0.06240148
#
# Stress axis : x y z
#
# Youngs Moduli (GPa) = 92.09837 67.81296 27.60621
#
# Poissons Ratio (x) = 0.03962 0.02084
# Poissons Ratio (y) = 0.05381 -0.04488
# Poissons Ratio (z) = 0.06952 -0.11025
#
# Static dielectric constant tensor:
#      x y z
#    x 1.753110 0.000000 0.003540 
#    y 0.000000 1.829190 0.000000 
#    z 0.003540 0.000000 1.810210 
# 
# From -- ./inp_files/60392.got.cif
#   From: 2010.05.17/outbox.cif.g08.bks.cpg/sg13_31_cif.got.tgz:60392.got - 2010.06.03 16:44:36.
