data_PCOD9230447
_publ_section_title
;
Structure prediction by ZEFSAII (Michael W. Deem and Ramdas Pophale) SiO2 
 PCOD9230447
Probable space group: P 2/C
;
_chemical_formula_sum "Si O2"
_cell_formula_units_Z 22
_cell_length_a 11.462562
_cell_length_b 15.279124
_cell_length_c 8.964380
_cell_angle_alpha 90.000000
_cell_angle_beta 42.549140
_cell_angle_gamma 90.000000
_cell_volume 1061.670848
_symmetry_space_group_name_H-M "P 2/C"
_symmetry_group_IT_number 13
_symmetry_cell_setting 'monoclinic'
loop_
_space_group_symop_operation_xyz
x,y,z
-x,y,1/2-z
-x,-y,-z
x,-y,1/2+z
loop_
_atom_site_type_symbol
_atom_site_label
_atom_site_fract_x
_atom_site_fract_y
_atom_site_fract_z
Si Si1 0.000000 0.494412 0.750000
Si Si2 0.209429 0.077775 0.685646
Si Si3 0.435236 0.625459 0.141857
Si Si4 0.767092 0.542552 0.714174
Si Si5 0.495052 0.175931 0.929601
Si Si6 0.160545 0.109371 0.381099
O O1 0.882577 0.552100 0.751545
O O2 0.122974 0.435855 0.533136
O O3 0.387835 0.110218 0.586630
O O4 0.209533 0.088544 0.507087
O O5 0.179599 0.977463 0.761738
O O6 0.044193 0.129306 0.912626
O O7 0.500000 0.608478 0.250000
O O8 0.277654 0.561103 0.257295
O O9 0.418321 0.728403 0.139542
O O10 0.589864 0.592988 0.891033
O O11 0.500000 0.151841 0.750000
O O12 0.299888 0.175497 0.178345
#
# Coordination Sequence:
#
# PCOD9230447 Si02
#       6
#     2   4   4   4   4   4
#     4  10  20  36  64  90 108 144 198 246 288 340
#     4  10  21  40  63  88 117 153 196 243 290 347
#     4  10  21  40  58  80 117 159 191 235 286 353
#     4  10  20  40  60  86 114 150 198 236 290 344
#     4  11  23  39  58  87 119 162 193 237 294 349
#     4  10  21  40  63  88 117 153 196 243 290 347
#
# _framework density 20.722052999999999
#
# number of rings (size 3 to 8) (size 9 to 14) (size 15 to 20)
#    0.000    1.818    1.818    2.182    0.000    2.182 
#   13.091    0.000    0.000    0.000    0.000    0.000 
#    0.000    0.000    0.000    0.000    0.000    0.000 
#
# Total GULP energy -122791.850479 kJ/mol
# GULP energy per Si atom -5581.447749 kJ/mol
# Density = 2.067489 g / cm^3
# Si number density = 20.722053 Si / 1000 Ang^3
#
#
#
# Elastic Constant Matrix: (Units=GPa)
#
#
# Indices 1 2 3 4 5 6 
#
# 1 46.8658 5.5716 19.8044 0.0000 0.2683 0.0000
# 2 5.5716 23.3159 -1.3668 0.0000 -0.0054 0.0000
# 3 19.8044 -1.3668 129.4207 0.0000 5.5435 0.0000
# 4 0.0000 0.0000 0.0000 8.8338 0.0000 2.2126
# 5 0.2683 -0.0054 5.5435 0.0000 31.1277 0.0000
# 6 0.0000 0.0000 0.0000 2.2126 0.0000 12.7136
#
#
#
# Elastic Compliance Matrix: (Units=1/GPa)
#
#
# Indices 1 2 3 4 5 6 
#
# 1 0.023591 -0.005854 -0.003691 0.000000 0.000453 0.000000
# 2 -0.005854 0.044368 0.001372 0.000000 -0.000186 0.000000
# 3 -0.003691 0.001372 0.008369 0.000000 -0.001458 0.000000
# 4 0.000000 0.000000 0.000000 0.118361 0.000000 -0.020599
# 5 0.000453 -0.000186 -0.001458 0.000000 0.032382 0.000000
# 6 0.000000 0.000000 0.000000 -0.020599 0.000000 0.082241
#
#
# Mechanical properties :
#
#
# Convention : Reuss Voigt Hill
#
# Bulk Modulus (GPa) = 16.67149 27.51343 22.09246
# Shear Modulus (GPa) = 14.46550 22.24123 18.35336
#
# Velocity S-wave (km/s) = 2.64497 3.27970 2.97929
# Velocity P-wave (km/s) = 4.17020 5.25814 4.74546
#
# Compressibility (1/GPa) = 0.05998263
#
# Stress axis : x y z
#
# Youngs Moduli (GPa) = 42.38972 22.53861 119.49539
#
# Poissons Ratio (x) = 0.13193 0.44107
# Poissons Ratio (y) = 0.24813 -0.16398
# Poissons Ratio (z) = 0.15647 -0.03093
#
# Static dielectric constant tensor:
#      x y z
#    x 1.727860 0.000000 -0.013020 
#    y 0.000000 1.721950 0.000000 
#    z -0.013020 0.000000 1.771350 
# 
# From -- ./inp_files/16228.got.cif
#   From: 2010.05.17/outbox.cif.g08.bks.cpg/sg13_9_cif.got.tgz:16228.got - 2010.06.03 16:44:36.
