data_PCOD9230320
_publ_section_title
;
Structure prediction by ZEFSAII (Michael W. Deem and Ramdas Pophale) SiO2 
 PCOD9230320
Probable space group: P 2/C
;
_chemical_formula_sum "Si O2"
_cell_formula_units_Z 22
_cell_length_a 19.407684
_cell_length_b 9.458528
_cell_length_c 9.239912
_cell_angle_alpha 90.000000
_cell_angle_beta 135.572967
_cell_angle_gamma 90.000000
_cell_volume 1187.307922
_symmetry_space_group_name_H-M "P 2/C"
_symmetry_group_IT_number 13
_symmetry_cell_setting 'monoclinic'
loop_
_space_group_symop_operation_xyz
x,y,z
-x,y,1/2-z
-x,-y,-z
x,-y,1/2+z
loop_
_atom_site_type_symbol
_atom_site_label
_atom_site_fract_x
_atom_site_fract_y
_atom_site_fract_z
Si Si1 0.500000 0.350071 0.421758
Si Si2 0.192741 0.364376 0.124760
Si Si3 0.313721 0.850390 0.297217
Si Si4 0.000000 0.500001 0.250000
Si Si5 0.192740 0.635622 0.953460
Si Si6 0.313721 0.149608 0.143946
O O1 0.500000 0.375841 0.250000
O O2 0.500000 0.500000 0.500000
O O3 0.595191 0.254290 0.598213
O O4 0.404809 0.254290 0.312638
O O5 0.236517 0.499999 0.104775
O O6 0.228730 0.355381 0.343095
O O7 0.219961 0.227165 0.074223
O O8 0.076410 0.401142 0.950307
O O9 0.219961 0.772834 0.085660
O O10 0.304597 0.865441 0.456895
O O11 0.329638 0.999999 0.244455
O O12 0.076410 0.401144 0.278923
#
# Coordination Sequence:
#
# PCOD9230320 Si02
#       6
#     4   4   4   2   4   4
#     4  10  23  40  60  88 118 156 199 240 285 342
#     4  10  20  36  60  88 116 151 195 242 292 346
#     4  11  23  39  59  86 122 159 197 241 293 348
#     4   8  22  36  64  86 118 148 200 240 302 338
#     4  10  20  36  60  88 116 151 195 242 292 346
#     4  11  23  39  59  86 122 159 197 241 293 348
#
# _framework density 18.529313999999999
#
# number of rings (size 3 to 8) (size 9 to 14) (size 15 to 20)
#    1.091    0.727    0.000    4.364    0.000    5.818 
#    0.000    0.909    0.000    4.364    0.000    0.000 
#    0.000    0.000    0.000    0.000    0.000    0.000 
#
# Total GULP energy -122602.375840 kJ/mol
# GULP energy per Si atom -5572.835265 kJ/mol
# Density = 1.848714 g / cm^3
# Si number density = 18.529314 Si / 1000 Ang^3
#
#
#
# Elastic Constant Matrix: (Units=GPa)
#
#
# Indices 1 2 3 4 5 6 
#
# 1 87.4160 66.7766 58.5877 0.0000 -12.0094 0.0000
# 2 66.7766 169.9653 67.7046 0.0000 -14.5172 0.0000
# 3 58.5877 67.7046 89.0319 0.0000 -13.2631 0.0000
# 4 0.0000 0.0000 0.0000 28.8806 0.0000 -8.4996
# 5 -12.0094 -14.5172 -13.2631 0.0000 34.4168 0.0000
# 6 0.0000 0.0000 0.0000 -8.4996 0.0000 28.3375
#
#
#
# Elastic Compliance Matrix: (Units=1/GPa)
#
#
# Indices 1 2 3 4 5 6 
#
# 1 0.022468 -0.004151 -0.011375 0.000000 0.001706 0.000000
# 2 -0.004151 0.009250 -0.004178 0.000000 0.000844 0.000000
# 3 -0.011375 -0.004178 0.022322 0.000000 0.002871 0.000000
# 4 0.000000 0.000000 0.000000 0.037978 0.000000 0.011391
# 5 0.001706 0.000844 0.002871 0.000000 0.031113 0.000000
# 6 0.000000 0.000000 0.000000 0.011391 0.000000 0.038706
#
#
# Mechanical properties :
#
#
# Convention : Reuss Voigt Hill
#
# Bulk Modulus (GPa) = 68.33223 81.39456 74.86340
# Shear Modulus (GPa) = 24.25771 28.54994 26.40382
#
# Velocity S-wave (km/s) = 3.62215 3.92956 3.77898
# Velocity P-wave (km/s) = 7.37911 8.03812 7.71565
#
# Compressibility (1/GPa) = 0.01463438
#
# Stress axis : x y z
#
# Youngs Moduli (GPa) = 44.50770 108.10346 44.79977
#
# Poissons Ratio (x) = 0.44869 0.50958
# Poissons Ratio (y) = 0.18473 0.18715
# Poissons Ratio (z) = 0.50626 0.45160
#
# Static dielectric constant tensor:
#      x y z
#    x 1.674240 0.000000 0.017310 
#    y 0.000000 1.618320 0.000000 
#    z 0.017310 0.000000 1.673130 
# 
# From -- ./inp_files/21252.got.cif
#   From: 2010.05.17/outbox.cif.g08.bks.cpg/sg13_11_cif.got.tgz:21252.got - 2010.06.03 16:44:36.
