data_PCOD9230317
_publ_section_title
;
Structure prediction by ZEFSAII (Michael W. Deem and Ramdas Pophale) SiO2 
 PCOD9230317
Probable space group: P 2/C
;
_chemical_formula_sum "Si O2"
_cell_formula_units_Z 26
_cell_length_a 22.829752
_cell_length_b 8.268516
_cell_length_c 15.122328
_cell_angle_alpha 90.000000
_cell_angle_beta 27.984709
_cell_angle_gamma 90.000000
_cell_volume 1339.487472
_symmetry_space_group_name_H-M "P 2/C"
_symmetry_group_IT_number 13
_symmetry_cell_setting 'monoclinic'
loop_
_space_group_symop_operation_xyz
x,y,z
-x,y,1/2-z
-x,-y,-z
x,-y,1/2+z
loop_
_atom_site_type_symbol
_atom_site_label
_atom_site_fract_x
_atom_site_fract_y
_atom_site_fract_z
Si Si1 0.500000 0.348913 0.750000
Si Si2 0.204248 0.795341 0.219172
Si Si3 0.263318 0.827947 0.644223
Si Si4 0.021536 0.361746 0.398219
Si Si5 0.561957 0.393699 0.024854
Si Si6 0.893692 0.353933 0.830382
Si Si7 0.332828 0.665160 0.735067
O O1 0.620066 0.238811 0.568783
O O2 0.508315 0.471701 0.821925
O O3 0.139211 0.746373 0.213584
O O4 0.104261 0.745056 0.428719
O O5 0.240811 0.981817 0.171040
O O6 0.331246 0.693335 0.061516
O O7 0.139664 0.741432 0.772156
O O8 0.289480 0.774076 0.710640
O O9 0.057481 0.469094 0.265513
O O10 0.000000 0.500000 0.500000
O O11 0.459176 0.279995 0.116513
O O12 0.632825 0.493630 0.854696
O O13 0.000000 0.277141 0.750000
O O14 0.772833 0.359579 0.052238
#
# Coordination Sequence:
#
# PCOD9230317 Si02
#       7
#     2   4   4   4   4   4   4
#     4  10  20  38  60  86 120 164 212 240 288 364
#     4  11  23  39  62  89 124 160 195 248 315 367
#     4  11  23  39  61  91 126 160 195 251 313 361
#     4  10  20  39  63  83 112 157 203 240 292 363
#     4  10  20  37  61  86 115 160 205 244 290 353
#     4  11  21  37  62  87 113 154 208 252 291 354
#     4  10  20  36  60  87 117 152 203 252 290 351
#
# _framework density 19.410408
#
# number of rings (size 3 to 8) (size 9 to 14) (size 15 to 20)
#    0.000    1.538    0.000    8.769    0.000    2.462 
#    0.000    6.923    0.000    1.846    0.000    0.000 
#    0.000    0.000    0.000    0.000    0.000    0.000 
#
# Total GULP energy -145102.812214 kJ/mol
# GULP energy per Si atom -5580.877393 kJ/mol
# Density = 1.936623 g / cm^3
# Si number density = 19.410408 Si / 1000 Ang^3
#
#
#
# Elastic Constant Matrix: (Units=GPa)
#
#
# Indices 1 2 3 4 5 6 
#
# 1 113.4482 37.6266 43.3201 0.0000 -15.2299 0.0000
# 2 37.6266 104.1476 56.9190 0.0000 -5.1961 0.0000
# 3 43.3201 56.9190 134.7264 0.0000 4.1883 0.0000
# 4 0.0000 0.0000 0.0000 16.2752 0.0000 -9.2390
# 5 -15.2299 -5.1961 4.1883 0.0000 28.2923 0.0000
# 6 0.0000 0.0000 0.0000 -9.2390 0.0000 15.9414
#
#
#
# Elastic Compliance Matrix: (Units=1/GPa)
#
#
# Indices 1 2 3 4 5 6 
#
# 1 0.011520 -0.002238 -0.002952 0.000000 0.006227 0.000000
# 2 -0.002238 0.013193 -0.004915 0.000000 0.001946 0.000000
# 3 -0.002952 -0.004915 0.010574 0.000000 -0.004057 0.000000
# 4 0.000000 0.000000 0.000000 0.091570 0.000000 0.053070
# 5 0.006227 0.001946 -0.004057 0.000000 0.039656 0.000000
# 6 0.000000 0.000000 0.000000 0.053070 0.000000 0.093487
#
#
# Mechanical properties :
#
#
# Convention : Reuss Voigt Hill
#
# Bulk Modulus (GPa) = 66.32273 69.78372 68.05322
# Shear Modulus (GPa) = 17.52931 26.39888 21.96409
#
# Velocity S-wave (km/s) = 3.00840 3.69187 3.36752
# Velocity P-wave (km/s) = 6.80516 7.36226 7.08918
#
# Compressibility (1/GPa) = 0.01507779
#
# Stress axis : x y z
#
# Youngs Moduli (GPa) = 86.80438 75.79540 94.56862
#
# Poissons Ratio (x) = 0.16961 0.27920
# Poissons Ratio (y) = 0.19425 0.46479
# Poissons Ratio (z) = 0.25628 0.37253
#
# Static dielectric constant tensor:
#      x y z
#    x 1.703550 0.000000 -0.003290 
#    y 0.000000 1.649590 0.000000 
#    z -0.003290 0.000000 1.708350 
# 
# From -- ./inp_files/57203.got.cif
#   From: 2010.05.17/outbox.cif.g08.bks.cpg/sg13_29_cif.got.tgz:57203.got - 2010.06.03 16:44:36.
