data_PCOD9230420
_publ_section_title
;
Structure prediction by ZEFSAII (Michael W. Deem and Ramdas Pophale) SiO2 
 PCOD9230420
Probable space group: P 2/C
;
_chemical_formula_sum "Si O2"
_cell_formula_units_Z 28
_cell_length_a 14.273972
_cell_length_b 13.947489
_cell_length_c 9.845135
_cell_angle_alpha 90.000000
_cell_angle_beta 131.267283
_cell_angle_gamma 90.000000
_cell_volume 1473.238090
_symmetry_space_group_name_H-M "P 2/C"
_symmetry_group_IT_number 13
_symmetry_cell_setting 'monoclinic'
loop_
_space_group_symop_operation_xyz
x,y,z
-x,y,1/2-z
-x,-y,-z
x,-y,1/2+z
loop_
_atom_site_type_symbol
_atom_site_label
_atom_site_fract_x
_atom_site_fract_y
_atom_site_fract_z
Si Si1 0.358330 0.692194 0.059215
Si Si2 0.746256 0.812366 0.783370
Si Si3 0.409902 0.004952 0.286816
Si Si4 0.357045 0.278466 0.057315
Si Si5 0.266774 0.184800 0.701062
Si Si6 0.593430 0.487620 0.464436
Si Si7 0.998882 0.099256 0.413893
O O1 0.500000 0.695025 0.250000
O O2 0.277920 0.726187 0.109755
O O3 0.329156 0.585062 0.979227
O O4 0.337267 0.764543 0.914570
O O5 0.689254 0.912353 0.780485
O O6 0.733617 0.743781 0.902751
O O7 0.879589 0.838129 0.846190
O O8 0.500000 0.028170 0.250000
O O9 0.500000 0.000000 0.500000
O O10 0.341043 0.903691 0.203983
O O11 0.500000 0.269060 0.250000
O O12 0.339966 0.385286 0.979344
O O13 0.328350 0.207786 0.905063
O O14 0.124658 0.153475 0.576062
O O15 0.500000 0.484344 0.250000
O O16 0.500000 0.500000 0.500000
O O17 0.000000 0.084306 0.250000
O O18 0.000000 0.000000 0.500000
#
# Coordination Sequence:
#
# PCOD9230420 Si02
#       7
#     4   4   4   4   4   4   4
#     4  11  21  38  64  94 129 169 209 264 334 390
#     4  12  24  41  63  90 132 169 216 273 312 387
#     4  12  24  35  56  91 125 156 194 253 328 386
#     4  11  23  40  64 102 133 164 210 267 335 392
#     4  12  24  41  64  89 130 173 217 264 320 388
#     4  10  20  36  62  95 134 170 209 260 325 404
#     4  12  28  48  67  89 125 179 238 263 311 378
#
# _framework density 19.005752999999999
#
# number of rings (size 3 to 8) (size 9 to 14) (size 15 to 20)
#    0.000    0.571    2.857    8.571    2.000    0.000 
#    0.000    0.000    0.000    5.143    0.000    0.000 
#    0.000    0.000    0.000    0.000    0.000    0.000 
#
# Total GULP energy -156456.798517 kJ/mol
# GULP energy per Si atom -5587.742804 kJ/mol
# Density = 1.896250 g / cm^3
# Si number density = 19.005753 Si / 1000 Ang^3
#
#
#
# Elastic Constant Matrix: (Units=GPa)
#
#
# Indices 1 2 3 4 5 6 
#
# 1 129.8506 55.3018 40.9336 0.0000 -10.6305 0.0000
# 2 55.3018 117.6493 39.2403 0.0000 1.6695 0.0000
# 3 40.9336 39.2403 78.1507 0.0000 -20.4336 0.0000
# 4 0.0000 0.0000 0.0000 13.0457 0.0000 -13.6763
# 5 -10.6305 1.6695 -20.4336 0.0000 40.5798 0.0000
# 6 0.0000 0.0000 0.0000 -13.6763 0.0000 31.5105
#
#
#
# Elastic Compliance Matrix: (Units=1/GPa)
#
#
# Indices 1 2 3 4 5 6 
#
# 1 0.010463 -0.003869 -0.003201 0.000000 0.001288 0.000000
# 2 -0.003869 0.012079 -0.005106 0.000000 -0.004082 0.000000
# 3 -0.003201 -0.005106 0.019430 0.000000 0.009155 0.000000
# 4 0.000000 0.000000 0.000000 0.140650 0.000000 0.061045
# 5 0.001288 -0.004082 0.009155 0.000000 0.029758 0.000000
# 6 0.000000 0.000000 0.000000 0.061045 0.000000 0.058231
#
#
# Mechanical properties :
#
#
# Convention : Reuss Voigt Hill
#
# Bulk Modulus (GPa) = 56.75045 66.28911 61.51978
# Shear Modulus (GPa) = 16.62032 29.70552 23.16292
#
# Velocity S-wave (km/s) = 2.96038 3.95774 3.49482
# Velocity P-wave (km/s) = 6.45055 7.47255 6.98028
#
# Compressibility (1/GPa) = 0.01762100
#
# Stress axis : x y z
#
# Youngs Moduli (GPa) = 95.57033 82.78540 51.46721
#
# Poissons Ratio (x) = 0.32030 0.16474
# Poissons Ratio (y) = 0.36977 0.26278
# Poissons Ratio (z) = 0.30592 0.42269
#
# Static dielectric constant tensor:
#      x y z
#    x 1.630810 0.000000 -0.009840 
#    y 0.000000 1.728310 0.000000 
#    z -0.009840 0.000000 1.644560 
# 
# From -- ./inp_files/16880.got.cif
#   From: 2010.05.17/outbox.cif.g08.bks.cpg/sg13_9_cif.got.tgz:16880.got - 2010.06.03 16:44:36.
