data_PCOD9230457
_publ_section_title
;
Structure prediction by ZEFSAII (Michael W. Deem and Ramdas Pophale) SiO2 
 PCOD9230457
Probable space group: P 2/C
;
_chemical_formula_sum "Si O2"
_cell_formula_units_Z 28
_cell_length_a 9.165850
_cell_length_b 16.025075
_cell_length_c 21.705519
_cell_angle_alpha 90.000000
_cell_angle_beta 25.324434
_cell_angle_gamma 90.000000
_cell_volume 1363.723366
_symmetry_space_group_name_H-M "P 2/C"
_symmetry_group_IT_number 13
_symmetry_cell_setting 'monoclinic'
loop_
_space_group_symop_operation_xyz
x,y,z
-x,y,1/2-z
-x,-y,-z
x,-y,1/2+z
loop_
_atom_site_type_symbol
_atom_site_label
_atom_site_fract_x
_atom_site_fract_y
_atom_site_fract_z
Si Si1 0.561633 0.721140 0.299569
Si Si2 0.293424 0.402851 0.992271
Si Si3 0.628407 0.865900 0.920811
Si Si4 0.718022 0.437256 0.305075
Si Si5 0.495274 0.084088 0.825537
Si Si6 0.667305 0.683446 0.463097
Si Si7 0.832675 0.004845 0.445625
O O1 0.500000 0.713306 0.250000
O O2 0.290024 0.668605 0.442247
O O3 0.549138 0.819041 0.320967
O O4 0.930592 0.685195 0.178321
O O5 0.455799 0.486657 0.902729
O O6 0.541460 0.370820 0.953017
O O7 0.931406 0.420945 0.162122
O O8 0.000000 0.852906 0.750000
O O9 0.386990 0.920062 0.968548
O O10 0.460317 0.777394 0.998668
O O11 0.665125 0.924825 0.966376
O O12 0.522149 0.356238 0.405527
O O13 0.000000 0.457666 0.250000
O O14 0.500000 0.080261 0.750000
O O15 0.173955 0.047821 0.985084
O O16 0.816953 0.025467 0.718672
#
# Coordination Sequence:
#
# PCOD9230457 Si02
#       7
#     4   4   4   4   4   4   4
#     4  11  24  41  60  88 123 159 204 251 300 359
#     4  11  21  39  64  93 121 158 201 246 300 361
#     4  11  21  35  60  87 122 148 191 256 300 349
#     4  10  20  36  64  95 124 154 199 249 300 359
#     4  11  23  41  60  83 120 164 203 246 299 364
#     4  11  21  38  63  89 121 160 200 247 303 357
#     4  11  22  38  58  87 116 152 203 247 301 351
#
# _framework density 20.532024
#
# number of rings (size 3 to 8) (size 9 to 14) (size 15 to 20)
#    0.000    1.143    2.857    6.429    0.000    0.000 
#    0.000    3.571    0.000    0.000    0.000    0.000 
#    0.000    0.000    0.000    0.000    0.000    0.000 
#
# Total GULP energy -156432.935388 kJ/mol
# GULP energy per Si atom -5586.890550 kJ/mol
# Density = 2.048529 g / cm^3
# Si number density = 20.532024 Si / 1000 Ang^3
#
#
#
# Elastic Constant Matrix: (Units=GPa)
#
#
# Indices 1 2 3 4 5 6 
#
# 1 30.4959 24.3899 10.4402 0.0000 16.3322 0.0000
# 2 24.3899 136.6169 53.6967 0.0000 18.6660 0.0000
# 3 10.4402 53.6967 102.2778 0.0000 27.4707 0.0000
# 4 0.0000 0.0000 0.0000 30.7259 0.0000 17.6550
# 5 16.3322 18.6660 27.4707 0.0000 25.3973 0.0000
# 6 0.0000 0.0000 0.0000 17.6550 0.0000 -22.9778
#
#
#
# Elastic Compliance Matrix: (Units=1/GPa)
#
#
# Indices 1 2 3 4 5 6 
#
# 1 0.058919 -0.008623 0.009848 0.000000 -0.042204 0.000000
# 2 -0.008623 0.010571 -0.005740 0.000000 0.003985 0.000000
# 3 0.009848 -0.005740 0.017412 0.000000 -0.020948 0.000000
# 4 0.000000 0.000000 0.000000 0.022578 0.000000 0.017348
# 5 -0.042204 0.003985 -0.020948 0.000000 0.086244 0.000000
# 6 0.000000 0.000000 0.000000 0.017348 0.000000 -0.030191
#
#
# Mechanical properties :
#
#
# Convention : Reuss Voigt Hill
#
# Bulk Modulus (GPa) = 12.84153 49.60491 31.22322
# Shear Modulus (GPa) = 24.93533 18.68665 21.81099
#
# Velocity S-wave (km/s) = 3.48869 3.02010 3.26282
# Velocity P-wave (km/s) = 4.74299 6.03105 5.42538
#
# Compressibility (1/GPa) = 0.07787236
#
# Stress axis : x y z
#
# Youngs Moduli (GPa) = 16.97253 94.60027 57.43218
#
# Poissons Ratio (x) = 0.81576 -0.56562
# Poissons Ratio (y) = 0.14636 0.32964
# Poissons Ratio (z) = -0.16715 0.54298
#
# Static dielectric constant tensor:
#      x y z
#    x 1.762920 0.000000 0.010830 
#    y 0.000000 1.704480 0.000000 
#    z 0.010830 0.000000 1.752050 
# 
# From -- ./inp_files/76692.got.cif
#   From: 2010.05.17/outbox.cif.g08.bks.cpg/sg13_39_cif.got.tgz:76692.got - 2010.06.03 16:44:36.
