data_PCOD9230808
_publ_section_title
;
Structure prediction by ZEFSAII (Michael W. Deem and Ramdas Pophale) SiO2 
 PCOD9230808
Probable space group: P 2/C
;
_chemical_formula_sum "Si O2"
_cell_formula_units_Z 24
_cell_length_a 7.317741
_cell_length_b 15.174521
_cell_length_c 14.107766
_cell_angle_alpha 90.000000
_cell_angle_beta 43.243022
_cell_angle_gamma 90.000000
_cell_volume 1073.249297
_symmetry_space_group_name_H-M "P 2/C"
_symmetry_group_IT_number 13
_symmetry_cell_setting 'monoclinic'
loop_
_space_group_symop_operation_xyz
x,y,z
-x,y,1/2-z
-x,-y,-z
x,-y,1/2+z
loop_
_atom_site_type_symbol
_atom_site_label
_atom_site_fract_x
_atom_site_fract_y
_atom_site_fract_z
Si Si1 0.988178 0.374309 0.092278
Si Si2 0.191223 0.986569 0.585807
Si Si3 0.773459 0.176679 0.980048
Si Si4 0.000000 0.688879 0.250000
Si Si5 0.206010 0.438115 0.814124
Si Si6 0.784743 0.797130 0.915288
Si Si7 0.500000 0.268623 0.250000
O O1 0.959257 0.472340 0.144304
O O2 0.703261 0.331578 0.227113
O O3 0.193198 0.297669 0.044066
O O4 0.036098 0.391254 0.962406
O O5 0.126501 0.076636 0.555852
O O6 0.000000 0.986016 0.750000
O O7 0.500000 0.000000 0.500000
O O8 0.163624 0.889813 0.549358
O O9 0.500893 0.186732 0.022990
O O10 0.689757 0.210201 0.114111
O O11 0.955447 0.244141 0.853929
O O12 0.786635 0.621595 0.282965
O O13 0.500000 0.454579 0.750000
O O14 0.000000 0.794963 0.750000
#
# Coordination Sequence:
#
# PCOD9230808 Si02
#       7
#     4   4   4   2   4   4   2
#     4  11  23  43  62  93 131 170 218 279 328 397
#     4   9  19  37  65  96 130 169 220 281 337 405
#     4  11  22  40  65  95 130 169 219 271 334 401
#     4  12  24  40  68  98 128 182 222 268 336 406
#     4  11  25  43  64  95 136 174 223 284 339 389
#     4  10  20  37  67  91 123 172 218 263 331 404
#     4  12  22  40  64  90 132 172 208 276 332 396
#
# _framework density 22.361999999999998
#
# number of rings (size 3 to 8) (size 9 to 14) (size 15 to 20)
#    0.000    1.333    5.000    1.000    1.167    0.000 
#    0.000    4.167   12.833    0.000    0.000    0.000 
#    0.000    0.000    0.000    0.000    0.000    0.000 
#
# Total GULP energy -133678.005205 kJ/mol
# GULP energy per Si atom -5569.916884 kJ/mol
# Density = 2.231110 g / cm^3
# Si number density = 22.362000 Si / 1000 Ang^3
#
#
#
# Elastic Constant Matrix: (Units=GPa)
#
#
# Indices 1 2 3 4 5 6 
#
# 1 45.1657 33.5185 -12.5940 0.0000 -7.5873 0.0000
# 2 33.5185 207.5712 28.2837 0.0000 14.4620 0.0000
# 3 -12.5940 28.2837 58.3998 0.0000 0.2120 0.0000
# 4 0.0000 0.0000 0.0000 26.5167 0.0000 -7.5535
# 5 -7.5873 14.4620 0.2120 0.0000 27.0861 0.0000
# 6 0.0000 0.0000 0.0000 -7.5535 0.0000 24.1051
#
#
#
# Elastic Compliance Matrix: (Units=1/GPa)
#
#
# Indices 1 2 3 4 5 6 
#
# 1 0.033182 -0.007770 0.010871 0.000000 0.013359 0.000000
# 2 -0.007770 0.007188 -0.005135 0.000000 -0.005974 0.000000
# 3 0.010871 -0.005135 0.021934 0.000000 0.005615 0.000000
# 4 0.000000 0.000000 0.000000 0.041408 0.000000 0.012975
# 5 0.013359 -0.005974 0.005615 0.000000 0.043807 0.000000
# 6 0.000000 0.000000 0.000000 0.012975 0.000000 0.045551
#
#
# Mechanical properties :
#
#
# Convention : Reuss Voigt Hill
#
# Bulk Modulus (GPa) = 17.17181 45.50592 31.33886
# Shear Modulus (GPa) = 23.08901 33.00349 28.04625
#
# Velocity S-wave (km/s) = 3.21676 3.84588 3.54530
# Velocity P-wave (km/s) = 4.63599 6.33363 5.55010
#
# Compressibility (1/GPa) = 0.05823498
#
# Stress axis : x y z
#
# Youngs Moduli (GPa) = 30.13645 139.11366 45.59061
#
# Poissons Ratio (x) = 1.08095 -0.49560
# Poissons Ratio (y) = 0.23417 0.23413
# Poissons Ratio (z) = -0.32760 0.71440
#
# Static dielectric constant tensor:
#      x y z
#    x 1.886070 0.000000 0.005880 
#    y 0.000000 1.903310 0.000000 
#    z 0.005880 0.000000 1.865150 
# 
# From -- ./inp_files/47575.got.cif
#   From: 2010.05.17/outbox.cif.g08.bks.cpg/sg13_24_cif.got.tgz:47575.got - 2010.06.03 16:44:36.
