data_PCOD9230474
_publ_section_title
;
Structure prediction by ZEFSAII (Michael W. Deem and Ramdas Pophale) SiO2 
 PCOD9230474
Probable space group: P 2/C
;
_chemical_formula_sum "Si O2"
_cell_formula_units_Z 22
_cell_length_a 15.256334
_cell_length_b 7.276422
_cell_length_c 21.272335
_cell_angle_alpha 90.000000
_cell_angle_beta 155.017480
_cell_angle_gamma 90.000000
_cell_volume 997.349185
_symmetry_space_group_name_H-M "P 2/C"
_symmetry_group_IT_number 13
_symmetry_cell_setting 'monoclinic'
loop_
_space_group_symop_operation_xyz
x,y,z
-x,y,1/2-z
-x,-y,-z
x,-y,1/2+z
loop_
_atom_site_type_symbol
_atom_site_label
_atom_site_fract_x
_atom_site_fract_y
_atom_site_fract_z
Si Si1 0.914149 0.248999 0.490974
Si Si2 0.659207 0.773806 0.603097
Si Si3 0.000000 0.997019 0.250000
Si Si4 0.373199 0.895348 0.320734
Si Si5 0.258920 0.018424 0.530406
Si Si6 0.981049 0.638971 0.893843
O O1 0.142091 0.159368 0.650759
O O2 0.250458 0.887221 0.584974
O O3 0.909374 0.447252 0.520905
O O4 0.894769 0.286723 0.404442
O O5 0.821554 0.878810 0.663874
O O6 0.465970 0.747922 0.431381
O O7 0.791959 0.616103 0.722148
O O8 0.614542 0.917453 0.630345
O O9 0.119215 0.909277 0.386592
O O10 0.525995 0.921789 0.361173
O O11 0.134523 0.204660 0.467067
#
# Coordination Sequence:
#
# PCOD9230474 Si02
#       6
#     4   4   2   4   4   4
#     4  11  22  40  62  87 120 165 199 239 303 355
#     4   9  18  36  60  89 117 151 195 248 293 349
#     4   8  14  32  60  78 116 148 184 244 288 342
#     4  10  20  36  66  88 116 157 199 246 298 353
#     4  10  20  38  60  86 121 155 198 248 297 348
#     4  10  22  40  60  84 126 159 197 249 292 356
#
# _framework density 22.058471999999998
#
# number of rings (size 3 to 8) (size 9 to 14) (size 15 to 20)
#    0.000    2.182    3.636    0.545    0.000    1.455 
#    3.273    5.455    0.000    0.000    0.000    0.000 
#    0.000    0.000    0.000    0.000    0.000    0.000 
#
# Total GULP energy -122754.264792 kJ/mol
# GULP energy per Si atom -5579.739309 kJ/mol
# Density = 2.200827 g / cm^3
# Si number density = 22.058472 Si / 1000 Ang^3
#
#
#
# Elastic Constant Matrix: (Units=GPa)
#
#
# Indices 1 2 3 4 5 6 
#
# 1 115.8270 53.5521 27.0218 0.0000 12.7744 0.0000
# 2 53.5521 80.0016 14.0132 0.0000 9.0189 0.0000
# 3 27.0218 14.0132 89.4926 0.0000 -13.7856 0.0000
# 4 0.0000 0.0000 0.0000 17.5906 0.0000 -6.3083
# 5 12.7744 9.0189 -13.7856 0.0000 30.3535 0.0000
# 6 0.0000 0.0000 0.0000 -6.3083 0.0000 1.8815
#
#
#
# Elastic Compliance Matrix: (Units=1/GPa)
#
#
# Indices 1 2 3 4 5 6 
#
# 1 0.013744 -0.007982 -0.003684 0.000000 -0.005086 0.000000
# 2 -0.007982 0.018262 -0.000826 0.000000 -0.002442 0.000000
# 3 -0.003684 -0.000826 0.013647 0.000000 0.007994 0.000000
# 4 0.000000 0.000000 0.000000 -0.280905 0.000000 -0.941813
# 5 -0.005086 -0.002442 0.007994 0.000000 0.039442 0.000000
# 6 0.000000 0.000000 0.000000 -0.941813 0.000000 -2.626210
#
#
# Mechanical properties :
#
#
# Convention : Reuss Voigt Hill
#
# Bulk Modulus (GPa) = 48.37550 52.72170 50.54860
# Shear Modulus (GPa) = -1.79202 22.68073 10.44435
#
# Velocity S-wave (km/s) = -0.90231 3.21005 2.17833
# Velocity P-wave (km/s) = 4.57085 6.13938 5.41224
#
# Compressibility (1/GPa) = 0.02067162
#
# Stress axis : x y z
#
# Youngs Moduli (GPa) = 72.75882 54.75708 73.27608
#
# Poissons Ratio (x) = 0.43705 0.26992
# Poissons Ratio (y) = 0.58073 0.06052
# Poissons Ratio (z) = 0.26801 0.04522
#
# Static dielectric constant tensor:
#      x y z
#    x 2.497240 0.000000 0.067880 
#    y 0.000000 1.804480 0.000000 
#    z 0.067880 0.000000 1.955100 
# 
# From -- ./inp_files/67925.got.cif
#   From: 2010.05.17/outbox.cif.g08.bks.cpg/sg13_34_cif.got.tgz:67925.got - 2010.06.03 16:44:36.
