data_PCOD9230247
_publ_section_title
;
Structure prediction by ZEFSAII (Michael W. Deem and Ramdas Pophale) SiO2 
 PCOD9230247
Probable space group: P 2/C
;
_chemical_formula_sum "Si O2"
_cell_formula_units_Z 16
_cell_length_a 5.046344
_cell_length_b 19.577128
_cell_length_c 9.473868
_cell_angle_alpha 90.000000
_cell_angle_beta 57.746294
_cell_angle_gamma 90.000000
_cell_volume 791.527584
_symmetry_space_group_name_H-M "P 2/C"
_symmetry_group_IT_number 13
_symmetry_cell_setting 'monoclinic'
loop_
_space_group_symop_operation_xyz
x,y,z
-x,y,1/2-z
-x,-y,-z
x,-y,1/2+z
loop_
_atom_site_type_symbol
_atom_site_label
_atom_site_fract_x
_atom_site_fract_y
_atom_site_fract_z
Si Si1 0.127010 0.938383 0.371509
Si Si2 0.572294 0.431156 0.064916
Si Si3 0.872936 0.788125 0.127942
Si Si4 0.203812 0.643579 0.440885
O O1 0.500000 0.941852 0.250000
O O2 0.027001 0.862780 0.454773
O O3 0.000000 0.943829 0.250000
O O4 0.000000 0.000000 0.500000
O O5 0.500000 0.440035 0.250000
O O6 0.500000 0.500000 0.000000
O O7 0.344959 0.377076 0.051846
O O8 0.932991 0.406481 0.960417
O O9 0.500000 0.792254 0.250000
O O10 0.937255 0.720055 0.021255
O O11 0.000000 0.777761 0.250000
O O12 0.500000 0.641143 0.250000
#
# Coordination Sequence:
#
# PCOD9230247 Si02
#       4
#     4   4   4   4
#     4  10  20  36  58  86 120 157 198 241 288 344
#     4  12  26  43  61  88 122 154 189 239 297 353
#     4   9  18  34  59  87 115 152 196 239 287 348
#     4  11  22  41  66  89 113 153 201 243 288 347
#
# _framework density 20.214075999999999
#
# number of rings (size 3 to 8) (size 9 to 14) (size 15 to 20)
#    0.000    1.500    0.000    6.750    0.000    2.000 
#    0.000    3.750    0.000    0.000    0.000    0.000 
#    0.000    0.000    0.000    0.000    0.000    0.000 
#
# Total GULP energy -89373.783562 kJ/mol
# GULP energy per Si atom -5585.861473 kJ/mol
# Density = 2.016807 g / cm^3
# Si number density = 20.214076 Si / 1000 Ang^3
#
#
#
# Elastic Constant Matrix: (Units=GPa)
#
#
# Indices 1 2 3 4 5 6 
#
# 1 177.1907 65.6246 41.2430 0.0000 16.2415 0.0000
# 2 65.6246 186.4316 71.2193 0.0000 17.0031 0.0000
# 3 41.2430 71.2193 70.9058 0.0000 14.9741 0.0000
# 4 0.0000 0.0000 0.0000 31.5418 0.0000 4.9164
# 5 16.2415 17.0031 14.9741 0.0000 35.3968 0.0000
# 6 0.0000 0.0000 0.0000 4.9164 0.0000 35.2561
#
#
#
# Elastic Compliance Matrix: (Units=1/GPa)
#
#
# Indices 1 2 3 4 5 6 
#
# 1 0.006824 -0.001412 -0.002233 0.000000 -0.001509 0.000000
# 2 -0.001412 0.009004 -0.008177 0.000000 -0.000218 0.000000
# 3 -0.002233 -0.008177 0.024784 0.000000 -0.005532 0.000000
# 4 0.000000 0.000000 0.000000 0.032408 0.000000 -0.004519
# 5 -0.001509 -0.000218 -0.005532 0.000000 0.031388 0.000000
# 6 0.000000 0.000000 0.000000 -0.004519 0.000000 0.028994
#
#
# Mechanical properties :
#
#
# Convention : Reuss Voigt Hill
#
# Bulk Modulus (GPa) = 58.93111 87.85576 73.39343
# Shear Modulus (GPa) = 30.73083 37.53504 34.13293
#
# Velocity S-wave (km/s) = 3.90329 4.31382 4.11368
# Velocity P-wave (km/s) = 7.03783 8.26856 7.67790
#
# Compressibility (1/GPa) = 0.01696897
#
# Stress axis : x y z
#
# Youngs Moduli (GPa) = 146.53103 111.05630 40.34939
#
# Poissons Ratio (x) = 0.15676 0.09010
# Poissons Ratio (y) = 0.20684 0.32994
# Poissons Ratio (z) = 0.32722 0.90811
#
# Static dielectric constant tensor:
#      x y z
#    x 1.684290 0.000000 -0.015640 
#    y 0.000000 1.806620 0.000000 
#    z -0.015640 0.000000 1.693450 
# 
# From -- ./inp_files/9282.got.cif
#   From: 2010.05.17/outbox.cif.g08.bks.cpg/sg13_5_cif.got.tgz:9282.got - 2010.06.03 16:44:36.
