data_PCOD9230575
_publ_section_title
;
Structure prediction by ZEFSAII (Michael W. Deem and Ramdas Pophale) SiO2 
 PCOD9230575
Probable space group: P 2/C
;
_chemical_formula_sum "Si O2"
_cell_formula_units_Z 28
_cell_length_a 10.762751
_cell_length_b 8.471129
_cell_length_c 15.854340
_cell_angle_alpha 90.000000
_cell_angle_beta 110.124713
_cell_angle_gamma 90.000000
_cell_volume 1357.229662
_symmetry_space_group_name_H-M "P 2/C"
_symmetry_group_IT_number 13
_symmetry_cell_setting 'monoclinic'
loop_
_space_group_symop_operation_xyz
x,y,z
-x,y,1/2-z
-x,-y,-z
x,-y,1/2+z
loop_
_atom_site_type_symbol
_atom_site_label
_atom_site_fract_x
_atom_site_fract_y
_atom_site_fract_z
Si Si1 0.783251 0.194333 0.489883
Si Si2 0.025079 0.637021 0.349316
Si Si3 0.403986 0.323186 0.913981
Si Si4 0.650982 0.297351 0.781135
Si Si5 0.782795 0.397473 0.323191
Si Si6 0.694630 0.166553 0.962238
Si Si7 0.745124 0.382002 0.127091
O O1 0.919164 0.235876 0.571501
O O2 0.667626 0.276158 0.517330
O O3 0.793283 0.275004 0.400844
O O4 0.736566 0.014231 0.477539
O O5 0.141919 0.510084 0.364281
O O6 0.000000 0.705046 0.250000
O O7 0.902298 0.526440 0.348842
O O8 0.317500 0.274762 0.810098
O O9 0.542020 0.229446 0.937495
O O10 0.391657 0.514955 0.906976
O O11 0.500000 0.242457 0.750000
O O12 0.659147 0.483452 0.804051
O O13 0.729798 0.215908 0.874724
O O14 0.768896 0.321086 0.227335
O O15 0.758062 0.257510 0.055709
#
# Coordination Sequence:
#
# PCOD9230575 Si02
#       7
#     4   4   4   4   4   4   4
#     4  11  22  34  55  86 116 149 180 230 299 346
#     4   9  19  39  60  78 106 150 199 238 274 333
#     4   9  19  37  57  78 110 153 192 228 275 339
#     4   9  19  36  58  80 106 145 192 234 275 333
#     4  10  20  37  59  82 109 149 198 236 272 338
#     4  11  21  35  54  85 119 145 179 236 295 343
#     4   9  19  36  61  83 106 149 198 238 274 332
#
# _framework density 20.630261000000001
#
# number of rings (size 3 to 8) (size 9 to 14) (size 15 to 20)
#    0.000    2.286    0.000    3.857    0.000    3.429 
#    0.000    8.571    0.000    0.000    0.000    0.000 
#    0.000    0.000    0.000    0.000    0.000    0.000 
#
# Total GULP energy -155868.221826 kJ/mol
# GULP energy per Si atom -5566.722208 kJ/mol
# Density = 2.058331 g / cm^3
# Si number density = 20.630261 Si / 1000 Ang^3
#
#
#
# Elastic Constant Matrix: (Units=GPa)
#
#
# Indices 1 2 3 4 5 6 
#
# 1 59.0733 15.0417 17.7632 0.0000 1.2907 0.0000
# 2 15.0417 92.9827 78.4399 0.0000 -4.0643 0.0000
# 3 17.7632 78.4399 171.9305 0.0000 -10.0430 0.0000
# 4 0.0000 0.0000 0.0000 -5.7835 0.0000 -0.7889
# 5 1.2907 -4.0643 -10.0430 0.0000 23.5028 0.0000
# 6 0.0000 0.0000 0.0000 -0.7889 0.0000 18.1071
#
#
#
# Elastic Compliance Matrix: (Units=1/GPa)
#
#
# Indices 1 2 3 4 5 6 
#
# 1 0.017802 -0.002143 -0.000964 0.000000 -0.001760 0.000000
# 2 -0.002143 0.017745 -0.007885 0.000000 -0.000183 0.000000
# 3 -0.000964 -0.007885 0.009678 0.000000 0.002825 0.000000
# 4 0.000000 0.000000 0.000000 -0.171884 0.000000 -0.007489
# 5 -0.001760 -0.000183 0.002825 0.000000 0.043820 0.000000
# 6 0.000000 0.000000 0.000000 -0.007489 0.000000 0.054901
#
#
# Mechanical properties :
#
#
# Convention : Reuss Voigt Hill
#
# Bulk Modulus (GPa) = 43.02845 60.71956 51.87400
# Shear Modulus (GPa) = 2785.20200 21.34806 1403.27503
#
# Velocity S-wave (km/s) = 36.78298 3.22031 26.10898
# Velocity P-wave (km/s) = 42.71868 6.58205 30.56312
#
# Compressibility (1/GPa) = 0.02324044
#
# Stress axis : x y z
#
# Youngs Moduli (GPa) = 56.17258 56.35276 103.32271
#
# Poissons Ratio (x) = 0.12079 0.09962
# Poissons Ratio (y) = 0.12040 0.81472
# Poissons Ratio (z) = 0.05416 0.44435
#
# Static dielectric constant tensor:
#      x y z
#    x 1.837030 0.000000 0.034960 
#    y 0.000000 1.696490 0.000000 
#    z 0.034960 0.000000 1.800810 
# 
# From -- ./inp_files/50087.got.cif
#   From: 2010.05.17/outbox.cif.g08.bks.cpg/sg13_26_cif.got.tgz:50087.got - 2010.06.03 16:44:36.
