data_PCOD9230761
_publ_section_title
;
Structure prediction by ZEFSAII (Michael W. Deem and Ramdas Pophale) SiO2 
 PCOD9230761
Probable space group: P 2/C
;
_chemical_formula_sum "Si O2"
_cell_formula_units_Z 30
_cell_length_a 9.002068
_cell_length_b 22.594044
_cell_length_c 10.109469
_cell_angle_alpha 90.000000
_cell_angle_beta 45.869659
_cell_angle_gamma 90.000000
_cell_volume 1475.850783
_symmetry_space_group_name_H-M "P 2/C"
_symmetry_group_IT_number 13
_symmetry_cell_setting 'monoclinic'
loop_
_space_group_symop_operation_xyz
x,y,z
-x,y,1/2-z
-x,-y,-z
x,-y,1/2+z
loop_
_atom_site_type_symbol
_atom_site_label
_atom_site_fract_x
_atom_site_fract_y
_atom_site_fract_z
Si Si1 0.932191 0.664959 0.160978
Si Si2 0.228914 0.951010 0.059178
Si Si3 0.000000 0.844473 0.750000
Si Si4 0.297856 0.064292 0.205487
Si Si5 0.774876 0.528371 0.827458
Si Si6 0.480614 0.633965 0.410681
Si Si7 0.831220 0.270631 0.456261
Si Si8 0.720289 0.435768 0.080753
O O1 0.706969 0.638338 0.328298
O O2 0.906034 0.611401 0.460249
O O3 0.000000 0.698892 0.250000
O O4 0.900241 0.705935 0.055187
O O5 0.000000 0.927976 0.250000
O O6 0.256125 0.012321 0.124125
O O7 0.454611 0.920288 0.949460
O O8 0.235922 0.955716 0.893932
O O9 0.852772 0.883145 0.747787
O O10 0.854390 0.799451 0.924079
O O11 0.769995 0.520376 0.673270
O O12 0.000000 0.533017 0.750000
O O13 0.668564 0.590889 0.920440
O O14 0.685512 0.475595 0.972097
O O15 0.500000 0.609371 0.250000
O O16 0.381980 0.699064 0.454048
O O17 0.000000 0.295817 0.250000
O O18 0.500000 0.406068 0.250000
#
# Coordination Sequence:
#
# PCOD9230761 Si02
#       8
#     4   4   2   4   4   4   4   4
#     4  11  23  42  65  91 118 152 203 267 316 378
#     4  10  20  37  64 100 145 186 222 263 333 388
#     4  10  22  42  68  94 128 170 228 264 318 376
#     4  10  21  38  65 102 141 188 222 277 318 394
#     4  12  24  39  60  88 121 154 191 244 312 387
#     4  10  20  40  64  86 115 156 201 249 312 385
#     4   9  21  42  67  82 112 166 209 250 304 376
#     4  12  26  41  59  90 121 156 193 250 319 390
#
# _framework density 20.327259999999999
#
# number of rings (size 3 to 8) (size 9 to 14) (size 15 to 20)
#    0.400    1.067    0.667    5.600    0.000    3.200 
#    0.000    7.333    0.000    0.000    0.000    0.000 
#    0.000    0.000    0.000    0.000    0.000    0.000 
#
# Total GULP energy -167311.561959 kJ/mol
# GULP energy per Si atom -5577.052065 kJ/mol
# Density = 2.028099 g / cm^3
# Si number density = 20.327260 Si / 1000 Ang^3
#
#
#
# Elastic Constant Matrix: (Units=GPa)
#
#
# Indices 1 2 3 4 5 6 
#
# 1 124.1536 49.2575 43.9599 0.0000 -6.0562 0.0000
# 2 49.2575 88.4411 34.6207 0.0000 5.5036 0.0000
# 3 43.9599 34.6207 94.1198 0.0000 -8.0085 0.0000
# 4 0.0000 0.0000 0.0000 20.6545 0.0000 -9.4841
# 5 -6.0562 5.5036 -8.0085 0.0000 56.3220 0.0000
# 6 0.0000 0.0000 0.0000 -9.4841 0.0000 20.1046
#
#
#
# Elastic Compliance Matrix: (Units=1/GPa)
#
#
# Indices 1 2 3 4 5 6 
#
# 1 0.011299 -0.005077 -0.003304 0.000000 0.001241 0.000000
# 2 -0.005077 0.015718 -0.003631 0.000000 -0.002598 0.000000
# 3 -0.003304 -0.003631 0.013669 0.000000 0.001943 0.000000
# 4 0.000000 0.000000 0.000000 0.061803 0.000000 0.029155
# 5 0.001241 -0.002598 0.001943 0.000000 0.018419 0.000000
# 6 0.000000 0.000000 0.000000 0.029155 0.000000 0.063493
#
#
# Mechanical properties :
#
#
# Convention : Reuss Voigt Hill
#
# Bulk Modulus (GPa) = 60.02085 62.48786 61.25435
# Shear Modulus (GPa) = 23.36663 31.34130 27.35396
#
# Velocity S-wave (km/s) = 3.39414 3.93088 3.67233
# Velocity P-wave (km/s) = 6.70460 7.17008 6.94124
#
# Compressibility (1/GPa) = 0.01666088
#
# Stress axis : x y z
#
# Youngs Moduli (GPa) = 88.50068 63.62228 73.15699
#
# Poissons Ratio (x) = 0.32300 0.24174
# Poissons Ratio (y) = 0.44931 0.26566
# Poissons Ratio (z) = 0.29244 0.23104
#
# Static dielectric constant tensor:
#      x y z
#    x 1.805640 0.000000 -0.041810 
#    y 0.000000 1.696390 0.000000 
#    z -0.041810 0.000000 1.805420 
# 
# From -- ./inp_files/13909.got.cif
#   From: 2010.05.17/outbox.cif.g08.bks.cpg/sg13_7_cif.got.tgz:13909.got - 2010.06.03 16:44:36.
