data_PCOD9230307
_publ_section_title
;
Structure prediction by ZEFSAII (Michael W. Deem and Ramdas Pophale) SiO2 
 PCOD9230307
Probable space group: P 2/C
;
_chemical_formula_sum "Si O2"
_cell_formula_units_Z 24
_cell_length_a 10.688034
_cell_length_b 13.482003
_cell_length_c 11.540211
_cell_angle_alpha 90.000000
_cell_angle_beta 139.318817
_cell_angle_gamma 90.000000
_cell_volume 1083.959996
_symmetry_space_group_name_H-M "P 2/C"
_symmetry_group_IT_number 13
_symmetry_cell_setting 'monoclinic'
loop_
_space_group_symop_operation_xyz
x,y,z
-x,y,1/2-z
-x,-y,-z
x,-y,1/2+z
loop_
_atom_site_type_symbol
_atom_site_label
_atom_site_fract_x
_atom_site_fract_y
_atom_site_fract_z
Si Si1 0.673055 0.787678 0.176635
Si Si2 0.788565 0.018738 0.898940
Si Si3 0.000000 0.885208 0.750000
Si Si4 0.961349 0.663068 0.047666
Si Si5 0.298807 0.185591 0.263424
Si Si6 0.868620 0.451470 0.056228
Si Si7 0.500000 0.648098 0.250000
O O1 0.702852 0.893580 0.260206
O O2 0.876941 0.737114 0.286003
O O3 0.596350 0.717900 0.224327
O O4 0.505505 0.792826 0.964265
O O5 0.685449 0.915849 0.799356
O O6 0.837347 0.053276 0.063960
O O7 0.000000 0.000000 0.000000
O O8 0.867961 0.828438 0.752811
O O9 0.885202 0.569972 0.066110
O O10 0.060008 0.603165 0.009797
O O11 0.787642 0.728978 0.877906
O O12 0.000000 0.411341 0.250000
O O13 0.651856 0.419912 0.921338
#
# Coordination Sequence:
#
# PCOD9230307 Si02
#       7
#     4   4   2   4   4   4   2
#     4  11  20  36  63  92 121 159 207 252 297 361
#     4  10  20  37  57  90 126 157 197 245 301 356
#     4  10  20  36  60  84 126 166 204 260 286 356
#     4  10  22  39  60  91 121 158 206 253 311 359
#     4  11  22  37  61  89 125 164 206 247 302 363
#     4  10  22  40  61  87 124 156 200 263 310 356
#     4  10  22  36  66  96 112 154 220 246 302 368
#
# _framework density 22.141038999999999
#
# number of rings (size 3 to 8) (size 9 to 14) (size 15 to 20)
#    0.000    1.667    3.333    2.500    3.500    1.333 
#    1.500    5.000    0.000    7.000    0.000    0.000 
#    0.000    0.000    0.000    0.000    0.000    0.000 
#
# Total GULP energy -134021.134856 kJ/mol
# GULP energy per Si atom -5584.213952 kJ/mol
# Density = 2.209065 g / cm^3
# Si number density = 22.141039 Si / 1000 Ang^3
#
#
#
# Elastic Constant Matrix: (Units=GPa)
#
#
# Indices 1 2 3 4 5 6 
#
# 1 30.7605 14.4960 7.1514 0.0000 5.8177 0.0000
# 2 14.4960 152.9872 74.2650 0.0000 12.9932 0.0000
# 3 7.1514 74.2650 177.6237 0.0000 29.8860 0.0000
# 4 0.0000 0.0000 0.0000 44.1250 0.0000 -18.1800
# 5 5.8177 12.9932 29.8860 0.0000 13.4432 0.0000
# 6 0.0000 0.0000 0.0000 -18.1800 0.0000 9.4969
#
#
#
# Elastic Compliance Matrix: (Units=1/GPa)
#
#
# Indices 1 2 3 4 5 6 
#
# 1 0.037165 -0.003425 0.003330 0.000000 -0.020178 0.000000
# 2 -0.003425 0.008519 -0.003655 0.000000 0.001374 0.000000
# 3 0.003330 -0.003655 0.010659 0.000000 -0.021605 0.000000
# 4 0.000000 0.000000 0.000000 0.107264 0.000000 0.205337
# 5 -0.020178 0.001374 -0.021605 0.000000 0.129822 0.000000
# 6 0.000000 0.000000 0.000000 0.205337 0.000000 0.498376
#
#
# Mechanical properties :
#
#
# Convention : Reuss Voigt Hill
#
# Bulk Modulus (GPa) = 20.47309 61.46624 40.96967
# Shear Modulus (GPa) = 6.13057 31.11028 18.62043
#
# Velocity S-wave (km/s) = 1.66580 3.75253 2.90313
# Velocity P-wave (km/s) = 3.60092 6.82618 5.45726
#
# Compressibility (1/GPa) = 0.04884461
#
# Stress axis : x y z
#
# Youngs Moduli (GPa) = 26.90706 117.39150 93.81672
#
# Poissons Ratio (x) = 0.40201 -0.31245
# Poissons Ratio (y) = 0.09214 0.34289
# Poissons Ratio (z) = -0.08961 0.42906
#
# Static dielectric constant tensor:
#      x y z
#    x 1.763960 0.000000 0.006340 
#    y 0.000000 1.834100 0.000000 
#    z 0.006340 0.000000 1.822040 
# 
# From -- ./inp_files/53765.got.cif
#   From: 2010.05.17/outbox.cif.g08.bks.cpg/sg13_27_cif.got.tgz:53765.got - 2010.06.03 16:44:36.
