data_PCOD9230097
_publ_section_title
;
Structure prediction by ZEFSAII (Michael W. Deem and Ramdas Pophale) SiO2 
 PCOD9230097
Probable space group: P 2/C
;
_chemical_formula_sum "Si O2"
_cell_formula_units_Z 22
_cell_length_a 8.341087
_cell_length_b 13.984741
_cell_length_c 9.423131
_cell_angle_alpha 90.000000
_cell_angle_beta 89.440111
_cell_angle_gamma 90.000000
_cell_volume 1099.136352
_symmetry_space_group_name_H-M "P 2/C"
_symmetry_group_IT_number 13
_symmetry_cell_setting 'monoclinic'
loop_
_space_group_symop_operation_xyz
x,y,z
-x,y,1/2-z
-x,-y,-z
x,-y,1/2+z
loop_
_atom_site_type_symbol
_atom_site_label
_atom_site_fract_x
_atom_site_fract_y
_atom_site_fract_z
Si Si1 0.620735 0.076934 0.374482
Si Si2 0.500000 0.737294 0.250000
Si Si3 0.675730 0.874850 0.432437
Si Si4 0.633345 0.570252 0.064471
Si Si5 0.182255 0.774423 0.800402
Si Si6 0.189036 0.564972 0.726975
O O1 0.500000 0.045953 0.250000
O O2 0.503649 0.108424 0.501517
O O3 0.716314 0.166689 0.315160
O O4 0.728041 0.983782 0.402744
O O5 0.645078 0.804786 0.301721
O O6 0.556369 0.668509 0.121083
O O7 0.783731 0.825059 0.550340
O O8 0.713189 0.519589 0.199917
O O9 0.500000 0.500000 0.000000
O O10 0.763342 0.579671 0.937482
O O11 0.234121 0.664141 0.804556
O O12 0.000000 0.776052 0.750000
O O13 0.000000 0.548666 0.750000
#
# Coordination Sequence:
#
# PCOD9230097 Si02
#       6
#     4   2   4   4   4   4
#     4   9  18  37  60  87 116 156 207 248 305 354
#     4  12  22  36  66  94 128 150 216 256 316 358
#     4  10  20  35  62  88 119 158 200 257 298 366
#     4  12  23  41  65  95 121 161 209 266 303 366
#     4  10  22  38  60  84 120 162 201 246 303 367
#     4  11  24  43  63  88 126 166 205 249 316 374
#
# _framework density 20.015716000000001
#
# number of rings (size 3 to 8) (size 9 to 14) (size 15 to 20)
#    0.000    1.455    2.727    2.727    0.000    3.636 
#    0.000    0.000    0.000    0.000    0.000    0.000 
#    0.000    0.000    0.000    0.000    0.000    0.000 
#
# Total GULP energy -122850.076989 kJ/mol
# GULP energy per Si atom -5584.094409 kJ/mol
# Density = 1.997016 g / cm^3
# Si number density = 20.015716 Si / 1000 Ang^3
#
#
#
# Elastic Constant Matrix: (Units=GPa)
#
#
# Indices 1 2 3 4 5 6 
#
# 1 33.9004 4.5823 6.5588 0.0000 -1.9955 0.0000
# 2 4.5823 70.5307 -5.9812 0.0000 21.8661 0.0000
# 3 6.5588 -5.9812 59.5263 0.0000 0.0685 0.0000
# 4 0.0000 0.0000 0.0000 41.8891 0.0000 3.0853
# 5 -1.9955 21.8661 0.0685 0.0000 23.8905 0.0000
# 6 0.0000 0.0000 0.0000 3.0853 0.0000 18.9688
#
#
#
# Elastic Compliance Matrix: (Units=1/GPa)
#
#
# Indices 1 2 3 4 5 6 
#
# 1 0.031244 -0.004430 -0.003895 0.000000 0.006675 0.000000
# 2 -0.004430 0.020667 0.002587 0.000000 -0.019293 0.000000
# 3 -0.003895 0.002587 0.017492 0.000000 -0.002743 0.000000
# 4 0.000000 0.000000 0.000000 0.024162 0.000000 -0.003930
# 5 0.006675 -0.019293 -0.002743 0.000000 0.060081 0.000000
# 6 0.000000 0.000000 0.000000 -0.003930 0.000000 0.053357
#
#
# Mechanical properties :
#
#
# Convention : Reuss Voigt Hill
#
# Bulk Modulus (GPa) = 17.26353 19.36412 18.31383
# Shear Modulus (GPa) = 21.02723 27.53618 24.28170
#
# Velocity S-wave (km/s) = 3.24471 3.71310 3.48678
# Velocity P-wave (km/s) = 4.76249 5.29890 5.03784
#
# Compressibility (1/GPa) = 0.05792559
#
# Stress axis : x y z
#
# Youngs Moduli (GPa) = 32.00665 48.38726 57.17037
#
# Poissons Ratio (x) = 0.21434 0.22269
# Poissons Ratio (y) = 0.14178 -0.14789
# Poissons Ratio (z) = 0.12467 -0.12517
#
# Static dielectric constant tensor:
#      x y z
#    x 1.682560 0.000000 -0.031080 
#    y 0.000000 1.730150 0.000000 
#    z -0.031080 0.000000 1.740620 
# 
# From -- ./inp_files/12478.got.cif
#   From: 2010.05.17/outbox.cif.g08.bks.cpg/sg13_7_cif.got.tgz:12478.got - 2010.06.03 16:44:36.
