data_PCOD9230625
_publ_section_title
;
Structure prediction by ZEFSAII (Michael W. Deem and Ramdas Pophale) SiO2 
 PCOD9230625
Probable space group: P 2/C
;
_chemical_formula_sum "Si O2"
_cell_formula_units_Z 32
_cell_length_a 9.028641
_cell_length_b 11.841781
_cell_length_c 19.215779
_cell_angle_alpha 90.000000
_cell_angle_beta 121.577620
_cell_angle_gamma 90.000000
_cell_volume 1750.258124
_symmetry_space_group_name_H-M "P 2/C"
_symmetry_group_IT_number 13
_symmetry_cell_setting 'monoclinic'
loop_
_space_group_symop_operation_xyz
x,y,z
-x,y,1/2-z
-x,-y,-z
x,-y,1/2+z
loop_
_atom_site_type_symbol
_atom_site_label
_atom_site_fract_x
_atom_site_fract_y
_atom_site_fract_z
Si Si1 0.284450 0.032040 0.522573
Si Si2 0.986944 0.216748 0.091936
Si Si3 0.467141 0.691771 0.599467
Si Si4 0.391492 0.834886 0.448106
Si Si5 0.089890 0.614339 0.495567
Si Si6 0.121396 0.648461 0.347978
Si Si7 0.664697 0.886469 0.832040
Si Si8 0.829062 0.606058 0.661179
O O1 0.133981 0.116022 0.463420
O O2 0.464928 0.102105 0.562361
O O3 0.293866 0.932186 0.467759
O O4 0.268043 0.974538 0.593626
O O5 0.882436 0.302077 0.116187
O O6 0.166530 0.163104 0.166331
O O7 0.040683 0.288567 0.037713
O O8 0.480907 0.759214 0.530054
O O9 0.301228 0.609213 0.550261
O O10 0.418240 0.781353 0.646324
O O11 0.654318 0.639253 0.658223
O O12 0.260354 0.749567 0.378385
O O13 0.036083 0.652451 0.404331
O O14 0.000000 0.500000 0.500000
O O15 0.201302 0.522203 0.371081
O O16 0.000000 0.654777 0.250000
O O17 0.500000 0.934874 0.750000
O O18 0.000000 0.601448 0.750000
#
# Coordination Sequence:
#
# PCOD9230625 Si02
#       8
#     4   4   4   4   4   4   4   4
#     4  10  20  38  60  83 112 151 203 245 285 351
#     4  11  21  37  62  87 115 153 202 244 291 353
#     4   9  19  35  58  82 111 154 196 239 288 348
#     4   9  19  38  60  80 112 152 197 244 285 346
#     4  10  20  37  60  88 118 156 194 238 292 355
#     4  10  22  39  58  86 124 155 192 241 297 351
#     4  10  21  37  54  82 123 151 186 249 306 345
#     4  11  21  35  60  89 119 153 199 246 291 354
#
# _framework density 18.283016
#
# number of rings (size 3 to 8) (size 9 to 14) (size 15 to 20)
#    0.000    2.000    2.500    1.875    0.000    3.000 
#    4.500    0.000    0.000    1.500    0.000    0.000 
#    0.000    0.000    0.000    0.000    0.000    0.000 
#
# Total GULP energy -178319.405292 kJ/mol
# GULP energy per Si atom -5572.481415 kJ/mol
# Density = 1.824140 g / cm^3
# Si number density = 18.283016 Si / 1000 Ang^3
#
#
#
# Elastic Constant Matrix: (Units=GPa)
#
#
# Indices 1 2 3 4 5 6 
#
# 1 73.7479 39.1209 26.6944 0.0000 15.8370 0.0000
# 2 39.1209 102.8308 32.3878 0.0000 26.4653 0.0000
# 3 26.6944 32.3878 70.2662 0.0000 17.0111 0.0000
# 4 0.0000 0.0000 0.0000 -17.7403 0.0000 24.8368
# 5 15.8370 26.4653 17.0111 0.0000 18.7243 0.0000
# 6 0.0000 0.0000 0.0000 24.8368 0.0000 3.5582
#
#
#
# Elastic Compliance Matrix: (Units=1/GPa)
#
#
# Indices 1 2 3 4 5 6 
#
# 1 0.018468 -0.004279 -0.003495 0.000000 -0.006397 0.000000
# 2 -0.004279 0.016579 -0.001563 0.000000 -0.018394 0.000000
# 3 -0.003495 -0.001563 0.019267 0.000000 -0.012339 0.000000
# 4 0.000000 0.000000 0.000000 -0.005233 0.000000 0.036525
# 5 -0.006397 -0.018394 -0.012339 0.000000 0.096025 0.000000
# 6 0.000000 0.000000 0.000000 0.036525 0.000000 0.026089
#
#
# Mechanical properties :
#
#
# Convention : Reuss Voigt Hill
#
# Bulk Modulus (GPa) = 28.05834 49.25012 38.65423
# Shear Modulus (GPa) = 24.78314 10.81790 17.80052
#
# Velocity S-wave (km/s) = 3.68574 2.43511 3.12366
# Velocity P-wave (km/s) = 5.78731 5.90783 5.84788
#
# Compressibility (1/GPa) = 0.03564003
#
# Stress axis : x y z
#
# Youngs Moduli (GPa) = 54.14640 60.31805 51.90218
#
# Poissons Ratio (x) = 0.25809 0.18141
# Poissons Ratio (y) = 0.23168 0.08113
# Poissons Ratio (z) = 0.18925 0.09428
#
# Static dielectric constant tensor:
#      x y z
#    x 1.646760 0.000000 0.007880 
#    y 0.000000 1.646700 0.000000 
#    z 0.007880 0.000000 1.646970 
# 
# From -- ./inp_files/76452.got.cif
#   From: 2010.05.17/outbox.cif.g08.bks.cpg/sg13_39_cif.got.tgz:76452.got - 2010.06.03 16:44:36.
