data_PCOD9230940
_publ_section_title
;
Structure prediction by ZEFSAII (Michael W. Deem and Ramdas Pophale) SiO2 
 PCOD9230940
Probable space group: P 2/C
;
_chemical_formula_sum "Si O2"
_cell_formula_units_Z 28
_cell_length_a 12.042002
_cell_length_b 5.236605
_cell_length_c 19.986073
_cell_angle_alpha 90.000000
_cell_angle_beta 84.288505
_cell_angle_gamma 90.000000
_cell_volume 1254.049299
_symmetry_space_group_name_H-M "P 2/C"
_symmetry_group_IT_number 13
_symmetry_cell_setting 'monoclinic'
loop_
_space_group_symop_operation_xyz
x,y,z
-x,y,1/2-z
-x,-y,-z
x,-y,1/2+z
loop_
_atom_site_type_symbol
_atom_site_label
_atom_site_fract_x
_atom_site_fract_y
_atom_site_fract_z
Si Si1 0.107134 0.889336 0.584308
Si Si2 0.654642 0.362378 0.848398
Si Si3 0.739011 0.962434 0.648199
Si Si4 0.291121 0.428218 0.013446
Si Si5 0.221676 0.866408 0.706509
Si Si6 0.101736 0.246874 0.466435
Si Si7 0.601364 0.453309 0.626417
O O1 0.231406 0.809231 0.552811
O O2 0.118225 0.913152 0.662619
O O3 0.010901 0.693609 0.566781
O O4 0.076645 0.130676 0.540799
O O5 0.676978 0.388872 0.926977
O O6 0.729494 0.584416 0.810294
O O7 0.525675 0.424459 0.843757
O O8 0.689558 0.085657 0.819876
O O9 0.798836 0.901423 0.714230
O O10 0.829192 0.952851 0.583440
O O11 0.649900 0.734258 0.639276
O O12 0.676614 0.232325 0.654667
O O13 0.191251 0.535494 0.973579
O O14 0.389116 0.395681 0.954261
#
# Coordination Sequence:
#
# PCOD9230940 Si02
#       7
#     4   4   4   4   4   4   4
#     4  10  20  38  63  88 117 157 200 246 300 357
#     4  11  23  39  63  89 122 162 203 249 301 357
#     4  11  24  41  60  90 125 158 201 250 300 360
#     4  10  20  38  60  94 122 156 200 260 298 358
#     4  11  24  41  60  90 125 158 201 250 300 360
#     4  10  20  38  63  88 117 157 200 246 300 357
#     4  11  23  39  63  89 122 162 203 249 301 357
#
# _framework density 22.327669
#
# number of rings (size 3 to 8) (size 9 to 14) (size 15 to 20)
#    0.000    1.429    2.857    2.571    0.000    4.000 
#    0.000    4.286    0.000    3.429    0.000    0.000 
#    0.000    0.000    0.000    0.000    0.000    0.000 
#
# Total GULP energy -156364.748719 kJ/mol
# GULP energy per Si atom -5584.455311 kJ/mol
# Density = 2.227685 g / cm^3
# Si number density = 22.327669 Si / 1000 Ang^3
#
#
#
# Elastic Constant Matrix: (Units=GPa)
#
#
# Indices 1 2 3 4 5 6 
#
# 1 67.9723 6.2463 6.0708 0.0000 6.1798 0.0000
# 2 6.2463 69.1044 0.8547 0.0000 0.5991 0.0000
# 3 6.0708 0.8547 92.9266 0.0000 25.5095 0.0000
# 4 0.0000 0.0000 0.0000 24.0158 0.0000 0.9172
# 5 6.1798 0.5991 25.5095 0.0000 12.7191 0.0000
# 6 0.0000 0.0000 0.0000 0.9172 0.0000 16.1903
#
#
#
# Elastic Compliance Matrix: (Units=1/GPa)
#
#
# Indices 1 2 3 4 5 6 
#
# 1 0.015746 -0.001346 0.002373 0.000000 -0.012346 0.000000
# 2 -0.001346 0.014592 -0.000083 0.000000 0.000132 0.000000
# 3 0.002373 -0.000083 0.024302 0.000000 -0.049890 0.000000
# 4 0.000000 0.000000 0.000000 0.041729 0.000000 -0.002364
# 5 -0.012346 0.000132 -0.049890 0.000000 0.184674 0.000000
# 6 0.000000 0.000000 0.000000 -0.002364 0.000000 0.061899
#
#
# Mechanical properties :
#
#
# Convention : Reuss Voigt Hill
#
# Bulk Modulus (GPa) = 17.68958 28.48299 23.08629
# Shear Modulus (GPa) = 13.89284 25.04047 19.46666
#
# Velocity S-wave (km/s) = 2.49715 3.35251 2.95594
# Velocity P-wave (km/s) = 4.03166 5.26975 4.69172
#
# Compressibility (1/GPa) = 0.05653045
#
# Stress axis : x y z
#
# Youngs Moduli (GPa) = 63.50792 68.52898 41.14823
#
# Poissons Ratio (x) = 0.09221 -0.09764
# Poissons Ratio (y) = 0.08545 0.00339
# Poissons Ratio (z) = -0.15070 0.00565
#
# Static dielectric constant tensor:
#      x y z
#    x 1.844090 0.000000 -0.008190 
#    y 0.000000 1.853600 0.000000 
#    z -0.008190 0.000000 1.864330 
# 
# From -- ./inp_files/77232.got.cif
#   From: 2010.05.17/outbox.cif.g08.bks.cpg/sg13_39_cif.got.tgz:77232.got - 2010.06.03 16:44:36.
