data_PCOD9230546
_publ_section_title
;
Structure prediction by ZEFSAII (Michael W. Deem and Ramdas Pophale) SiO2 
 PCOD9230546
Probable space group: P 2/C
;
_chemical_formula_sum "Si O2"
_cell_formula_units_Z 22
_cell_length_a 26.569221
_cell_length_b 8.321823
_cell_length_c 15.169587
_cell_angle_alpha 90.000000
_cell_angle_beta 19.527703
_cell_angle_gamma 90.000000
_cell_volume 1121.137383
_symmetry_space_group_name_H-M "P 2/C"
_symmetry_group_IT_number 13
_symmetry_cell_setting 'monoclinic'
loop_
_space_group_symop_operation_xyz
x,y,z
-x,y,1/2-z
-x,-y,-z
x,-y,1/2+z
loop_
_atom_site_type_symbol
_atom_site_label
_atom_site_fract_x
_atom_site_fract_y
_atom_site_fract_z
Si Si1 0.379451 0.815220 0.382439
Si Si2 0.880422 0.830619 0.551855
Si Si3 0.714898 0.319694 0.651320
Si Si4 0.000000 0.126584 0.250000
Si Si5 0.201836 0.690956 0.994317
Si Si6 0.465251 0.117463 0.139615
O O1 0.500000 0.735861 0.250000
O O2 0.222017 0.828585 0.693744
O O3 0.348763 0.727747 0.340201
O O4 0.445529 0.991441 0.250237
O O5 0.787300 0.767518 0.621130
O O6 0.933851 0.007247 0.433858
O O7 0.029579 0.719402 0.309008
O O8 0.746169 0.508421 0.598958
O O9 0.869825 0.230414 0.419992
O O10 0.595293 0.251476 0.920159
O O11 0.309750 0.791511 0.879234
O O12 0.500000 0.000000 0.000000
#
# Coordination Sequence:
#
# PCOD9230546 Si02
#       6
#     4   4   4   2   4   4
#     4  11  22  38  60  88 118 155 205 254 297 350
#     4  10  20  37  61  87 120 157 204 251 293 360
#     4  11  22  38  62  87 120 158 197 247 306 368
#     4  10  20  38  62  86 112 160 204 238 298 362
#     4  10  21  38  59  86 120 161 198 243 308 365
#     4  10  20  37  58  80 110 154 200 237 290 361
#
# _framework density 19.62293
#
# number of rings (size 3 to 8) (size 9 to 14) (size 15 to 20)
#    0.000    1.818    0.000    9.273    0.000    3.636 
#    0.000    4.545    0.000    2.182    0.000    0.000 
#    0.000    0.000    0.000    0.000    0.000    0.000 
#
# Total GULP energy -122804.267331 kJ/mol
# GULP energy per Si atom -5582.012151 kJ/mol
# Density = 1.957827 g / cm^3
# Si number density = 19.622930 Si / 1000 Ang^3
#
#
#
# Elastic Constant Matrix: (Units=GPa)
#
#
# Indices 1 2 3 4 5 6 
#
# 1 64.2178 21.0433 32.4880 0.0000 -13.3168 0.0000
# 2 21.0433 73.8168 9.2343 0.0000 -9.7633 0.0000
# 3 32.4880 9.2343 62.2505 0.0000 1.2649 0.0000
# 4 0.0000 0.0000 0.0000 31.5885 0.0000 -4.6031
# 5 -13.3168 -9.7633 1.2649 0.0000 46.4171 0.0000
# 6 0.0000 0.0000 0.0000 -4.6031 0.0000 -8.7338
#
#
#
# Elastic Compliance Matrix: (Units=1/GPa)
#
#
# Indices 1 2 3 4 5 6 
#
# 1 0.024653 -0.004637 -0.012309 0.000000 0.006433 0.000000
# 2 -0.004637 0.015094 0.000144 0.000000 0.001841 0.000000
# 3 -0.012309 0.000144 0.022550 0.000000 -0.004116 0.000000
# 4 0.000000 0.000000 0.000000 0.029399 0.000000 -0.015495
# 5 0.006433 0.001841 -0.004116 0.000000 0.023889 0.000000
# 6 0.000000 0.000000 0.000000 -0.015495 0.000000 -0.106331
#
#
# Mechanical properties :
#
#
# Convention : Reuss Voigt Hill
#
# Bulk Modulus (GPa) = 34.85224 36.20180 35.52702
# Shear Modulus (GPa) = 95.37776 23.02234 59.20005
#
# Velocity S-wave (km/s) = 6.97931 3.42897 5.49857
# Velocity P-wave (km/s) = 9.09655 5.84516 7.64569
#
# Compressibility (1/GPa) = 0.02869256
#
# Stress axis : x y z
#
# Youngs Moduli (GPa) = 40.56379 66.24937 44.34535
#
# Poissons Ratio (x) = 0.30721 0.54584
# Poissons Ratio (y) = 0.18810 -0.00637
# Poissons Ratio (z) = 0.49929 -0.00951
#
# Static dielectric constant tensor:
#      x y z
#    x 1.680390 0.000000 -0.015960 
#    y 0.000000 1.672490 0.000000 
#    z -0.015960 0.000000 1.721540 
# 
# From -- ./inp_files/58643.got.cif
#   From: 2010.05.17/outbox.cif.g08.bks.cpg/sg13_30_cif.got.tgz:58643.got - 2010.06.03 16:44:36.
