data_PCOD9230907
_publ_section_title
;
Structure prediction by ZEFSAII (Michael W. Deem and Ramdas Pophale) SiO2 
 PCOD9230907
Probable space group: P 2/C
;
_chemical_formula_sum "Si O2"
_cell_formula_units_Z 20
_cell_length_a 19.177621
_cell_length_b 5.958701
_cell_length_c 28.629310
_cell_angle_alpha 90.000000
_cell_angle_beta 164.312888
_cell_angle_gamma 90.000000
_cell_volume 884.581848
_symmetry_space_group_name_H-M "P 2/C"
_symmetry_group_IT_number 13
_symmetry_cell_setting 'monoclinic'
loop_
_space_group_symop_operation_xyz
x,y,z
-x,y,1/2-z
-x,-y,-z
x,-y,1/2+z
loop_
_atom_site_type_symbol
_atom_site_label
_atom_site_fract_x
_atom_site_fract_y
_atom_site_fract_z
Si Si1 0.789222 0.313899 0.492410
Si Si2 0.478904 0.577985 0.108240
Si Si3 0.771582 0.696271 0.729574
Si Si4 0.976780 0.067746 0.183929
Si Si5 0.045279 0.918675 0.081189
O O1 0.015636 0.500461 0.637796
O O2 0.549737 0.435952 0.362428
O O3 0.865176 0.116288 0.576964
O O4 0.802924 0.200810 0.450373
O O5 0.521567 0.417981 0.090925
O O6 0.722078 0.741366 0.268854
O O7 0.228181 0.731720 0.941674
O O8 0.870741 0.873586 0.832055
O O9 0.774277 0.825825 0.681807
O O10 0.000000 0.966054 0.250000
O O11 0.000000 0.000000 0.000000
#
# Coordination Sequence:
#
# PCOD9230907 Si02
#       5
#     4   4   4   4   4
#     4   9  20  38  57  85 121 152 192 240 286 348
#     4  10  20  38  60  85 119 154 193 244 296 343
#     4   9  20  39  58  83 119 151 190 244 290 345
#     4  10  21  38  60  86 117 155 199 242 288 348
#     4  10  21  40  62  86 118 154 196 242 289 347
#
# _framework density 22.609551
#
# number of rings (size 3 to 8) (size 9 to 14) (size 15 to 20)
#    0.000    2.400    0.000    1.200    0.000    7.200 
#    0.000   38.000    0.000    0.000    0.000    0.000 
#    0.000    0.000    0.000    0.000    0.000    0.000 
#
# Total GULP energy -111662.820294 kJ/mol
# GULP energy per Si atom -5583.141015 kJ/mol
# Density = 2.255809 g / cm^3
# Si number density = 22.609551 Si / 1000 Ang^3
#
#
#
# Elastic Constant Matrix: (Units=GPa)
#
#
# Indices 1 2 3 4 5 6 
#
# 1 159.0924 34.9686 27.8378 0.0000 24.0190 0.0000
# 2 34.9686 88.3880 21.2376 0.0000 26.6827 0.0000
# 3 27.8378 21.2376 43.1556 0.0000 28.7031 0.0000
# 4 0.0000 0.0000 0.0000 30.1238 0.0000 23.2453
# 5 24.0190 26.6827 28.7031 0.0000 33.6425 0.0000
# 6 0.0000 0.0000 0.0000 23.2453 0.0000 46.1037
#
#
#
# Elastic Compliance Matrix: (Units=1/GPa)
#
#
# Indices 1 2 3 4 5 6 
#
# 1 0.007408 -0.001824 -0.003064 0.000000 -0.001228 0.000000
# 2 -0.001824 0.015352 0.001974 0.000000 -0.012558 0.000000
# 3 -0.003064 0.001974 0.054939 0.000000 -0.046250 0.000000
# 4 0.000000 0.000000 0.000000 0.054337 0.000000 -0.027397
# 5 -0.001228 -0.012558 -0.046250 0.000000 0.080021 0.000000
# 6 0.000000 0.000000 0.000000 -0.027397 0.000000 0.035503
#
#
# Mechanical properties :
#
#
# Convention : Reuss Voigt Hill
#
# Bulk Modulus (GPa) = 13.91395 50.96933 32.44164
# Shear Modulus (GPa) = 18.02803 35.74680 26.88742
#
# Velocity S-wave (km/s) = 2.82683 3.98055 3.45223
# Velocity P-wave (km/s) = 4.10146 6.61201 5.50184
#
# Compressibility (1/GPa) = 0.07187034
#
# Stress axis : x y z
#
# Youngs Moduli (GPa) = 134.98678 65.13783 18.20213
#
# Poissons Ratio (x) = 0.11880 0.05578
# Poissons Ratio (y) = 0.24619 -0.03593
# Poissons Ratio (z) = 0.41364 -0.12858
#
# Static dielectric constant tensor:
#      x y z
#    x 1.885010 0.000000 0.009500 
#    y 0.000000 1.826580 0.000000 
#    z 0.009500 0.000000 1.873070 
# 
# From -- ./inp_files/97195.got.cif
#   From: 2010.05.17/outbox.cif.g08.bks.cpg/sg13_49_cif.got.tgz:97195.got - 2010.06.03 16:44:36.
