data_PCOD9230199
_publ_section_title
;
Structure prediction by ZEFSAII (Michael W. Deem and Ramdas Pophale) SiO2 
 PCOD9230199
Probable space group: P 2/C
;
_chemical_formula_sum "Si O2"
_cell_formula_units_Z 24
_cell_length_a 5.695819
_cell_length_b 14.840870
_cell_length_c 11.240035
_cell_angle_alpha 90.000000
_cell_angle_beta 92.809833
_cell_angle_gamma 90.000000
_cell_volume 948.988075
_symmetry_space_group_name_H-M "P 2/C"
_symmetry_group_IT_number 13
_symmetry_cell_setting 'monoclinic'
loop_
_space_group_symop_operation_xyz
x,y,z
-x,y,1/2-z
-x,-y,-z
x,-y,1/2+z
loop_
_atom_site_type_symbol
_atom_site_label
_atom_site_fract_x
_atom_site_fract_y
_atom_site_fract_z
Si Si1 0.742942 0.315311 0.283845
Si Si2 0.918641 0.358281 0.543551
Si Si3 0.000000 0.970937 0.250000
Si Si4 0.709983 0.473518 0.093130
Si Si5 0.505510 0.891335 0.504742
Si Si6 0.997790 0.160144 0.523944
Si Si7 0.500000 0.057431 0.750000
O O1 0.500000 0.264067 0.250000
O O2 0.754484 0.339010 0.423393
O O3 0.714337 0.407744 0.206358
O O4 0.000000 0.278424 0.250000
O O5 0.802968 0.427227 0.631965
O O6 0.998359 0.259229 0.580600
O O7 0.126123 0.416124 0.491543
O O8 0.000413 0.913503 0.371728
O O9 0.268018 0.005148 0.251708
O O10 0.500000 0.500000 0.000000
O O11 0.255423 0.855405 0.545959
O O12 0.500134 0.875229 0.361889
O O13 0.763459 0.854721 0.545713
O O14 0.500000 0.000000 0.500000
#
# Coordination Sequence:
#
# PCOD9230199 Si02
#       7
#     4   4   2   4   4   4   2
#     4  10  20  36  57  78 111 158 194 240 301 339
#     4  10  22  37  58  86 119 156 202 251 295 353
#     4   8  16  34  50  84 110 148 180 240 296 322
#     4  10  20  37  59  79 113 161 205 239 296 350
#     4  10  20  37  64  88 119 155 192 238 297 355
#     4  10  21  36  60  88 120 152 198 243 296 349
#     4   8  16  32  58  78 116 146 178 234 286 342
#
# _framework density 25.290098
#
# number of rings (size 3 to 8) (size 9 to 14) (size 15 to 20)
#    0.000    2.333    1.667    0.500    2.333    0.000 
#    7.500    0.000   14.667    0.000    0.000    0.000 
#    0.000    0.000    0.000    0.000    0.000    0.000 
#
# Total GULP energy -133675.145663 kJ/mol
# GULP energy per Si atom -5569.797736 kJ/mol
# Density = 2.523254 g / cm^3
# Si number density = 25.290098 Si / 1000 Ang^3
#
#
#
# Elastic Constant Matrix: (Units=GPa)
#
#
# Indices 1 2 3 4 5 6 
#
# 1 253.5501 36.1450 -0.6262 0.0000 8.9447 0.0000
# 2 36.1450 102.0137 -7.5135 0.0000 0.4246 0.0000
# 3 -0.6262 -7.5135 55.2060 0.0000 13.9502 0.0000
# 4 0.0000 0.0000 0.0000 30.2185 0.0000 13.2186
# 5 8.9447 0.4246 13.9502 0.0000 27.4640 0.0000
# 6 0.0000 0.0000 0.0000 13.2186 0.0000 34.6244
#
#
#
# Elastic Compliance Matrix: (Units=1/GPa)
#
#
# Indices 1 2 3 4 5 6 
#
# 1 0.004205 -0.001468 0.000216 0.000000 -0.001457 0.000000
# 2 -0.001468 0.010436 0.001519 0.000000 -0.000455 0.000000
# 3 0.000216 0.001519 0.021048 0.000000 -0.010785 0.000000
# 4 0.000000 0.000000 0.000000 0.039727 0.000000 -0.015167
# 5 -0.001457 -0.000455 -0.010785 0.000000 0.042371 0.000000
# 6 0.000000 0.000000 0.000000 -0.015167 0.000000 0.034672
#
#
# Mechanical properties :
#
#
# Convention : Reuss Voigt Hill
#
# Bulk Modulus (GPa) = 27.60650 51.86450 39.73550
# Shear Modulus (GPa) = 30.48764 43.97899 37.23332
#
# Velocity S-wave (km/s) = 3.47582 4.17463 3.84115
# Velocity P-wave (km/s) = 5.20078 6.61733 5.95135
#
# Compressibility (1/GPa) = 0.03622336
#
# Stress axis : x y z
#
# Youngs Moduli (GPa) = 237.80179 95.81782 47.50933
#
# Poissons Ratio (x) = 0.14066 -0.01026
# Poissons Ratio (y) = 0.34909 -0.07215
# Poissons Ratio (z) = -0.05136 -0.14551
#
# Static dielectric constant tensor:
#      x y z
#    x 2.235450 0.000000 0.015040 
#    y 0.000000 1.985540 0.000000 
#    z 0.015040 0.000000 2.119500 
# 
# From -- ./inp_files/43860.got.cif
#   From: 2010.05.17/outbox.cif.g08.bks.cpg/sg13_22_cif.got.tgz:43860.got - 2010.06.03 16:44:36.
