data_PCOD9230772
_publ_section_title
;
Structure prediction by ZEFSAII (Michael W. Deem and Ramdas Pophale) SiO2 
 PCOD9230772
Probable space group: P 2/C
;
_chemical_formula_sum "Si O2"
_cell_formula_units_Z 24
_cell_length_a 9.405731
_cell_length_b 7.334087
_cell_length_c 20.271573
_cell_angle_alpha 90.000000
_cell_angle_beta 132.286880
_cell_angle_gamma 90.000000
_cell_volume 1034.502851
_symmetry_space_group_name_H-M "P 2/C"
_symmetry_group_IT_number 13
_symmetry_cell_setting 'monoclinic'
loop_
_space_group_symop_operation_xyz
x,y,z
-x,y,1/2-z
-x,-y,-z
x,-y,1/2+z
loop_
_atom_site_type_symbol
_atom_site_label
_atom_site_fract_x
_atom_site_fract_y
_atom_site_fract_z
Si Si1 0.874051 0.250829 0.148185
Si Si2 0.918283 0.800111 0.918436
Si Si3 0.628030 0.521686 0.851175
Si Si4 0.550461 0.677244 0.972138
Si Si5 0.949193 0.689657 0.159877
Si Si6 0.789819 0.167683 0.872159
O O1 0.648833 0.212553 0.088268
O O2 0.916664 0.469568 0.153731
O O3 0.000000 0.190718 0.250000
O O4 0.947715 0.169960 0.102632
O O5 0.835592 0.597908 0.895851
O O6 0.751495 0.952260 0.859575
O O7 0.035067 0.819744 0.021697
O O8 0.500000 0.580456 0.750000
O O9 0.581226 0.607785 0.906921
O O10 0.631149 0.302615 0.852226
O O11 0.500000 0.500000 0.000000
O O12 0.747265 0.756908 0.064339
O O13 0.000000 0.748081 0.250000
O O14 0.126581 0.753420 0.169794
#
# Coordination Sequence:
#
# PCOD9230772 Si02
#       6
#     4   4   4   4   4   4
#     4  10  20  38  65  94 125 172 217 271 332 393
#     4  11  23  42  68  92 133 172 218 271 332 397
#     4  12  24  41  70  96 131 178 217 279 331 389
#     4  10  21  36  64  96 127 168 223 269 328 393
#     4  10  20  37  64  92 131 171 221 270 326 395
#     4  11  23  41  66  96 126 176 223 265 333 399
#
# _framework density 23.199546999999999
#
# number of rings (size 3 to 8) (size 9 to 14) (size 15 to 20)
#    0.000    1.333    3.333    3.500    4.667    1.333 
#    0.000    0.833    7.333    0.000    0.000    0.000 
#    0.000    0.000    0.000    0.000    0.000    0.000 
#
# Total GULP energy -134020.395657 kJ/mol
# GULP energy per Si atom -5584.183152 kJ/mol
# Density = 2.314674 g / cm^3
# Si number density = 23.199547 Si / 1000 Ang^3
#
#
#
# Elastic Constant Matrix: (Units=GPa)
#
#
# Indices 1 2 3 4 5 6 
#
# 1 113.4406 5.0017 45.0210 0.0000 -32.9989 0.0000
# 2 5.0017 72.1628 11.1442 0.0000 -5.6726 0.0000
# 3 45.0210 11.1442 129.4256 0.0000 -26.5466 0.0000
# 4 0.0000 0.0000 0.0000 -8.3612 0.0000 24.9824
# 5 -32.9989 -5.6726 -26.5466 0.0000 45.7333 0.0000
# 6 0.0000 0.0000 0.0000 24.9824 0.0000 -0.9794
#
#
#
# Elastic Compliance Matrix: (Units=1/GPa)
#
#
# Indices 1 2 3 4 5 6 
#
# 1 0.011940 0.000147 -0.002719 0.000000 0.007055 0.000000
# 2 0.000147 0.014102 -0.001004 0.000000 0.001272 0.000000
# 3 -0.002719 -0.001004 0.009457 0.000000 0.003403 0.000000
# 4 0.000000 0.000000 0.000000 0.001590 0.000000 0.040560
# 5 0.007055 0.001272 0.003403 0.000000 0.029090 0.000000
# 6 0.000000 0.000000 0.000000 0.040560 0.000000 0.013575
#
#
# Mechanical properties :
#
#
# Convention : Reuss Voigt Hill
#
# Bulk Modulus (GPa) = 35.27790 48.59588 41.93689
# Shear Modulus (GPa) = 51.89105 24.20268 38.04686
#
# Velocity S-wave (km/s) = 4.73454 3.23343 4.05406
# Velocity P-wave (km/s) = 6.71767 5.91037 6.32691
#
# Compressibility (1/GPa) = 0.02834636
#
# Stress axis : x y z
#
# Youngs Moduli (GPa) = 83.75129 70.90945 105.74533
#
# Poissons Ratio (x) = -0.01042 0.28751
# Poissons Ratio (y) = -0.01230 0.10622
# Poissons Ratio (z) = 0.22771 0.07123
#
# Static dielectric constant tensor:
#      x y z
#    x 1.837520 0.000000 -0.098320 
#    y 0.000000 1.945130 0.000000 
#    z -0.098320 0.000000 1.319830 
# 
# From -- ./inp_files/75760.got.cif
#   From: 2010.05.17/outbox.cif.g08.bks.cpg/sg13_38_cif.got.tgz:75760.got - 2010.06.03 16:44:36.
