data_PCOD9230029
_publ_section_title
;
Structure prediction by ZEFSAII (Michael W. Deem and Ramdas Pophale) SiO2 
 PCOD9230029
Probable space group: P 2/C
;
_chemical_formula_sum "Si O2"
_cell_formula_units_Z 28
_cell_length_a 24.098240
_cell_length_b 9.484052
_cell_length_c 8.936202
_cell_angle_alpha 90.000000
_cell_angle_beta 39.912705
_cell_angle_gamma 90.000000
_cell_volume 1310.418270
_symmetry_space_group_name_H-M "P 2/C"
_symmetry_group_IT_number 13
_symmetry_cell_setting 'monoclinic'
loop_
_space_group_symop_operation_xyz
x,y,z
-x,y,1/2-z
-x,-y,-z
x,-y,1/2+z
loop_
_atom_site_type_symbol
_atom_site_label
_atom_site_fract_x
_atom_site_fract_y
_atom_site_fract_z
Si Si1 0.418034 0.077885 0.034148
Si Si2 0.311846 0.617342 0.319339
Si Si3 0.523310 0.769506 0.530691
Si Si4 0.177585 0.824007 0.725550
Si Si5 0.217890 0.892300 0.968747
Si Si6 0.937614 0.426432 0.013745
Si Si7 0.227609 0.372135 0.665640
O O1 0.317555 0.091834 0.203729
O O2 0.426852 0.920574 0.084154
O O3 0.500000 0.087237 0.750000
O O4 0.439161 0.201716 0.107406
O O5 0.412499 0.644570 0.138908
O O6 0.263656 0.732348 0.520961
O O7 0.282760 0.466107 0.436177
O O8 0.278888 0.642024 0.216918
O O9 0.500000 0.753266 0.750000
O O10 0.166801 0.854846 0.923725
O O11 0.103997 0.713872 0.831061
O O12 0.186215 0.963039 0.608992
O O13 0.211600 0.773823 0.111412
O O14 0.860042 0.534740 0.128803
O O15 0.000000 0.387084 0.750000
O O16 0.000000 0.500000 0.000000
#
# Coordination Sequence:
#
# PCOD9230029 Si02
#       7
#     4   4   4   4   4   4   4
#     4  10  21  34  59  91 129 177 224 278 330 372
#     4  11  21  42  61  93 131 177 230 277 321 411
#     4  10  20  35  58  87 124 175 230 275 330 370
#     4  11  24  40  68  98 132 173 218 269 335 399
#     4  12  23  41  64 103 137 177 226 278 326 400
#     4  11  23  46  72  96 129 169 217 269 336 419
#     4  11  24  40  69  97 131 179 222 273 346 398
#
# _framework density 21.367222000000002
#
# number of rings (size 3 to 8) (size 9 to 14) (size 15 to 20)
#    0.000    1.143    1.429    6.857    4.000    0.000 
#    0.000    7.143    0.000    0.000    0.000    0.000 
#    0.000    0.000    0.000    0.000    0.000    0.000 
#
# Total GULP energy -156367.130212 kJ/mol
# GULP energy per Si atom -5584.540365 kJ/mol
# Density = 2.131859 g / cm^3
# Si number density = 21.367222 Si / 1000 Ang^3
#
#
#
# Elastic Constant Matrix: (Units=GPa)
#
#
# Indices 1 2 3 4 5 6 
#
# 1 55.4584 18.2704 13.8516 0.0000 -3.8883 0.0000
# 2 18.2704 115.8043 37.0491 0.0000 -9.4548 0.0000
# 3 13.8516 37.0491 81.9459 0.0000 -4.2423 0.0000
# 4 0.0000 0.0000 0.0000 45.3930 0.0000 -3.6201
# 5 -3.8883 -9.4548 -4.2423 0.0000 36.0893 0.0000
# 6 0.0000 0.0000 0.0000 -3.6201 0.0000 30.7817
#
#
#
# Elastic Compliance Matrix: (Units=1/GPa)
#
#
# Indices 1 2 3 4 5 6 
#
# 1 0.019411 -0.002259 -0.002196 0.000000 0.001242 0.000000
# 2 -0.002259 0.010522 -0.004271 0.000000 0.002011 0.000000
# 3 -0.002196 -0.004271 0.014524 0.000000 0.000352 0.000000
# 4 0.000000 0.000000 0.000000 0.022238 0.000000 0.002615
# 5 0.001242 0.002011 0.000352 0.000000 0.028411 0.000000
# 6 0.000000 0.000000 0.000000 0.002615 0.000000 0.032794
#
#
# Mechanical properties :
#
#
# Convention : Reuss Voigt Hill
#
# Bulk Modulus (GPa) = 37.02933 43.50566 40.26749
# Shear Modulus (GPa) = 32.39299 34.72196 33.55747
#
# Velocity S-wave (km/s) = 3.89783 4.03552 3.96727
# Velocity P-wave (km/s) = 6.13392 6.48991 6.31443
#
# Compressibility (1/GPa) = 0.02700562
#
# Stress axis : x y z
#
# Youngs Moduli (GPa) = 51.51700 95.03570 68.85298
#
# Poissons Ratio (x) = 0.21465 0.15118
# Poissons Ratio (y) = 0.11636 0.29410
# Poissons Ratio (z) = 0.11311 0.40594
#
# Static dielectric constant tensor:
#      x y z
#    x 1.831270 0.000000 0.060300 
#    y 0.000000 1.755520 0.000000 
#    z 0.060300 0.000000 1.943310 
# 
# From -- ./inp_files/24549.got.cif
#   From: 2010.05.17/outbox.cif.g08.bks.cpg/sg13_13_cif.got.tgz:24549.got - 2010.06.03 16:44:36.
