data_PCOD9230147
_publ_section_title
;
Structure prediction by ZEFSAII (Michael W. Deem and Ramdas Pophale) SiO2 
 PCOD9230147
Probable space group: P 2/C
;
_chemical_formula_sum "Si O2"
_cell_formula_units_Z 20
_cell_length_a 12.184175
_cell_length_b 8.546678
_cell_length_c 25.969232
_cell_angle_alpha 90.000000
_cell_angle_beta 20.249726
_cell_angle_gamma 90.000000
_cell_volume 935.987285
_symmetry_space_group_name_H-M "P 2/C"
_symmetry_group_IT_number 13
_symmetry_cell_setting 'monoclinic'
loop_
_space_group_symop_operation_xyz
x,y,z
-x,y,1/2-z
-x,-y,-z
x,-y,1/2+z
loop_
_atom_site_type_symbol
_atom_site_label
_atom_site_fract_x
_atom_site_fract_y
_atom_site_fract_z
Si Si1 0.962841 0.304520 0.207354
Si Si2 0.567458 0.561189 0.076612
Si Si3 0.092168 0.638471 0.998055
Si Si4 0.683528 0.183591 0.609099
Si Si5 0.680881 0.140693 0.238044
O O1 0.732511 0.455993 0.305227
O O2 0.803344 0.172168 0.241948
O O3 0.000000 0.259376 0.250000
O O4 0.290831 0.349073 0.034706
O O5 0.844051 0.443515 0.975655
O O6 0.524523 0.681168 0.143489
O O7 0.426179 0.722140 0.839690
O O8 0.000000 0.500000 0.000000
O O9 0.814183 0.760872 0.107747
O O10 0.018083 0.154376 0.431470
O O11 0.497247 0.022247 0.689053
#
# Coordination Sequence:
#
# PCOD9230147 Si02
#       5
#     4   4   4   4   4
#     4  10  20  38  59  81 109 144 186 237 278 317
#     4   9  20  36  57  82 107 139 187 230 274 331
#     4   9  18  34  55  78 108 144 180 225 274 323
#     4  10  20  36  54  80 115 148 181 224 275 335
#     4  10  21  36  54  81 114 149 187 224 271 334
#
# _framework density 21.367812000000001
#
# number of rings (size 3 to 8) (size 9 to 14) (size 15 to 20)
#    0.000    2.400    0.000    1.800    0.000    4.800 
#    0.000   20.000    0.000    0.000    0.000    0.000 
#    0.000    0.000    0.000    0.000    0.000    0.000 
#
# Total GULP energy -111768.134585 kJ/mol
# GULP energy per Si atom -5588.406729 kJ/mol
# Density = 2.131918 g / cm^3
# Si number density = 21.367812 Si / 1000 Ang^3
#
#
#
# Elastic Constant Matrix: (Units=GPa)
#
#
# Indices 1 2 3 4 5 6 
#
# 1 121.6690 17.7743 -5.6806 0.0000 11.3588 0.0000
# 2 17.7743 101.9481 18.8310 0.0000 -5.5681 0.0000
# 3 -5.6806 18.8310 42.2952 0.0000 -8.3603 0.0000
# 4 0.0000 0.0000 0.0000 30.6498 0.0000 -4.2615
# 5 11.3588 -5.5681 -8.3603 0.0000 25.5724 0.0000
# 6 0.0000 0.0000 0.0000 -4.2615 0.0000 20.5325
#
#
#
# Elastic Compliance Matrix: (Units=1/GPa)
#
#
# Indices 1 2 3 4 5 6 
#
# 1 0.008947 -0.002020 0.001314 0.000000 -0.003985 0.000000
# 2 -0.002020 0.011160 -0.004899 0.000000 0.001726 0.000000
# 3 0.001314 -0.004899 0.027449 0.000000 0.007324 0.000000
# 4 0.000000 0.000000 0.000000 0.033596 0.000000 0.006973
# 5 -0.003985 0.001726 0.007324 0.000000 0.043645 0.000000
# 6 0.000000 0.000000 0.000000 0.006973 0.000000 0.050150
#
#
# Mechanical properties :
#
#
# Convention : Reuss Voigt Hill
#
# Bulk Modulus (GPa) = 27.51425 36.41800 31.96613
# Shear Modulus (GPa) = 25.21762 31.01679 28.11721
#
# Velocity S-wave (km/s) = 3.43909 3.81408 3.63142
# Velocity P-wave (km/s) = 5.35483 6.03959 5.70749
#
# Compressibility (1/GPa) = 0.03634480
#
# Stress axis : x y z
#
# Youngs Moduli (GPa) = 111.76327 89.60326 36.43171
#
# Poissons Ratio (x) = 0.18102 -0.04785
# Poissons Ratio (y) = 0.22579 0.17848
# Poissons Ratio (z) = -0.14680 0.43898
#
# Static dielectric constant tensor:
#      x y z
#    x 1.772330 0.000000 0.034820 
#    y 0.000000 1.776380 0.000000 
#    z 0.034820 0.000000 1.843410 
# 
# From -- ./inp_files/14821.got.cif
#   From: 2010.05.17/outbox.cif.g08.bks.cpg/sg13_8_cif.got.tgz:14821.got - 2010.06.03 16:44:36.
