data_PCOD9230160
_publ_section_title
;
Structure prediction by ZEFSAII (Michael W. Deem and Ramdas Pophale) SiO2 
 PCOD9230160
Probable space group: P 2/C
;
_chemical_formula_sum "Si O2"
_cell_formula_units_Z 30
_cell_length_a 7.258432
_cell_length_b 12.259689
_cell_length_c 24.890618
_cell_angle_alpha 90.000000
_cell_angle_beta 38.718972
_cell_angle_gamma 90.000000
_cell_volume 1385.434450
_symmetry_space_group_name_H-M "P 2/C"
_symmetry_group_IT_number 13
_symmetry_cell_setting 'monoclinic'
loop_
_space_group_symop_operation_xyz
x,y,z
-x,y,1/2-z
-x,-y,-z
x,-y,1/2+z
loop_
_atom_site_type_symbol
_atom_site_label
_atom_site_fract_x
_atom_site_fract_y
_atom_site_fract_z
Si Si1 0.679903 0.287579 0.761694
Si Si2 0.153818 0.779744 0.451455
Si Si3 0.506005 0.027320 0.580722
Si Si4 0.669149 0.170908 0.979198
Si Si5 0.000000 0.879844 0.250000
Si Si6 0.233894 0.407428 0.426726
Si Si7 0.814544 0.463779 0.236873
Si Si8 0.375205 0.390944 0.056078
O O1 0.500000 0.258558 0.750000
O O2 0.459379 0.277845 0.863275
O O3 0.805555 0.407940 0.726104
O O4 0.935676 0.202720 0.716044
O O5 0.221531 0.895467 0.464117
O O6 0.977734 0.793478 0.435168
O O7 0.964194 0.700628 0.532406
O O8 0.354780 0.085760 0.563842
O O9 0.280168 0.044593 0.680188
O O10 0.547993 0.902298 0.556515
O O11 0.479711 0.277155 0.006620
O O12 0.470881 0.433087 0.325706
O O13 0.452183 0.388018 0.426880
O O14 0.000000 0.500000 0.500000
O O15 0.000000 0.452241 0.250000
O O16 0.025946 0.403486 0.145936
O O17 0.500000 0.500000 0.000000
#
# Coordination Sequence:
#
# PCOD9230160 Si02
#       8
#     4   4   4   4   2   4   4   4
#     4  11  21  32  57  89 121 154 202 254 298 356
#     4  10  21  37  61  89 117 160 203 254 301 362
#     4  10  22  40  66  85 119 159 202 256 303 361
#     4  10  22  42  61  90 118 155 209 248 305 367
#     4  10  22  38  58  90 116 156 204 254 300 354
#     4  10  20  36  55  87 121 161 200 244 304 367
#     4  10  21  37  54  84 124 164 198 245 304 369
#     4  10  24  36  61  88 120 163 196 250 307 366
#
# _framework density 21.653856999999999
#
# number of rings (size 3 to 8) (size 9 to 14) (size 15 to 20)
#    0.000    1.867    2.000    1.200    7.467    0.000 
#    6.000    0.000    0.000    0.000    0.000    0.000 
#    0.000    0.000    0.000    0.000    0.000    0.000 
#
# Total GULP energy -167289.626879 kJ/mol
# GULP energy per Si atom -5576.320896 kJ/mol
# Density = 2.160457 g / cm^3
# Si number density = 21.653857 Si / 1000 Ang^3
#
#
#
# Elastic Constant Matrix: (Units=GPa)
#
#
# Indices 1 2 3 4 5 6 
#
# 1 60.2121 -8.1541 -2.1548 0.0000 -16.6230 0.0000
# 2 -8.1541 100.2839 37.6592 0.0000 -13.9296 0.0000
# 3 -2.1548 37.6592 96.1335 0.0000 -28.5532 0.0000
# 4 0.0000 0.0000 0.0000 8.6608 0.0000 1.8807
# 5 -16.6230 -13.9296 -28.5532 0.0000 26.8365 0.0000
# 6 0.0000 0.0000 0.0000 1.8807 0.0000 29.5722
#
#
#
# Elastic Compliance Matrix: (Units=1/GPa)
#
#
# Indices 1 2 3 4 5 6 
#
# 1 0.023376 0.002716 0.006110 0.000000 0.022390 0.000000
# 2 0.002716 0.012064 -0.003370 0.000000 0.004358 0.000000
# 3 0.006110 -0.003370 0.018223 0.000000 0.021424 0.000000
# 4 0.000000 0.000000 0.000000 0.117079 0.000000 -0.007446
# 5 0.022390 0.004358 0.021424 0.000000 0.076188 0.000000
# 6 0.000000 0.000000 0.000000 -0.007446 0.000000 0.034289
#
#
# Mechanical properties :
#
#
# Convention : Reuss Voigt Hill
#
# Bulk Modulus (GPa) = 15.48614 34.59224 25.03919
# Shear Modulus (GPa) = 17.13323 28.29919 22.71621
#
# Velocity S-wave (km/s) = 2.81594 3.61901 3.24243
# Velocity P-wave (km/s) = 4.21187 5.78557 5.06027
#
# Compressibility (1/GPa) = 0.06457389
#
# Stress axis : x y z
#
# Youngs Moduli (GPa) = 42.77921 82.89403 54.87679
#
# Poissons Ratio (x) = -0.22516 -0.33531
# Poissons Ratio (y) = -0.11620 0.18496
# Poissons Ratio (z) = -0.26139 0.27939
#
# Static dielectric constant tensor:
#      x y z
#    x 1.819310 0.000000 0.020650 
#    y 0.000000 1.808860 0.000000 
#    z 0.020650 0.000000 1.897210 
# 
# From -- ./inp_files/96069.got.cif
#   From: 2010.05.17/outbox.cif.g08.bks.cpg/sg13_49_cif.got.tgz:96069.got - 2010.06.03 16:44:36.
