data_PCOD9230980
_publ_section_title
;
Structure prediction by ZEFSAII (Michael W. Deem and Ramdas Pophale) SiO2 
 PCOD9230980
Probable space group: P 2/C
;
_chemical_formula_sum "Si O2"
_cell_formula_units_Z 32
_cell_length_a 12.293357
_cell_length_b 11.731718
_cell_length_c 13.049752
_cell_angle_alpha 90.000000
_cell_angle_beta 120.456849
_cell_angle_gamma 90.000000
_cell_volume 1622.360090
_symmetry_space_group_name_H-M "P 2/C"
_symmetry_group_IT_number 13
_symmetry_cell_setting 'monoclinic'
loop_
_space_group_symop_operation_xyz
x,y,z
-x,y,1/2-z
-x,-y,-z
x,-y,1/2+z
loop_
_atom_site_type_symbol
_atom_site_label
_atom_site_fract_x
_atom_site_fract_y
_atom_site_fract_z
Si Si1 0.739849 0.282466 0.087641
Si Si2 0.532325 0.174487 0.876880
Si Si3 0.107531 0.438029 0.213087
Si Si4 0.099690 0.696320 0.205161
Si Si5 0.833118 0.923414 0.773292
Si Si6 0.285279 0.863091 0.379949
Si Si7 0.638078 0.061076 0.365217
Si Si8 0.967636 0.236596 0.044770
O O1 0.769374 0.393742 0.168427
O O2 0.773311 0.175887 0.175675
O O3 0.839202 0.270791 0.041560
O O4 0.600571 0.266122 0.979386
O O5 0.500000 0.222104 0.750000
O O6 0.412514 0.119489 0.875553
O O7 0.625413 0.068720 0.899209
O O8 0.115165 0.565708 0.176324
O O9 0.064608 0.341290 0.112590
O O10 0.000000 0.436396 0.250000
O O11 0.227178 0.745443 0.313486
O O12 0.000000 0.700092 0.250000
O O13 0.057107 0.770723 0.087427
O O14 0.746367 0.933133 0.832402
O O15 0.969533 0.875464 0.873845
O O16 0.815350 0.039224 0.700404
O O17 0.322118 0.867257 0.516331
O O18 0.500000 0.089415 0.250000
#
# Coordination Sequence:
#
# PCOD9230980 Si02
#       8
#     4   4   4   4   4   4   4   4
#     4  10  20  38  62  85 113 153 199 240 286 339
#     4  11  20  36  58  83 112 155 200 232 277 347
#     4   8  18  38  61  82 109 152 198 239 285 348
#     4  11  23  38  56  85 120 151 190 240 299 341
#     4  11  21  36  56  86 118 147 193 234 287 342
#     4  12  23  36  55  85 120 153 187 238 291 349
#     4  11  21  36  57  80 113 155 195 229 278 344
#     4  10  21  37  61  86 113 156 196 239 285 346
#
# _framework density 19.724352
#
# number of rings (size 3 to 8) (size 9 to 14) (size 15 to 20)
#    0.000    1.500    3.750    4.125    0.000    1.500 
#    0.000    0.625    0.000    0.750    0.000    0.000 
#    0.000    0.000    0.000    0.000    0.000    0.000 
#
# Total GULP energy -178649.747677 kJ/mol
# GULP energy per Si atom -5582.804615 kJ/mol
# Density = 1.967946 g / cm^3
# Si number density = 19.724352 Si / 1000 Ang^3
#
#
#
# Elastic Constant Matrix: (Units=GPa)
#
#
# Indices 1 2 3 4 5 6 
#
# 1 21.5577 0.4580 7.6845 0.0000 -6.6468 0.0000
# 2 0.4580 42.6633 13.8736 0.0000 13.1726 0.0000
# 3 7.6845 13.8736 117.4498 0.0000 9.1838 0.0000
# 4 0.0000 0.0000 0.0000 16.3884 0.0000 1.3594
# 5 -6.6468 13.1726 9.1838 0.0000 31.2890 0.0000
# 6 0.0000 0.0000 0.0000 1.3594 0.0000 15.3567
#
#
#
# Elastic Compliance Matrix: (Units=1/GPa)
#
#
# Indices 1 2 3 4 5 6 
#
# 1 0.052150 -0.003476 -0.004076 0.000000 0.013738 0.000000
# 2 -0.003476 0.027822 -0.002134 0.000000 -0.011825 0.000000
# 3 -0.004076 -0.002134 0.009243 0.000000 -0.002680 0.000000
# 4 0.000000 0.000000 0.000000 0.061470 0.000000 -0.005442
# 5 0.013738 -0.011825 -0.002680 0.000000 0.040643 0.000000
# 6 0.000000 0.000000 0.000000 -0.005442 0.000000 0.065600
#
#
# Mechanical properties :
#
#
# Convention : Reuss Voigt Hill
#
# Bulk Modulus (GPa) = 14.31810 25.07810 19.69810
# Shear Modulus (GPa) = 16.69001 23.25046 19.97023
#
# Velocity S-wave (km/s) = 2.91204 3.43705 3.18538
# Velocity P-wave (km/s) = 4.31063 5.33788 4.85152
#
# Compressibility (1/GPa) = 0.06984169
#
# Stress axis : x y z
#
# Youngs Moduli (GPa) = 19.17557 35.94312 108.19445
#
# Poissons Ratio (x) = 0.12495 0.44096
# Poissons Ratio (y) = 0.06666 0.23092
# Poissons Ratio (z) = 0.07815 0.07671
#
# Static dielectric constant tensor:
#      x y z
#    x 1.768260 0.000000 -0.007060 
#    y 0.000000 1.695400 0.000000 
#    z -0.007060 0.000000 1.710530 
# 
# From -- ./inp_files/34185.got.cif
#   From: 2010.05.17/outbox.cif.g08.bks.cpg/sg13_18_cif.got.tgz:34185.got - 2010.06.03 16:44:36.
