data_PCOD9230540
_publ_section_title
;
Structure prediction by ZEFSAII (Michael W. Deem and Ramdas Pophale) SiO2 
 PCOD9230540
Probable space group: P 2/C
;
_chemical_formula_sum "Si O2"
_cell_formula_units_Z 28
_cell_length_a 5.802115
_cell_length_b 13.666747
_cell_length_c 18.846198
_cell_angle_alpha 90.000000
_cell_angle_beta 106.472393
_cell_angle_gamma 90.000000
_cell_volume 1433.092196
_symmetry_space_group_name_H-M "P 2/C"
_symmetry_group_IT_number 13
_symmetry_cell_setting 'monoclinic'
loop_
_space_group_symop_operation_xyz
x,y,z
-x,y,1/2-z
-x,-y,-z
x,-y,1/2+z
loop_
_atom_site_type_symbol
_atom_site_label
_atom_site_fract_x
_atom_site_fract_y
_atom_site_fract_z
Si Si1 0.533824 0.351589 0.548380
Si Si2 0.021456 0.894790 0.168454
Si Si3 0.124704 0.468243 0.438702
Si Si4 0.755346 0.014977 0.936620
Si Si5 0.702981 0.698152 0.320602
Si Si6 0.785743 0.524199 0.787053
Si Si7 0.600162 0.139270 0.525681
O O1 0.329701 0.391188 0.477261
O O2 0.728850 0.437211 0.577892
O O3 0.411079 0.324120 0.612605
O O4 0.644058 0.253874 0.524314
O O5 0.205622 0.965898 0.142763
O O6 0.098840 0.781962 0.163250
O O7 0.000000 0.913675 0.250000
O O8 0.779027 0.903889 0.101366
O O9 0.000000 0.500000 0.500000
O O10 0.906630 0.435675 0.369525
O O11 0.653047 0.115151 0.960623
O O12 0.608644 0.921996 0.953469
O O13 0.000000 0.000000 0.000000
O O14 0.500000 0.738292 0.250000
O O15 0.781380 0.593765 0.295917
O O16 0.500000 0.551002 0.750000
O O17 0.000000 0.548144 0.750000
#
# Coordination Sequence:
#
# PCOD9230540 Si02
#       7
#     4   4   4   4   4   4   4
#     4  11  22  36  60  86 130 159 213 261 310 371
#     4  11  21  32  54  88 128 156 189 239 308 386
#     4  11  23  38  57  91 124 162 210 265 313 364
#     4   9  20  36  56  81 117 151 202 238 295 367
#     4  11  20  34  54  87 128 161 192 235 317 398
#     4  11  23  39  59  83 124 173 210 258 318 386
#     4  10  20  37  57  84 117 161 200 249 298 369
#
# _framework density 19.538169
#
# number of rings (size 3 to 8) (size 9 to 14) (size 15 to 20)
#    0.000    1.429    2.857    3.857    2.000    0.000 
#    0.000    0.000    0.000    0.000    0.000   24.000 
#    0.000    0.000    0.000    0.000    0.000    0.000 
#
# Total GULP energy -156029.315862 kJ/mol
# GULP energy per Si atom -5572.475567 kJ/mol
# Density = 1.949370 g / cm^3
# Si number density = 19.538169 Si / 1000 Ang^3
#
#
#
# Elastic Constant Matrix: (Units=GPa)
#
#
# Indices 1 2 3 4 5 6 
#
# 1 84.4940 11.2724 50.1766 0.0000 1.3463 0.0000
# 2 11.2724 55.3527 31.5420 0.0000 -5.8729 0.0000
# 3 50.1766 31.5420 113.1136 0.0000 -6.9128 0.0000
# 4 0.0000 0.0000 0.0000 18.8640 0.0000 5.3227
# 5 1.3463 -5.8729 -6.9128 0.0000 51.0025 0.0000
# 6 0.0000 0.0000 0.0000 5.3227 0.0000 23.9914
#
#
#
# Elastic Compliance Matrix: (Units=1/GPa)
#
#
# Indices 1 2 3 4 5 6 
#
# 1 0.016200 0.000832 -0.007501 0.000000 -0.001348 0.000000
# 2 0.000832 0.021665 -0.006311 0.000000 0.001617 0.000000
# 3 -0.007501 -0.006311 0.014012 0.000000 0.001370 0.000000
# 4 0.000000 0.000000 0.000000 0.056551 0.000000 -0.012546
# 5 -0.001348 0.001617 0.001370 0.000000 0.020014 0.000000
# 6 0.000000 0.000000 0.000000 -0.012546 0.000000 0.044465
#
#
# Mechanical properties :
#
#
# Convention : Reuss Voigt Hill
#
# Bulk Modulus (GPa) = 38.58624 48.77139 43.67881
# Shear Modulus (GPa) = 24.09571 29.43619 26.76595
#
# Velocity S-wave (km/s) = 3.51560 3.88570 3.70527
# Velocity P-wave (km/s) = 6.02256 6.71922 6.38041
#
# Compressibility (1/GPa) = 0.02591598
#
# Stress axis : x y z
#
# Youngs Moduli (GPa) = 61.72891 46.15814 71.36934
#
# Poissons Ratio (x) = -0.03840 0.53531
# Poissons Ratio (y) = -0.05136 0.45045
# Poissons Ratio (z) = 0.46300 0.29133
#
# Static dielectric constant tensor:
#      x y z
#    x 1.824700 0.000000 0.024110 
#    y 0.000000 1.696110 0.000000 
#    z 0.024110 0.000000 1.752120 
# 
# From -- ./inp_files/61425.got.cif
#   From: 2010.05.17/outbox.cif.g08.bks.cpg/sg13_31_cif.got.tgz:61425.got - 2010.06.03 16:44:36.
