data_PCOD9230610
_publ_section_title
;
Structure prediction by ZEFSAII (Michael W. Deem and Ramdas Pophale) SiO2 
 PCOD9230610
Probable space group: P 2/C
;
_chemical_formula_sum "Si O2"
_cell_formula_units_Z 26
_cell_length_a 19.279041
_cell_length_b 6.482826
_cell_length_c 29.060025
_cell_angle_alpha 90.000000
_cell_angle_beta 160.700210
_cell_angle_gamma 90.000000
_cell_volume 1200.415533
_symmetry_space_group_name_H-M "P 2/C"
_symmetry_group_IT_number 13
_symmetry_cell_setting 'monoclinic'
loop_
_space_group_symop_operation_xyz
x,y,z
-x,y,1/2-z
-x,-y,-z
x,-y,1/2+z
loop_
_atom_site_type_symbol
_atom_site_label
_atom_site_fract_x
_atom_site_fract_y
_atom_site_fract_z
Si Si1 0.000000 0.548804 0.750000
Si Si2 0.718423 0.509032 0.408823
Si Si3 0.545629 0.134230 0.865152
Si Si4 0.729763 0.783449 0.135847
Si Si5 0.850003 0.114510 0.940963
Si Si6 0.917656 0.119426 0.576514
Si Si7 0.400168 0.825429 0.003040
O O1 0.878271 0.397153 0.709159
O O2 0.810761 0.699415 0.616110
O O3 0.500000 0.425064 0.250000
O O4 0.646753 0.665499 0.404377
O O5 0.833653 0.640923 0.440852
O O6 0.869590 0.343478 0.526065
O O7 0.377536 0.062114 0.722389
O O8 0.462584 0.177383 0.864287
O O9 0.717369 0.957111 0.979804
O O10 0.471566 0.275154 0.959107
O O11 0.878661 0.901737 0.265290
O O12 0.658722 0.945893 0.052284
O O13 0.911916 0.025123 0.028734
O O14 0.000000 0.000000 0.000000
#
# Coordination Sequence:
#
# PCOD9230610 Si02
#       7
#     2   4   4   4   4   4   4
#     4  12  22  42  66  90 122 160 206 256 310 370
#     4   9  19  35  57  84 115 152 195 242 296 355
#     4  10  20  37  60  84 115 157 200 244 301 361
#     4  11  25  41  63  94 123 162 209 252 313 374
#     4  10  21  36  55  85 119 154 197 246 301 360
#     4  11  20  37  60  85 117 155 199 245 297 359
#     4  11  24  43  64  90 126 161 203 260 310 368
#
# _framework density 21.659167
#
# number of rings (size 3 to 8) (size 9 to 14) (size 15 to 20)
#    0.000    1.538    0.000    6.923    0.000    1.846 
#    0.000    4.615    0.000    0.000    0.000    0.000 
#    0.000    0.000    0.000    0.000    0.000    0.000 
#
# Total GULP energy -144998.425534 kJ/mol
# GULP energy per Si atom -5576.862521 kJ/mol
# Density = 2.160987 g / cm^3
# Si number density = 21.659167 Si / 1000 Ang^3
#
#
#
# Elastic Constant Matrix: (Units=GPa)
#
#
# Indices 1 2 3 4 5 6 
#
# 1 78.0455 -2.1856 -11.4800 0.0000 -8.0184 0.0000
# 2 -2.1856 29.7936 -7.6148 0.0000 3.3135 0.0000
# 3 -11.4800 -7.6148 55.9176 0.0000 -14.3745 0.0000
# 4 0.0000 0.0000 0.0000 27.4447 0.0000 4.4449
# 5 -8.0184 3.3135 -14.3745 0.0000 40.1485 0.0000
# 6 0.0000 0.0000 0.0000 4.4449 0.0000 4.3617
#
#
#
# Elastic Compliance Matrix: (Units=1/GPa)
#
#
# Indices 1 2 3 4 5 6 
#
# 1 0.013889 0.001616 0.004131 0.000000 0.004119 0.000000
# 2 0.001616 0.035024 0.004891 0.000000 -0.000816 0.000000
# 3 0.004131 0.004891 0.021483 0.000000 0.008113 0.000000
# 4 0.000000 0.000000 0.000000 0.043640 0.000000 -0.044472
# 5 0.004119 -0.000816 0.008113 0.000000 0.028702 0.000000
# 6 0.000000 0.000000 0.000000 -0.044472 0.000000 0.274589
#
#
# Mechanical properties :
#
#
# Convention : Reuss Voigt Hill
#
# Bulk Modulus (GPa) = 10.90834 13.46621 12.18727
# Shear Modulus (GPa) = 11.72036 26.72679 19.22357
#
# Velocity S-wave (km/s) = 2.32874 3.51660 2.98241
# Velocity P-wave (km/s) = 3.50400 4.76650 4.18315
#
# Compressibility (1/GPa) = 0.09167301
#
# Stress axis : x y z
#
# Youngs Moduli (GPa) = 71.99886 28.55199 46.54815
#
# Poissons Ratio (x) = -0.04615 -0.19227
# Poissons Ratio (y) = -0.11638 -0.22769
# Poissons Ratio (z) = -0.29739 -0.13966
#
# Static dielectric constant tensor:
#      x y z
#    x 1.898550 0.000000 0.006960 
#    y 0.000000 1.863780 0.000000 
#    z 0.006960 0.000000 1.816670 
# 
# From -- ./inp_files/97466.got.cif
#   From: 2010.05.17/outbox.cif.g08.bks.cpg/sg13_49_cif.got.tgz:97466.got - 2010.06.03 16:44:36.
