data_PCOD9230822
_publ_section_title
;
Structure prediction by ZEFSAII (Michael W. Deem and Ramdas Pophale) SiO2 
 PCOD9230822
Probable space group: P 2/C
;
_chemical_formula_sum "Si O2"
_cell_formula_units_Z 26
_cell_length_a 5.285111
_cell_length_b 11.806663
_cell_length_c 18.471172
_cell_angle_alpha 90.000000
_cell_angle_beta 75.600002
_cell_angle_gamma 90.000000
_cell_volume 1116.381552
_symmetry_space_group_name_H-M "P 2/C"
_symmetry_group_IT_number 13
_symmetry_cell_setting 'monoclinic'
loop_
_space_group_symop_operation_xyz
x,y,z
-x,y,1/2-z
-x,-y,-z
x,-y,1/2+z
loop_
_atom_site_type_symbol
_atom_site_label
_atom_site_fract_x
_atom_site_fract_y
_atom_site_fract_z
Si Si1 0.788049 0.116633 0.495641
Si Si2 0.768507 0.830321 0.633616
Si Si3 0.000000 0.021743 0.250000
Si Si4 0.203224 0.596522 0.795630
Si Si5 0.304272 0.643456 0.472210
Si Si6 0.855398 0.564725 0.411293
Si Si7 0.413878 0.987551 0.121935
O O1 0.656295 0.238386 0.489425
O O2 0.721288 0.015859 0.444590
O O3 0.083302 0.142869 0.451803
O O4 0.671720 0.082332 0.581870
O O5 0.766421 0.697904 0.648868
O O6 0.490143 0.888698 0.646879
O O7 0.897736 0.898801 0.691638
O O8 0.779050 0.944087 0.303238
O O9 0.500000 0.570613 0.750000
O O10 0.000000 0.641966 0.750000
O O11 0.043334 0.490965 0.838663
O O12 0.574900 0.616905 0.411526
O O13 0.231806 0.540727 0.531038
O O14 0.047700 0.649609 0.440134
#
# Coordination Sequence:
#
# PCOD9230822 Si02
#       7
#     4   4   2   4   4   4   4
#     4  10  22  38  60  94 121 160 215 258 317 367
#     4  11  21  36  60  90 125 159 203 262 318 375
#     4  10  20  38  54  86 122 160 206 244 316 382
#     4  12  24  38  64  94 129 165 205 261 326 379
#     4  10  21  39  64  87 123 160 206 259 309 369
#     4  10  22  39  61  91 120 162 204 257 312 369
#     4  10  22  37  61  88 128 163 203 264 311 379
#
# _framework density 23.289527
#
# number of rings (size 3 to 8) (size 9 to 14) (size 15 to 20)
#    0.000    1.538    2.308    2.769    4.308    1.231 
#    0.000    0.000    5.077    0.000    0.000    0.000 
#    0.000    0.000    0.000    0.000    0.000    0.000 
#
# Total GULP energy -144954.653091 kJ/mol
# GULP energy per Si atom -5575.178965 kJ/mol
# Density = 2.323652 g / cm^3
# Si number density = 23.289527 Si / 1000 Ang^3
#
#
#
# Elastic Constant Matrix: (Units=GPa)
#
#
# Indices 1 2 3 4 5 6 
#
# 1 96.9342 24.2797 55.5488 0.0000 -36.3761 0.0000
# 2 24.2797 34.7219 27.7226 0.0000 -6.3297 0.0000
# 3 55.5488 27.7226 140.7004 0.0000 -50.1455 0.0000
# 4 0.0000 0.0000 0.0000 15.8289 0.0000 0.5536
# 5 -36.3761 -6.3297 -50.1455 0.0000 48.5325 0.0000
# 6 0.0000 0.0000 0.0000 0.5536 0.0000 19.1158
#
#
#
# Elastic Compliance Matrix: (Units=1/GPa)
#
#
# Indices 1 2 3 4 5 6 
#
# 1 0.017249 -0.009121 -0.001312 0.000000 0.010383 0.000000
# 2 -0.009121 0.039487 -0.007567 0.000000 -0.009505 0.000000
# 3 -0.001312 -0.007567 0.013318 0.000000 0.011791 0.000000
# 4 0.000000 0.000000 0.000000 0.063239 0.000000 -0.001831
# 5 0.010383 -0.009505 0.011791 0.000000 0.039330 0.000000
# 6 0.000000 0.000000 0.000000 -0.001831 0.000000 0.052366
#
#
# Mechanical properties :
#
#
# Convention : Reuss Voigt Hill
#
# Bulk Modulus (GPa) = 29.36469 54.16210 41.76340
# Shear Modulus (GPa) = 18.35923 27.68247 23.02085
#
# Velocity S-wave (km/s) = 2.81072 3.45138 3.14739
# Velocity P-wave (km/s) = 4.81347 6.26013 5.58384
#
# Compressibility (1/GPa) = 0.03405450
#
# Stress axis : x y z
#
# Youngs Moduli (GPa) = 57.97277 25.32469 75.08375
#
# Poissons Ratio (x) = 0.23099 0.09854
# Poissons Ratio (y) = 0.52879 0.56813
# Poissons Ratio (z) = 0.07608 0.19162
#
# Static dielectric constant tensor:
#      x y z
#    x 1.942640 0.000000 0.016370 
#    y 0.000000 1.917390 0.000000 
#    z 0.016370 0.000000 1.934050 
# 
# From -- ./inp_files/73526.got.cif
#   From: 2010.05.17/outbox.cif.g08.bks.cpg/sg13_37_cif.got.tgz:73526.got - 2010.06.03 16:44:36.
