data_PCOD9230906
_publ_section_title
;
Structure prediction by ZEFSAII (Michael W. Deem and Ramdas Pophale) SiO2 
 PCOD9230906
Probable space group: P 2/C
;
_chemical_formula_sum "Si O2"
_cell_formula_units_Z 20
_cell_length_a 6.952580
_cell_length_b 16.690414
_cell_length_c 10.260786
_cell_angle_alpha 90.000000
_cell_angle_beta 110.741013
_cell_angle_gamma 90.000000
_cell_volume 1113.509549
_symmetry_space_group_name_H-M "P 2/C"
_symmetry_group_IT_number 13
_symmetry_cell_setting 'monoclinic'
loop_
_space_group_symop_operation_xyz
x,y,z
-x,y,1/2-z
-x,-y,-z
x,-y,1/2+z
loop_
_atom_site_type_symbol
_atom_site_label
_atom_site_fract_x
_atom_site_fract_y
_atom_site_fract_z
Si Si1 0.856354 0.985931 0.091701
Si Si2 0.883467 0.393926 0.588492
Si Si3 0.837037 0.573975 0.592990
Si Si4 0.475817 0.114495 0.400632
Si Si5 0.497709 0.300550 0.093588
O O1 0.000000 0.966096 0.250000
O O2 0.719601 0.064049 0.095849
O O3 0.683338 0.919727 0.016397
O O4 0.000000 0.000000 0.000000
O O5 0.771827 0.480693 0.574596
O O6 0.724237 0.325653 0.512602
O O7 0.000000 0.377118 0.750000
O O8 0.047221 0.406181 0.512883
O O9 0.658666 0.637074 0.573438
O O10 0.000000 0.580929 0.750000
O O11 0.500000 0.103661 0.250000
O O12 0.451173 0.208419 0.422864
O O13 0.500000 0.310534 0.250000
#
# Coordination Sequence:
#
# PCOD9230906 Si02
#       5
#     4   4   4   4   4
#     4  11  22  41  65  88 120 159 190 237 298 353
#     4  10  22  38  58  85 121 155 202 244 287 345
#     4  10  20  38  60  85 115 162 202 237 288 351
#     4  10  23  39  61  95 119 148 203 241 285 365
#     4  11  22  38  61  89 121 154 194 246 296 342
#
# _framework density 17.961228999999999
#
# number of rings (size 3 to 8) (size 9 to 14) (size 15 to 20)
#    0.000    1.600    4.000    0.600    0.000    4.000 
#    0.000    2.000    0.000    0.000    0.000    0.000 
#    0.000    0.000    0.000    0.000    0.000    0.000 
#
# Total GULP energy -111674.156027 kJ/mol
# GULP energy per Si atom -5583.707801 kJ/mol
# Density = 1.792035 g / cm^3
# Si number density = 17.961229 Si / 1000 Ang^3
#
#
#
# Elastic Constant Matrix: (Units=GPa)
#
#
# Indices 1 2 3 4 5 6 
#
# 1 77.4596 47.0145 39.4856 0.0000 1.2541 0.0000
# 2 47.0145 109.9065 41.2831 0.0000 1.4721 0.0000
# 3 39.4856 41.2831 137.3338 0.0000 7.5036 0.0000
# 4 0.0000 0.0000 0.0000 20.2060 0.0000 0.7534
# 5 1.2541 1.4721 7.5036 0.0000 29.9926 0.0000
# 6 0.0000 0.0000 0.0000 0.7534 0.0000 15.3818
#
#
#
# Elastic Compliance Matrix: (Units=1/GPa)
#
#
# Indices 1 2 3 4 5 6 
#
# 1 0.018718 -0.006744 -0.003376 0.000000 0.000393 0.000000
# 2 -0.006744 0.012689 -0.001882 0.000000 0.000130 0.000000
# 3 -0.003376 -0.001882 0.008927 0.000000 -0.002000 0.000000
# 4 0.000000 0.000000 0.000000 0.049581 0.000000 -0.002428
# 5 0.000393 0.000130 -0.002000 0.000000 0.033819 0.000000
# 6 0.000000 0.000000 0.000000 -0.002428 0.000000 0.065131
#
#
# Mechanical properties :
#
#
# Convention : Reuss Voigt Hill
#
# Bulk Modulus (GPa) = 61.23972 64.47404 62.85688
# Shear Modulus (GPa) = 22.90295 26.24386 24.57340
#
# Velocity S-wave (km/s) = 3.57477 3.82663 3.70284
# Velocity P-wave (km/s) = 7.15599 7.44972 7.30433
#
# Compressibility (1/GPa) = 0.01632927
#
# Stress axis : x y z
#
# Youngs Moduli (GPa) = 53.42509 78.80910 112.01652
#
# Poissons Ratio (x) = 0.53150 0.37815
# Poissons Ratio (y) = 0.36030 0.21086
# Poissons Ratio (z) = 0.18035 0.14835
#
# Static dielectric constant tensor:
#      x y z
#    x 1.595530 0.000000 0.005290 
#    y 0.000000 1.597970 0.000000 
#    z 0.005290 0.000000 1.595330 
# 
# From -- ./inp_files/9441.got.cif
#   From: 2010.05.17/outbox.cif.g08.bks.cpg/sg13_5_cif.got.tgz:9441.got - 2010.06.03 16:44:36.
