data_PCOD9230202
_publ_section_title
;
Structure prediction by ZEFSAII (Michael W. Deem and Ramdas Pophale) SiO2 
 PCOD9230202
Probable space group: P 2/C
;
_chemical_formula_sum "Si O2"
_cell_formula_units_Z 28
_cell_length_a 28.445936
_cell_length_b 9.767831
_cell_length_c 8.680174
_cell_angle_alpha 90.000000
_cell_angle_beta 139.721082
_cell_angle_gamma 90.000000
_cell_volume 1559.270443
_symmetry_space_group_name_H-M "P 2/C"
_symmetry_group_IT_number 13
_symmetry_cell_setting 'monoclinic'
loop_
_space_group_symop_operation_xyz
x,y,z
-x,y,1/2-z
-x,-y,-z
x,-y,1/2+z
loop_
_atom_site_type_symbol
_atom_site_label
_atom_site_fract_x
_atom_site_fract_y
_atom_site_fract_z
Si Si1 0.367232 0.847898 0.732828
Si Si2 0.790135 0.848932 0.290352
Si Si3 0.076977 0.347529 0.007776
Si Si4 0.632759 0.847865 0.396610
Si Si5 0.076976 0.652588 0.877169
Si Si6 0.790132 0.151176 0.160386
Si Si7 0.500010 0.347009 0.935798
O O1 0.287965 0.806325 0.472531
O O2 0.382914 0.000019 0.707318
O O3 0.365337 0.855836 0.913362
O O4 0.429060 0.740405 0.840158
O O5 0.855255 0.747547 0.410137
O O6 0.784902 0.854911 0.462290
O O7 0.805086 0.000072 0.262804
O O8 0.072401 0.353842 0.181034
O O9 0.144751 0.252601 0.133875
O O10 0.087203 0.500077 0.968094
O O11 0.000000 0.295378 0.750000
O O12 0.712020 0.806226 0.532668
O O13 0.570913 0.740402 0.194769
O O14 0.000000 0.704777 0.750000
O O15 0.500000 0.354096 0.750000
O O16 0.500000 0.500000 0.000000
#
# Coordination Sequence:
#
# PCOD9230202 Si02
#       7
#     4   4   4   4   4   4   4
#     4  10  20  36  57  80 106 139 177 217 262 314
#     4  10  21  36  55  81 108 138 176 218 263 312
#     4  10  21  36  55  78 106 140 178 217 262 314
#     4  10  20  36  57  80 106 139 177 217 262 314
#     4  10  21  36  55  78 106 140 178 217 262 314
#     4  10  21  36  55  81 108 138 176 218 263 312
#     4  10  23  38  54  80 110 140 177 218 262 310
#
# _framework density 17.957115000000002
#
# number of rings (size 3 to 8) (size 9 to 14) (size 15 to 20)
#    0.000    2.000    0.000    5.571    0.000    8.571 
#    0.000    8.571    0.000    0.000    0.000    0.000 
#    0.000    0.000    0.000    0.000    0.000    0.000 
#
# Total GULP energy -156364.447035 kJ/mol
# GULP energy per Si atom -5584.444537 kJ/mol
# Density = 1.791624 g / cm^3
# Si number density = 17.957115 Si / 1000 Ang^3
#
#
#
# Elastic Constant Matrix: (Units=GPa)
#
#
# Indices 1 2 3 4 5 6 
#
# 1 97.6159 80.2099 80.0616 0.0000 32.6967 0.0000
# 2 80.2099 109.3788 93.3387 0.0000 44.3020 0.0000
# 3 80.0616 93.3387 118.6687 0.0000 38.8000 0.0000
# 4 0.0000 0.0000 0.0000 63.1093 0.0000 28.7725
# 5 32.6967 44.3020 38.8000 0.0000 33.9883 0.0000
# 6 0.0000 0.0000 0.0000 28.7725 0.0000 54.4327
#
#
#
# Elastic Compliance Matrix: (Units=1/GPa)
#
#
# Indices 1 2 3 4 5 6 
#
# 1 0.028298 -0.013622 -0.008427 0.000000 0.000154 0.000000
# 2 -0.013622 0.043534 -0.017204 0.000000 -0.024000 0.000000
# 3 -0.008427 -0.017204 0.028180 0.000000 -0.001637 0.000000
# 4 0.000000 0.000000 0.000000 0.020877 0.000000 -0.011035
# 5 0.000154 -0.024000 -0.001637 0.000000 0.062426 0.000000
# 6 0.000000 0.000000 0.000000 -0.011035 0.000000 0.024204
#
#
# Mechanical properties :
#
#
# Convention : Reuss Voigt Hill
#
# Bulk Modulus (GPa) = 46.50245 92.54266 69.52256
# Shear Modulus (GPa) = 17.05356 35.10960 26.08158
#
# Velocity S-wave (km/s) = 3.08504 4.42655 3.81522
# Velocity P-wave (km/s) = 6.21631 8.81890 7.62940
#
# Compressibility (1/GPa) = 0.02150424
#
# Stress axis : x y z
#
# Youngs Moduli (GPa) = 35.33853 22.97044 35.48675
#
# Poissons Ratio (x) = 0.31291 0.29905
# Poissons Ratio (y) = 0.48139 0.61052
# Poissons Ratio (z) = 0.29780 0.39519
#
# Static dielectric constant tensor:
#      x y z
#    x 1.610060 0.000000 0.003020 
#    y 0.000000 1.581560 0.000000 
#    z 0.003020 0.000000 1.610940 
# 
# From -- ./inp_files/24892.got.cif
#   From: 2010.05.17/outbox.cif.g08.bks.cpg/sg13_13_cif.got.tgz:24892.got - 2010.06.03 16:44:36.
