data_PCOD9230888
_publ_section_title
;
Structure prediction by ZEFSAII (Michael W. Deem and Ramdas Pophale) SiO2 
 PCOD9230888
Probable space group: P 2/C
;
_chemical_formula_sum "Si O2"
_cell_formula_units_Z 18
_cell_length_a 8.285765
_cell_length_b 11.921058
_cell_length_c 10.328487
_cell_angle_alpha 90.000000
_cell_angle_beta 62.723670
_cell_angle_gamma 90.000000
_cell_volume 906.758024
_symmetry_space_group_name_H-M "P 2/C"
_symmetry_group_IT_number 13
_symmetry_cell_setting 'monoclinic'
loop_
_space_group_symop_operation_xyz
x,y,z
-x,y,1/2-z
-x,-y,-z
x,-y,1/2+z
loop_
_atom_site_type_symbol
_atom_site_label
_atom_site_fract_x
_atom_site_fract_y
_atom_site_fract_z
Si Si1 0.112211 0.385975 0.959521
Si Si2 0.356299 0.895873 0.698337
Si Si3 0.634464 0.861502 0.369306
Si Si4 0.500000 0.657626 0.250000
Si Si5 0.000000 0.240152 0.750000
Si Si6 0.000000 0.239959 0.250000
O O1 0.328003 0.408951 0.867056
O O2 0.052461 0.314702 0.855117
O O3 0.074582 0.315862 0.104215
O O4 0.000000 0.500000 0.000000
O O5 0.500000 0.848945 0.750000
O O6 0.468646 0.886599 0.524472
O O7 0.165316 0.834227 0.747910
O O8 0.332485 0.029347 0.732422
O O9 0.578309 0.745427 0.324540
O O10 0.830892 0.836225 0.356941
#
# Coordination Sequence:
#
# PCOD9230888 Si02
#       6
#     4   4   4   2   2   2
#     4  11  24  45  65  94 125 172 227 276 325 381
#     4  11  22  37  63  99 136 166 213 263 323 393
#     4  10  20  38  59  93 127 174 206 248 329 404
#     4  10  20  44  64  86 130 170 202 264 330 390
#     4  10  22  40  66  86 130 174 216 260 336 394
#     4  12  24  42  68 102 136 164 222 282 320 372
#
# _framework density 19.850940000000001
#
# number of rings (size 3 to 8) (size 9 to 14) (size 15 to 20)
#    0.000    1.333    3.333    2.667    0.000    0.000 
#    6.000   10.000    0.000    0.000    0.000    0.000 
#    0.000    0.000    0.000    0.000    0.000    0.000 
#
# Total GULP energy -100327.154575 kJ/mol
# GULP energy per Si atom -5573.730810 kJ/mol
# Density = 1.980576 g / cm^3
# Si number density = 19.850940 Si / 1000 Ang^3
#
#
#
# Elastic Constant Matrix: (Units=GPa)
#
#
# Indices 1 2 3 4 5 6 
#
# 1 162.3848 56.7119 38.5356 0.0000 -30.5982 0.0000
# 2 56.7119 80.6214 22.0481 0.0000 -20.7936 0.0000
# 3 38.5356 22.0481 73.0265 0.0000 -15.1371 0.0000
# 4 0.0000 0.0000 0.0000 -19.2598 0.0000 10.4190
# 5 -30.5982 -20.7936 -15.1371 0.0000 46.6333 0.0000
# 6 0.0000 0.0000 0.0000 10.4190 0.0000 34.1511
#
#
#
# Elastic Compliance Matrix: (Units=1/GPa)
#
#
# Indices 1 2 3 4 5 6 
#
# 1 0.009048 -0.004882 -0.002703 0.000000 0.002882 0.000000
# 2 -0.004882 0.017359 -0.001849 0.000000 0.003937 0.000000
# 3 -0.002703 -0.001849 0.016232 0.000000 0.002671 0.000000
# 4 0.000000 0.000000 0.000000 -0.044566 0.000000 0.013596
# 5 0.002882 0.003937 0.002671 0.000000 0.025958 0.000000
# 6 0.000000 0.000000 0.000000 0.013596 0.000000 0.025134
#
#
# Mechanical properties :
#
#
# Convention : Reuss Voigt Hill
#
# Bulk Modulus (GPa) = 42.06808 61.18043 51.62426
# Shear Modulus (GPa) = 65.82933 25.55408 45.69170
#
# Velocity S-wave (km/s) = 5.76488 3.59179 4.80285
# Velocity P-wave (km/s) = 8.09628 6.93456 7.53783
#
# Compressibility (1/GPa) = 0.02377099
#
# Stress axis : x y z
#
# Youngs Moduli (GPa) = 110.52455 57.60801 61.60732
#
# Poissons Ratio (x) = 0.28123 0.16653
# Poissons Ratio (y) = 0.53956 0.11390
# Poissons Ratio (z) = 0.29875 0.10650
#
# Static dielectric constant tensor:
#      x y z
#    x 1.728800 0.000000 -0.008300 
#    y 0.000000 1.711880 0.000000 
#    z -0.008300 0.000000 1.710810 
# 
# From -- ./inp_files/11636.got.cif
#   From: 2010.05.17/outbox.cif.g08.bks.cpg/sg13_6_cif.got.tgz:11636.got - 2010.06.03 16:44:36.
