data_PCOD9230758
_publ_section_title
;
Structure prediction by ZEFSAII (Michael W. Deem and Ramdas Pophale) SiO2 
 PCOD9230758
Probable space group: P 2/C
;
_chemical_formula_sum "Si O2"
_cell_formula_units_Z 26
_cell_length_a 15.946802
_cell_length_b 9.740796
_cell_length_c 14.909353
_cell_angle_alpha 90.000000
_cell_angle_beta 34.417655
_cell_angle_gamma 90.000000
_cell_volume 1309.017069
_symmetry_space_group_name_H-M "P 2/C"
_symmetry_group_IT_number 13
_symmetry_cell_setting 'monoclinic'
loop_
_space_group_symop_operation_xyz
x,y,z
-x,y,1/2-z
-x,-y,-z
x,-y,1/2+z
loop_
_atom_site_type_symbol
_atom_site_label
_atom_site_fract_x
_atom_site_fract_y
_atom_site_fract_z
Si Si1 0.860156 0.221168 0.662492
Si Si2 0.834946 0.327981 0.884435
Si Si3 0.383293 0.438351 0.969039
Si Si4 0.284474 0.498251 0.256903
Si Si5 0.186006 0.780759 0.914994
Si Si6 0.612718 0.014740 0.817834
Si Si7 0.500000 0.196780 0.750000
O O1 0.829346 0.257137 0.793148
O O2 0.811022 0.362803 0.658179
O O3 0.753477 0.101984 0.725490
O O4 0.031911 0.181157 0.503951
O O5 0.000000 0.392294 0.750000
O O6 0.703986 0.439510 0.003828
O O7 0.824120 0.211133 0.969128
O O8 0.554245 0.472027 0.842893
O O9 0.389397 0.302471 0.901292
O O10 0.306980 0.438849 0.135400
O O11 0.204117 0.380050 0.381566
O O12 0.327117 0.864441 0.758658
O O13 0.555778 0.097313 0.780690
O O14 0.500000 0.000000 0.000000
#
# Coordination Sequence:
#
# PCOD9230758 Si02
#       7
#     4   4   4   4   4   4   2
#     4  10  22  45  64  90 135 163 212 271 326 387
#     4   9  21  38  65  95 128 165 213 263 325 395
#     4  10  20  37  63  95 133 160 211 274 323 377
#     4  10  20  38  68  97 125 166 213 273 331 382
#     4  11  23  40  67  96 122 174 214 260 330 389
#     4  12  28  43  65  92 133 175 223 271 321 389
#     4  12  24  42  62  94 130 172 218 274 326 392
#
# _framework density 19.862231999999999
#
# number of rings (size 3 to 8) (size 9 to 14) (size 15 to 20)
#    0.000    1.538    1.538    2.769    6.462    0.000 
#    0.000    0.000    0.000    0.000    0.000    0.000 
#    0.000    0.000    0.000    0.000    0.000    0.000 
#
# Total GULP energy -145051.235068 kJ/mol
# GULP energy per Si atom -5578.893656 kJ/mol
# Density = 1.981702 g / cm^3
# Si number density = 19.862232 Si / 1000 Ang^3
#
#
#
# Elastic Constant Matrix: (Units=GPa)
#
#
# Indices 1 2 3 4 5 6 
#
# 1 101.3136 9.8131 19.8820 0.0000 -2.3186 0.0000
# 2 9.8131 39.8176 8.0449 0.0000 3.5306 0.0000
# 3 19.8820 8.0449 57.6037 0.0000 2.6407 0.0000
# 4 0.0000 0.0000 0.0000 25.7329 0.0000 -4.5219
# 5 -2.3186 3.5306 2.6407 0.0000 15.9130 0.0000
# 6 0.0000 0.0000 0.0000 -4.5219 0.0000 24.0933
#
#
#
# Elastic Compliance Matrix: (Units=1/GPa)
#
#
# Indices 1 2 3 4 5 6 
#
# 1 0.010841 -0.002188 -0.003558 0.000000 0.002656 0.000000
# 2 -0.002188 0.026715 -0.002710 0.000000 -0.005796 0.000000
# 3 -0.003558 -0.002710 0.019108 0.000000 -0.003088 0.000000
# 4 0.000000 0.000000 0.000000 0.040186 0.000000 0.007542
# 5 0.002656 -0.005796 -0.003088 0.000000 0.065027 0.000000
# 6 0.000000 0.000000 0.000000 0.007542 0.000000 0.042921
#
#
# Mechanical properties :
#
#
# Convention : Reuss Voigt Hill
#
# Bulk Modulus (GPa) = 25.15604 30.46833 27.81219
# Shear Modulus (GPa) = 21.28000 23.88083 22.58041
#
# Velocity S-wave (km/s) = 3.27675 3.47122 3.37538
# Velocity P-wave (km/s) = 5.19700 5.60704 5.40591
#
# Compressibility (1/GPa) = 0.03975188
#
# Stress axis : x y z
#
# Youngs Moduli (GPa) = 92.23965 37.43159 52.33381
#
# Poissons Ratio (x) = 0.08192 0.18620
# Poissons Ratio (y) = 0.20186 0.14183
# Poissons Ratio (z) = 0.32819 0.10144
#
# Static dielectric constant tensor:
#      x y z
#    x 1.734800 0.000000 0.020270 
#    y 0.000000 1.686540 0.000000 
#    z 0.020270 0.000000 1.711610 
# 
# From -- ./inp_files/53315.got.cif
#   From: 2010.05.17/outbox.cif.g08.bks.cpg/sg13_27_cif.got.tgz:53315.got - 2010.06.03 16:44:36.
