data_PCOD9230878
_publ_section_title
;
Structure prediction by ZEFSAII (Michael W. Deem and Ramdas Pophale) SiO2 
 PCOD9230878
Probable space group: P 2/C
;
_chemical_formula_sum "Si O2"
_cell_formula_units_Z 30
_cell_length_a 9.490682
_cell_length_b 11.303111
_cell_length_c 30.014560
_cell_angle_alpha 90.000000
_cell_angle_beta 149.800571
_cell_angle_gamma 90.000000
_cell_volume 1619.590296
_symmetry_space_group_name_H-M "P 2/C"
_symmetry_group_IT_number 13
_symmetry_cell_setting 'monoclinic'
loop_
_space_group_symop_operation_xyz
x,y,z
-x,y,1/2-z
-x,-y,-z
x,-y,1/2+z
loop_
_atom_site_type_symbol
_atom_site_label
_atom_site_fract_x
_atom_site_fract_y
_atom_site_fract_z
Si Si1 0.815852 0.723682 0.443196
Si Si2 0.696189 0.018525 0.893089
Si Si3 0.401855 0.648539 0.933426
Si Si4 0.753623 0.311835 0.256070
Si Si5 0.446815 0.192631 0.096225
Si Si6 0.293582 0.417919 0.499416
Si Si7 0.500000 0.883052 0.750000
Si Si8 0.318621 0.482267 0.662065
O O1 0.654738 0.841036 0.382672
O O2 0.729194 0.678946 0.468279
O O3 0.760353 0.611355 0.396930
O O4 0.144336 0.759219 0.530491
O O5 0.514126 0.942076 0.877986
O O6 0.646782 0.960297 0.830190
O O7 0.000000 0.000000 0.000000
O O8 0.519239 0.769913 0.945300
O O9 0.544710 0.540168 0.945900
O O10 0.068831 0.645282 0.839690
O O11 0.453140 0.631781 0.999858
O O12 0.675393 0.262039 0.186675
O O13 0.707394 0.206709 0.279969
O O14 0.527149 0.413623 0.204014
O O15 0.973090 0.458681 0.402278
O O16 0.500000 0.419786 0.750000
#
# Coordination Sequence:
#
# PCOD9230878 Si02
#       8
#     4   4   4   4   4   4   2   4
#     4  11  22  39  62  84 125 157 203 248 300 367
#     4   9  22  37  64  87 114 162 214 247 304 356
#     4  11  22  35  58  91 125 153 195 252 317 357
#     4  11  20  34  62  89 119 153 202 250 306 355
#     4  10  20  38  59  86 116 155 202 253 291 356
#     4  11  22  38  59  88 129 160 187 254 310 370
#     4  10  20  40  62  92 122 152 212 272 286 360
#     4  12  21  35  61  92 118 158 205 242 304 372
#
# _framework density 18.523202000000001
#
# number of rings (size 3 to 8) (size 9 to 14) (size 15 to 20)
#    0.000    1.333    4.667    1.600    4.667    0.000 
#    0.000    0.667    0.000    4.800    0.000    0.000 
#    0.000    0.000    0.000    0.000    0.000    0.000 
#
# Total GULP energy -167086.725742 kJ/mol
# GULP energy per Si atom -5569.557525 kJ/mol
# Density = 1.848104 g / cm^3
# Si number density = 18.523202 Si / 1000 Ang^3
#
#
#
# Elastic Constant Matrix: (Units=GPa)
#
#
# Indices 1 2 3 4 5 6 
#
# 1 87.0727 48.8358 13.2325 0.0000 -2.6517 0.0000
# 2 48.8358 99.2898 28.3297 0.0000 -5.1054 0.0000
# 3 13.2325 28.3297 66.7893 0.0000 2.4404 0.0000
# 4 0.0000 0.0000 0.0000 23.1233 0.0000 -4.0579
# 5 -2.6517 -5.1054 2.4404 0.0000 32.0401 0.0000
# 6 0.0000 0.0000 0.0000 -4.0579 0.0000 15.4144
#
#
#
# Elastic Compliance Matrix: (Units=1/GPa)
#
#
# Indices 1 2 3 4 5 6 
#
# 1 0.015862 -0.007852 0.000186 0.000000 0.000047 0.000000
# 2 -0.007852 0.015503 -0.005101 0.000000 0.002209 0.000000
# 3 0.000186 -0.005101 0.017176 0.000000 -0.002106 0.000000
# 4 0.000000 0.000000 0.000000 0.045341 0.000000 0.011936
# 5 0.000047 0.002209 -0.002106 0.000000 0.031727 0.000000
# 6 0.000000 0.000000 0.000000 0.011936 0.000000 0.068017
#
#
# Mechanical properties :
#
#
# Convention : Reuss Voigt Hill
#
# Bulk Modulus (GPa) = 43.46472 48.21642 45.84057
# Shear Modulus (GPa) = 22.04313 24.96581 23.50447
#
# Velocity S-wave (km/s) = 3.45342 3.67524 3.56606
# Velocity P-wave (km/s) = 6.27833 6.64053 6.46197
#
# Compressibility (1/GPa) = 0.02300716
#
# Stress axis : x y z
#
# Youngs Moduli (GPa) = 63.04403 64.50494 58.22082
#
# Poissons Ratio (x) = 0.50652 -0.01085
# Poissons Ratio (y) = 0.49505 0.29696
# Poissons Ratio (z) = -0.01175 0.32902
#
# Static dielectric constant tensor:
#      x y z
#    x 1.679160 0.000000 -0.034970 
#    y 0.000000 1.682290 0.000000 
#    z -0.034970 0.000000 1.685890 
# 
# From -- ./inp_files/96089.got.cif
#   From: 2010.05.17/outbox.cif.g08.bks.cpg/sg13_49_cif.got.tgz:96089.got - 2010.06.03 16:44:36.
