data_PCOD9230771
_publ_section_title
;
Structure prediction by ZEFSAII (Michael W. Deem and Ramdas Pophale) SiO2 
 PCOD9230771
Probable space group: P 2/C
;
_chemical_formula_sum "Si O2"
_cell_formula_units_Z 28
_cell_length_a 9.463097
_cell_length_b 14.617736
_cell_length_c 14.066449
_cell_angle_alpha 90.000000
_cell_angle_beta 51.113407
_cell_angle_gamma 90.000000
_cell_volume 1514.590289
_symmetry_space_group_name_H-M "P 2/C"
_symmetry_group_IT_number 13
_symmetry_cell_setting 'monoclinic'
loop_
_space_group_symop_operation_xyz
x,y,z
-x,y,1/2-z
-x,-y,-z
x,-y,1/2+z
loop_
_atom_site_type_symbol
_atom_site_label
_atom_site_fract_x
_atom_site_fract_y
_atom_site_fract_z
Si Si1 0.927788 0.085379 0.387478
Si Si2 0.490644 0.335736 0.102289
Si Si3 0.166348 0.291697 0.105595
Si Si4 0.500000 0.503491 0.750000
Si Si5 0.092305 0.726354 0.108917
Si Si6 0.823355 0.093388 0.032104
Si Si7 0.500000 0.805201 0.750000
Si Si8 0.880258 0.409807 0.562597
O O1 0.828548 0.183874 0.424592
O O2 0.000000 0.068075 0.250000
O O3 0.084771 0.087741 0.402256
O O4 0.816333 0.999436 0.475102
O O5 0.350983 0.329281 0.074930
O O6 0.502419 0.430507 0.155708
O O7 0.407153 0.263910 0.214945
O O8 0.694565 0.304272 0.986892
O O9 0.000000 0.300275 0.250000
O O10 0.125411 0.352474 0.031697
O O11 0.679427 0.442142 0.675549
O O12 0.000000 0.729307 0.250000
O O13 0.978371 0.653821 0.097117
O O14 0.077199 0.826526 0.068048
O O15 0.626014 0.131577 0.135178
O O16 0.000000 0.500000 0.500000
#
# Coordination Sequence:
#
# PCOD9230771 Si02
#       8
#     4   4   4   2   4   4   2   4
#     4  10  20  37  64  92 125 163 209 254 314 377
#     4  10  22  41  66  89 123 170 212 261 316 376
#     4  11  23  40  65  95 125 163 214 262 316 375
#     4  11  24  42  65  90 134 166 223 264 321 378
#     4  11  24  43  64  92 129 171 210 261 325 379
#     4  10  20  39  62  93 125 168 205 257 316 382
#     4   9  18  36  63  86 122 164 205 250 305 370
#     4  12  25  43  64  93 126 169 214 269 314 383
#
# _framework density 18.486847999999998
#
# number of rings (size 3 to 8) (size 9 to 14) (size 15 to 20)
#    0.000    1.429    2.857    3.000    4.000    2.286 
#    0.000   10.000    0.000    0.000    0.000    0.000 
#    0.000    0.000    0.000    0.000    0.000    0.000 
#
# Total GULP energy -156227.002567 kJ/mol
# GULP energy per Si atom -5579.535806 kJ/mol
# Density = 1.844477 g / cm^3
# Si number density = 18.486848 Si / 1000 Ang^3
#
#
#
# Elastic Constant Matrix: (Units=GPa)
#
#
# Indices 1 2 3 4 5 6 
#
# 1 99.8615 45.4112 51.6699 0.0000 11.6882 0.0000
# 2 45.4112 120.1372 65.3552 0.0000 6.9481 0.0000
# 3 51.6699 65.3552 108.5904 0.0000 11.9116 0.0000
# 4 0.0000 0.0000 0.0000 -383.1003 0.0000 -152.5452
# 5 11.6882 6.9481 11.9116 0.0000 40.3494 0.0000
# 6 0.0000 0.0000 0.0000 -152.5452 0.0000 -29.4027
#
#
#
# Elastic Compliance Matrix: (Units=1/GPa)
#
#
# Indices 1 2 3 4 5 6 
#
# 1 0.013928 -0.002473 -0.004902 0.000000 -0.002162 0.000000
# 2 -0.002473 0.012815 -0.006586 0.000000 0.000454 0.000000
# 3 -0.004902 -0.006586 0.015734 0.000000 -0.002091 0.000000
# 4 0.000000 0.000000 0.000000 0.002449 0.000000 -0.012706
# 5 -0.002162 0.000454 -0.002091 0.000000 0.025949 0.000000
# 6 0.000000 0.000000 0.000000 -0.012706 0.000000 0.031910
#
#
# Mechanical properties :
#
#
# Convention : Reuss Voigt Hill
#
# Bulk Modulus (GPa) = 68.69990 72.60687 70.65338
# Shear Modulus (GPa) = 36.88481 -63.35387 -13.23453
#
# Velocity S-wave (km/s) = 4.47160 -5.86038 -2.67851
# Velocity P-wave (km/s) = 7.99390 2.53614 5.36053
#
# Compressibility (1/GPa) = 0.01455606
#
# Stress axis : x y z
#
# Youngs Moduli (GPa) = 71.79971 78.03309 63.55575
#
# Poissons Ratio (x) = 0.19298 0.31152
# Poissons Ratio (y) = 0.17757 0.41856
# Poissons Ratio (z) = 0.35193 0.51391
#
# Static dielectric constant tensor:
#      x y z
#    x 1.632650 0.000000 0.021310 
#    y 0.000000 1.642680 0.000000 
#    z 0.021310 0.000000 1.622490 
# 
# From -- ./inp_files/47649.got.cif
#   From: 2010.05.17/outbox.cif.g08.bks.cpg/sg13_24_cif.got.tgz:47649.got - 2010.06.03 16:44:36.
