data_PCOD9230529
_publ_section_title
;
Structure prediction by ZEFSAII (Michael W. Deem and Ramdas Pophale) SiO2 
 PCOD9230529
Probable space group: P 2/C
;
_chemical_formula_sum "Si O2"
_cell_formula_units_Z 26
_cell_length_a 12.765030
_cell_length_b 20.476096
_cell_length_c 9.374268
_cell_angle_alpha 90.000000
_cell_angle_beta 145.951436
_cell_angle_gamma 90.000000
_cell_volume 1371.870946
_symmetry_space_group_name_H-M "P 2/C"
_symmetry_group_IT_number 13
_symmetry_cell_setting 'monoclinic'
loop_
_space_group_symop_operation_xyz
x,y,z
-x,y,1/2-z
-x,-y,-z
x,-y,1/2+z
loop_
_atom_site_type_symbol
_atom_site_label
_atom_site_fract_x
_atom_site_fract_y
_atom_site_fract_z
Si Si1 0.291091 0.861741 0.553350
Si Si2 0.000000 0.903913 0.750000
Si Si3 0.041417 0.817960 0.523884
Si Si4 0.976110 0.327448 0.052028
Si Si5 0.311784 0.570452 0.236801
Si Si6 0.258778 0.558477 0.838983
Si Si7 0.638223 0.011303 0.789590
O O1 0.500000 0.840215 0.750000
O O2 0.143179 0.845419 0.263364
O O3 0.299606 0.939646 0.587111
O O4 0.211584 0.829513 0.607243
O O5 0.071275 0.858359 0.702125
O O6 0.828124 0.947095 0.494019
O O7 0.007938 0.742114 0.517982
O O8 0.000000 0.320009 0.250000
O O9 0.119246 0.381916 0.153515
O O10 0.774655 0.361329 0.810940
O O11 0.535295 0.573590 0.490727
O O12 0.223712 0.512396 0.231536
O O13 0.263959 0.555204 0.017267
O O14 0.500000 0.042646 0.750000
O O15 0.500000 0.000000 0.500000
#
# Coordination Sequence:
#
# PCOD9230529 Si02
#       7
#     4   2   4   4   4   4   4
#     4  10  23  43  60  82 123 158 195 252 303 355
#     4  12  22  38  66  94 124 156 200 260 296 360
#     4  11  23  39  60  88 120 164 203 235 302 367
#     4  10  20  37  56  83 117 153 196 235 286 354
#     4   9  18  34  56  82 112 145 190 242 289 339
#     4   9  18  34  56  82 111 147 188 241 291 336
#     4  11  23  40  64  95 120 155 205 252 310 363
#
# _framework density 18.952221000000002
#
# number of rings (size 3 to 8) (size 9 to 14) (size 15 to 20)
#    0.000    1.846    0.769    4.154    0.000    3.077 
#    5.538    0.000    0.000    0.000    0.000    0.000 
#    0.000    0.000    0.000    0.000    0.000    0.000 
#
# Total GULP energy -145055.697503 kJ/mol
# GULP energy per Si atom -5579.065289 kJ/mol
# Density = 1.890909 g / cm^3
# Si number density = 18.952221 Si / 1000 Ang^3
#
#
#
# Elastic Constant Matrix: (Units=GPa)
#
#
# Indices 1 2 3 4 5 6 
#
# 1 107.8684 43.4983 36.8488 0.0000 16.4941 0.0000
# 2 43.4983 116.8378 33.6646 0.0000 15.9459 0.0000
# 3 36.8488 33.6646 71.8788 0.0000 11.0297 0.0000
# 4 0.0000 0.0000 0.0000 18.9604 0.0000 -6.4808
# 5 16.4941 15.9459 11.0297 0.0000 25.9244 0.0000
# 6 0.0000 0.0000 0.0000 -6.4808 0.0000 19.4224
#
#
#
# Elastic Compliance Matrix: (Units=1/GPa)
#
#
# Indices 1 2 3 4 5 6 
#
# 1 0.012600 -0.002803 -0.004473 0.000000 -0.004389 0.000000
# 2 -0.002803 0.011010 -0.003161 0.000000 -0.003644 0.000000
# 3 -0.004473 -0.003161 0.018135 0.000000 -0.002926 0.000000
# 4 0.000000 0.000000 0.000000 0.059531 0.000000 0.019864
# 5 -0.004389 -0.003644 -0.002926 0.000000 0.044853 0.000000
# 6 0.000000 0.000000 0.000000 0.019864 0.000000 0.058115
#
#
# Mechanical properties :
#
#
# Convention : Reuss Voigt Hill
#
# Bulk Modulus (GPa) = 47.91164 58.28983 53.10073
# Shear Modulus (GPa) = 21.54477 25.03300 23.28889
#
# Velocity S-wave (km/s) = 3.37530 3.63829 3.50926
# Velocity P-wave (km/s) = 6.36595 6.96222 6.67075
#
# Compressibility (1/GPa) = 0.02087176
#
# Stress axis : x y z
#
# Youngs Moduli (GPa) = 79.36420 90.82254 55.14315
#
# Poissons Ratio (x) = 0.25458 0.24666
# Poissons Ratio (y) = 0.22246 0.17428
# Poissons Ratio (z) = 0.35500 0.28705
#
# Static dielectric constant tensor:
#      x y z
#    x 1.668570 0.000000 0.000910 
#    y 0.000000 1.629740 0.000000 
#    z 0.000910 0.000000 1.745030 
# 
# From -- ./inp_files/17319.got.cif
#   From: 2010.05.17/outbox.cif.g08.bks.cpg/sg13_9_cif.got.tgz:17319.got - 2010.06.03 16:44:36.
