data_PCOD9230853
_publ_section_title
;
Structure prediction by ZEFSAII (Michael W. Deem and Ramdas Pophale) SiO2 
 PCOD9230853
Probable space group: P 2/C
;
_chemical_formula_sum "Si O2"
_cell_formula_units_Z 32
_cell_length_a 18.728509
_cell_length_b 11.915101
_cell_length_c 16.477372
_cell_angle_alpha 90.000000
_cell_angle_beta 25.833435
_cell_angle_gamma 90.000000
_cell_volume 1602.258780
_symmetry_space_group_name_H-M "P 2/C"
_symmetry_group_IT_number 13
_symmetry_cell_setting 'monoclinic'
loop_
_space_group_symop_operation_xyz
x,y,z
-x,y,1/2-z
-x,-y,-z
x,-y,1/2+z
loop_
_atom_site_type_symbol
_atom_site_label
_atom_site_fract_x
_atom_site_fract_y
_atom_site_fract_z
Si Si1 0.416124 0.634761 0.423145
Si Si2 0.648651 0.624607 0.463002
Si Si3 0.945844 0.762456 0.220223
Si Si4 0.077148 0.121311 0.916490
Si Si5 0.699001 0.729642 0.235636
Si Si6 0.903349 0.571684 0.932559
Si Si7 0.721593 0.364826 0.170934
Si Si8 0.862971 0.666324 0.697206
O O1 0.500000 0.637552 0.250000
O O2 0.382464 0.505779 0.484596
O O3 0.526387 0.704323 0.373050
O O4 0.238861 0.691071 0.616793
O O5 0.791889 0.675459 0.374175
O O6 0.706289 0.654189 0.311514
O O7 0.462649 0.674883 0.660518
O O8 0.896772 0.852972 0.204439
O O9 0.000000 0.811704 0.250000
O O10 0.116532 0.703035 0.020641
O O11 0.245062 0.147782 0.792600
O O12 0.959476 0.223142 0.068641
O O13 0.000000 0.000000 0.000000
O O14 0.821178 0.689801 0.038756
O O15 0.000000 0.558854 0.750000
O O16 0.023061 0.563791 0.888363
O O17 0.756724 0.483701 0.092134
O O18 0.747036 0.371387 0.241893
#
# Coordination Sequence:
#
# PCOD9230853 Si02
#       8
#     4   4   4   4   4   4   4   4
#     4  12  22  33  53  91 131 164 195 232 292 369
#     4  11  22  37  60  87 126 177 205 236 294 374
#     4  10  23  38  60  94 126 153 209 268 306 350
#     4   9  21  44  68  85 105 158 211 261 324 367
#     4  10  20  38  58  83 121 157 205 253 295 368
#     4  11  20  32  51  84 125 164 200 236 290 361
#     4  11  20  35  58  82 124 169 208 235 292 366
#     4  10  21  35  55  83 118 154 204 255 295 366
#
# _framework density 19.971805
#
# number of rings (size 3 to 8) (size 9 to 14) (size 15 to 20)
#    0.000    1.500    2.500    4.125    1.750    0.000 
#    0.000    4.375    0.000    0.000    0.000    0.000 
#    0.000    0.000    0.000    0.000    0.000    0.000 
#
# Total GULP energy -178150.665773 kJ/mol
# GULP energy per Si atom -5567.208305 kJ/mol
# Density = 1.992635 g / cm^3
# Si number density = 19.971805 Si / 1000 Ang^3
#
#
#
# Elastic Constant Matrix: (Units=GPa)
#
#
# Indices 1 2 3 4 5 6 
#
# 1 93.6408 26.9634 34.5647 0.0000 -3.1518 0.0000
# 2 26.9634 68.9154 15.0767 0.0000 3.3169 0.0000
# 3 34.5647 15.0767 108.7898 0.0000 -3.2194 0.0000
# 4 0.0000 0.0000 0.0000 21.2752 0.0000 -4.8415
# 5 -3.1518 3.3169 -3.2194 0.0000 34.1104 0.0000
# 6 0.0000 0.0000 0.0000 -4.8415 0.0000 10.4838
#
#
#
# Elastic Compliance Matrix: (Units=1/GPa)
#
#
# Indices 1 2 3 4 5 6 
#
# 1 0.013340 -0.004501 -0.003575 0.000000 0.001333 0.000000
# 2 -0.004501 0.016577 -0.000930 0.000000 -0.002116 0.000000
# 3 -0.003575 -0.000930 0.010479 0.000000 0.000749 0.000000
# 4 0.000000 0.000000 0.000000 0.052523 0.000000 0.024256
# 5 0.001333 -0.002116 0.000749 0.000000 0.029716 0.000000
# 6 0.000000 0.000000 0.000000 0.024256 0.000000 0.106587
#
#
# Mechanical properties :
#
#
# Convention : Reuss Voigt Hill
#
# Bulk Modulus (GPa) = 44.67600 47.17284 45.92442
# Shear Modulus (GPa) = 19.63132 26.15662 22.89397
#
# Velocity S-wave (km/s) = 3.13861 3.62287 3.38940
# Velocity P-wave (km/s) = 5.96260 6.41648 6.19370
#
# Compressibility (1/GPa) = 0.02238338
#
# Stress axis : x y z
#
# Youngs Moduli (GPa) = 74.96422 60.32492 95.42960
#
# Poissons Ratio (x) = 0.27154 0.34116
# Poissons Ratio (y) = 0.33743 0.08873
# Poissons Ratio (z) = 0.26800 0.05609
#
# Static dielectric constant tensor:
#      x y z
#    x 1.821770 0.000000 -0.045270 
#    y 0.000000 1.693770 0.000000 
#    z -0.045270 0.000000 1.838950 
# 
# From -- ./inp_files/55817.got.cif
#   From: 2010.05.17/outbox.cif.g08.bks.cpg/sg13_28_cif.got.tgz:55817.got - 2010.06.03 16:44:36.
