data_PCOD9230749
_publ_section_title
;
Structure prediction by ZEFSAII (Michael W. Deem and Ramdas Pophale) SiO2 
 PCOD9230749
Probable space group: P 2/C
;
_chemical_formula_sum "Si O2"
_cell_formula_units_Z 28
_cell_length_a 27.233433
_cell_length_b 10.187789
_cell_length_c 27.860581
_cell_angle_alpha 90.000000
_cell_angle_beta 10.411946
_cell_angle_gamma 90.000000
_cell_volume 1396.975675
_symmetry_space_group_name_H-M "P 2/C"
_symmetry_group_IT_number 13
_symmetry_cell_setting 'monoclinic'
loop_
_space_group_symop_operation_xyz
x,y,z
-x,y,1/2-z
-x,-y,-z
x,-y,1/2+z
loop_
_atom_site_type_symbol
_atom_site_label
_atom_site_fract_x
_atom_site_fract_y
_atom_site_fract_z
Si Si1 0.429639 0.009595 0.761018
Si Si2 0.500000 0.473375 0.750000
Si Si3 0.934984 0.344551 0.060900
Si Si4 0.000000 0.653767 0.250000
Si Si5 0.345587 0.315384 0.588705
Si Si6 0.793777 0.618373 0.802112
Si Si7 0.363783 0.303742 0.792038
Si Si8 0.886908 0.148361 0.774566
O O1 0.500000 0.005843 0.750000
O O2 0.695969 0.969660 0.475441
O O3 0.339681 0.154120 0.831780
O O4 0.192378 0.905739 0.977307
O O5 0.513853 0.383732 0.689691
O O6 0.763183 0.564401 0.498883
O O7 0.668533 0.314930 0.285525
O O8 0.860475 0.311940 0.187240
O O9 0.000000 0.500000 0.000000
O O10 0.194914 0.285726 0.784068
O O11 0.119321 0.744675 0.177003
O O12 0.268886 0.464782 0.647277
O O13 0.231607 0.216313 0.658769
O O14 0.067364 0.634693 0.569527
O O15 0.540666 0.679030 0.073865
#
# Coordination Sequence:
#
# PCOD9230749 Si02
#       8
#     4   2   4   2   4   4   4   4
#     4  12  24  45  62  84 119 173 222 243 292 360
#     4  12  24  38  58  92 126 154 188 252 322 362
#     4  10  20  37  63  93 129 162 198 247 314 386
#     4  12  24  38  60  92 124 154 188 252 322 364
#     4  11  21  38  64  97 127 158 200 257 316 374
#     4  11  22  39  63  95 124 158 200 252 318 367
#     4  12  24  40  62  88 124 163 207 255 292 369
#     4  12  24  41  64  89 123 162 210 255 299 366
#
# _framework density 20.043298
#
# number of rings (size 3 to 8) (size 9 to 14) (size 15 to 20)
#    0.000    0.571    2.143    9.429    0.000    0.000 
#    0.000    0.000    0.000   17.143    0.000    0.000 
#    0.000    0.000    0.000    0.000    0.000    0.000 
#
# Total GULP energy -156616.189337 kJ/mol
# GULP energy per Si atom -5593.435333 kJ/mol
# Density = 1.999768 g / cm^3
# Si number density = 20.043298 Si / 1000 Ang^3
#
#
#
# Elastic Constant Matrix: (Units=GPa)
#
#
# Indices 1 2 3 4 5 6 
#
# 1 51.0460 15.7556 -2.8572 0.0000 -3.1283 0.0000
# 2 15.7556 45.8470 -4.1637 0.0000 0.7117 0.0000
# 3 -2.8572 -4.1637 82.5915 0.0000 -1.4201 0.0000
# 4 0.0000 0.0000 0.0000 4.9315 0.0000 7.7034
# 5 -3.1283 0.7117 -1.4201 0.0000 34.3459 0.0000
# 6 0.0000 0.0000 0.0000 7.7034 0.0000 -5.9282
#
#
#
# Elastic Compliance Matrix: (Units=1/GPa)
#
#
# Indices 1 2 3 4 5 6 
#
# 1 0.022089 -0.007587 0.000419 0.000000 0.002187 0.000000
# 2 -0.007587 0.024524 0.000954 0.000000 -0.001160 0.000000
# 3 0.000419 0.000954 0.012179 0.000000 0.000522 0.000000
# 4 0.000000 0.000000 0.000000 0.066927 0.000000 0.086968
# 5 0.002187 -0.001160 0.000522 0.000000 0.029360 0.000000
# 6 0.000000 0.000000 0.000000 0.086968 0.000000 -0.055675
#
#
# Mechanical properties :
#
#
# Convention : Reuss Voigt Hill
#
# Bulk Modulus (GPa) = 21.56811 21.88376 21.72594
# Shear Modulus (GPa) = 39.28116 18.05315 28.66716
#
# Velocity S-wave (km/s) = 4.43178 3.00444 3.78598
# Velocity P-wave (km/s) = 6.08044 4.79348 5.47491
#
# Compressibility (1/GPa) = 0.04636474
#
# Stress axis : x y z
#
# Youngs Moduli (GPa) = 45.27061 40.77697 82.10616
#
# Poissons Ratio (x) = 0.30938 -0.03443
# Poissons Ratio (y) = 0.34347 -0.07832
# Poissons Ratio (z) = -0.01898 -0.03890
#
# Static dielectric constant tensor:
#      x y z
#    x 1.725410 0.000000 0.002070 
#    y 0.000000 1.674530 0.000000 
#    z 0.002070 0.000000 1.718940 
# 
# From -- ./inp_files/98058.got.cif
#   From: 2010.05.17/outbox.cif.g08.bks.cpg/sg13_50_cif.got.tgz:98058.got - 2010.06.03 16:44:36.
