data_PCOD9230341
_publ_section_title
;
Structure prediction by ZEFSAII (Michael W. Deem and Ramdas Pophale) SiO2 
 PCOD9230341
Probable space group: P 2/C
;
_chemical_formula_sum "Si O2"
_cell_formula_units_Z 26
_cell_length_a 9.442816
_cell_length_b 5.874874
_cell_length_c 23.619870
_cell_angle_alpha 90.000000
_cell_angle_beta 121.091691
_cell_angle_gamma 90.000000
_cell_volume 1122.082588
_symmetry_space_group_name_H-M "P 2/C"
_symmetry_group_IT_number 13
_symmetry_cell_setting 'monoclinic'
loop_
_space_group_symop_operation_xyz
x,y,z
-x,y,1/2-z
-x,-y,-z
x,-y,1/2+z
loop_
_atom_site_type_symbol
_atom_site_label
_atom_site_fract_x
_atom_site_fract_y
_atom_site_fract_z
Si Si1 0.565252 0.165577 0.926943
Si Si2 0.500000 0.988653 0.750000
Si Si3 0.783704 0.322403 0.287015
Si Si4 0.622769 0.230727 0.061695
Si Si5 0.241234 0.612242 0.326817
Si Si6 0.056480 0.947855 0.365927
Si Si7 0.774291 0.289511 0.871147
O O1 0.411464 0.248055 0.857175
O O2 0.727172 0.239953 0.926158
O O3 0.520610 0.904716 0.933811
O O4 0.561753 0.293849 0.986558
O O5 0.634728 0.142631 0.809205
O O6 0.382489 0.818221 0.761003
O O7 0.765560 0.456920 0.342961
O O8 0.805936 0.504324 0.242273
O O9 0.936240 0.149778 0.320910
O O10 0.711428 0.415095 0.118888
O O11 0.769884 0.050343 0.078313
O O12 0.108472 0.778876 0.326733
O O13 0.952249 0.810468 0.390926
#
# Coordination Sequence:
#
# PCOD9230341 Si02
#       7
#     4   2   4   4   4   4   4
#     4  10  22  40  66  93 121 161 217 266 314 378
#     4  10  20  36  60  92 122 158 208 256 324 392
#     4  11  23  39  63  93 129 165 206 265 324 379
#     4  10  22  42  64  91 123 165 214 265 315 374
#     4  11  22  41  65  89 124 167 211 261 315 384
#     4  10  25  41  59  91 126 165 209 253 323 392
#     4  11  22  39  60  89 125 163 205 260 323 383
#
# _framework density 23.171202000000001
#
# number of rings (size 3 to 8) (size 9 to 14) (size 15 to 20)
#    0.000    1.538    0.000    4.615    0.000    9.231 
#    0.000    3.077    0.000    0.000    0.000    0.000 
#    0.000    0.000    0.000    0.000    0.000    0.000 
#
# Total GULP energy -145405.551113 kJ/mol
# GULP energy per Si atom -5592.521197 kJ/mol
# Density = 2.311846 g / cm^3
# Si number density = 23.171202 Si / 1000 Ang^3
#
#
#
# Elastic Constant Matrix: (Units=GPa)
#
#
# Indices 1 2 3 4 5 6 
#
# 1 138.6600 46.8189 14.1510 0.0000 -5.7173 0.0000
# 2 46.8189 75.7015 16.1422 0.0000 -7.5577 0.0000
# 3 14.1510 16.1422 48.1601 0.0000 -3.6191 0.0000
# 4 0.0000 0.0000 0.0000 29.7139 0.0000 8.8100
# 5 -5.7173 -7.5577 -3.6191 0.0000 37.6928 0.0000
# 6 0.0000 0.0000 0.0000 8.8100 0.0000 47.1135
#
#
#
# Elastic Compliance Matrix: (Units=1/GPa)
#
#
# Indices 1 2 3 4 5 6 
#
# 1 0.009149 -0.005458 -0.000843 0.000000 0.000213 0.000000
# 2 -0.005458 0.017703 -0.004156 0.000000 0.002323 0.000000
# 3 -0.000843 -0.004156 0.022495 0.000000 0.001199 0.000000
# 4 0.000000 0.000000 0.000000 0.035630 0.000000 -0.006663
# 5 0.000213 0.002323 0.001199 0.000000 0.027143 0.000000
# 6 0.000000 0.000000 0.000000 -0.006663 0.000000 0.022471
#
#
# Mechanical properties :
#
#
# Convention : Reuss Voigt Hill
#
# Bulk Modulus (GPa) = 35.16824 46.30509 40.73666
# Shear Modulus (GPa) = 30.30622 35.26466 32.78544
#
# Velocity S-wave (km/s) = 3.62045 3.90541 3.76563
# Velocity P-wave (km/s) = 5.71729 6.35323 6.04363
#
# Compressibility (1/GPa) = 0.02843475
#
# Stress axis : x y z
#
# Youngs Moduli (GPa) = 109.29579 56.48714 44.45479
#
# Poissons Ratio (x) = 0.30829 0.03748
# Poissons Ratio (y) = 0.59650 0.18473
# Poissons Ratio (z) = 0.09215 0.23473
#
# Static dielectric constant tensor:
#      x y z
#    x 1.891440 0.000000 -0.012980 
#    y 0.000000 1.912900 0.000000 
#    z -0.012980 0.000000 1.868010 
# 
# From -- ./inp_files/84378.got.cif
#   From: 2010.05.17/outbox.cif.g08.bks.cpg/sg13_43_cif.got.tgz:84378.got - 2010.06.03 16:44:36.
