data_PCOD9230759
_publ_section_title
;
Structure prediction by ZEFSAII (Michael W. Deem and Ramdas Pophale) SiO2 
 PCOD9230759
Probable space group: P 2/C
;
_chemical_formula_sum "Si O2"
_cell_formula_units_Z 20
_cell_length_a 19.621741
_cell_length_b 7.010281
_cell_length_c 8.383752
_cell_angle_alpha 90.000000
_cell_angle_beta 45.660175
_cell_angle_gamma 90.000000
_cell_volume 824.789665
_symmetry_space_group_name_H-M "P 2/C"
_symmetry_group_IT_number 13
_symmetry_cell_setting 'monoclinic'
loop_
_space_group_symop_operation_xyz
x,y,z
-x,y,1/2-z
-x,-y,-z
x,-y,1/2+z
loop_
_atom_site_type_symbol
_atom_site_label
_atom_site_fract_x
_atom_site_fract_y
_atom_site_fract_z
Si Si1 0.931808 0.371314 0.001283
Si Si2 0.599391 0.793829 0.135101
Si Si3 0.797186 0.719968 0.221350
Si Si4 0.193447 0.059792 0.117757
Si Si5 0.407686 0.404963 0.506031
O O1 0.851008 0.526821 0.087800
O O2 0.880069 0.198038 0.172769
O O3 0.000000 0.304312 0.750000
O O4 0.000000 0.500000 0.000000
O O5 0.500000 0.898341 0.250000
O O6 0.587524 0.679964 0.323513
O O7 0.698409 0.904547 0.993521
O O8 0.607018 0.633252 0.984702
O O9 0.686823 0.674710 0.420207
O O10 0.831285 0.838594 0.318062
O O11 0.808233 0.869226 0.059762
O O12 0.500000 0.360258 0.250000
#
# Coordination Sequence:
#
# PCOD9230759 Si02
#       5
#     4   4   4   4   4
#     4  12  26  48  71  95 130 172 220 274 336 391
#     4  10  20  37  63  96 131 173 216 259 320 384
#     4  11  26  44  68 101 133 172 221 266 330 390
#     4  11  26  44  68 100 134 173 217 272 325 392
#     4  10  20  37  63  96 132 172 215 261 318 387
#
# _framework density 24.248607
#
# number of rings (size 3 to 8) (size 9 to 14) (size 15 to 20)
#    0.000    1.200    4.000    2.400    2.800    5.600 
#    0.000    4.000    0.000    0.000    0.000    0.000 
#    0.000    0.000    0.000    0.000    0.000    0.000 
#
# Total GULP energy -111912.483069 kJ/mol
# GULP energy per Si atom -5595.624153 kJ/mol
# Density = 2.419342 g / cm^3
# Si number density = 24.248607 Si / 1000 Ang^3
#
#
#
# Elastic Constant Matrix: (Units=GPa)
#
#
# Indices 1 2 3 4 5 6 
#
# 1 80.4144 4.5132 24.0410 0.0000 -26.2440 0.0000
# 2 4.5132 60.9433 9.8628 0.0000 -9.7439 0.0000
# 3 24.0410 9.8628 125.8643 0.0000 -16.6523 0.0000
# 4 0.0000 0.0000 0.0000 18.1768 0.0000 9.8962
# 5 -26.2440 -9.7439 -16.6523 0.0000 23.2050 0.0000
# 6 0.0000 0.0000 0.0000 9.8962 0.0000 21.4827
#
#
#
# Elastic Compliance Matrix: (Units=1/GPa)
#
#
# Indices 1 2 3 4 5 6 
#
# 1 0.020113 0.002351 -0.000979 0.000000 0.023032 0.000000
# 2 0.002351 0.017887 -0.000558 0.000000 0.009770 0.000000
# 3 -0.000979 -0.000558 0.008837 0.000000 0.005001 0.000000
# 4 0.000000 0.000000 0.000000 0.073432 0.000000 -0.033827
# 5 0.023032 0.009770 0.005001 0.000000 0.076833 0.000000
# 6 0.000000 0.000000 0.000000 -0.033827 0.000000 0.062132
#
#
# Mechanical properties :
#
#
# Convention : Reuss Voigt Hill
#
# Bulk Modulus (GPa) = 20.63301 38.22843 29.43072
# Shear Modulus (GPa) = 18.26414 27.82658 23.04536
#
# Velocity S-wave (km/s) = 2.74743 3.39123 3.08617
# Velocity P-wave (km/s) = 4.31184 5.57973 4.98625
#
# Compressibility (1/GPa) = 0.04846601
#
# Stress axis : x y z
#
# Youngs Moduli (GPa) = 49.71925 55.90685 113.15619
#
# Poissons Ratio (x) = -0.13146 0.11075
# Poissons Ratio (y) = -0.11691 0.06316
# Poissons Ratio (z) = 0.04866 0.03121
#
# Static dielectric constant tensor:
#      x y z
#    x 1.996180 0.000000 -0.001120 
#    y 0.000000 1.938590 0.000000 
#    z -0.001120 0.000000 1.894110 
# 
# From -- ./inp_files/22659.got.cif
#   From: 2010.05.17/outbox.cif.g08.bks.cpg/sg13_12_cif.got.tgz:22659.got - 2010.06.03 16:44:36.
