data_PCOD9230205
_publ_section_title
;
Structure prediction by ZEFSAII (Michael W. Deem and Ramdas Pophale) SiO2 
 PCOD9230205
Probable space group: P 2/C
;
_chemical_formula_sum "Si O2"
_cell_formula_units_Z 24
_cell_length_a 12.082655
_cell_length_b 12.903478
_cell_length_c 23.423158
_cell_angle_alpha 90.000000
_cell_angle_beta 159.506988
_cell_angle_gamma 90.000000
_cell_volume 1278.492569
_symmetry_space_group_name_H-M "P 2/C"
_symmetry_group_IT_number 13
_symmetry_cell_setting 'monoclinic'
loop_
_space_group_symop_operation_xyz
x,y,z
-x,y,1/2-z
-x,-y,-z
x,-y,1/2+z
loop_
_atom_site_type_symbol
_atom_site_label
_atom_site_fract_x
_atom_site_fract_y
_atom_site_fract_z
Si Si1 0.623772 0.616797 0.060655
Si Si2 0.460735 0.702641 0.358630
Si Si3 0.724497 0.459161 0.907895
Si Si4 0.290790 0.339511 0.025129
Si Si5 0.607960 0.126608 0.367105
Si Si6 0.651670 0.911172 0.260126
O O1 0.499618 0.682187 0.054695
O O2 0.570366 0.657840 0.971313
O O3 0.000000 0.613352 0.250000
O O4 0.500000 0.500000 0.000000
O O5 0.723168 0.633446 0.452820
O O6 0.468627 0.819687 0.339284
O O7 0.097865 0.664407 0.167477
O O8 0.500000 0.416666 0.750000
O O9 0.621665 0.559555 0.895189
O O10 0.000000 0.500000 0.000000
O O11 0.422588 0.236314 0.117415
O O12 0.500000 0.139718 0.250000
O O13 0.976619 0.099768 0.550417
O O14 0.424720 0.025307 0.300515
O O15 0.500000 0.901432 0.250000
#
# Coordination Sequence:
#
# PCOD9230205 Si02
#       6
#     4   4   4   4   4   4
#     4  10  20  38  57  78 108 151 190 226 272 326
#     4  10  21  37  57  80 112 149 184 227 282 328
#     4  12  22  34  53  84 114 145 180 226 283 339
#     4  10  21  37  57  80 113 148 185 228 276 334
#     4  10  20  37  56  84 111 144 184 227 281 330
#     4  10  20  36  57  81 113 145 182 228 279 333
#
# _framework density 18.772106999999998
#
# number of rings (size 3 to 8) (size 9 to 14) (size 15 to 20)
#    0.000    1.667    3.333    3.000    2.333    0.000 
#    3.000    0.833    0.000    0.000    0.000    0.000 
#    0.000    0.000    0.000    0.000    0.000    0.000 
#
# Total GULP energy -133768.075844 kJ/mol
# GULP energy per Si atom -5573.669827 kJ/mol
# Density = 1.872938 g / cm^3
# Si number density = 18.772107 Si / 1000 Ang^3
#
#
#
# Elastic Constant Matrix: (Units=GPa)
#
#
# Indices 1 2 3 4 5 6 
#
# 1 129.8136 65.1545 27.9452 0.0000 -21.7131 0.0000
# 2 65.1545 148.6775 28.7842 0.0000 -26.4876 0.0000
# 3 27.9452 28.7842 18.4595 0.0000 -4.7520 0.0000
# 4 0.0000 0.0000 0.0000 27.8705 0.0000 -4.1059
# 5 -21.7131 -26.4876 -4.7520 0.0000 17.6393 0.0000
# 6 0.0000 0.0000 0.0000 -4.1059 0.0000 31.0836
#
#
#
# Elastic Compliance Matrix: (Units=1/GPa)
#
#
# Indices 1 2 3 4 5 6 
#
# 1 0.013442 -0.000775 -0.016312 0.000000 0.010988 0.000000
# 2 -0.000775 0.012296 -0.014498 0.000000 0.013604 0.000000
# 3 -0.016312 -0.014498 0.097460 0.000000 -0.015595 0.000000
# 4 0.000000 0.000000 0.000000 0.036592 0.000000 0.004834
# 5 0.010988 0.013604 -0.015595 0.000000 0.086445 0.000000
# 6 0.000000 0.000000 0.000000 0.004834 0.000000 0.032810
#
#
# Mechanical properties :
#
#
# Convention : Reuss Voigt Hill
#
# Bulk Modulus (GPa) = 16.65913 60.07982 38.36947
# Shear Modulus (GPa) = 13.80364 26.98980 20.39672
#
# Velocity S-wave (km/s) = 2.71463 3.79589 3.29985
# Velocity P-wave (km/s) = 4.32658 7.16143 5.91631
#
# Compressibility (1/GPa) = 0.06002715
#
# Stress axis : x y z
#
# Youngs Moduli (GPa) = 74.39545 81.32616 10.26067
#
# Poissons Ratio (x) = 0.06302 0.16737
# Poissons Ratio (y) = 0.05765 0.14876
# Poissons Ratio (z) = 1.21353 1.17909
#
# Static dielectric constant tensor:
#      x y z
#    x 1.592190 0.000000 0.018140 
#    y 0.000000 1.641350 0.000000 
#    z 0.018140 0.000000 1.668890 
# 
# From -- ./inp_files/86627.got.cif
#   From: 2010.05.17/outbox.cif.g08.bks.cpg/sg13_44_cif.got.tgz:86627.got - 2010.06.03 16:44:36.
