data_PCOD9230919
_publ_section_title
;
Structure prediction by ZEFSAII (Michael W. Deem and Ramdas Pophale) SiO2 
 PCOD9230919
Probable space group: P 2/C
;
_chemical_formula_sum "Si O2"
_cell_formula_units_Z 28
_cell_length_a 27.998313
_cell_length_b 7.912834
_cell_length_c 10.241494
_cell_angle_alpha 90.000000
_cell_angle_beta 146.035616
_cell_angle_gamma 90.000000
_cell_volume 1267.617943
_symmetry_space_group_name_H-M "P 2/C"
_symmetry_group_IT_number 13
_symmetry_cell_setting 'monoclinic'
loop_
_space_group_symop_operation_xyz
x,y,z
-x,y,1/2-z
-x,-y,-z
x,-y,1/2+z
loop_
_atom_site_type_symbol
_atom_site_label
_atom_site_fract_x
_atom_site_fract_y
_atom_site_fract_z
Si Si1 0.743979 0.744488 0.779987
Si Si2 0.692548 0.719203 0.947298
Si Si3 0.027284 0.243336 0.168985
Si Si4 0.933878 0.155167 0.710846
Si Si5 0.514203 0.145219 0.135690
Si Si6 0.213024 0.347323 0.594242
Si Si7 0.345474 0.322029 0.678589
O O1 0.711149 0.799573 0.848256
O O2 0.762673 0.543819 0.835845
O O3 0.677543 0.765770 0.511264
O O4 0.835164 0.823841 0.952153
O O5 0.609392 0.789796 0.829702
O O6 0.671117 0.521418 0.876512
O O7 0.770898 0.732648 0.226334
O O8 0.115905 0.329293 0.330143
O O9 0.000000 0.306058 0.250000
O O10 0.048261 0.043634 0.229536
O O11 0.956113 0.252577 0.895465
O O12 0.000000 0.215082 0.750000
O O13 0.500000 0.084546 0.250000
O O14 0.441289 0.284949 0.941331
O O15 0.500000 0.000000 0.000000
O O16 0.277656 0.267571 0.635638
#
# Coordination Sequence:
#
# PCOD9230919 Si02
#       7
#     4   4   4   4   4   4   4
#     4  10  22  36  62  92 117 151 207 253 301 362
#     4  10  22  42  65  89 122 161 205 250 309 366
#     4  10  21  35  56  80 118 161 201 241 304 362
#     4  10  21  37  54  84 118 159 201 247 299 363
#     4  12  27  44  64  94 128 161 203 252 302 364
#     4  10  20  38  60  88 117 157 203 254 304 358
#     4  10  22  42  65  89 120 163 202 251 310 364
#
# _framework density 22.088673
#
# number of rings (size 3 to 8) (size 9 to 14) (size 15 to 20)
#    0.000    1.714    1.429    2.143    2.000    3.429 
#    0.000    0.000    0.000    0.000    0.000    0.000 
#    0.000    0.000    0.000    0.000    0.000    0.000 
#
# Total GULP energy -156565.348759 kJ/mol
# GULP energy per Si atom -5591.619599 kJ/mol
# Density = 2.203840 g / cm^3
# Si number density = 22.088673 Si / 1000 Ang^3
#
#
#
# Elastic Constant Matrix: (Units=GPa)
#
#
# Indices 1 2 3 4 5 6 
#
# 1 110.5825 10.8417 -1.6383 0.0000 -14.0687 0.0000
# 2 10.8417 13.5658 12.0937 0.0000 -9.8277 0.0000
# 3 -1.6383 12.0937 54.8767 0.0000 -7.8193 0.0000
# 4 0.0000 0.0000 0.0000 29.4009 0.0000 -1.2518
# 5 -14.0687 -9.8277 -7.8193 0.0000 43.7636 0.0000
# 6 0.0000 0.0000 0.0000 -1.2518 0.0000 9.6195
#
#
#
# Elastic Compliance Matrix: (Units=1/GPa)
#
#
# Indices 1 2 3 4 5 6 
#
# 1 0.010199 -0.009245 0.002579 0.000000 0.001663 0.000000
# 2 -0.009245 0.115212 -0.022989 0.000000 0.018793 0.000000
# 3 0.002579 -0.022989 0.023343 0.000000 -0.000163 0.000000
# 4 0.000000 0.000000 0.000000 0.034202 0.000000 0.004451
# 5 0.001663 0.018793 -0.000163 0.000000 0.027576 0.000000
# 6 0.000000 0.000000 0.000000 0.004451 0.000000 0.104534
#
#
# Mechanical properties :
#
#
# Convention : Reuss Voigt Hill
#
# Bulk Modulus (GPa) = 11.18012 24.62435 17.90224
# Shear Modulus (GPa) = 12.37040 27.07202 19.72121
#
# Velocity S-wave (km/s) = 2.36907 3.50466 2.99125
# Velocity P-wave (km/s) = 3.54341 5.24872 4.47799
#
# Compressibility (1/GPa) = 0.08944445
#
# Stress axis : x y z
#
# Youngs Moduli (GPa) = 98.04624 8.67964 42.84001
#
# Poissons Ratio (x) = 0.08025 -0.11048
# Poissons Ratio (y) = 0.90646 0.98483
# Poissons Ratio (z) = -0.25286 0.19953
#
# Static dielectric constant tensor:
#      x y z
#    x 1.797270 0.000000 -0.040830 
#    y 0.000000 1.820850 0.000000 
#    z -0.040830 0.000000 1.762990 
# 
# From -- ./inp_files/22950.got.cif
#   From: 2010.05.17/outbox.cif.g08.bks.cpg/sg13_12_cif.got.tgz:22950.got - 2010.06.03 16:44:36.
