data_PCOD9230260
_publ_section_title
;
Structure prediction by ZEFSAII (Michael W. Deem and Ramdas Pophale) SiO2 
 PCOD9230260
Probable space group: P 2/C
;
_chemical_formula_sum "Si O2"
_cell_formula_units_Z 20
_cell_length_a 15.491110
_cell_length_b 6.223468
_cell_length_c 9.333208
_cell_angle_alpha 90.000000
_cell_angle_beta 86.235394
_cell_angle_gamma 90.000000
_cell_volume 897.858334
_symmetry_space_group_name_H-M "P 2/C"
_symmetry_group_IT_number 13
_symmetry_cell_setting 'monoclinic'
loop_
_space_group_symop_operation_xyz
x,y,z
-x,y,1/2-z
-x,-y,-z
x,-y,1/2+z
loop_
_atom_site_type_symbol
_atom_site_label
_atom_site_fract_x
_atom_site_fract_y
_atom_site_fract_z
Si Si1 0.739052 0.263346 0.978027
Si Si2 0.342339 0.048483 0.773820
Si Si3 0.409806 0.462711 0.929799
Si Si4 0.933196 0.700022 0.506887
Si Si5 0.000000 0.011784 0.250000
Si Si6 0.500000 0.190185 0.250000
O O1 0.726548 0.132095 0.833147
O O2 0.833049 0.357856 0.998573
O O3 0.671030 0.457105 0.971030
O O4 0.708169 0.105724 0.109734
O O5 0.385659 0.238620 0.862901
O O6 0.429859 0.964257 0.679597
O O7 0.427464 0.645437 0.811314
O O8 0.500000 0.500000 0.000000
O O9 0.943899 0.832649 0.653656
O O10 0.000000 0.500000 0.500000
O O11 0.953713 0.857209 0.370467
#
# Coordination Sequence:
#
# PCOD9230260 Si02
#       6
#     4   4   4   4   2   2
#     4  11  25  41  66  96 126 170 217 268 332 393
#     4  11  23  41  64  94 134 171 219 273 322 391
#     4  11  22  37  60  92 131 174 216 262 317 380
#     4  11  24  45  70  99 134 173 222 283 345 413
#     4  10  24  44  70  98 132 172 218 276 350 416
#     4  10  20  36  58  88 126 174 214 256 314 374
#
# _framework density 22.275227999999998
#
# number of rings (size 3 to 8) (size 9 to 14) (size 15 to 20)
#    0.000    1.200    0.000    6.000    0.000   11.200 
#    0.000    0.000    0.000    0.000    0.000    0.000 
#    0.000    0.000    0.000    0.000    0.000    0.000 
#
# Total GULP energy -111382.129039 kJ/mol
# GULP energy per Si atom -5569.106452 kJ/mol
# Density = 2.222453 g / cm^3
# Si number density = 22.275228 Si / 1000 Ang^3
#
#
#
# Elastic Constant Matrix: (Units=GPa)
#
#
# Indices 1 2 3 4 5 6 
#
# 1 195.6842 60.7582 39.3777 0.0000 16.8622 0.0000
# 2 60.7582 66.7976 25.1447 0.0000 -1.5350 0.0000
# 3 39.3777 25.1447 94.5391 0.0000 15.7618 0.0000
# 4 0.0000 0.0000 0.0000 20.8851 0.0000 -2.7949
# 5 16.8622 -1.5350 15.7618 0.0000 15.7493 0.0000
# 6 0.0000 0.0000 0.0000 -2.7949 0.0000 35.4445
#
#
#
# Elastic Compliance Matrix: (Units=1/GPa)
#
#
# Indices 1 2 3 4 5 6 
#
# 1 0.008395 -0.007983 0.000306 0.000000 -0.010072 0.000000
# 2 -0.007983 0.024949 -0.006171 0.000000 0.017154 0.000000
# 3 0.000306 -0.006171 0.014699 0.000000 -0.015639 0.000000
# 4 0.000000 0.000000 0.000000 0.048392 0.000000 0.003816
# 5 -0.010072 0.017154 -0.015639 0.000000 0.091603 0.000000
# 6 0.000000 0.000000 0.000000 0.003816 0.000000 0.028514
#
#
# Mechanical properties :
#
#
# Convention : Reuss Voigt Hill
#
# Bulk Modulus (GPa) = 49.14609 67.50914 58.32762
# Shear Modulus (GPa) = 19.91804 29.86514 24.89159
#
# Velocity S-wave (km/s) = 2.99353 3.66557 3.34646
# Velocity P-wave (km/s) = 5.83603 6.94895 6.41666
#
# Compressibility (1/GPa) = 0.02034750
#
# Stress axis : x y z
#
# Youngs Moduli (GPa) = 119.11421 40.08240 68.03227
#
# Poissons Ratio (x) = 0.31997 -0.02079
# Poissons Ratio (y) = 0.95086 0.41980
# Poissons Ratio (z) = -0.03641 0.24733
#
# Static dielectric constant tensor:
#      x y z
#    x 1.839920 0.000000 -0.042420 
#    y 0.000000 2.717040 0.000000 
#    z -0.042420 0.000000 1.824820 
# 
# From -- ./inp_files/20495.got.cif
#   From: 2010.05.17/outbox.cif.g08.bks.cpg/sg13_11_cif.got.tgz:20495.got - 2010.06.03 16:44:36.
