data_PCOD9230707
_publ_section_title
;
Structure prediction by ZEFSAII (Michael W. Deem and Ramdas Pophale) SiO2 
 PCOD9230707
Probable space group: P 2/C
;
_chemical_formula_sum "Si O2"
_cell_formula_units_Z 32
_cell_length_a 16.492986
_cell_length_b 19.578772
_cell_length_c 16.574178
_cell_angle_alpha 90.000000
_cell_angle_beta 162.546090
_cell_angle_gamma 90.000000
_cell_volume 1605.273252
_symmetry_space_group_name_H-M "P 2/C"
_symmetry_group_IT_number 13
_symmetry_cell_setting 'monoclinic'
loop_
_space_group_symop_operation_xyz
x,y,z
-x,y,1/2-z
-x,-y,-z
x,-y,1/2+z
loop_
_atom_site_type_symbol
_atom_site_label
_atom_site_fract_x
_atom_site_fract_y
_atom_site_fract_z
Si Si1 0.282202 0.237620 0.477045
Si Si2 0.213378 0.118433 0.019339
Si Si3 0.932291 0.398960 0.592891
Si Si4 0.401969 0.714370 0.912567
Si Si5 0.494692 0.434269 0.051678
Si Si6 0.975645 0.249873 0.882603
Si Si7 0.379140 0.922340 0.047893
Si Si8 0.112549 0.013625 0.518685
O O1 0.372844 0.269299 0.478500
O O2 0.287468 0.155554 0.470167
O O3 0.000000 0.257548 0.250000
O O4 0.500000 0.255927 0.750000
O O5 0.500000 0.135579 0.250000
O O6 0.070235 0.183125 0.925193
O O7 0.000000 0.094532 0.750000
O O8 0.243609 0.056482 0.110447
O O9 0.670819 0.432167 0.301844
O O10 0.931004 0.316645 0.579726
O O11 0.000000 0.414538 0.750000
O O12 0.185825 0.423409 0.781988
O O13 0.407325 0.633155 0.902833
O O14 0.141645 0.745998 0.622710
O O15 0.662843 0.743882 0.111829
O O16 0.500000 0.500000 0.000000
O O17 0.500000 0.945634 0.250000
O O18 0.647382 0.930917 0.248636
O O19 0.128648 0.962153 0.770032
O O20 0.000000 0.000000 0.500000
#
# Coordination Sequence:
#
# PCOD9230707 Si02
#       8
#     4   4   4   4   4   4   4   4
#     4  11  23  39  64  90 114 156 206 255 302 354
#     4  12  25  40  61  87 121 156 193 247 308 360
#     4  10  20  37  62  91 121 159 207 247 290 355
#     4  10  22  39  63  87 124 157 196 251 297 354
#     4  10  21  39  61  90 125 167 200 240 299 358
#     4  10  22  38  62  89 119 159 195 247 304 360
#     4  11  23  42  63  82 114 160 202 249 306 360
#     4  12  26  40  61  89 119 157 201 252 299 366
#
# _framework density 19.934301000000001
#
# number of rings (size 3 to 8) (size 9 to 14) (size 15 to 20)
#    0.000    1.250    0.000    6.750    3.500    2.000 
#    0.000    1.875    0.000    0.000    0.000    0.000 
#    0.000    0.000    0.000    0.000    0.000    0.000 
#
# Total GULP energy -178752.778200 kJ/mol
# GULP energy per Si atom -5586.024319 kJ/mol
# Density = 1.988893 g / cm^3
# Si number density = 19.934301 Si / 1000 Ang^3
#
#
#
# Elastic Constant Matrix: (Units=GPa)
#
#
# Indices 1 2 3 4 5 6 
#
# 1 89.2088 41.7747 -1.1523 0.0000 -6.2803 0.0000
# 2 41.7747 60.8531 16.1230 0.0000 -9.0932 0.0000
# 3 -1.1523 16.1230 87.4209 0.0000 3.0989 0.0000
# 4 0.0000 0.0000 0.0000 13.3446 0.0000 5.3324
# 5 -6.2803 -9.0932 3.0989 0.0000 31.7185 0.0000
# 6 0.0000 0.0000 0.0000 5.3324 0.0000 15.4858
#
#
#
# Elastic Compliance Matrix: (Units=1/GPa)
#
#
# Indices 1 2 3 4 5 6 
#
# 1 0.017031 -0.012428 0.002532 0.000000 -0.000438 0.000000
# 2 -0.012428 0.027276 -0.005403 0.000000 0.005887 0.000000
# 3 0.002532 -0.005403 0.012549 0.000000 -0.002274 0.000000
# 4 0.000000 0.000000 0.000000 0.086893 0.000000 -0.029921
# 5 -0.000438 0.005887 -0.002274 0.000000 0.033350 0.000000
# 6 0.000000 0.000000 0.000000 -0.029921 0.000000 0.074878
#
#
# Mechanical properties :
#
#
# Convention : Reuss Voigt Hill
#
# Bulk Modulus (GPa) = 38.08262 38.99707 38.53984
# Shear Modulus (GPa) = 17.16277 24.15895 20.66086
#
# Velocity S-wave (km/s) = 2.93741 3.48505 3.22288
# Velocity P-wave (km/s) = 5.53625 5.98326 5.76409
#
# Compressibility (1/GPa) = 0.02625870
#
# Stress axis : x y z
#
# Youngs Moduli (GPa) = 58.71523 36.66246 79.68542
#
# Poissons Ratio (x) = 0.45564 -0.20177
# Poissons Ratio (y) = 0.72972 0.43054
# Poissons Ratio (z) = -0.14867 0.19809
#
# Static dielectric constant tensor:
#      x y z
#    x 1.699080 0.000000 -0.012110 
#    y 0.000000 1.733460 0.000000 
#    z -0.012110 0.000000 1.701180 
# 
# From -- ./inp_files/54028.got.cif
#   From: 2010.05.17/outbox.cif.g08.bks.cpg/sg13_28_cif.got.tgz:54028.got - 2010.06.03 16:44:36.
