data_PCOD9230850
_publ_section_title
;
Structure prediction by ZEFSAII (Michael W. Deem and Ramdas Pophale) SiO2 
 PCOD9230850
Probable space group: P 2/C
;
_chemical_formula_sum "Si O2"
_cell_formula_units_Z 18
_cell_length_a 5.566651
_cell_length_b 17.291151
_cell_length_c 9.436254
_cell_angle_alpha 90.000000
_cell_angle_beta 57.585576
_cell_angle_gamma 90.000000
_cell_volume 766.759684
_symmetry_space_group_name_H-M "P 2/C"
_symmetry_group_IT_number 13
_symmetry_cell_setting 'monoclinic'
loop_
_space_group_symop_operation_xyz
x,y,z
-x,y,1/2-z
-x,-y,-z
x,-y,1/2+z
loop_
_atom_site_type_symbol
_atom_site_label
_atom_site_fract_x
_atom_site_fract_y
_atom_site_fract_z
Si Si1 0.696078 0.336147 0.807047
Si Si2 0.697793 0.512255 0.804483
Si Si3 0.706460 0.101835 0.419926
Si Si4 0.346193 0.732590 0.646885
Si Si5 0.500000 0.978549 0.250000
O O1 0.500000 0.297681 0.750000
O O2 0.765558 0.423530 0.730975
O O3 0.000000 0.300362 0.750000
O O4 0.495398 0.333318 0.006828
O O5 0.500000 0.550654 0.750000
O O6 0.000000 0.547246 0.750000
O O7 0.500000 0.500000 0.000000
O O8 0.557460 0.184917 0.454009
O O9 0.705722 0.074167 0.584711
O O10 0.000000 0.119759 0.250000
O O11 0.605786 0.035124 0.341812
O O12 0.500000 0.733184 0.750000
O O13 0.000000 0.724325 0.750000
#
# Coordination Sequence:
#
# PCOD9230850 Si02
#       5
#     4   4   4   4   2
#     4  10  22  40  60  87 120 158 200 243 294 357
#     4  10  21  37  59  88 122 156 199 245 292 352
#     4  10  21  37  57  83 116 148 201 247 302 363
#     4  11  23  40  60  87 119 153 199 250 295 356
#     4  10  20  38  58  82 112 154 192 244 316 354
#
# _framework density 23.47541
#
# number of rings (size 3 to 8) (size 9 to 14) (size 15 to 20)
#    0.000    1.778    1.111    2.667    1.556    1.778 
#    0.000    1.111    0.000    0.000    0.000    0.000 
#    0.000    0.000    0.000    0.000    0.000    0.000 
#
# Total GULP energy -100219.228852 kJ/mol
# GULP energy per Si atom -5567.734936 kJ/mol
# Density = 2.342198 g / cm^3
# Si number density = 23.475410 Si / 1000 Ang^3
#
#
#
# Elastic Constant Matrix: (Units=GPa)
#
#
# Indices 1 2 3 4 5 6 
#
# 1 213.6780 7.7064 67.4341 0.0000 -2.5083 0.0000
# 2 7.7064 103.6737 27.4660 0.0000 8.8918 0.0000
# 3 67.4341 27.4660 128.2443 0.0000 10.4049 0.0000
# 4 0.0000 0.0000 0.0000 33.7764 0.0000 -21.8475
# 5 -2.5083 8.8918 10.4049 0.0000 49.5496 0.0000
# 6 0.0000 0.0000 0.0000 -21.8475 0.0000 -20.6275
#
#
#
# Elastic Compliance Matrix: (Units=1/GPa)
#
#
# Indices 1 2 3 4 5 6 
#
# 1 0.005663 0.000330 -0.003120 0.000000 0.000883 0.000000
# 2 0.000330 0.010341 -0.002278 0.000000 -0.001361 0.000000
# 3 -0.003120 -0.002278 0.010077 0.000000 -0.001865 0.000000
# 4 0.000000 0.000000 0.000000 0.017570 0.000000 -0.018609
# 5 0.000883 -0.001361 -0.001865 0.000000 0.020862 0.000000
# 6 0.000000 0.000000 0.000000 -0.018609 0.000000 -0.028769
#
#
# Mechanical properties :
#
#
# Convention : Reuss Voigt Hill
#
# Bulk Modulus (GPa) = 62.71256 72.31213 67.51235
# Shear Modulus (GPa) = 97.66459 35.40567 66.53513
#
# Velocity S-wave (km/s) = 6.45703 3.88777 5.32954
# Velocity P-wave (km/s) = 9.07541 7.14306 8.16659
#
# Compressibility (1/GPa) = 0.01594577
#
# Stress axis : x y z
#
# Youngs Moduli (GPa) = 176.58334 96.69965 99.23183
#
# Poissons Ratio (x) = -0.03190 0.30961
# Poissons Ratio (y) = -0.05826 0.22604
# Poissons Ratio (z) = 0.55095 0.22027
#
# Static dielectric constant tensor:
#      x y z
#    x 1.861500 0.000000 -0.004380 
#    y 0.000000 2.060290 0.000000 
#    z -0.004380 0.000000 1.621000 
# 
# From -- ./inp_files/9337.got.cif
#   From: 2010.05.17/outbox.cif.g08.bks.cpg/sg13_5_cif.got.tgz:9337.got - 2010.06.03 16:44:36.
