data_PCOD9230491
_publ_section_title
;
Structure prediction by ZEFSAII (Michael W. Deem and Ramdas Pophale) SiO2 
 PCOD9230491
Probable space group: P 2/C
;
_chemical_formula_sum "Si O2"
_cell_formula_units_Z 18
_cell_length_a 13.643335
_cell_length_b 7.511495
_cell_length_c 19.635058
_cell_angle_alpha 90.000000
_cell_angle_beta 158.340065
_cell_angle_gamma 90.000000
_cell_volume 742.710523
_symmetry_space_group_name_H-M "P 2/C"
_symmetry_group_IT_number 13
_symmetry_cell_setting 'monoclinic'
loop_
_space_group_symop_operation_xyz
x,y,z
-x,y,1/2-z
-x,-y,-z
x,-y,1/2+z
loop_
_atom_site_type_symbol
_atom_site_label
_atom_site_fract_x
_atom_site_fract_y
_atom_site_fract_z
Si Si1 0.771757 0.283190 0.932294
Si Si2 0.186006 0.720323 0.304638
Si Si3 0.500000 0.384398 0.250000
Si Si4 0.808591 0.288031 0.190852
Si Si5 0.033317 0.183847 0.981975
O O1 0.500000 0.171180 0.750000
O O2 0.684065 0.472625 0.907462
O O3 0.845301 0.317755 0.901951
O O4 0.018125 0.218632 0.133643
O O5 0.197958 0.504094 0.311329
O O6 0.501031 0.773523 0.500326
O O7 0.041398 0.801023 0.144669
O O8 0.000000 0.769020 0.250000
O O9 0.674382 0.258230 0.317264
O O10 0.000000 0.239271 0.250000
O O11 0.000000 0.000000 0.000000
#
# Coordination Sequence:
#
# PCOD9230491 Si02
#       5
#     4   4   2   4   4
#     4  10  22  40  69 100 135 183 248 294 347 434
#     4  10  22  39  65 101 142 184 241 298 363 427
#     4  10  24  40  74  96 142 186 256 298 358 422
#     4  10  20  36  67 104 137 183 243 305 349 419
#     4  12  26  43  67 106 146 194 237 303 377 441
#
# _framework density 24.235551000000001
#
# number of rings (size 3 to 8) (size 9 to 14) (size 15 to 20)
#    0.667    0.889    2.222    2.000    4.667    0.000 
#    0.000    2.222    0.000    0.000    0.000    0.000 
#    0.000    0.000    0.000    0.000    0.000    0.000 
#
# Total GULP energy -100253.147097 kJ/mol
# GULP energy per Si atom -5569.619283 kJ/mol
# Density = 2.418039 g / cm^3
# Si number density = 24.235551 Si / 1000 Ang^3
#
#
#
# Elastic Constant Matrix: (Units=GPa)
#
#
# Indices 1 2 3 4 5 6 
#
# 1 203.2314 32.6079 82.8603 0.0000 10.2151 0.0000
# 2 32.6079 97.9211 20.5422 0.0000 5.6858 0.0000
# 3 82.8603 20.5422 131.8235 0.0000 17.0097 0.0000
# 4 0.0000 0.0000 0.0000 -2.4665 0.0000 -1.3540
# 5 10.2151 5.6858 17.0097 0.0000 51.6836 0.0000
# 6 0.0000 0.0000 0.0000 -1.3540 0.0000 25.6610
#
#
#
# Elastic Compliance Matrix: (Units=1/GPa)
#
#
# Indices 1 2 3 4 5 6 
#
# 1 0.006801 -0.001419 -0.004074 0.000000 0.000153 0.000000
# 2 -0.001419 0.010874 -0.000715 0.000000 -0.000681 0.000000
# 3 -0.004074 -0.000715 0.010594 0.000000 -0.002603 0.000000
# 4 0.000000 0.000000 0.000000 -0.394025 0.000000 -0.020791
# 5 0.000153 -0.000681 -0.002603 0.000000 0.020250 0.000000
# 6 0.000000 0.000000 0.000000 -0.020791 0.000000 0.037873
#
#
# Mechanical properties :
#
#
# Convention : Reuss Voigt Hill
#
# Bulk Modulus (GPa) = 63.07413 78.33300 70.70356
# Shear Modulus (GPa) = -17.24537 34.77334 8.76399
#
# Velocity S-wave (km/s) = -2.67043 3.79199 1.90369
# Velocity P-wave (km/s) = 4.07108 7.18081 5.83685
#
# Compressibility (1/GPa) = 0.01585436
#
# Stress axis : x y z
#
# Youngs Moduli (GPa) = 147.02758 91.95965 94.39540
#
# Poissons Ratio (x) = 0.13050 0.38454
# Poissons Ratio (y) = 0.20865 0.06746
# Poissons Ratio (z) = 0.59895 0.06572
#
# Static dielectric constant tensor:
#      x y z
#    x 2.032450 0.000000 0.096120 
#    y 0.000000 2.030850 0.000000 
#    z 0.096120 0.000000 2.017770 
# 
# From -- ./inp_files/79711.got.cif
#   From: 2010.05.17/outbox.cif.g08.bks.cpg/sg13_40_cif.got.tgz:79711.got - 2010.06.03 16:44:36.
