data_PCOD9230286
_publ_section_title
;
Structure prediction by ZEFSAII (Michael W. Deem and Ramdas Pophale) SiO2 
 PCOD9230286
Probable space group: P 2/C
;
_chemical_formula_sum "Si O2"
_cell_formula_units_Z 22
_cell_length_a 8.061427
_cell_length_b 12.070346
_cell_length_c 13.833581
_cell_angle_alpha 90.000000
_cell_angle_beta 129.486553
_cell_angle_gamma 90.000000
_cell_volume 1038.858313
_symmetry_space_group_name_H-M "P 2/C"
_symmetry_group_IT_number 13
_symmetry_cell_setting 'monoclinic'
loop_
_space_group_symop_operation_xyz
x,y,z
-x,y,1/2-z
-x,-y,-z
x,-y,1/2+z
loop_
_atom_site_type_symbol
_atom_site_label
_atom_site_fract_x
_atom_site_fract_y
_atom_site_fract_z
Si Si1 0.985105 0.846979 0.483834
Si Si2 0.861133 0.011515 0.289544
Si Si3 0.606058 0.602853 0.984175
Si Si4 0.473772 0.172219 0.125984
Si Si5 0.943189 0.397082 0.909609
Si Si6 0.500000 0.487282 0.750000
O O1 0.001763 0.900108 0.595656
O O2 0.225272 0.863615 0.528430
O O3 0.944418 0.717027 0.469307
O O4 0.827227 0.912043 0.353229
O O5 0.645031 0.074273 0.176907
O O6 0.000000 0.974763 0.250000
O O7 0.500690 0.725204 0.939513
O O8 0.582874 0.564220 0.865263
O O9 0.500000 0.500000 0.000000
O O10 0.862697 0.611421 0.095330
O O11 0.500000 0.205439 0.250000
O O12 0.700799 0.416781 0.784836
O O13 0.000000 0.500000 0.000000
#
# Coordination Sequence:
#
# PCOD9230286 Si02
#       6
#     4   4   4   4   4   2
#     4   9  20  41  57  83 121 151 193 247 292 347
#     4  10  21  36  60  86 109 155 204 237 287 350
#     4  10  20  36  59  87 117 154 197 238 298 362
#     4   9  18  38  62  80 116 161 188 243 304 343
#     4   9  20  38  62  84 119 153 192 244 302 352
#     4  10  20  38  56  82 118 156 182 250 298 348
#
# _framework density 21.177092999999999
#
# number of rings (size 3 to 8) (size 9 to 14) (size 15 to 20)
#    0.000    2.545    0.909    0.000    2.545    4.364 
#   14.727    0.000    0.000    0.000    0.000    0.000 
#    0.000    0.000    0.000    0.000    0.000    0.000 
#
# Total GULP energy -122524.108277 kJ/mol
# GULP energy per Si atom -5569.277649 kJ/mol
# Density = 2.112889 g / cm^3
# Si number density = 21.177093 Si / 1000 Ang^3
#
#
#
# Elastic Constant Matrix: (Units=GPa)
#
#
# Indices 1 2 3 4 5 6 
#
# 1 28.4072 -5.6668 15.3137 0.0000 14.7474 0.0000
# 2 -5.6668 104.3572 17.9421 0.0000 11.7532 0.0000
# 3 15.3137 17.9421 53.7310 0.0000 19.4585 0.0000
# 4 0.0000 0.0000 0.0000 37.0348 0.0000 -4.9249
# 5 14.7474 11.7532 19.4585 0.0000 33.7372 0.0000
# 6 0.0000 0.0000 0.0000 -4.9249 0.0000 20.9999
#
#
#
# Elastic Compliance Matrix: (Units=1/GPa)
#
#
# Indices 1 2 3 4 5 6 
#
# 1 0.051972 0.006724 -0.010089 0.000000 -0.019241 0.000000
# 2 0.006724 0.011144 -0.004003 0.000000 -0.004512 0.000000
# 3 -0.010089 -0.004003 0.026192 0.000000 -0.009302 0.000000
# 4 0.000000 0.000000 0.000000 0.027871 0.000000 0.006536
# 5 -0.019241 -0.004512 -0.009302 0.000000 0.044989 0.000000
# 6 0.000000 0.000000 0.000000 0.006536 0.000000 0.049152
#
#
# Mechanical properties :
#
#
# Convention : Reuss Voigt Hill
#
# Bulk Modulus (GPa) = 13.41016 26.85258 20.13137
# Shear Modulus (GPa) = 19.92709 28.94815 24.43762
#
# Velocity S-wave (km/s) = 3.07086 3.70125 3.40069
# Velocity P-wave (km/s) = 4.34968 5.56536 4.99464
#
# Compressibility (1/GPa) = 0.07457035
#
# Stress axis : x y z
#
# Youngs Moduli (GPa) = 19.24118 89.73325 38.17920
#
# Poissons Ratio (x) = -0.60336 0.38521
# Poissons Ratio (y) = -0.12938 0.15285
# Poissons Ratio (z) = 0.19413 0.35925
#
# Static dielectric constant tensor:
#      x y z
#    x 1.780870 0.000000 0.034140 
#    y 0.000000 1.818570 0.000000 
#    z 0.034140 0.000000 1.824770 
# 
# From -- ./inp_files/46738.got.cif
#   From: 2010.05.17/outbox.cif.g08.bks.cpg/sg13_24_cif.got.tgz:46738.got - 2010.06.03 16:44:36.
