data_PCOD9230843
_publ_section_title
;
Structure prediction by ZEFSAII (Michael W. Deem and Ramdas Pophale) SiO2 
 PCOD9230843
Probable space group: P 2/C
;
_chemical_formula_sum "Si O2"
_cell_formula_units_Z 14
_cell_length_a 7.156473
_cell_length_b 11.600541
_cell_length_c 7.127195
_cell_angle_alpha 90.000000
_cell_angle_beta 118.691315
_cell_angle_gamma 90.000000
_cell_volume 519.043701
_symmetry_space_group_name_H-M "P 2/C"
_symmetry_group_IT_number 13
_symmetry_cell_setting 'monoclinic'
loop_
_space_group_symop_operation_xyz
x,y,z
-x,y,1/2-z
-x,-y,-z
x,-y,1/2+z
loop_
_atom_site_type_symbol
_atom_site_label
_atom_site_fract_x
_atom_site_fract_y
_atom_site_fract_z
Si Si1 0.328210 0.157128 0.929490
Si Si2 0.000000 0.587930 0.750000
Si Si3 0.265581 0.620054 0.227695
Si Si4 0.216202 0.910061 0.953162
O O1 0.268683 0.291105 0.905993
O O2 0.265535 0.134283 0.682823
O O3 0.218026 0.049676 0.975838
O O4 0.580349 0.134080 0.068622
O O5 0.184897 0.502834 0.761944
O O6 0.894935 0.650299 0.521480
O O7 0.500000 0.618570 0.250000
O O8 0.000000 0.877018 0.750000
#
# Coordination Sequence:
#
# PCOD9230843 Si02
#       4
#     4   2   4   4
#     4  10  22  37  61  90 128 162 212 247 319 365
#     4  10  26  42  72  92 122 164 224 256 336 356
#     4  11  22  46  66  95 126 166 208 276 308 381
#     4  10  20  38  57  90 126 167 202 257 297 390
#
# _framework density 26.972684000000001
#
# number of rings (size 3 to 8) (size 9 to 14) (size 15 to 20)
#    0.000    1.714    2.857    1.714    4.000    0.000 
#    0.000    0.000   12.571    0.000    0.000    0.000 
#    0.000    0.000    0.000    0.000    0.000    0.000 
#
# Total GULP energy -78430.315449 kJ/mol
# GULP energy per Si atom -5602.165389 kJ/mol
# Density = 2.691129 g / cm^3
# Si number density = 26.972684 Si / 1000 Ang^3
#
#
#
# Elastic Constant Matrix: (Units=GPa)
#
#
# Indices 1 2 3 4 5 6 
#
# 1 102.6660 26.5879 39.4268 0.0000 34.2089 0.0000
# 2 26.5879 125.2260 46.2411 0.0000 18.0449 0.0000
# 3 39.4268 46.2411 151.7904 0.0000 50.9799 0.0000
# 4 0.0000 0.0000 0.0000 34.3469 0.0000 -12.4128
# 5 34.2089 18.0449 50.9799 0.0000 49.4447 0.0000
# 6 0.0000 0.0000 0.0000 -12.4128 0.0000 10.1994
#
#
#
# Elastic Compliance Matrix: (Units=1/GPa)
#
#
# Indices 1 2 3 4 5 6 
#
# 1 0.012934 -0.001509 -0.000121 0.000000 -0.008273 0.000000
# 2 -0.001509 0.009190 -0.002496 0.000000 0.000264 0.000000
# 3 -0.000121 -0.002496 0.010778 0.000000 -0.010118 0.000000
# 4 0.000000 0.000000 0.000000 0.051974 0.000000 0.063252
# 5 -0.008273 0.000264 -0.010118 0.000000 0.036284 0.000000
# 6 0.000000 0.000000 0.000000 0.063252 0.000000 0.175023
#
#
# Mechanical properties :
#
#
# Convention : Reuss Voigt Hill
#
# Bulk Modulus (GPa) = 40.57042 67.13267 53.85155
# Shear Modulus (GPa) = 15.99217 36.62665 26.30941
#
# Velocity S-wave (km/s) = 2.43760 3.68899 3.12654
# Velocity P-wave (km/s) = 4.79546 6.56415 5.74824
#
# Compressibility (1/GPa) = 0.02464850
#
# Stress axis : x y z
#
# Youngs Moduli (GPa) = 77.31345 108.81745 92.78031
#
# Poissons Ratio (x) = 0.16424 0.01126
# Poissons Ratio (y) = 0.11669 0.23160
# Poissons Ratio (z) = 0.00938 0.27163
#
# Static dielectric constant tensor:
#      x y z
#    x 2.156670 0.000000 -0.048620 
#    y 0.000000 2.165550 0.000000 
#    z -0.048620 0.000000 2.033920 
# 
# From -- ./inp_files/11517.got.cif
#   From: 2010.05.17/outbox.cif.g08.bks.cpg/sg13_6_cif.got.tgz:11517.got - 2010.06.03 16:44:36.
