data_PCOD9230682
_publ_section_title
;
Structure prediction by ZEFSAII (Michael W. Deem and Ramdas Pophale) SiO2 
 PCOD9230682
Probable space group: P 2/C
;
_chemical_formula_sum "Si O2"
_cell_formula_units_Z 20
_cell_length_a 5.353215
_cell_length_b 7.333011
_cell_length_c 24.129668
_cell_angle_alpha 90.000000
_cell_angle_beta 85.571914
_cell_angle_gamma 90.000000
_cell_volume 944.387157
_symmetry_space_group_name_H-M "P 2/C"
_symmetry_group_IT_number 13
_symmetry_cell_setting 'monoclinic'
loop_
_space_group_symop_operation_xyz
x,y,z
-x,y,1/2-z
-x,-y,-z
x,-y,1/2+z
loop_
_atom_site_type_symbol
_atom_site_label
_atom_site_fract_x
_atom_site_fract_y
_atom_site_fract_z
Si Si1 0.427015 0.151233 0.079497
Si Si2 0.480606 0.546266 0.376895
Si Si3 0.757812 0.266142 0.715024
Si Si4 0.115564 0.843813 0.123481
Si Si5 0.776535 0.173024 0.535082
O O1 0.502600 0.339659 0.105313
O O2 0.284407 0.021181 0.125068
O O3 0.646337 0.019696 0.052848
O O4 0.253390 0.200270 0.029380
O O5 0.327140 0.565849 0.322386
O O6 0.739068 0.658689 0.363456
O O7 0.357638 0.663956 0.428832
O O8 0.500000 0.207327 0.750000
O O9 0.000000 0.294649 0.750000
O O10 0.869902 0.133690 0.665387
O O11 0.045956 0.829426 0.059633
#
# Coordination Sequence:
#
# PCOD9230682 Si02
#       5
#     4   4   4   4   4
#     4  10  20  37  61  96 138 165 213 253 314 392
#     4  10  21  37  65  93 126 169 214 263 317 384
#     4  11  22  43  72  87 122 172 216 275 336 374
#     4  10  21  37  64  92 126 171 212 263 318 379
#     4   9  20  36  58  95 139 174 200 253 321 379
#
# _framework density 21.177755000000001
#
# number of rings (size 3 to 8) (size 9 to 14) (size 15 to 20)
#    0.000    2.000    2.000    1.200    0.000    4.000 
#    0.000    0.000   17.600    0.000    0.000    0.000 
#    0.000    0.000    0.000    0.000    0.000    0.000 
#
# Total GULP energy -111490.004021 kJ/mol
# GULP energy per Si atom -5574.500201 kJ/mol
# Density = 2.112955 g / cm^3
# Si number density = 21.177755 Si / 1000 Ang^3
#
#
#
# Elastic Constant Matrix: (Units=GPa)
#
#
# Indices 1 2 3 4 5 6 
#
# 1 90.6814 23.0180 29.1734 0.0000 9.7051 0.0000
# 2 23.0180 88.9348 2.0991 0.0000 -9.8051 0.0000
# 3 29.1734 2.0991 75.6413 0.0000 9.1852 0.0000
# 4 0.0000 0.0000 0.0000 10.4799 0.0000 8.4215
# 5 9.7051 -9.8051 9.1852 0.0000 54.8636 0.0000
# 6 0.0000 0.0000 0.0000 8.4215 0.0000 7.4233
#
#
#
# Elastic Compliance Matrix: (Units=1/GPa)
#
#
# Indices 1 2 3 4 5 6 
#
# 1 0.013803 -0.003707 -0.004944 0.000000 -0.002276 0.000000
# 2 -0.003707 0.012491 0.000747 0.000000 0.002763 0.000000
# 3 -0.004944 0.000747 0.015295 0.000000 -0.001552 0.000000
# 4 0.000000 0.000000 0.000000 1.080074 0.000000 -1.225313
# 5 -0.002276 0.002763 -0.001552 0.000000 0.019383 0.000000
# 6 0.000000 0.000000 0.000000 -1.225313 0.000000 1.524794
#
#
# Mechanical properties :
#
#
# Convention : Reuss Voigt Hill
#
# Bulk Modulus (GPa) = 38.78759 40.42652 39.60705
# Shear Modulus (GPa) = 1.85857 27.95115 14.90486
#
# Velocity S-wave (km/s) = 0.93782 3.63690 2.65580
# Velocity P-wave (km/s) = 4.41901 6.06355 5.30539
#
# Compressibility (1/GPa) = 0.02578144
#
# Stress axis : x y z
#
# Youngs Moduli (GPa) = 72.44947 80.06077 65.38113
#
# Poissons Ratio (x) = 0.29676 0.32326
# Poissons Ratio (y) = 0.26855 -0.04887
# Poissons Ratio (z) = 0.35820 -0.05984
#
# Static dielectric constant tensor:
#      x y z
#    x 1.891580 0.000000 -0.007990 
#    y 0.000000 1.701060 0.000000 
#    z -0.007990 0.000000 1.860320 
# 
# From -- ./inp_files/89898.got.cif
#   From: 2010.05.17/outbox.cif.g08.bks.cpg/sg13_45_cif.got.tgz:89898.got - 2010.06.03 16:44:36.
