data_PCOD9230235
_publ_section_title
;
Structure prediction by ZEFSAII (Michael W. Deem and Ramdas Pophale) SiO2 
 PCOD9230235
Probable space group: P 2/C
;
_chemical_formula_sum "Si O2"
_cell_formula_units_Z 28
_cell_length_a 5.946600
_cell_length_b 16.703749
_cell_length_c 15.130226
_cell_angle_alpha 90.000000
_cell_angle_beta 107.809226
_cell_angle_gamma 90.000000
_cell_volume 1430.874719
_symmetry_space_group_name_H-M "P 2/C"
_symmetry_group_IT_number 13
_symmetry_cell_setting 'monoclinic'
loop_
_space_group_symop_operation_xyz
x,y,z
-x,y,1/2-z
-x,-y,-z
x,-y,1/2+z
loop_
_atom_site_type_symbol
_atom_site_label
_atom_site_fract_x
_atom_site_fract_y
_atom_site_fract_z
Si Si1 0.948093 0.343388 0.390123
Si Si2 0.795918 0.506438 0.651967
Si Si3 0.500000 0.882271 0.250000
Si Si4 0.580521 0.078910 0.560874
Si Si5 0.500000 0.404143 0.250000
Si Si6 0.029309 0.815653 0.131411
Si Si7 0.294555 0.227681 0.484385
Si Si8 0.263786 0.666216 0.438221
O O1 0.730385 0.352427 0.297599
O O2 0.837022 0.336600 0.474242
O O3 0.102580 0.424062 0.398900
O O4 0.114259 0.266701 0.393903
O O5 0.566057 0.540550 0.674540
O O6 0.749354 0.422225 0.601520
O O7 0.000000 0.494824 0.750000
O O8 0.503231 0.925596 0.346005
O O9 0.254966 0.832408 0.220304
O O10 0.460728 0.151515 0.490436
O O11 0.852635 0.108517 0.602149
O O12 0.500000 0.000000 0.500000
O O13 0.142172 0.800236 0.049252
O O14 0.887698 0.733530 0.132008
O O15 0.471698 0.299516 0.530362
#
# Coordination Sequence:
#
# PCOD9230235 Si02
#       8
#     4   4   2   4   2   4   4   4
#     4  10  20  37  56  76 108 151 198 241 289 345
#     4  10  22  35  51  78 111 152 196 241 290 341
#     4  10  20  36  61  91 120 154 188 228 292 355
#     4  10  21  39  64  88 118 153 190 238 290 352
#     4  10  22  36  51  73 110 154 196 244 294 339
#     4   9  20  37  58  86 118 150 185 233 290 350
#     4   9  20  35  58  85 109 145 188 232 292 353
#     4  10  20  36  58  84 113 147 194 242 291 348
#
# _framework density 19.568449999999999
#
# number of rings (size 3 to 8) (size 9 to 14) (size 15 to 20)
#    0.000    2.286    0.000    1.714    0.000   12.571 
#    0.000    3.571    0.000   42.000    0.000    0.000 
#    0.000    0.000    0.000    0.000    0.000    0.000 
#
# Total GULP energy -156041.806531 kJ/mol
# GULP energy per Si atom -5572.921662 kJ/mol
# Density = 1.952391 g / cm^3
# Si number density = 19.568450 Si / 1000 Ang^3
#
#
#
# Elastic Constant Matrix: (Units=GPa)
#
#
# Indices 1 2 3 4 5 6 
#
# 1 92.1277 33.8496 27.1329 0.0000 12.0935 0.0000
# 2 33.8496 109.4618 56.0462 0.0000 21.6880 0.0000
# 3 27.1329 56.0462 68.3680 0.0000 5.8972 0.0000
# 4 0.0000 0.0000 0.0000 29.8855 0.0000 -2.8050
# 5 12.0935 21.6880 5.8972 0.0000 38.6209 0.0000
# 6 0.0000 0.0000 0.0000 -2.8050 0.0000 15.2577
#
#
#
# Elastic Compliance Matrix: (Units=1/GPa)
#
#
# Indices 1 2 3 4 5 6 
#
# 1 0.012835 -0.001670 -0.003505 0.000000 -0.002546 0.000000
# 2 -0.001670 0.018054 -0.013486 0.000000 -0.007556 0.000000
# 3 -0.003505 -0.013486 0.026677 0.000000 0.004597 0.000000
# 4 0.000000 0.000000 0.000000 0.034049 0.000000 0.006260
# 5 -0.002546 -0.007556 0.004597 0.000000 0.030231 0.000000
# 6 0.000000 0.000000 0.000000 0.006260 0.000000 0.066692
#
#
# Mechanical properties :
#
#
# Convention : Reuss Voigt Hill
#
# Bulk Modulus (GPa) = 49.39794 56.00165 52.69979
# Shear Modulus (GPa) = 21.49558 26.94806 24.22182
#
# Velocity S-wave (km/s) = 3.31793 3.71498 3.52205
# Velocity P-wave (km/s) = 6.32271 6.86163 6.59767
#
# Compressibility (1/GPa) = 0.02024376
#
# Stress axis : x y z
#
# Youngs Moduli (GPa) = 77.91485 55.38909 37.48608
#
# Poissons Ratio (x) = 0.09249 0.13139
# Poissons Ratio (y) = 0.13010 0.50553
# Poissons Ratio (z) = 0.27310 0.74697
#
# Static dielectric constant tensor:
#      x y z
#    x 1.740950 0.000000 0.005680 
#    y 0.000000 1.670170 0.000000 
#    z 0.005680 0.000000 1.724140 
# 
# From -- ./inp_files/61441.got.cif
#   From: 2010.05.17/outbox.cif.g08.bks.cpg/sg13_31_cif.got.tgz:61441.got - 2010.06.03 16:44:36.
