data_PCOD9230063
_publ_section_title
;
Structure prediction by ZEFSAII (Michael W. Deem and Ramdas Pophale) SiO2 
 PCOD9230063
Probable space group: P 2/C
;
_chemical_formula_sum "Si O2"
_cell_formula_units_Z 32
_cell_length_a 11.938312
_cell_length_b 12.782586
_cell_length_c 18.699306
_cell_angle_alpha 90.000000
_cell_angle_beta 148.037587
_cell_angle_gamma 90.000000
_cell_volume 1510.569003
_symmetry_space_group_name_H-M "P 2/C"
_symmetry_group_IT_number 13
_symmetry_cell_setting 'monoclinic'
loop_
_space_group_symop_operation_xyz
x,y,z
-x,y,1/2-z
-x,-y,-z
x,-y,1/2+z
loop_
_atom_site_type_symbol
_atom_site_label
_atom_site_fract_x
_atom_site_fract_y
_atom_site_fract_z
Si Si1 0.673965 0.312050 0.402482
Si Si2 0.259112 0.405968 0.820247
Si Si3 0.537212 0.869507 0.085928
Si Si4 0.947921 0.795503 0.348860
Si Si5 0.809264 0.023162 0.605812
Si Si6 0.540867 0.297659 0.073408
Si Si7 0.022624 0.621030 0.681343
Si Si8 0.400165 0.561656 0.120383
O O1 0.500000 0.284492 0.250000
O O2 0.603998 0.261481 0.440093
O O3 0.664336 0.438283 0.406248
O O4 0.904948 0.263424 0.514177
O O5 0.121890 0.299376 0.741980
O O6 0.098724 0.501234 0.731398
O O7 0.414941 0.420224 0.837249
O O8 0.412154 0.396516 0.971597
O O9 0.712863 0.837443 0.239244
O O10 0.674275 0.924556 0.096923
O O11 0.440297 0.775110 0.986206
O O12 0.354647 0.942927 0.017362
O O13 0.077565 0.890721 0.382729
O O14 0.000000 0.964714 0.750000
O O15 0.765640 0.322420 0.230681
O O16 0.000000 0.660721 0.750000
O O17 0.810215 0.621552 0.520368
O O18 0.500000 0.594376 0.250000
#
# Coordination Sequence:
#
# PCOD9230063 Si02
#       8
#     4   4   4   4   4   4   4   4
#     4  11  22  36  57  87 121 167 215 252 296 363
#     4  11  22  35  58  87 116 161 213 246 301 369
#     4   9  19  32  56  89 115 141 194 249 318 365
#     4  10  20  35  60  84 119 154 195 250 310 365
#     4   9  17  33  56  89 116 140 181 252 320 369
#     4  11  21  35  56  86 122 156 205 256 302 368
#     4  12  22  34  55  82 122 166 207 256 306 345
#     4  11  24  40  55  84 128 169 215 263 296 358
#
# _framework density 21.184070999999999
#
# number of rings (size 3 to 8) (size 9 to 14) (size 15 to 20)
#    0.000    1.500    5.000    1.125    1.750    2.000 
#    0.000    0.000    0.000    0.750    0.000    0.875 
#    0.000    0.000    0.000    0.000    0.000    0.000 
#
# Total GULP energy -178338.057067 kJ/mol
# GULP energy per Si atom -5573.064283 kJ/mol
# Density = 2.113586 g / cm^3
# Si number density = 21.184071 Si / 1000 Ang^3
#
#
#
# Elastic Constant Matrix: (Units=GPa)
#
#
# Indices 1 2 3 4 5 6 
#
# 1 33.4458 4.8995 35.6227 0.0000 -4.0086 0.0000
# 2 4.8995 56.5910 38.0820 0.0000 15.9245 0.0000
# 3 35.6227 38.0820 193.8994 0.0000 7.5145 0.0000
# 4 0.0000 0.0000 0.0000 40.6211 0.0000 18.0770
# 5 -4.0086 15.9245 7.5145 0.0000 28.7399 0.0000
# 6 0.0000 0.0000 0.0000 18.0770 0.0000 16.1690
#
#
#
# Elastic Compliance Matrix: (Units=1/GPa)
#
#
# Indices 1 2 3 4 5 6 
#
# 1 0.038654 -0.000592 -0.007281 0.000000 0.007623 0.000000
# 2 -0.000592 0.023948 -0.004119 0.000000 -0.012275 0.000000
# 3 -0.007281 -0.004119 0.007329 0.000000 -0.000650 0.000000
# 4 0.000000 0.000000 0.000000 0.048994 0.000000 -0.054775
# 5 0.007623 -0.012275 -0.000650 0.000000 0.042829 0.000000
# 6 0.000000 0.000000 0.000000 -0.054775 0.000000 0.123085
#
#
# Mechanical properties :
#
#
# Convention : Reuss Voigt Hill
#
# Bulk Modulus (GPa) = 21.76409 49.01607 35.39008
# Shear Modulus (GPa) = 15.42553 30.79481 23.11017
#
# Velocity S-wave (km/s) = 2.70138 3.81685 3.30649
# Velocity P-wave (km/s) = 4.47505 6.52785 5.59638
#
# Compressibility (1/GPa) = 0.04594725
#
# Stress axis : x y z
#
# Youngs Moduli (GPa) = 25.87057 41.75762 136.44458
#
# Poissons Ratio (x) = 0.02474 0.99338
# Poissons Ratio (y) = 0.01533 0.56199
# Poissons Ratio (z) = 0.18835 0.17199
#
# Static dielectric constant tensor:
#      x y z
#    x 1.790120 0.000000 0.058540 
#    y 0.000000 1.855260 0.000000 
#    z 0.058540 0.000000 1.816490 
# 
# From -- ./inp_files/66954.got.cif
#   From: 2010.05.17/outbox.cif.g08.bks.cpg/sg13_34_cif.got.tgz:66954.got - 2010.06.03 16:44:36.
