data_PCOD9230848
_publ_section_title
;
Structure prediction by ZEFSAII (Michael W. Deem and Ramdas Pophale) SiO2 
 PCOD9230848
Probable space group: P 2/C
;
_chemical_formula_sum "Si O2"
_cell_formula_units_Z 22
_cell_length_a 8.852878
_cell_length_b 16.534516
_cell_length_c 7.939203
_cell_angle_alpha 90.000000
_cell_angle_beta 97.389329
_cell_angle_gamma 90.000000
_cell_volume 1152.473782
_symmetry_space_group_name_H-M "P 2/C"
_symmetry_group_IT_number 13
_symmetry_cell_setting 'monoclinic'
loop_
_space_group_symop_operation_xyz
x,y,z
-x,y,1/2-z
-x,-y,-z
x,-y,1/2+z
loop_
_atom_site_type_symbol
_atom_site_label
_atom_site_fract_x
_atom_site_fract_y
_atom_site_fract_z
Si Si1 0.773622 0.950987 0.460362
Si Si2 0.318845 0.109336 0.199814
Si Si3 0.000000 0.134497 0.750000
Si Si4 0.117610 0.395966 0.908781
Si Si5 0.725489 0.763009 0.048886
Si Si6 0.000000 0.550509 0.750000
Si Si7 0.500000 0.853224 0.250000
O O1 0.770293 0.918094 0.647958
O O2 0.629246 0.909027 0.348922
O O3 0.920411 0.921968 0.378806
O O4 0.737461 0.046131 0.450149
O O5 0.500000 0.099417 0.250000
O O6 0.283784 0.200247 0.139420
O O7 0.870310 0.192383 0.654051
O O8 0.254016 0.332644 0.934414
O O9 0.130074 0.488087 0.840177
O O10 0.000000 0.362977 0.750000
O O11 0.052923 0.402511 0.090551
O O12 0.577509 0.796950 0.121626
#
# Coordination Sequence:
#
# PCOD9230848 Si02
#       7
#     4   4   2   4   4   2   2
#     4  11  22  38  59  76 115 154 215 241 295 341
#     4  12  23  38  58  82 109 164 206 246 283 359
#     4  10  23  38  55  88 112 154 184 262 307 332
#     4   9  17  36  60  93 117 149 185 234 285 368
#     4  11  22  37  59  85 122 144 196 239 308 335
#     4   8  17  34  65  90 120 150 186 218 301 372
#     4  10  20  38  58  78 112 170 190 244 278 358
#
# _framework density 19.089372999999998
#
# number of rings (size 3 to 8) (size 9 to 14) (size 15 to 20)
#    0.545    1.091    3.636    2.727    0.000    5.091 
#    0.000    0.000    0.000    1.091    0.000    0.000 
#    0.000    0.000    0.000    0.000    0.000    0.000 
#
# Total GULP energy -122667.691187 kJ/mol
# GULP energy per Si atom -5575.804145 kJ/mol
# Density = 1.904592 g / cm^3
# Si number density = 19.089373 Si / 1000 Ang^3
#
#
#
# Elastic Constant Matrix: (Units=GPa)
#
#
# Indices 1 2 3 4 5 6 
#
# 1 70.5427 15.5809 13.2430 0.0000 -7.6381 0.0000
# 2 15.5809 67.1016 11.9421 0.0000 -3.3072 0.0000
# 3 13.2430 11.9421 98.7103 0.0000 -19.8110 0.0000
# 4 0.0000 0.0000 0.0000 -3.4748 0.0000 -0.9427
# 5 -7.6381 -3.3072 -19.8110 0.0000 20.5798 0.0000
# 6 0.0000 0.0000 0.0000 -0.9427 0.0000 20.8436
#
#
#
# Elastic Compliance Matrix: (Units=1/GPa)
#
#
# Indices 1 2 3 4 5 6 
#
# 1 0.015526 -0.003243 -0.000792 0.000000 0.004479 0.000000
# 2 -0.003243 0.015920 -0.001511 0.000000 -0.000100 0.000000
# 3 -0.000792 -0.001511 0.012781 0.000000 0.011767 0.000000
# 4 0.000000 0.000000 0.000000 -0.284294 0.000000 -0.012858
# 5 0.004479 -0.000100 0.011767 0.000000 0.061565 0.000000
# 6 0.000000 0.000000 0.000000 -0.012858 0.000000 0.047395
#
#
# Mechanical properties :
#
#
# Convention : Reuss Voigt Hill
#
# Bulk Modulus (GPa) = 30.17954 35.32075 32.75014
# Shear Modulus (GPa) = -45.88423 20.62894 -12.62764
#
# Velocity S-wave (km/s) = -4.90803 3.29089 -2.57476
# Velocity P-wave (km/s) = 4.03415 5.74308 2.89038
#
# Compressibility (1/GPa) = 0.03313503
#
# Stress axis : x y z
#
# Youngs Moduli (GPa) = 64.40903 62.81462 78.23912
#
# Poissons Ratio (x) = 0.20373 0.06193
# Poissons Ratio (y) = 0.20891 0.11821
# Poissons Ratio (z) = 0.05099 0.09491
#
# Static dielectric constant tensor:
#      x y z
#    x 1.656350 0.000000 0.004750 
#    y 0.000000 1.653720 0.000000 
#    z 0.004750 0.000000 1.728670 
# 
# From -- ./inp_files/12273.got.cif
#   From: 2010.05.17/outbox.cif.g08.bks.cpg/sg13_7_cif.got.tgz:12273.got - 2010.06.03 16:44:36.
