data_PCOD9230767
_publ_section_title
;
Structure prediction by ZEFSAII (Michael W. Deem and Ramdas Pophale) SiO2 
 PCOD9230767
Probable space group: P 2/C
;
_chemical_formula_sum "Si O2"
_cell_formula_units_Z 22
_cell_length_a 15.737324
_cell_length_b 8.607966
_cell_length_c 8.111593
_cell_angle_alpha 90.000000
_cell_angle_beta 60.421614
_cell_angle_gamma 90.000000
_cell_volume 955.647357
_symmetry_space_group_name_H-M "P 2/C"
_symmetry_group_IT_number 13
_symmetry_cell_setting 'monoclinic'
loop_
_space_group_symop_operation_xyz
x,y,z
-x,y,1/2-z
-x,-y,-z
x,-y,1/2+z
loop_
_atom_site_type_symbol
_atom_site_label
_atom_site_fract_x
_atom_site_fract_y
_atom_site_fract_z
Si Si1 0.166736 0.405353 0.698224
Si Si2 0.500000 0.622749 0.750000
Si Si3 0.898831 0.723547 0.912496
Si Si4 0.693963 0.606800 0.719419
Si Si5 0.587908 0.876759 0.426601
Si Si6 0.302963 0.135723 0.011474
O O1 0.113653 0.555921 0.669432
O O2 0.251338 0.472218 0.735532
O O3 0.226816 0.332749 0.489751
O O4 0.102779 0.307062 0.888265
O O5 0.594214 0.542159 0.737342
O O6 0.548202 0.733336 0.566942
O O7 0.805953 0.825418 0.946178
O O8 0.000000 0.791152 0.750000
O O9 0.672561 0.744636 0.865861
O O10 0.500000 0.000000 0.500000
O O11 0.675126 0.965027 0.439599
O O12 0.625594 0.839214 0.210045
#
# Coordination Sequence:
#
# PCOD9230767 Si02
#       6
#     4   2   4   4   4   4
#     4   9  20  39  57  85 125 151 194 235 293 339
#     4  12  22  34  60  82 114 150 208 222 302 338
#     4  10  20  37  64  90 116 157 195 239 293 347
#     4  10  21  36  56  86 116 159 184 248 279 349
#     4  12  21  37  59  86 110 155 196 243 285 352
#     4  11  22  38  59  86 120 145 203 243 291 341
#
# _framework density 23.021044
#
# number of rings (size 3 to 8) (size 9 to 14) (size 15 to 20)
#    0.000    1.455    3.636    1.636    0.000    0.727 
#    0.000    0.909    0.000    0.000    0.000    0.000 
#    0.000    0.000    0.000    0.000    0.000    0.000 
#
# Total GULP energy -123123.641589 kJ/mol
# GULP energy per Si atom -5596.529163 kJ/mol
# Density = 2.296865 g / cm^3
# Si number density = 23.021044 Si / 1000 Ang^3
#
#
#
# Elastic Constant Matrix: (Units=GPa)
#
#
# Indices 1 2 3 4 5 6 
#
# 1 71.5897 4.8510 48.6275 0.0000 -15.0699 0.0000
# 2 4.8510 31.3430 30.9854 0.0000 -0.4257 0.0000
# 3 48.6275 30.9854 211.3127 0.0000 6.1607 0.0000
# 4 0.0000 0.0000 0.0000 21.3276 0.0000 4.5748
# 5 -15.0699 -0.4257 6.1607 0.0000 40.2823 0.0000
# 6 0.0000 0.0000 0.0000 4.5748 0.0000 24.4308
#
#
#
# Elastic Compliance Matrix: (Units=1/GPa)
#
#
# Indices 1 2 3 4 5 6 
#
# 1 0.018754 0.001981 -0.004833 0.000000 0.007776 0.000000
# 2 0.001981 0.037585 -0.006027 0.000000 0.002060 0.000000
# 3 -0.004833 -0.006027 0.006813 0.000000 -0.002914 0.000000
# 4 0.000000 0.000000 0.000000 0.048850 0.000000 -0.009147
# 5 0.007776 0.002060 -0.002914 0.000000 0.028201 0.000000
# 6 0.000000 0.000000 0.000000 -0.009147 0.000000 0.042645
#
#
# Mechanical properties :
#
#
# Convention : Reuss Voigt Hill
#
# Bulk Modulus (GPa) = 22.02957 53.68589 37.85773
# Shear Modulus (GPa) = 23.17638 32.52691 27.85165
#
# Velocity S-wave (km/s) = 3.17637 3.76296 3.48204
# Velocity P-wave (km/s) = 4.80026 6.50006 5.71373
#
# Compressibility (1/GPa) = 0.04539352
#
# Stress axis : x y z
#
# Youngs Moduli (GPa) = 53.32247 26.60652 146.77493
#
# Poissons Ratio (x) = -0.05270 0.70933
# Poissons Ratio (y) = -0.10562 0.88461
# Poissons Ratio (z) = 0.25770 0.16036
#
# Static dielectric constant tensor:
#      x y z
#    x 1.893710 0.000000 0.015300 
#    y 0.000000 1.893760 0.000000 
#    z 0.015300 0.000000 1.895450 
# 
# From -- ./inp_files/15962.got.cif
#   From: 2010.05.17/outbox.cif.g08.bks.cpg/sg13_8_cif.got.tgz:15962.got - 2010.06.03 16:44:36.
