data_PCOD9230379
_publ_section_title
;
Structure prediction by ZEFSAII (Michael W. Deem and Ramdas Pophale) SiO2 
 PCOD9230379
Probable space group: P 2/C
;
_chemical_formula_sum "Si O2"
_cell_formula_units_Z 20
_cell_length_a 9.666813
_cell_length_b 10.969264
_cell_length_c 16.159699
_cell_angle_alpha 90.000000
_cell_angle_beta 149.700515
_cell_angle_gamma 90.000000
_cell_volume 864.514621
_symmetry_space_group_name_H-M "P 2/C"
_symmetry_group_IT_number 13
_symmetry_cell_setting 'monoclinic'
loop_
_space_group_symop_operation_xyz
x,y,z
-x,y,1/2-z
-x,-y,-z
x,-y,1/2+z
loop_
_atom_site_type_symbol
_atom_site_label
_atom_site_fract_x
_atom_site_fract_y
_atom_site_fract_z
Si Si1 0.035476 0.227737 0.610817
Si Si2 0.158473 0.479196 0.994838
Si Si3 0.484792 0.204829 0.520755
Si Si4 0.000000 0.393989 0.250000
Si Si5 0.780501 0.979223 0.061665
Si Si6 0.500000 0.664769 0.250000
O O1 0.240170 0.255913 0.641474
O O2 0.807153 0.333995 0.493509
O O3 0.920290 0.092169 0.558913
O O4 0.229851 0.246350 0.791919
O O5 0.000946 0.525367 0.832931
O O6 0.416651 0.569633 0.134925
O O7 0.000000 0.500000 0.000000
O O8 0.556152 0.116548 0.480861
O O9 0.268425 0.308086 0.388424
O O10 0.349591 0.111060 0.517408
O O11 0.000000 0.993701 0.250000
#
# Coordination Sequence:
#
# PCOD9230379 Si02
#       6
#     4   4   4   2   4   2
#     4  10  21  39  64  88 129 171 215 273 323 384
#     4  10  24  40  62  96 132 172 213 269 329 386
#     4  10  20  36  61  95 129 166 217 265 319 396
#     4  12  22  38  68  98 126 176 222 258 336 394
#     4   9  19  35  59  93 130 163 213 272 320 382
#     4  10  20  44  62  90 136 174 210 274 330 382
#
# _framework density 23.134367000000001
#
# number of rings (size 3 to 8) (size 9 to 14) (size 15 to 20)
#    0.000    2.000    3.000    0.000    4.200    4.000 
#    0.000    1.000    0.000    0.000    0.000    0.000 
#    0.000    0.000    0.000    0.000    0.000    0.000 
#
# Total GULP energy -111644.050169 kJ/mol
# GULP energy per Si atom -5582.202508 kJ/mol
# Density = 2.308171 g / cm^3
# Si number density = 23.134367 Si / 1000 Ang^3
#
#
#
# Elastic Constant Matrix: (Units=GPa)
#
#
# Indices 1 2 3 4 5 6 
#
# 1 76.2337 36.1608 18.0309 0.0000 1.4061 0.0000
# 2 36.1608 81.8501 8.1223 0.0000 -5.9183 0.0000
# 3 18.0309 8.1223 39.8837 0.0000 -10.4553 0.0000
# 4 0.0000 0.0000 0.0000 30.6226 0.0000 4.0108
# 5 1.4061 -5.9183 -10.4553 0.0000 28.8947 0.0000
# 6 0.0000 0.0000 0.0000 4.0108 0.0000 32.7190
#
#
#
# Elastic Compliance Matrix: (Units=1/GPa)
#
#
# Indices 1 2 3 4 5 6 
#
# 1 0.018991 -0.007958 -0.008434 0.000000 -0.005606 0.000000
# 2 -0.007958 0.015890 0.001455 0.000000 0.004168 0.000000
# 3 -0.008434 0.001455 0.031791 0.000000 0.012212 0.000000
# 4 0.000000 0.000000 0.000000 0.033189 0.000000 -0.004068
# 5 -0.005606 0.004168 0.012212 0.000000 0.040154 0.000000
# 6 0.000000 0.000000 0.000000 -0.004068 0.000000 0.031062
#
#
# Mechanical properties :
#
#
# Convention : Reuss Voigt Hill
#
# Bulk Modulus (GPa) = 27.17705 35.84393 31.51049
# Shear Modulus (GPa) = 23.45012 27.49082 25.47047
#
# Velocity S-wave (km/s) = 3.18724 3.45093 3.32170
# Velocity P-wave (km/s) = 5.03166 5.60410 5.32558
#
# Compressibility (1/GPa) = 0.03679575
#
# Stress axis : x y z
#
# Youngs Moduli (GPa) = 52.65679 62.93073 31.45541
#
# Poissons Ratio (x) = 0.50083 0.26531
# Poissons Ratio (y) = 0.41907 -0.04575
# Poissons Ratio (z) = 0.44413 -0.09153
#
# Static dielectric constant tensor:
#      x y z
#    x 1.956820 0.000000 0.028110 
#    y 0.000000 1.863840 0.000000 
#    z 0.028110 0.000000 1.911350 
# 
# From -- ./inp_files/66355.got.cif
#   From: 2010.05.17/outbox.cif.g08.bks.cpg/sg13_34_cif.got.tgz:66355.got - 2010.06.03 16:44:36.
