data_PCOD9230748
_publ_section_title
;
Structure prediction by ZEFSAII (Michael W. Deem and Ramdas Pophale) SiO2 
 PCOD9230748
Probable space group: P 2/C
;
_chemical_formula_sum "Si O2"
_cell_formula_units_Z 24
_cell_length_a 20.458724
_cell_length_b 11.358385
_cell_length_c 20.369445
_cell_angle_alpha 90.000000
_cell_angle_beta 13.486830
_cell_angle_gamma 90.000000
_cell_volume 1103.935142
_symmetry_space_group_name_H-M "P 2/C"
_symmetry_group_IT_number 13
_symmetry_cell_setting 'monoclinic'
loop_
_space_group_symop_operation_xyz
x,y,z
-x,y,1/2-z
-x,-y,-z
x,-y,1/2+z
loop_
_atom_site_type_symbol
_atom_site_label
_atom_site_fract_x
_atom_site_fract_y
_atom_site_fract_z
Si Si1 0.191531 0.219251 0.626306
Si Si2 0.481618 0.674014 0.039463
Si Si3 0.730005 0.668679 0.652436
Si Si4 0.280665 0.175852 0.841071
Si Si5 0.962007 0.417107 0.446124
Si Si6 0.182467 0.945813 0.636358
O O1 0.467503 0.298371 0.362744
O O2 0.270265 0.082089 0.548867
O O3 0.000000 0.245212 0.750000
O O4 0.984627 0.243265 0.889370
O O5 0.602875 0.680315 0.849170
O O6 0.713787 0.610542 0.858677
O O7 0.398736 0.799579 0.152313
O O8 0.199483 0.599083 0.325914
O O9 0.865562 0.539969 0.510912
O O10 0.161024 0.305872 0.974429
O O11 0.542864 0.132855 0.626434
O O12 0.026162 0.086266 0.099874
O O13 0.000000 0.921279 0.750000
#
# Coordination Sequence:
#
# PCOD9230748 Si02
#       6
#     4   4   4   4   4   4
#     4  11  26  43  61  85 121 163 214 251 289 362
#     4  10  20  37  63  96 124 152 200 242 308 370
#     4  12  22  40  66  92 119 168 197 241 315 364
#     4  10  20  38  62  91 120 148 199 261 297 348
#     4  10  20  37  63  93 125 152 191 242 308 363
#     4  11  22  42  63  81 115 170 211 247 299 365
#
# _framework density 21.740406
#
# number of rings (size 3 to 8) (size 9 to 14) (size 15 to 20)
#    1.000    0.333    1.667    5.000    0.000    2.667 
#    0.000   10.000    0.000    0.000    0.000    0.000 
#    0.000    0.000    0.000    0.000    0.000    0.000 
#
# Total GULP energy -134000.677852 kJ/mol
# GULP energy per Si atom -5583.361577 kJ/mol
# Density = 2.169092 g / cm^3
# Si number density = 21.740406 Si / 1000 Ang^3
#
#
#
# Elastic Constant Matrix: (Units=GPa)
#
#
# Indices 1 2 3 4 5 6 
#
# 1 44.1669 40.1686 17.9203 0.0000 -12.2616 0.0000
# 2 40.1686 62.0533 13.0571 0.0000 -14.7585 0.0000
# 3 17.9203 13.0571 110.9877 0.0000 -11.2465 0.0000
# 4 0.0000 0.0000 0.0000 181.0655 0.0000 -21.2077
# 5 -12.2616 -14.7585 -11.2465 0.0000 30.2354 0.0000
# 6 0.0000 0.0000 0.0000 -21.2077 0.0000 27.1543
#
#
#
# Elastic Compliance Matrix: (Units=1/GPa)
#
#
# Indices 1 2 3 4 5 6 
#
# 1 0.058193 -0.035611 -0.004756 0.000000 0.004448 0.000000
# 2 -0.035611 0.040204 0.001606 0.000000 0.005780 0.000000
# 3 -0.004756 0.001606 0.009844 0.000000 0.002517 0.000000
# 4 0.000000 0.000000 0.000000 0.006079 0.000000 0.004748
# 5 0.004448 0.005780 0.002517 0.000000 0.038635 0.000000
# 6 0.000000 0.000000 0.000000 0.004748 0.000000 0.040535
#
#
# Mechanical properties :
#
#
# Convention : Reuss Voigt Hill
#
# Bulk Modulus (GPa) = 32.55354 39.94445 36.24900
# Shear Modulus (GPa) = 17.77762 57.42851 37.60307
#
# Velocity S-wave (km/s) = 2.86269 5.14518 4.16341
# Velocity P-wave (km/s) = 5.09243 7.32874 6.31044
#
# Compressibility (1/GPa) = 0.03071863
#
# Stress axis : x y z
#
# Youngs Moduli (GPa) = 17.18407 24.87310 101.58467
#
# Poissons Ratio (x) = 0.88577 0.48312
# Poissons Ratio (y) = 0.61195 -0.16312
# Poissons Ratio (z) = 0.08172 -0.03994
#
# Static dielectric constant tensor:
#      x y z
#    x 1.847430 0.000000 0.039000 
#    y 0.000000 1.794100 0.000000 
#    z 0.039000 0.000000 1.801700 
# 
# From -- ./inp_files/89075.got.cif
#   From: 2010.05.17/outbox.cif.g08.bks.cpg/sg13_45_cif.got.tgz:89075.got - 2010.06.03 16:44:36.
