data_PCOD9230639
_publ_section_title
;
Structure prediction by ZEFSAII (Michael W. Deem and Ramdas Pophale) SiO2 
 PCOD9230639
Probable space group: P 2/C
;
_chemical_formula_sum "Si O2"
_cell_formula_units_Z 20
_cell_length_a 6.780015
_cell_length_b 10.867693
_cell_length_c 11.940247
_cell_angle_alpha 90.000000
_cell_angle_beta 106.581590
_cell_angle_gamma 90.000000
_cell_volume 843.207812
_symmetry_space_group_name_H-M "P 2/C"
_symmetry_group_IT_number 13
_symmetry_cell_setting 'monoclinic'
loop_
_space_group_symop_operation_xyz
x,y,z
-x,y,1/2-z
-x,-y,-z
x,-y,1/2+z
loop_
_atom_site_type_symbol
_atom_site_label
_atom_site_fract_x
_atom_site_fract_y
_atom_site_fract_z
Si Si1 0.000000 0.079612 0.750000
Si Si2 0.201435 0.754594 0.471249
Si Si3 0.642862 0.326072 0.075037
Si Si4 0.254180 0.850516 0.723218
Si Si5 0.000000 0.500000 0.500000
Si Si6 0.638444 0.466068 0.858592
O O1 0.086855 0.163259 0.862736
O O2 0.175186 0.985826 0.737020
O O3 0.449071 0.749410 0.493478
O O4 0.167656 0.807750 0.590178
O O5 0.121035 0.616200 0.455438
O O6 0.776291 0.239660 0.174961
O O7 0.526585 0.433487 0.126138
O O8 0.743978 0.394554 0.983678
O O9 0.500000 0.847508 0.750000
O O10 0.149753 0.526677 0.640742
O O11 0.500000 0.390195 0.750000
#
# Coordination Sequence:
#
# PCOD9230639 Si02
#       6
#     2   4   4   4   2   4
#     4  12  26  42  68 102 128 180 242 274 326 434
#     4  10  23  44  62  98 133 169 227 284 342 411
#     4   9  20  40  63  89 130 178 215 274 354 406
#     4  10  23  46  68  90 136 183 223 281 341 406
#     4  10  22  40  66  94 136 172 212 294 348 404
#     4  10  20  37  61 100 133 169 225 285 343 415
#
# _framework density 23.718947
#
# number of rings (size 3 to 8) (size 9 to 14) (size 15 to 20)
#    0.000    2.000    0.000    3.600    5.600    3.200 
#    7.200    0.000    0.000    0.000    0.000    0.000 
#    0.000    0.000    0.000    0.000    0.000    0.000 
#
# Total GULP energy -111350.473418 kJ/mol
# GULP energy per Si atom -5567.523671 kJ/mol
# Density = 2.366496 g / cm^3
# Si number density = 23.718947 Si / 1000 Ang^3
#
#
#
# Elastic Constant Matrix: (Units=GPa)
#
#
# Indices 1 2 3 4 5 6 
#
# 1 62.6177 14.2947 39.4973 0.0000 9.9246 0.0000
# 2 14.2947 135.1276 95.2755 0.0000 -4.5551 0.0000
# 3 39.4973 95.2755 219.7585 0.0000 29.4564 0.0000
# 4 0.0000 0.0000 0.0000 39.2306 0.0000 6.3468
# 5 9.9246 -4.5551 29.4564 0.0000 31.9961 0.0000
# 6 0.0000 0.0000 0.0000 6.3468 0.0000 36.1550
#
#
#
# Elastic Compliance Matrix: (Units=1/GPa)
#
#
# Indices 1 2 3 4 5 6 
#
# 1 0.018263 -0.000007 -0.002875 0.000000 -0.003019 0.000000
# 2 -0.000007 0.012031 -0.006211 0.000000 0.007433 0.000000
# 3 -0.002875 -0.006211 0.008851 0.000000 -0.008141 0.000000
# 4 0.000000 0.000000 0.000000 0.026235 0.000000 -0.004605
# 5 -0.003019 0.007433 -0.008141 0.000000 0.040743 0.000000
# 6 0.000000 0.000000 0.000000 -0.004605 0.000000 0.028467
#
#
# Mechanical properties :
#
#
# Convention : Reuss Voigt Hill
#
# Bulk Modulus (GPa) = 47.70972 79.51542 63.61257
# Shear Modulus (GPa) = 31.29621 39.37208 35.33415
#
# Velocity S-wave (km/s) = 3.63638 4.07866 3.86385
# Velocity P-wave (km/s) = 6.14730 7.46843 6.83983
#
# Compressibility (1/GPa) = 0.02096009
#
# Stress axis : x y z
#
# Youngs Moduli (GPa) = 54.75436 83.11858 112.97936
#
# Poissons Ratio (x) = 0.00057 0.32479
# Poissons Ratio (y) = 0.00037 0.70172
# Poissons Ratio (z) = 0.15741 0.51626
#
# Static dielectric constant tensor:
#      x y z
#    x 0.206430 0.000000 -0.265600 
#    y 0.000000 2.516940 0.000000 
#    z -0.265600 0.000000 2.022630 
# 
# From -- ./inp_files/29667.got.cif
#   From: 2010.05.17/outbox.cif.g08.bks.cpg/sg13_15_cif.got.tgz:29667.got - 2010.06.03 16:44:36.
