data_PCOD9230860
_publ_section_title
;
Structure prediction by ZEFSAII (Michael W. Deem and Ramdas Pophale) SiO2 
 PCOD9230860
Probable space group: P 2/C
;
_chemical_formula_sum "Si O2"
_cell_formula_units_Z 30
_cell_length_a 13.568580
_cell_length_b 6.699387
_cell_length_c 21.063771
_cell_angle_alpha 90.000000
_cell_angle_beta 120.743855
_cell_angle_gamma 90.000000
_cell_volume 1645.628831
_symmetry_space_group_name_H-M "P 2/C"
_symmetry_group_IT_number 13
_symmetry_cell_setting 'monoclinic'
loop_
_space_group_symop_operation_xyz
x,y,z
-x,y,1/2-z
-x,-y,-z
x,-y,1/2+z
loop_
_atom_site_type_symbol
_atom_site_label
_atom_site_fract_x
_atom_site_fract_y
_atom_site_fract_z
Si Si1 0.062656 0.844479 0.611188
Si Si2 0.062239 0.461639 0.870737
Si Si3 0.000000 0.838725 0.250000
Si Si4 0.354136 0.943584 0.005456
Si Si5 0.714505 0.616841 0.618653
Si Si6 0.139840 0.147643 0.995211
Si Si7 0.595729 0.784044 0.100361
Si Si8 0.215958 0.968764 0.776290
O O1 0.119973 0.802651 0.562146
O O2 0.155040 0.940658 0.689153
O O3 0.008964 0.649470 0.627415
O O4 0.959220 0.996458 0.561691
O O5 0.987494 0.301889 0.807052
O O6 0.162424 0.519412 0.854619
O O7 0.123496 0.346669 0.948479
O O8 0.887612 0.975516 0.209115
O O9 0.470125 0.864843 0.076108
O O10 0.309763 0.754843 0.950326
O O11 0.259243 0.037688 0.019797
O O12 0.379543 0.109682 0.959557
O O13 0.618419 0.449611 0.597847
O O14 0.726696 0.763983 0.681956
O O15 0.688947 0.862822 0.181523
#
# Coordination Sequence:
#
# PCOD9230860 Si02
#       8
#     4   4   2   4   4   4   4   4
#     4  11  24  37  56  82 118 158 194 236 281 355
#     4  12  20  35  56  86 117 151 188 235 302 349
#     4  12  20  34  56  82 126 152 182 250 302 366
#     4  10  20  38  58  85 114 147 194 239 293 342
#     4  11  19  34  59  86 118 145 186 245 304 348
#     4  11  22  40  57  81 115 157 201 232 280 351
#     4  10  21  36  59  86 115 147 186 247 295 344
#     4  11  22  36  52  88 116 150 192 234 299 353
#
# _framework density 18.230111999999998
#
# number of rings (size 3 to 8) (size 9 to 14) (size 15 to 20)
#    0.000    1.067    5.333    3.200    0.000    0.000 
#    0.000    0.667    0.000    0.000    0.000    0.000 
#    0.000    0.000    0.000    0.000    0.000    0.000 
#
# Total GULP energy -167492.961050 kJ/mol
# GULP energy per Si atom -5583.098702 kJ/mol
# Density = 1.818862 g / cm^3
# Si number density = 18.230112 Si / 1000 Ang^3
#
#
#
# Elastic Constant Matrix: (Units=GPa)
#
#
# Indices 1 2 3 4 5 6 
#
# 1 44.9374 -12.0971 22.3594 0.0000 8.1906 0.0000
# 2 -12.0971 51.8783 13.2964 0.0000 -0.8242 0.0000
# 3 22.3594 13.2964 73.6482 0.0000 2.8280 0.0000
# 4 0.0000 0.0000 0.0000 12.0738 0.0000 2.7946
# 5 8.1906 -0.8242 2.8280 0.0000 30.1973 0.0000
# 6 0.0000 0.0000 0.0000 2.7946 0.0000 18.5246
#
#
#
# Elastic Compliance Matrix: (Units=1/GPa)
#
#
# Indices 1 2 3 4 5 6 
#
# 1 0.031943 0.010218 -0.011261 0.000000 -0.007331 0.000000
# 2 0.010218 0.023504 -0.007290 0.000000 -0.001447 0.000000
# 3 -0.011261 -0.007290 0.018269 0.000000 0.001145 0.000000
# 4 0.000000 0.000000 0.000000 0.085820 0.000000 -0.012947
# 5 -0.007331 -0.001447 0.001145 0.000000 0.034957 0.000000
# 6 0.000000 0.000000 0.000000 -0.012947 0.000000 0.055936
#
#
# Mechanical properties :
#
#
# Convention : Reuss Voigt Hill
#
# Bulk Modulus (GPa) = 17.52830 24.17569 20.85200
# Shear Modulus (GPa) = 17.47564 21.95282 19.71423
#
# Velocity S-wave (km/s) = 3.09951 3.47393 3.29205
# Velocity P-wave (km/s) = 4.73763 5.42044 5.09050
#
# Compressibility (1/GPa) = 0.05705060
#
# Stress axis : x y z
#
# Youngs Moduli (GPa) = 31.30549 42.54586 54.73714
#
# Poissons Ratio (x) = -0.43475 0.61641
# Poissons Ratio (y) = -0.31989 0.39904
# Poissons Ratio (z) = 0.35254 0.31016
#
# Static dielectric constant tensor:
#      x y z
#    x 1.629990 0.000000 0.024830 
#    y 0.000000 1.649870 0.000000 
#    z 0.024830 0.000000 1.633870 
# 
# From -- ./inp_files/79360.got.cif
#   From: 2010.05.17/outbox.cif.g08.bks.cpg/sg13_40_cif.got.tgz:79360.got - 2010.06.03 16:44:36.
