data_PCOD9230664
_publ_section_title
;
Structure prediction by ZEFSAII (Michael W. Deem and Ramdas Pophale) SiO2 
 PCOD9230664
Probable space group: P 2/C
;
_chemical_formula_sum "Si O2"
_cell_formula_units_Z 28
_cell_length_a 19.648235
_cell_length_b 5.219457
_cell_length_c 23.783476
_cell_angle_alpha 90.000000
_cell_angle_beta 145.703237
_cell_angle_gamma 90.000000
_cell_volume 1374.365425
_symmetry_space_group_name_H-M "P 2/C"
_symmetry_group_IT_number 13
_symmetry_cell_setting 'monoclinic'
loop_
_space_group_symop_operation_xyz
x,y,z
-x,y,1/2-z
-x,-y,-z
x,-y,1/2+z
loop_
_atom_site_type_symbol
_atom_site_label
_atom_site_fract_x
_atom_site_fract_y
_atom_site_fract_z
Si Si1 0.497327 0.893959 0.382255
Si Si2 0.188193 0.364477 0.114304
Si Si3 0.752624 0.999998 0.252624
Si Si4 0.459299 0.583188 0.785462
Si Si5 0.959587 0.364481 0.885697
Si Si6 0.111624 0.416812 0.785461
Si Si7 0.732817 0.106042 0.117746
O O1 0.521716 0.665558 0.355119
O O2 0.603877 0.909179 0.500001
O O3 0.368220 0.829920 0.323995
O O4 0.483854 0.168083 0.341454
O O5 0.227012 0.103185 0.170834
O O6 0.316051 0.482723 0.185623
O O7 0.116777 0.499995 0.116777
O O8 0.095042 0.339170 0.000000
O O9 0.720230 0.170077 0.176006
O O10 0.885343 0.896808 0.329167
O O11 0.500000 0.636923 0.750000
O O12 0.944807 0.482724 0.814378
O O13 0.188524 0.665555 0.855119
O O14 0.000000 0.363080 0.750000
O O15 0.199051 0.168080 0.841451
#
# Coordination Sequence:
#
# PCOD9230664 Si02
#       7
#     4   4   4   4   4   4   4
#     4  11  23  40  65  91 125 164 208 255 315 376
#     4  10  20  37  61  89 120 163 210 259 311 368
#     4  10  20  38  60  94 124 162 206 266 310 372
#     4  11  24  43  62  92 128 166 208 264 312 377
#     4  10  20  37  61  89 120 163 210 259 311 368
#     4  11  24  43  62  92 128 166 208 264 312 377
#     4  11  23  40  65  91 125 164 208 255 315 376
#
# _framework density 20.37304
#
# number of rings (size 3 to 8) (size 9 to 14) (size 15 to 20)
#    0.000    1.429    2.857    2.571    0.000    2.286 
#    0.000    4.286    0.000    0.000    0.000    0.000 
#    0.000    0.000    0.000    0.000    0.000    0.000 
#
# Total GULP energy -156008.950700 kJ/mol
# GULP energy per Si atom -5571.748239 kJ/mol
# Density = 2.032667 g / cm^3
# Si number density = 20.373040 Si / 1000 Ang^3
#
#
#
# Elastic Constant Matrix: (Units=GPa)
#
#
# Indices 1 2 3 4 5 6 
#
# 1 58.5494 -5.5719 35.0744 0.0000 0.1017 0.0000
# 2 -5.5719 74.8705 36.2879 0.0000 0.3431 0.0000
# 3 35.0744 36.2879 191.4338 0.0000 0.9869 0.0000
# 4 0.0000 0.0000 0.0000 27.6190 0.0000 0.2599
# 5 0.1017 0.3431 0.9869 0.0000 17.9456 0.0000
# 6 0.0000 0.0000 0.0000 0.2599 0.0000 -4.2560
#
#
#
# Elastic Compliance Matrix: (Units=1/GPa)
#
#
# Indices 1 2 3 4 5 6 
#
# 1 0.020029 0.003600 -0.004352 0.000000 0.000057 0.000000
# 2 0.003600 0.015355 -0.003570 0.000000 -0.000118 0.000000
# 3 -0.004352 -0.003570 0.006699 0.000000 -0.000275 0.000000
# 4 0.000000 0.000000 0.000000 0.036186 0.000000 0.002210
# 5 0.000057 -0.000118 -0.000275 0.000000 0.055741 0.000000
# 6 0.000000 0.000000 0.000000 0.002210 0.000000 -0.234826
#
#
# Mechanical properties :
#
#
# Convention : Reuss Voigt Hill
#
# Bulk Modulus (GPa) = 29.90501 50.71496 40.30999
# Shear Modulus (GPa) = -61.70987 25.53259 -18.08864
#
# Velocity S-wave (km/s) = -5.50960 3.54397 -2.98295
# Velocity P-wave (km/s) = 5.07580 6.45705 2.82222
#
# Compressibility (1/GPa) = 0.03343921
#
# Stress axis : x y z
#
# Youngs Moduli (GPa) = 49.92652 65.12560 149.27010
#
# Poissons Ratio (x) = -0.23444 0.64969
# Poissons Ratio (y) = -0.17973 0.53284
# Poissons Ratio (z) = 0.21730 0.23247
#
# Static dielectric constant tensor:
#      x y z
#    x 1.759240 0.000000 -0.000600 
#    y 0.000000 1.820670 0.000000 
#    z -0.000600 0.000000 1.685940 
# 
# From -- ./inp_files/88316.got.cif
#   From: 2010.05.17/outbox.cif.g08.bks.cpg/sg13_45_cif.got.tgz:88316.got - 2010.06.03 16:44:36.
