data_PCOD9230646
_publ_section_title
;
Structure prediction by ZEFSAII (Michael W. Deem and Ramdas Pophale) SiO2 
 PCOD9230646
Probable space group: P 2/C
;
_chemical_formula_sum "Si O2"
_cell_formula_units_Z 18
_cell_length_a 12.568790
_cell_length_b 8.799751
_cell_length_c 9.141839
_cell_angle_alpha 90.000000
_cell_angle_beta 130.955990
_cell_angle_gamma 90.000000
_cell_volume 763.601979
_symmetry_space_group_name_H-M "P 2/C"
_symmetry_group_IT_number 13
_symmetry_cell_setting 'monoclinic'
loop_
_space_group_symop_operation_xyz
x,y,z
-x,y,1/2-z
-x,-y,-z
x,-y,1/2+z
loop_
_atom_site_type_symbol
_atom_site_label
_atom_site_fract_x
_atom_site_fract_y
_atom_site_fract_z
Si Si1 0.259524 0.840010 0.645246
Si Si2 0.668810 0.496095 0.889050
Si Si3 0.000000 0.169094 0.750000
Si Si4 0.854755 0.582450 0.317295
Si Si5 0.406184 0.061821 0.549759
O O1 0.290690 0.662967 0.640721
O O2 0.106788 0.902425 0.460379
O O3 0.352408 0.930755 0.609173
O O4 0.285956 0.864611 0.841414
O O5 0.500000 0.489596 0.750000
O O6 0.750085 0.380161 0.855709
O O7 0.753837 0.489266 0.116820
O O8 0.904528 0.274693 0.768359
O O9 0.000000 0.500000 0.500000
O O10 0.500000 0.158459 0.750000
O O11 0.500000 0.000000 0.500000
#
# Coordination Sequence:
#
# PCOD9230646 Si02
#       5
#     4   4   2   4   4
#     4  10  20  37  61  84 120 156 194 241 299 351
#     4  11  22  37  62  90 120 157 203 248 294 355
#     4  10  22  38  66  82 118 162 198 240 302 360
#     4  11  19  39  61  83 119 161 196 241 305 356
#     4   9  18  35  59  83 116 151 189 244 298 342
#
# _framework density 23.572490999999999
#
# number of rings (size 3 to 8) (size 9 to 14) (size 15 to 20)
#    0.000    1.778    4.444    2.667    0.000    0.889 
#    0.000   12.222    0.000    0.000    0.000    0.000 
#    0.000    0.000    0.000    0.000    0.000    0.000 
#
# Total GULP energy -100271.565375 kJ/mol
# GULP energy per Si atom -5570.642521 kJ/mol
# Density = 2.351884 g / cm^3
# Si number density = 23.572491 Si / 1000 Ang^3
#
#
#
# Elastic Constant Matrix: (Units=GPa)
#
#
# Indices 1 2 3 4 5 6 
#
# 1 129.6028 -4.7761 70.8600 0.0000 6.5477 0.0000
# 2 -4.7761 40.3562 6.0637 0.0000 -12.8516 0.0000
# 3 70.8600 6.0637 262.9530 0.0000 -5.9184 0.0000
# 4 0.0000 0.0000 0.0000 5.3274 0.0000 7.4990
# 5 6.5477 -12.8516 -5.9184 0.0000 52.2803 0.0000
# 6 0.0000 0.0000 0.0000 7.4990 0.0000 0.1993
#
#
#
# Elastic Compliance Matrix: (Units=1/GPa)
#
#
# Indices 1 2 3 4 5 6 
#
# 1 0.009199 0.001097 -0.002530 0.000000 -0.001169 0.000000
# 2 0.001097 0.027073 -0.000775 0.000000 0.006430 0.000000
# 3 -0.002530 -0.000775 0.004517 0.000000 0.000638 0.000000
# 4 0.000000 0.000000 0.000000 -0.003612 0.000000 0.135917
# 5 -0.001169 0.006430 0.000638 0.000000 0.020927 0.000000
# 6 0.000000 0.000000 0.000000 0.135917 0.000000 -0.096557
#
#
# Mechanical properties :
#
#
# Convention : Reuss Voigt Hill
#
# Bulk Modulus (GPa) = 27.49419 64.13413 45.81416
# Shear Modulus (GPa) = -228.18856 35.61235 -96.28811
#
# Velocity S-wave (km/s) = -9.84952 3.89106 -6.39815
# Velocity P-wave (km/s) = 10.84720 6.88865 5.92488
#
# Compressibility (1/GPa) = 0.03637133
#
# Stress axis : x y z
#
# Youngs Moduli (GPa) = 108.70867 36.93679 221.38090
#
# Poissons Ratio (x) = -0.04051 0.56020
# Poissons Ratio (y) = -0.11921 0.17159
# Poissons Ratio (z) = 0.27509 0.02863
#
# Static dielectric constant tensor:
#      x y z
#    x 1.928620 0.000000 0.079420 
#    y 0.000000 1.982530 0.000000 
#    z 0.079420 0.000000 2.117820 
# 
# From -- ./inp_files/15686.got.cif
#   From: 2010.05.17/outbox.cif.g08.bks.cpg/sg13_8_cif.got.tgz:15686.got - 2010.06.03 16:44:36.
