data_PCOD9230943
_publ_section_title
;
Structure prediction by ZEFSAII (Michael W. Deem and Ramdas Pophale) SiO2 
 PCOD9230943
Probable space group: P 2/C
;
_chemical_formula_sum "Si O2"
_cell_formula_units_Z 30
_cell_length_a 19.512168
_cell_length_b 5.634346
_cell_length_c 18.288649
_cell_angle_alpha 90.000000
_cell_angle_beta 142.124529
_cell_angle_gamma 90.000000
_cell_volume 1234.416670
_symmetry_space_group_name_H-M "P 2/C"
_symmetry_group_IT_number 13
_symmetry_cell_setting 'monoclinic'
loop_
_space_group_symop_operation_xyz
x,y,z
-x,y,1/2-z
-x,-y,-z
x,-y,1/2+z
loop_
_atom_site_type_symbol
_atom_site_label
_atom_site_fract_x
_atom_site_fract_y
_atom_site_fract_z
Si Si1 0.500000 0.322065 0.250000
Si Si2 0.744371 0.221064 0.434559
Si Si3 0.813539 0.583273 0.845851
Si Si4 0.168769 0.276989 0.435477
Si Si5 0.932463 0.801041 0.806003
Si Si6 0.786482 0.184518 0.732411
Si Si7 0.594627 0.585252 0.982521
Si Si8 0.604217 0.783897 0.608857
O O1 0.610720 0.195204 0.311283
O O2 0.445863 0.447948 0.134049
O O3 0.816482 0.264022 0.421383
O O4 0.769512 0.477528 0.493300
O O5 0.774743 0.978607 0.501566
O O6 0.830251 0.305176 0.844429
O O7 0.681066 0.591322 0.715196
O O8 0.111466 0.313007 0.156174
O O9 0.135442 0.281632 0.322584
O O10 0.057989 0.260433 0.392181
O O11 0.894588 0.073043 0.784526
O O12 0.717475 0.331897 0.612536
O O13 0.692789 0.993722 0.677310
O O14 0.511464 0.787610 0.945857
O O15 0.577143 0.336820 0.008906
#
# Coordination Sequence:
#
# PCOD9230943 Si02
#       8
#     2   4   4   4   4   4   4   4
#     4  12  26  44  68 100 154 188 238 298 374 424
#     4  12  29  50  71 112 151 195 238 309 367 442
#     4  10  23  42  71 105 147 186 246 295 368 434
#     4  11  29  50  77 106 150 190 250 300 377 428
#     4  10  25  47  76 105 139 194 247 306 358 442
#     4  10  21  38  70  98 135 183 245 295 351 433
#     4  10  20  38  60  94 133 184 235 292 351 425
#     4   9  19  38  60  93 133 183 241 284 344 426
#
# _framework density 24.302976000000001
#
# number of rings (size 3 to 8) (size 9 to 14) (size 15 to 20)
#    0.000    1.600    1.333    1.200   13.067    2.667 
#    2.400    0.000    0.000    0.000    0.000    0.000 
#    0.000    0.000    0.000    0.000    0.000    0.000 
#
# Total GULP energy -167126.954065 kJ/mol
# GULP energy per Si atom -5570.898469 kJ/mol
# Density = 2.424766 g / cm^3
# Si number density = 24.302976 Si / 1000 Ang^3
#
#
#
# Elastic Constant Matrix: (Units=GPa)
#
#
# Indices 1 2 3 4 5 6 
#
# 1 112.1690 24.5098 22.9089 0.0000 8.0774 0.0000
# 2 24.5098 105.1893 40.8120 0.0000 6.8845 0.0000
# 3 22.9089 40.8120 71.0886 0.0000 3.9139 0.0000
# 4 0.0000 0.0000 0.0000 55.2257 0.0000 -67.3699
# 5 8.0774 6.8845 3.9139 0.0000 45.8694 0.0000
# 6 0.0000 0.0000 0.0000 -67.3699 0.0000 156.4592
#
#
#
# Elastic Compliance Matrix: (Units=1/GPa)
#
#
# Indices 1 2 3 4 5 6 
#
# 1 0.009769 -0.001282 -0.002339 0.000000 -0.001328 0.000000
# 2 -0.001282 0.012470 -0.006687 0.000000 -0.001075 0.000000
# 3 -0.002339 -0.006687 0.018669 0.000000 -0.000177 0.000000
# 4 0.000000 0.000000 0.000000 0.038143 0.000000 0.016424
# 5 -0.001328 -0.001075 -0.000177 0.000000 0.022211 0.000000
# 6 0.000000 0.000000 0.000000 0.016424 0.000000 0.013464
#
#
# Mechanical properties :
#
#
# Convention : Reuss Voigt Hill
#
# Bulk Modulus (GPa) = 49.27834 51.65649 50.46741
# Shear Modulus (GPa) = 35.18504 64.85863 50.02184
#
# Velocity S-wave (km/s) = 3.80908 5.17160 4.54173
# Velocity P-wave (km/s) = 6.29811 7.54732 6.95083
#
# Compressibility (1/GPa) = 0.02029289
#
# Stress axis : x y z
#
# Youngs Moduli (GPa) = 102.36947 80.19183 53.56354
#
# Poissons Ratio (x) = 0.10278 0.12529
# Poissons Ratio (y) = 0.13121 0.35817
# Poissons Ratio (z) = 0.23945 0.53623
#
# Static dielectric constant tensor:
#      x y z
#    x 2.034330 0.000000 -0.046550 
#    y 0.000000 2.143020 0.000000 
#    z -0.046550 0.000000 1.940890 
# 
# From -- ./inp_files/81979.got.cif
#   From: 2010.05.17/outbox.cif.g08.bks.cpg/sg13_41_cif.got.tgz:81979.got - 2010.06.03 16:44:36.
