data_PCOD9230945
_publ_section_title
;
Structure prediction by ZEFSAII (Michael W. Deem and Ramdas Pophale) SiO2 
 PCOD9230945
Probable space group: P 2/C
;
_chemical_formula_sum "Si O2"
_cell_formula_units_Z 24
_cell_length_a 5.251710
_cell_length_b 8.963062
_cell_length_c 23.481676
_cell_angle_alpha 90.000000
_cell_angle_beta 72.257555
_cell_angle_gamma 90.000000
_cell_volume 1052.742186
_symmetry_space_group_name_H-M "P 2/C"
_symmetry_group_IT_number 13
_symmetry_cell_setting 'monoclinic'
loop_
_space_group_symop_operation_xyz
x,y,z
-x,y,1/2-z
-x,-y,-z
x,-y,1/2+z
loop_
_atom_site_type_symbol
_atom_site_label
_atom_site_fract_x
_atom_site_fract_y
_atom_site_fract_z
Si Si1 0.458746 0.156098 0.316026
Si Si2 0.890599 0.678468 0.854564
Si Si3 0.856560 0.867032 0.960637
Si Si4 0.643166 0.593801 0.402165
Si Si5 0.235397 0.380718 0.474620
Si Si6 0.452014 0.917151 0.092155
O O1 0.500000 0.094542 0.250000
O O2 0.706832 0.263163 0.315993
O O3 0.179311 0.245155 0.334212
O O4 0.463517 0.028601 0.363650
O O5 0.755581 0.741211 0.922805
O O6 0.889488 0.500840 0.861230
O O7 0.684443 0.897869 0.028790
O O8 0.804042 0.012449 0.924462
O O9 0.123336 0.780866 0.963565
O O10 0.407944 0.470897 0.416230
O O11 0.654752 0.631061 0.468777
O O12 0.602581 0.754489 0.378439
O O13 0.000000 0.500000 0.500000
#
# Coordination Sequence:
#
# PCOD9230945 Si02
#       6
#     4   4   4   4   4   4
#     4  11  26  48  70  94 129 184 234 288 350 413
#     4  11  23  42  71  96 133 176 232 281 336 421
#     4  10  20  38  61 102 139 183 208 260 348 409
#     4  11  22  37  62 105 132 180 230 275 336 397
#     4  11  19  35  60  94 154 190 208 266 328 436
#     4  10  23  40  66 103 140 172 226 282 337 421
#
# _framework density 22.797604
#
# number of rings (size 3 to 8) (size 9 to 14) (size 15 to 20)
#    0.000    1.333    3.333    2.500    0.000    6.667 
#    0.000    0.833    0.000    6.000    0.000    0.000 
#    0.000    0.000    0.000    0.000    0.000    0.000 
#
# Total GULP energy -133960.721672 kJ/mol
# GULP energy per Si atom -5581.696736 kJ/mol
# Density = 2.274572 g / cm^3
# Si number density = 22.797604 Si / 1000 Ang^3
#
#
#
# Elastic Constant Matrix: (Units=GPa)
#
#
# Indices 1 2 3 4 5 6 
#
# 1 124.2024 69.8223 33.5912 0.0000 7.3012 0.0000
# 2 69.8223 184.8832 40.7067 0.0000 -5.9006 0.0000
# 3 33.5912 40.7067 97.6301 0.0000 17.6523 0.0000
# 4 0.0000 0.0000 0.0000 17.4584 0.0000 0.0657
# 5 7.3012 -5.9006 17.6523 0.0000 27.0990 0.0000
# 6 0.0000 0.0000 0.0000 0.0657 0.0000 45.3460
#
#
#
# Elastic Compliance Matrix: (Units=1/GPa)
#
#
# Indices 1 2 3 4 5 6 
#
# 1 0.010787 -0.003796 -0.001648 0.000000 -0.002659 0.000000
# 2 -0.003796 0.007564 -0.002642 0.000000 0.004391 0.000000
# 3 -0.001648 -0.002642 0.013528 0.000000 -0.008943 0.000000
# 4 0.000000 0.000000 0.000000 0.057279 0.000000 -0.000083
# 5 -0.002659 0.004391 -0.008943 0.000000 0.044400 0.000000
# 6 0.000000 0.000000 0.000000 -0.000083 0.000000 0.022053
#
#
# Mechanical properties :
#
#
# Convention : Reuss Voigt Hill
#
# Bulk Modulus (GPa) = 63.65953 77.21734 70.43844
# Shear Modulus (GPa) = 28.24552 35.48704 31.86628
#
# Velocity S-wave (km/s) = 3.52372 3.94967 3.74276
# Velocity P-wave (km/s) = 6.67382 7.39894 7.04571
#
# Compressibility (1/GPa) = 0.01570857
#
# Stress axis : x y z
#
# Youngs Moduli (GPa) = 92.70098 132.20292 73.91946
#
# Poissons Ratio (x) = 0.50184 0.12182
# Poissons Ratio (y) = 0.35189 0.19527
# Poissons Ratio (z) = 0.15277 0.34923
#
# Static dielectric constant tensor:
#      x y z
#    x 2.008770 0.000000 -0.043160 
#    y 0.000000 1.879140 0.000000 
#    z -0.043160 0.000000 1.856570 
# 
# From -- ./inp_files/90120.got.cif
#   From: 2010.05.17/outbox.cif.g08.bks.cpg/sg13_46_cif.got.tgz:90120.got - 2010.06.03 16:44:36.
