data_PCOD9230780
_publ_section_title
;
Structure prediction by ZEFSAII (Michael W. Deem and Ramdas Pophale) SiO2 
 PCOD9230780
Probable space group: P 2/C
;
_chemical_formula_sum "Si O2"
_cell_formula_units_Z 16
_cell_length_a 9.398861
_cell_length_b 9.304599
_cell_length_c 16.632418
_cell_angle_alpha 90.000000
_cell_angle_beta 32.308737
_cell_angle_gamma 90.000000
_cell_volume 777.429010
_symmetry_space_group_name_H-M "P 2/C"
_symmetry_group_IT_number 13
_symmetry_cell_setting 'monoclinic'
loop_
_space_group_symop_operation_xyz
x,y,z
-x,y,1/2-z
-x,-y,-z
x,-y,1/2+z
loop_
_atom_site_type_symbol
_atom_site_label
_atom_site_fract_x
_atom_site_fract_y
_atom_site_fract_z
Si Si1 0.511864 0.352369 0.842840
Si Si2 0.927748 0.412956 0.114024
Si Si3 0.216168 0.909848 0.848075
Si Si4 0.724805 0.075488 0.837419
O O1 0.500000 0.327126 0.750000
O O2 0.707189 0.488813 0.762317
O O3 0.616747 0.212700 0.839314
O O4 0.215056 0.386246 0.016372
O O5 0.821879 0.260333 0.134243
O O6 0.000000 0.500000 0.000000
O O7 0.500000 0.945797 0.750000
O O8 0.199501 0.957694 0.764622
O O9 0.000000 0.000000 0.000000
O O10 0.000000 0.115619 0.750000
O O11 0.500000 0.000000 0.000000
#
# Coordination Sequence:
#
# PCOD9230780 Si02
#       4
#     4   4   4   4
#     4  10  21  41  66  92 123 163 210 259 310 374
#     4  10  20  37  64  97 122 154 209 266 308 363
#     4  12  23  41  69  96 123 166 215 260 310 375
#     4  12  26  43  62  93 132 169 209 261 318 374
#
# _framework density 20.580656999999999
#
# number of rings (size 3 to 8) (size 9 to 14) (size 15 to 20)
#    0.000    1.000    0.000   10.500    0.000    2.000 
#    0.000    6.250    0.000    0.000    0.000    0.000 
#    0.000    0.000    0.000    0.000    0.000    0.000 
#
# Total GULP energy -89390.148537 kJ/mol
# GULP energy per Si atom -5586.884284 kJ/mol
# Density = 2.053381 g / cm^3
# Si number density = 20.580657 Si / 1000 Ang^3
#
#
#
# Elastic Constant Matrix: (Units=GPa)
#
#
# Indices 1 2 3 4 5 6 
#
# 1 93.0629 51.1895 55.2019 0.0000 -20.2197 0.0000
# 2 51.1895 158.0844 55.7064 0.0000 -8.3204 0.0000
# 3 55.2019 55.7064 143.7076 0.0000 -22.9987 0.0000
# 4 0.0000 0.0000 0.0000 35.0233 0.0000 3.5941
# 5 -20.2197 -8.3204 -22.9987 0.0000 49.3119 0.0000
# 6 0.0000 0.0000 0.0000 3.5941 0.0000 -24.9449
#
#
#
# Elastic Compliance Matrix: (Units=1/GPa)
#
#
# Indices 1 2 3 4 5 6 
#
# 1 0.016013 -0.003513 -0.004143 0.000000 0.004041 0.000000
# 2 -0.003513 0.008097 -0.001947 0.000000 -0.000982 0.000000
# 3 -0.004143 -0.001947 0.009704 0.000000 0.002499 0.000000
# 4 0.000000 0.000000 0.000000 0.028136 0.000000 0.004054
# 5 0.004041 -0.000982 0.002499 0.000000 0.022936 0.000000
# 6 0.000000 0.000000 0.000000 0.004054 0.000000 -0.039504
#
#
# Mechanical properties :
#
#
# Convention : Reuss Voigt Hill
#
# Bulk Modulus (GPa) = 68.44270 79.89450 74.16860
# Shear Modulus (GPa) = 71.98710 27.39521 49.69115
#
# Velocity S-wave (km/s) = 5.92064 3.65240 4.91905
# Velocity P-wave (km/s) = 8.94800 7.52936 8.26915
#
# Compressibility (1/GPa) = 0.01461076
#
# Stress axis : x y z
#
# Youngs Moduli (GPa) = 62.45002 123.49506 103.04593
#
# Poissons Ratio (x) = 0.43380 0.42688
# Poissons Ratio (y) = 0.21937 0.20060
# Poissons Ratio (z) = 0.25870 0.24041
#
# Static dielectric constant tensor:
#      x y z
#    x 1.662200 0.000000 0.018130 
#    y 0.000000 1.719040 0.000000 
#    z 0.018130 0.000000 1.725400 
# 
# From -- ./inp_files/63614.got.cif
#   From: 2010.05.17/outbox.cif.g08.bks.cpg/sg13_32_cif.got.tgz:63614.got - 2010.06.03 16:44:36.
