data_PCOD9230350
_publ_section_title
;
Structure prediction by ZEFSAII (Michael W. Deem and Ramdas Pophale) SiO2 
 PCOD9230350
Probable space group: P 2/C
;
_chemical_formula_sum "Si O2"
_cell_formula_units_Z 32
_cell_length_a 8.653263
_cell_length_b 12.242324
_cell_length_c 20.210155
_cell_angle_alpha 90.000000
_cell_angle_beta 49.965194
_cell_angle_gamma 90.000000
_cell_volume 1639.252564
_symmetry_space_group_name_H-M "P 2/C"
_symmetry_group_IT_number 13
_symmetry_cell_setting 'monoclinic'
loop_
_space_group_symop_operation_xyz
x,y,z
-x,y,1/2-z
-x,-y,-z
x,-y,1/2+z
loop_
_atom_site_type_symbol
_atom_site_label
_atom_site_fract_x
_atom_site_fract_y
_atom_site_fract_z
Si Si1 0.071180 0.189517 0.521555
Si Si2 0.591576 0.218467 0.657080
Si Si3 0.323221 0.986698 0.194556
Si Si4 0.638033 0.377546 0.526628
Si Si5 0.613489 0.233163 0.288242
Si Si6 0.992710 0.223134 0.395921
Si Si7 0.388837 0.369603 0.460241
Si Si8 0.884923 0.007301 0.885672
O O1 0.188930 0.295553 0.514911
O O2 0.143039 0.085395 0.543806
O O3 0.831005 0.200501 0.596691
O O4 0.102773 0.185314 0.433593
O O5 0.500000 0.262718 0.750000
O O6 0.554207 0.302685 0.608356
O O7 0.480606 0.104203 0.673491
O O8 0.408337 0.108424 0.181022
O O9 0.258894 0.967218 0.136371
O O10 0.116010 0.980611 0.294956
O O11 0.855551 0.326476 0.449387
O O12 0.498310 0.366280 0.500791
O O13 0.653571 0.503700 0.542507
O O14 0.500000 0.248811 0.250000
O O15 0.532185 0.315275 0.365535
O O16 0.848473 0.246772 0.205251
O O17 0.858781 0.119194 0.412174
#
# Coordination Sequence:
#
# PCOD9230350 Si02
#       8
#     4   4   4   4   4   4   4   4
#     4  11  22  38  63  91 127 161 206 254 310 365
#     4  11  22  41  63  92 125 167 201 256 309 372
#     4  10  21  36  61  92 133 163 208 255 300 376
#     4  10  25  45  65  88 125 158 215 262 314 362
#     4  11  22  40  67  94 125 166 208 252 316 371
#     4  10  22  40  63  96 123 165 208 261 304 373
#     4  11  24  45  64  90 123 165 205 268 310 371
#     4  10  20  36  60  94 128 170 204 250 312 371
#
# _framework density 19.521091999999999
#
# number of rings (size 3 to 8) (size 9 to 14) (size 15 to 20)
#    0.000    1.500    2.500    2.250    1.750    6.000 
#    2.250    4.375    0.000    0.000    0.000    0.000 
#    0.000    0.000    0.000    0.000    0.000    0.000 
#
# Total GULP energy -178911.723871 kJ/mol
# GULP energy per Si atom -5590.991371 kJ/mol
# Density = 1.947666 g / cm^3
# Si number density = 19.521092 Si / 1000 Ang^3
#
#
#
# Elastic Constant Matrix: (Units=GPa)
#
#
# Indices 1 2 3 4 5 6 
#
# 1 63.7078 40.7295 33.2296 0.0000 9.4421 0.0000
# 2 40.7295 146.4579 69.4008 0.0000 2.1057 0.0000
# 3 33.2296 69.4008 102.2380 0.0000 1.6722 0.0000
# 4 0.0000 0.0000 0.0000 207.5085 0.0000 101.4357
# 5 9.4421 2.1057 1.6722 0.0000 22.4152 0.0000
# 6 0.0000 0.0000 0.0000 101.4357 0.0000 630.7374
#
#
#
# Elastic Compliance Matrix: (Units=1/GPa)
#
#
# Indices 1 2 3 4 5 6 
#
# 1 0.021652 -0.003878 -0.004267 0.000000 -0.008438 0.000000
# 2 -0.003878 0.010765 -0.006064 0.000000 0.001075 0.000000
# 3 -0.004267 -0.006064 0.015264 0.000000 0.001228 0.000000
# 4 0.000000 0.000000 0.000000 0.005230 0.000000 -0.000841
# 5 -0.008438 0.001075 0.001228 0.000000 0.047975 0.000000
# 6 0.000000 0.000000 0.000000 -0.000841 0.000000 0.001721
#
#
# Mechanical properties :
#
#
# Convention : Reuss Voigt Hill
#
# Bulk Modulus (GPa) = 51.91419 66.56928 59.24173
# Shear Modulus (GPa) = 36.37789 183.40181 109.88985
#
# Velocity S-wave (km/s) = 4.32153 9.70333 7.51100
# Velocity P-wave (km/s) = 7.18000 12.63783 10.27782
#
# Compressibility (1/GPa) = 0.01926256
#
# Stress axis : x y z
#
# Youngs Moduli (GPa) = 46.18459 92.89725 65.51214
#
# Poissons Ratio (x) = 0.36028 0.27953
# Poissons Ratio (y) = 0.17911 0.39728
# Poissons Ratio (z) = 0.19706 0.56335
#
# Static dielectric constant tensor:
#      x y z
#    x 1.704090 0.000000 -0.007970 
#    y 0.000000 1.639990 0.000000 
#    z -0.007970 0.000000 1.693470 
# 
# From -- ./inp_files/76446.got.cif
#   From: 2010.05.17/outbox.cif.g08.bks.cpg/sg13_39_cif.got.tgz:76446.got - 2010.06.03 16:44:36.
