data_PCOD9230734
_publ_section_title
;
Structure prediction by ZEFSAII (Michael W. Deem and Ramdas Pophale) SiO2 
 PCOD9230734
Probable space group: P 2/C
;
_chemical_formula_sum "Si O2"
_cell_formula_units_Z 24
_cell_length_a 19.181072
_cell_length_b 4.937034
_cell_length_c 11.131238
_cell_angle_alpha 90.000000
_cell_angle_beta 125.473500
_cell_angle_gamma 90.000000
_cell_volume 858.443471
_symmetry_space_group_name_H-M "P 2/C"
_symmetry_group_IT_number 13
_symmetry_cell_setting 'monoclinic'
loop_
_space_group_symop_operation_xyz
x,y,z
-x,y,1/2-z
-x,-y,-z
x,-y,1/2+z
loop_
_atom_site_type_symbol
_atom_site_label
_atom_site_fract_x
_atom_site_fract_y
_atom_site_fract_z
Si Si1 0.064217 0.982079 0.763520
Si Si2 0.926956 0.304026 0.477126
Si Si3 0.426955 0.695972 0.876785
Si Si4 0.750000 0.546076 0.256020
Si Si5 0.250000 0.049221 0.410183
Si Si6 0.564217 0.017918 0.864915
O O1 0.164372 0.002841 0.900226
O O2 0.000000 0.739308 0.750000
O O3 0.967320 0.146083 0.630426
O O4 0.085755 0.906570 0.644738
O O5 0.838512 0.464720 0.408984
O O6 0.000000 0.500000 0.500000
O O7 0.338512 0.535277 0.768038
O O8 0.467321 0.853916 0.804214
O O9 0.500000 0.500000 0.000000
O O10 0.414245 0.906570 0.973226
O O11 0.750001 0.846814 0.204307
O O12 0.749999 0.357609 0.135980
O O13 0.335629 0.997153 0.571482
O O14 0.500000 0.260691 0.750000
#
# Coordination Sequence:
#
# PCOD9230734 Si02
#       6
#     4   4   4   4   4   4
#     4  10  22  38  61  88 125 160 209 254 310 368
#     4  10  20  38  61  86 118 166 203 252 310 366
#     4  10  20  38  61  86 118 166 203 252 310 366
#     4  10  20  37  63  88 121 160 206 250 308 367
#     4  10  20  39  59  88 125 160 196 258 310 355
#     4  10  22  38  61  88 125 160 209 254 310 368
#
# _framework density 27.95758
#
# number of rings (size 3 to 8) (size 9 to 14) (size 15 to 20)
#    0.000    2.000    3.333    0.000    0.000    2.667 
#    0.000    3.333    0.000    0.000    0.000    0.000 
#    0.000    0.000    0.000    0.000    0.000    0.000 
#
# Total GULP energy -133779.792324 kJ/mol
# GULP energy per Si atom -5574.158013 kJ/mol
# Density = 2.789395 g / cm^3
# Si number density = 27.957580 Si / 1000 Ang^3
#
#
#
# Elastic Constant Matrix: (Units=GPa)
#
#
# Indices 1 2 3 4 5 6 
#
# 1 186.5463 39.2617 98.7323 0.0000 41.1041 0.0000
# 2 39.2617 84.3585 40.5929 0.0000 5.9421 0.0000
# 3 98.7323 40.5929 207.1668 0.0000 50.8902 0.0000
# 4 0.0000 0.0000 0.0000 42.2364 0.0000 -1.7723
# 5 41.1041 5.9421 50.8902 0.0000 92.1648 0.0000
# 6 0.0000 0.0000 0.0000 -1.7723 0.0000 42.6348
#
#
#
# Elastic Compliance Matrix: (Units=1/GPa)
#
#
# Indices 1 2 3 4 5 6 
#
# 1 0.007677 -0.002092 -0.002824 0.000000 -0.001730 0.000000
# 2 -0.002092 0.013693 -0.001965 0.000000 0.001135 0.000000
# 3 -0.002824 -0.001965 0.007193 0.000000 -0.002586 0.000000
# 4 0.000000 0.000000 0.000000 0.023718 0.000000 0.000986
# 5 -0.001730 0.001135 -0.002586 0.000000 0.012976 0.000000
# 6 0.000000 0.000000 0.000000 0.000986 0.000000 0.023496
#
#
# Mechanical properties :
#
#
# Convention : Reuss Voigt Hill
#
# Bulk Modulus (GPa) = 67.56135 92.80505 80.18320
# Shear Modulus (GPa) = 46.53420 55.37284 50.95352
#
# Velocity S-wave (km/s) = 4.08420 4.45522 4.27374
# Velocity P-wave (km/s) = 6.81609 7.72867 7.28668
#
# Compressibility (1/GPa) = 0.01480136
#
# Stress axis : x y z
#
# Youngs Moduli (GPa) = 130.26750 73.02762 139.02552
#
# Poissons Ratio (x) = 0.15279 0.39256
# Poissons Ratio (y) = 0.27254 0.27317
# Poissons Ratio (z) = 0.36783 0.14349
#
# Static dielectric constant tensor:
#      x y z
#    x 2.208780 0.000000 0.048620 
#    y 0.000000 2.107480 0.000000 
#    z 0.048620 0.000000 2.219690 
# 
# From -- ./inp_files/52278.got.cif
#   From: 2010.05.17/outbox.cif.g08.bks.cpg/sg13_27_cif.got.tgz:52278.got - 2010.06.03 16:44:36.
