data_PCOD9230764
_publ_section_title
;
Structure prediction by ZEFSAII (Michael W. Deem and Ramdas Pophale) SiO2 
 PCOD9230764
Probable space group: P 2/C
;
_chemical_formula_sum "Si O2"
_cell_formula_units_Z 22
_cell_length_a 24.452499
_cell_length_b 7.122917
_cell_length_c 13.367479
_cell_angle_alpha 90.000000
_cell_angle_beta 156.458053
_cell_angle_gamma 90.000000
_cell_volume 929.952650
_symmetry_space_group_name_H-M "P 2/C"
_symmetry_group_IT_number 13
_symmetry_cell_setting 'monoclinic'
loop_
_space_group_symop_operation_xyz
x,y,z
-x,y,1/2-z
-x,-y,-z
x,-y,1/2+z
loop_
_atom_site_type_symbol
_atom_site_label
_atom_site_fract_x
_atom_site_fract_y
_atom_site_fract_z
Si Si1 0.822780 0.838512 0.723318
Si Si2 0.099723 0.274871 0.619424
Si Si3 0.711933 0.926249 0.330608
Si Si4 0.000000 0.865604 0.750000
Si Si5 0.367923 0.634827 0.474263
Si Si6 0.601251 0.784317 0.509630
O O1 0.721773 0.833128 0.456963
O O2 0.746637 0.803410 0.698163
O O3 0.860312 0.059357 0.788250
O O4 0.957474 0.705462 0.942095
O O5 0.043633 0.266976 0.413080
O O6 0.244510 0.381720 0.849572
O O7 0.871150 0.980860 0.575231
O O8 0.614564 0.099321 0.134751
O O9 0.677600 0.769982 0.190704
O O10 0.500000 0.717917 0.750000
O O11 0.415970 0.437548 0.508545
O O12 0.500000 0.848724 0.250000
#
# Coordination Sequence:
#
# PCOD9230764 Si02
#       6
#     4   4   4   2   4   4
#     4  10  20  37  64  88 116 154 199 246 293 352
#     4   9  18  35  61  86 115 153 192 239 298 341
#     4  10  20  38  60  84 121 154 193 245 298 341
#     4   8  14  32  60  78 112 148 182 234 284 348
#     4  10  21  40  59  83 123 161 193 242 292 347
#     4  11  23  40  59  88 120 157 204 240 290 359
#
# _framework density 23.657119000000002
#
# number of rings (size 3 to 8) (size 9 to 14) (size 15 to 20)
#    0.000    2.182    3.636    0.545    0.000    1.455 
#    3.273    7.273    0.000    0.000    0.000    0.000 
#    0.000    0.000    0.000    0.000    0.000    0.000 
#
# Total GULP energy -122569.375350 kJ/mol
# GULP energy per Si atom -5571.335243 kJ/mol
# Density = 2.360327 g / cm^3
# Si number density = 23.657119 Si / 1000 Ang^3
#
#
#
# Elastic Constant Matrix: (Units=GPa)
#
#
# Indices 1 2 3 4 5 6 
#
# 1 71.6628 -9.2232 14.7640 0.0000 2.2143 0.0000
# 2 -9.2232 68.4429 9.7548 0.0000 -0.2144 0.0000
# 3 14.7640 9.7548 103.8232 0.0000 1.5700 0.0000
# 4 0.0000 0.0000 0.0000 28.9333 0.0000 8.8278
# 5 2.2143 -0.2144 1.5700 0.0000 26.8761 0.0000
# 6 0.0000 0.0000 0.0000 8.8278 0.0000 14.2011
#
#
#
# Elastic Compliance Matrix: (Units=1/GPa)
#
#
# Indices 1 2 3 4 5 6 
#
# 1 0.014759 0.002313 -0.002300 0.000000 -0.001063 0.000000
# 2 0.002313 0.015173 -0.001755 0.000000 0.000033 0.000000
# 3 -0.002300 -0.001755 0.010130 0.000000 -0.000416 0.000000
# 4 0.000000 0.000000 0.000000 0.042652 0.000000 -0.026514
# 5 -0.001063 0.000033 -0.000416 0.000000 0.037320 0.000000
# 6 0.000000 0.000000 0.000000 -0.026514 0.000000 0.086899
#
#
# Mechanical properties :
#
#
# Convention : Reuss Voigt Hill
#
# Bulk Modulus (GPa) = 27.33885 30.50221 28.92053
# Shear Modulus (GPa) = 22.46103 29.24433 25.85268
#
# Velocity S-wave (km/s) = 3.08464 3.51974 3.30935
# Velocity P-wave (km/s) = 4.92626 5.42582 5.18207
#
# Compressibility (1/GPa) = 0.03657798
#
# Stress axis : x y z
#
# Youngs Moduli (GPa) = 67.75681 65.90789 98.71655
#
# Poissons Ratio (x) = -0.15247 0.22705
# Poissons Ratio (y) = -0.15674 0.17325
# Poissons Ratio (z) = 0.15584 0.11567
#
# Static dielectric constant tensor:
#      x y z
#    x 1.958590 0.000000 0.066670 
#    y 0.000000 1.941490 0.000000 
#    z 0.066670 0.000000 1.982840 
# 
# From -- ./inp_files/59925.got.cif
#   From: 2010.05.17/outbox.cif.g08.bks.cpg/sg13_30_cif.got.tgz:59925.got - 2010.06.03 16:44:36.
