data_PCOD9230049
_publ_section_title
;
Structure prediction by ZEFSAII (Michael W. Deem and Ramdas Pophale) SiO2 
 PCOD9230049
Probable space group: P 2/C
;
_chemical_formula_sum "Si O2"
_cell_formula_units_Z 24
_cell_length_a 14.258173
_cell_length_b 8.475708
_cell_length_c 14.148851
_cell_angle_alpha 90.000000
_cell_angle_beta 140.627167
_cell_angle_gamma 90.000000
_cell_volume 1084.674925
_symmetry_space_group_name_H-M "P 2/C"
_symmetry_group_IT_number 13
_symmetry_cell_setting 'monoclinic'
loop_
_space_group_symop_operation_xyz
x,y,z
-x,y,1/2-z
-x,-y,-z
x,-y,1/2+z
loop_
_atom_site_type_symbol
_atom_site_label
_atom_site_fract_x
_atom_site_fract_y
_atom_site_fract_z
Si Si1 0.174086 0.565881 0.380889
Si Si2 0.668805 0.239370 0.348498
Si Si3 0.678462 0.717014 0.388719
Si Si4 0.652516 0.083146 0.038210
Si Si5 0.346021 0.419109 0.353167
Si Si6 0.697204 0.944197 0.251052
O O1 0.247655 0.713676 0.490889
O O2 0.235187 0.422283 0.493886
O O3 0.226279 0.523595 0.315609
O O4 0.000000 0.575187 0.250000
O O5 0.500000 0.210182 0.250000
O O6 0.666833 0.380971 0.268095
O O7 0.742614 0.093124 0.350349
O O8 0.500000 0.687262 0.250000
O O9 0.707110 0.869258 0.478106
O O10 0.726086 0.777497 0.322934
O O11 0.652898 0.247568 0.096470
O O12 0.738748 0.964374 0.173955
O O13 0.481799 0.037215 0.891008
O O14 0.500000 0.500000 0.500000
#
# Coordination Sequence:
#
# PCOD9230049 Si02
#       6
#     4   4   4   4   4   4
#     4  11  24  39  55  81 119 153 185 231 285 332
#     4  11  20  34  60  87 113 144 192 236 279 329
#     4   9  17  33  57  79 106 146 189 226 276 334
#     4   8  16  29  50  82 118 129 173 237 282 316
#     4  10  20  35  59  88 110 144 190 233 276 333
#     4   9  17  30  53  85 111 138 180 236 281 320
#
# _framework density 22.126442999999998
#
# number of rings (size 3 to 8) (size 9 to 14) (size 15 to 20)
#    0.000    2.333    1.667    2.000    4.667    0.667 
#    0.000    0.833    0.000    9.000    0.000    0.000 
#    0.000    0.000    0.000    0.000    0.000    0.000 
#
# Total GULP energy -133903.652592 kJ/mol
# GULP energy per Si atom -5579.318858 kJ/mol
# Density = 2.207608 g / cm^3
# Si number density = 22.126443 Si / 1000 Ang^3
#
#
#
# Elastic Constant Matrix: (Units=GPa)
#
#
# Indices 1 2 3 4 5 6 
#
# 1 72.4568 8.8628 32.9619 0.0000 -10.6613 0.0000
# 2 8.8628 38.6160 23.6865 0.0000 -11.9889 0.0000
# 3 32.9619 23.6865 69.3796 0.0000 -9.5966 0.0000
# 4 0.0000 0.0000 0.0000 8.2797 0.0000 -24.8039
# 5 -10.6613 -11.9889 -9.5966 0.0000 37.6804 0.0000
# 6 0.0000 0.0000 0.0000 -24.8039 0.0000 30.9905
#
#
#
# Elastic Compliance Matrix: (Units=1/GPa)
#
#
# Indices 1 2 3 4 5 6 
#
# 1 0.018099 0.002452 -0.008935 0.000000 0.003626 0.000000
# 2 0.002452 0.035492 -0.012049 0.000000 0.008918 0.000000
# 3 -0.008935 -0.012049 0.022691 0.000000 -0.000582 0.000000
# 4 0.000000 0.000000 0.000000 -0.086410 0.000000 -0.069160
# 5 0.003626 0.008918 -0.000582 0.000000 0.030254 0.000000
# 6 0.000000 0.000000 0.000000 -0.069160 0.000000 -0.023086
#
#
# Mechanical properties :
#
#
# Convention : Reuss Voigt Hill
#
# Bulk Modulus (GPa) = 25.49693 34.60831 30.05262
# Shear Modulus (GPa) = 105.98598 23.05288 64.51943
#
# Velocity S-wave (km/s) = 6.92850 3.23130 5.40580
# Velocity P-wave (km/s) = 8.69217 5.44030 7.25089
#
# Compressibility (1/GPa) = 0.03922041
#
# Stress axis : x y z
#
# Youngs Moduli (GPa) = 55.25061 28.17509 44.07013
#
# Poissons Ratio (x) = -0.06908 0.39374
# Poissons Ratio (y) = -0.13547 0.53098
# Poissons Ratio (z) = 0.49364 0.33947
#
# Static dielectric constant tensor:
#      x y z
#    x 1.880540 0.000000 -0.088550 
#    y 0.000000 1.901640 0.000000 
#    z -0.088550 0.000000 1.787970 
# 
# From -- ./inp_files/53193.got.cif
#   From: 2010.05.17/outbox.cif.g08.bks.cpg/sg13_27_cif.got.tgz:53193.got - 2010.06.03 16:44:36.
