data_PCOD9230589
_publ_section_title
;
Structure prediction by ZEFSAII (Michael W. Deem and Ramdas Pophale) SiO2 
 PCOD9230589
Probable space group: P 2/C
;
_chemical_formula_sum "Si O2"
_cell_formula_units_Z 24
_cell_length_a 6.107670
_cell_length_b 12.822203
_cell_length_c 17.428713
_cell_angle_alpha 90.000000
_cell_angle_beta 56.985113
_cell_angle_gamma 90.000000
_cell_volume 1144.515377
_symmetry_space_group_name_H-M "P 2/C"
_symmetry_group_IT_number 13
_symmetry_cell_setting 'monoclinic'
loop_
_space_group_symop_operation_xyz
x,y,z
-x,y,1/2-z
-x,-y,-z
x,-y,1/2+z
loop_
_atom_site_type_symbol
_atom_site_label
_atom_site_fract_x
_atom_site_fract_y
_atom_site_fract_z
Si Si1 0.016932 0.762101 0.496117
Si Si2 0.743559 0.361645 0.416049
Si Si3 0.160108 0.587154 0.078888
Si Si4 0.000000 0.714484 0.250000
Si Si5 0.441770 0.221785 0.172330
Si Si6 0.000000 0.949202 0.750000
Si Si7 0.792662 0.889330 0.180355
O O1 0.014877 0.655772 0.445328
O O2 0.718887 0.789855 0.575645
O O3 0.165929 0.731440 0.545297
O O4 0.140645 0.850408 0.417781
O O5 0.911288 0.465897 0.398403
O O6 0.451207 0.396613 0.492639
O O7 0.715313 0.316787 0.336502
O O8 0.155447 0.641912 0.162330
O O9 0.826352 0.789694 0.230222
O O10 0.500000 0.241081 0.250000
O O11 0.255444 0.122326 0.199660
O O12 0.983471 0.023151 0.678335
O O13 0.500000 0.927828 0.250000
#
# Coordination Sequence:
#
# PCOD9230589 Si02
#       7
#     4   4   4   2   4   2   4
#     4  10  21  38  63  91 121 156 195 240 293 350
#     4  10  20  37  59  85 122 160 196 238 284 344
#     4   9  19  34  56  89 124 159 195 231 281 342
#     4   9  18  33  54  84 120 153 190 237 284 340
#     4  11  24  42  60  84 118 157 200 247 295 349
#     4  11  24  43  62  82 116 151 194 251 304 358
#     4  10  21  39  63  88 115 149 193 246 300 354
#
# _framework density 20.969576
#
# number of rings (size 3 to 8) (size 9 to 14) (size 15 to 20)
#    0.000    2.000    0.000    3.000    0.000    4.000 
#    0.000   10.000    0.000    0.000    0.000    0.000 
#    0.000    0.000    0.000    0.000    0.000    0.000 
#
# Total GULP energy -133978.334035 kJ/mol
# GULP energy per Si atom -5582.430585 kJ/mol
# Density = 2.092185 g / cm^3
# Si number density = 20.969576 Si / 1000 Ang^3
#
#
#
# Elastic Constant Matrix: (Units=GPa)
#
#
# Indices 1 2 3 4 5 6 
#
# 1 77.1549 33.9965 37.2256 0.0000 21.2865 0.0000
# 2 33.9965 102.5826 52.7509 0.0000 15.7591 0.0000
# 3 37.2256 52.7509 99.0836 0.0000 16.1273 0.0000
# 4 0.0000 0.0000 0.0000 26.0077 0.0000 -13.6357
# 5 21.2865 15.7591 16.1273 0.0000 28.1984 0.0000
# 6 0.0000 0.0000 0.0000 -13.6357 0.0000 5.9946
#
#
#
# Elastic Compliance Matrix: (Units=1/GPa)
#
#
# Indices 1 2 3 4 5 6 
#
# 1 0.018958 -0.002591 -0.004024 0.000000 -0.010562 0.000000
# 2 -0.002591 0.014150 -0.006165 0.000000 -0.002426 0.000000
# 3 -0.004024 -0.006165 0.015251 0.000000 -0.002239 0.000000
# 4 0.000000 0.000000 0.000000 -0.199655 0.000000 -0.454145
# 5 -0.010562 -0.002426 -0.002239 0.000000 0.046072 0.000000
# 6 0.000000 0.000000 0.000000 -0.454145 0.000000 -0.866204
#
#
# Mechanical properties :
#
#
# Convention : Reuss Voigt Hill
#
# Bulk Modulus (GPa) = 43.86174 58.52967 51.19571
# Shear Modulus (GPa) = -5.32896 22.36334 8.51719
#
# Velocity S-wave (km/s) = -1.59587 3.26922 2.01755
# Velocity P-wave (km/s) = 4.19124 6.49790 5.46760
#
# Compressibility (1/GPa) = 0.02279891
#
# Stress axis : x y z
#
# Youngs Moduli (GPa) = 52.74819 70.67258 65.56999
#
# Poissons Ratio (x) = 0.18311 0.26385
# Poissons Ratio (y) = 0.13667 0.40423
# Poissons Ratio (z) = 0.21226 0.43568
#
# Static dielectric constant tensor:
#      x y z
#    x 1.773330 0.000000 -0.000490 
#    y 0.000000 1.774950 0.000000 
#    z -0.000490 0.000000 1.743290 
# 
# From -- ./inp_files/61082.got.cif
#   From: 2010.05.17/outbox.cif.g08.bks.cpg/sg13_31_cif.got.tgz:61082.got - 2010.06.03 16:44:36.
