data_PCOD9230073
_publ_section_title
;
Structure prediction by ZEFSAII (Michael W. Deem and Ramdas Pophale) SiO2 
 PCOD9230073
Probable space group: P 2/C
;
_chemical_formula_sum "Si O2"
_cell_formula_units_Z 22
_cell_length_a 21.216851
_cell_length_b 6.351428
_cell_length_c 20.648329
_cell_angle_alpha 90.000000
_cell_angle_beta 157.652885
_cell_angle_gamma 90.000000
_cell_volume 1057.958343
_symmetry_space_group_name_H-M "P 2/C"
_symmetry_group_IT_number 13
_symmetry_cell_setting 'monoclinic'
loop_
_space_group_symop_operation_xyz
x,y,z
-x,y,1/2-z
-x,-y,-z
x,-y,1/2+z
loop_
_atom_site_type_symbol
_atom_site_label
_atom_site_fract_x
_atom_site_fract_y
_atom_site_fract_z
Si Si1 0.019786 0.312701 0.568727
Si Si2 0.189390 0.772746 0.353052
Si Si3 0.586966 0.877125 0.491738
Si Si4 0.257451 0.970721 0.727395
Si Si5 0.000000 0.114264 0.250000
Si Si6 0.678044 0.388386 0.955029
O O1 0.100189 0.367180 0.713698
O O2 0.000000 0.500000 0.500000
O O3 0.845555 0.195299 0.411687
O O4 0.137786 0.140309 0.647013
O O5 0.255685 0.625851 0.473211
O O6 0.061720 0.954839 0.253001
O O7 0.340706 0.901285 0.465537
O O8 0.657204 0.849291 0.631046
O O9 0.640990 0.703481 0.491717
O O10 0.391956 0.905324 0.313935
O O11 0.164141 0.253521 0.421630
O O12 0.500000 0.374016 0.750000
#
# Coordination Sequence:
#
# PCOD9230073 Si02
#       6
#     4   4   4   4   2   4
#     4  10  20  35  60  90 124 157 197 247 311 375
#     4  10  22  41  62  89 125 158 207 259 308 369
#     4   9  20  39  61  86 125 158 201 256 306 367
#     4   9  19  37  59  90 120 160 197 245 311 372
#     4  10  24  46  62  84 124 172 210 264 306 370
#     4  11  24  42  65  91 123 167 217 260 310 371
#
# _framework density 20.794771999999998
#
# number of rings (size 3 to 8) (size 9 to 14) (size 15 to 20)
#    0.000    2.182    0.000    1.636    2.545    5.818 
#    6.545    5.455    0.000    0.000    0.000    0.000 
#    0.000    0.000    0.000    0.000    0.000    0.000 
#
# Total GULP energy -122732.405911 kJ/mol
# GULP energy per Si atom -5578.745723 kJ/mol
# Density = 2.074744 g / cm^3
# Si number density = 20.794772 Si / 1000 Ang^3
#
#
#
# Elastic Constant Matrix: (Units=GPa)
#
#
# Indices 1 2 3 4 5 6 
#
# 1 39.3757 4.5216 28.5493 0.0000 12.2390 0.0000
# 2 4.5216 49.2168 45.7067 0.0000 -7.6980 0.0000
# 3 28.5493 45.7067 137.6694 0.0000 8.5537 0.0000
# 4 0.0000 0.0000 0.0000 18.6560 0.0000 -6.8981
# 5 12.2390 -7.6980 8.5537 0.0000 33.9568 0.0000
# 6 0.0000 0.0000 0.0000 -6.8981 0.0000 22.5459
#
#
#
# Elastic Compliance Matrix: (Units=1/GPa)
#
#
# Indices 1 2 3 4 5 6 
#
# 1 0.033234 0.001793 -0.006876 0.000000 -0.009840 0.000000
# 2 0.001793 0.032649 -0.011816 0.000000 0.009732 0.000000
# 3 -0.006876 -0.011816 0.012826 0.000000 -0.003431 0.000000
# 4 0.000000 0.000000 0.000000 0.060439 0.000000 0.018492
# 5 -0.009840 0.009732 -0.003431 0.000000 0.036066 0.000000
# 6 0.000000 0.000000 0.000000 0.018492 0.000000 0.050012
#
#
# Mechanical properties :
#
#
# Convention : Reuss Voigt Hill
#
# Bulk Modulus (GPa) = 22.26594 42.64634 32.45614
# Shear Modulus (GPa) = 18.24851 24.86404 21.55628
#
# Velocity S-wave (km/s) = 2.96557 3.46162 3.22315
# Velocity P-wave (km/s) = 4.73886 6.04399 5.43078
#
# Compressibility (1/GPa) = 0.04491164
#
# Stress axis : x y z
#
# Youngs Moduli (GPa) = 30.08934 30.62869 77.96733
#
# Poissons Ratio (x) = -0.05493 0.53610
# Poissons Ratio (y) = -0.05396 0.92127
# Poissons Ratio (z) = 0.20689 0.36191
#
# Static dielectric constant tensor:
#      x y z
#    x 1.746350 0.000000 0.000070 
#    y 0.000000 1.754150 0.000000 
#    z 0.000070 0.000000 1.775140 
# 
# From -- ./inp_files/74548.got.cif
#   From: 2010.05.17/outbox.cif.g08.bks.cpg/sg13_38_cif.got.tgz:74548.got - 2010.06.03 16:44:36.
