data_PCOD9230768
_publ_section_title
;
Structure prediction by ZEFSAII (Michael W. Deem and Ramdas Pophale) SiO2 
 PCOD9230768
Probable space group: P 2/C
;
_chemical_formula_sum "Si O2"
_cell_formula_units_Z 32
_cell_length_a 8.161819
_cell_length_b 12.376700
_cell_length_c 26.893613
_cell_angle_alpha 90.000000
_cell_angle_beta 149.175874
_cell_angle_gamma 90.000000
_cell_volume 1392.047059
_symmetry_space_group_name_H-M "P 2/C"
_symmetry_group_IT_number 13
_symmetry_cell_setting 'monoclinic'
loop_
_space_group_symop_operation_xyz
x,y,z
-x,y,1/2-z
-x,-y,-z
x,-y,1/2+z
loop_
_atom_site_type_symbol
_atom_site_label
_atom_site_fract_x
_atom_site_fract_y
_atom_site_fract_z
Si Si1 0.347982 0.085961 0.314979
Si Si2 0.011762 0.643079 0.399193
Si Si3 0.795323 0.117850 0.042476
Si Si4 0.662618 0.553106 0.927174
Si Si5 0.376114 0.620472 0.293423
Si Si6 0.383587 0.270180 0.170099
Si Si7 0.629993 0.145120 0.665823
Si Si8 0.260585 0.123577 0.985157
O O1 0.368685 0.174146 0.277761
O O2 0.619236 0.117014 0.426502
O O3 0.000000 0.087375 0.250000
O O4 0.419543 0.964346 0.315970
O O5 0.688528 0.600594 0.340891
O O6 0.942852 0.620915 0.323335
O O7 0.300296 0.589170 0.505798
O O8 0.052153 0.771553 0.418594
O O9 0.583003 0.135088 0.036153
O O10 0.057931 0.207501 0.098340
O O11 0.554318 0.125441 0.933235
O O12 0.898313 0.991586 0.070009
O O13 0.394844 0.466428 0.842310
O O14 0.629672 0.654337 0.881372
O O15 0.000000 0.500000 0.000000
O O16 0.446221 0.740620 0.330983
O O17 0.500000 0.330845 0.250000
O O18 0.000000 0.150481 0.750000
#
# Coordination Sequence:
#
# PCOD9230768 Si02
#       8
#     4   4   4   4   4   4   4   4
#     4  10  22  40  62  92 134 169 204 256 321 385
#     4  10  20  37  64  90 118 171 208 267 317 376
#     4  10  22  37  61  95 134 172 202 262 318 387
#     4  10  22  41  62  88 125 165 215 272 317 366
#     4  10  22  37  63  92 120 163 224 259 315 381
#     4  12  25  39  64  94 128 168 213 257 316 390
#     4  10  21  39  64  92 130 164 207 266 320 375
#     4  10  20  38  62  91 132 165 212 252 325 380
#
# _framework density 22.987729000000002
#
# number of rings (size 3 to 8) (size 9 to 14) (size 15 to 20)
#    0.000    1.750    1.250    3.000    5.250    4.000 
#    0.000    0.625    0.000    4.500    0.000    0.000 
#    0.000    0.000    0.000    0.000    0.000    0.000 
#
# Total GULP energy -178728.188740 kJ/mol
# GULP energy per Si atom -5585.255898 kJ/mol
# Density = 2.293541 g / cm^3
# Si number density = 22.987729 Si / 1000 Ang^3
#
#
#
# Elastic Constant Matrix: (Units=GPa)
#
#
# Indices 1 2 3 4 5 6 
#
# 1 43.8120 21.9534 13.8184 0.0000 -6.8908 0.0000
# 2 21.9534 132.4757 52.2027 0.0000 -23.4947 0.0000
# 3 13.8184 52.2027 99.7031 0.0000 -29.0621 0.0000
# 4 0.0000 0.0000 0.0000 -408.4409 0.0000 -635.0420
# 5 -6.8908 -23.4947 -29.0621 0.0000 41.2890 0.0000
# 6 0.0000 0.0000 0.0000 -635.0420 0.0000 -908.8346
#
#
#
# Elastic Compliance Matrix: (Units=1/GPa)
#
#
# Indices 1 2 3 4 5 6 
#
# 1 0.025160 -0.003417 -0.001309 0.000000 0.001333 0.000000
# 2 -0.003417 0.010168 -0.004189 0.000000 0.002267 0.000000
# 3 -0.001309 -0.004189 0.014652 0.000000 0.007711 0.000000
# 4 0.000000 0.000000 0.000000 0.028336 0.000000 -0.019800
# 5 0.001333 0.002267 0.007711 0.000000 0.031159 0.000000
# 6 0.000000 0.000000 0.000000 -0.019800 0.000000 0.012735
#
#
# Mechanical properties :
#
#
# Convention : Reuss Voigt Hill
#
# Bulk Modulus (GPa) = 31.10594 50.21552 40.66073
# Shear Modulus (GPa) = 33.16593 -242.66286 -104.74847
#
# Velocity S-wave (km/s) = 3.80250 -10.28548 -6.75767
# Velocity P-wave (km/s) = 5.73058 10.91617 6.56975
#
# Compressibility (1/GPa) = 0.03214820
#
# Stress axis : x y z
#
# Youngs Moduli (GPa) = 39.74625 98.35154 68.24864
#
# Poissons Ratio (x) = 0.33607 0.08937
# Poissons Ratio (y) = 0.13581 0.28591
# Poissons Ratio (z) = 0.05204 0.41202
#
# Static dielectric constant tensor:
#      x y z
#    x 1.843680 0.000000 -0.031890 
#    y 0.000000 1.891550 0.000000 
#    z -0.031890 0.000000 1.902500 
# 
# From -- ./inp_files/96154.got.cif
#   From: 2010.05.17/outbox.cif.g08.bks.cpg/sg13_49_cif.got.tgz:96154.got - 2010.06.03 16:44:36.
