data_PCOD9230837
_publ_section_title
;
Structure prediction by ZEFSAII (Michael W. Deem and Ramdas Pophale) SiO2 
 PCOD9230837
Probable space group: P 2/C
;
_chemical_formula_sum "Si O2"
_cell_formula_units_Z 18
_cell_length_a 18.679180
_cell_length_b 8.820287
_cell_length_c 8.020346
_cell_angle_alpha 90.000000
_cell_angle_beta 33.721781
_cell_angle_gamma 90.000000
_cell_volume 733.588150
_symmetry_space_group_name_H-M "P 2/C"
_symmetry_group_IT_number 13
_symmetry_cell_setting 'monoclinic'
loop_
_space_group_symop_operation_xyz
x,y,z
-x,y,1/2-z
-x,-y,-z
x,-y,1/2+z
loop_
_atom_site_type_symbol
_atom_site_label
_atom_site_fract_x
_atom_site_fract_y
_atom_site_fract_z
Si Si1 0.853949 0.455066 0.834474
Si Si2 0.797341 0.174652 0.160850
Si Si3 0.236048 0.267896 0.810593
Si Si4 0.359548 0.030678 0.343317
Si Si5 0.000000 0.056184 0.250000
O O1 0.798900 0.363764 0.786108
O O2 0.000000 0.500000 0.500000
O O3 0.845485 0.337765 0.008046
O O4 0.764093 0.599232 0.051878
O O5 0.736437 0.100767 0.109751
O O6 0.686624 0.135898 0.507169
O O7 0.911724 0.068574 0.012744
O O8 0.342800 0.149430 0.531960
O O9 0.109536 0.169385 0.100052
O O10 0.500000 0.000000 0.000000
#
# Coordination Sequence:
#
# PCOD9230837 Si02
#       5
#     4   4   4   4   2
#     4  11  21  37  57  93 134 165 193 250 325 383
#     4  10  24  37  66  94 126 163 212 258 321 372
#     4  10  22  38  60  94 126 162 209 250 313 387
#     4  10  22  45  65  88 122 167 222 267 298 361
#     4  10  20  38  56  98 126 156 208 256 316 380
#
# _framework density 24.536929000000001
#
# number of rings (size 3 to 8) (size 9 to 14) (size 15 to 20)
#    0.000    1.778    2.222    0.667    3.111   11.556 
#    0.000    1.111    0.000    8.000    0.000    0.000 
#    0.000    0.000    0.000    0.000    0.000    0.000 
#
# Total GULP energy -100306.208714 kJ/mol
# GULP energy per Si atom -5572.567151 kJ/mol
# Density = 2.448108 g / cm^3
# Si number density = 24.536929 Si / 1000 Ang^3
#
#
#
# Elastic Constant Matrix: (Units=GPa)
#
#
# Indices 1 2 3 4 5 6 
#
# 1 61.0158 50.5777 48.7066 0.0000 9.0656 0.0000
# 2 50.5777 202.0387 84.1122 0.0000 1.9839 0.0000
# 3 48.7066 84.1122 189.0638 0.0000 -1.2802 0.0000
# 4 0.0000 0.0000 0.0000 51.9557 0.0000 21.9032
# 5 9.0656 1.9839 -1.2802 0.0000 23.3170 0.0000
# 6 0.0000 0.0000 0.0000 21.9032 0.0000 40.7801
#
#
#
# Elastic Compliance Matrix: (Units=1/GPa)
#
#
# Indices 1 2 3 4 5 6 
#
# 1 0.025031 -0.004246 -0.004624 0.000000 -0.009624 0.000000
# 2 -0.004246 0.006805 -0.001927 0.000000 0.000966 0.000000
# 3 -0.004624 -0.001927 0.007354 0.000000 0.002366 0.000000
# 4 0.000000 0.000000 0.000000 0.024881 0.000000 -0.013364
# 5 -0.009624 0.000966 0.002366 0.000000 0.046677 0.000000
# 6 0.000000 0.000000 0.000000 -0.013364 0.000000 0.031699
#
#
# Mechanical properties :
#
#
# Convention : Reuss Voigt Hill
#
# Bulk Modulus (GPa) = 56.83724 90.99014 73.91369
# Shear Modulus (GPa) = 29.42780 41.12536 35.27658
#
# Velocity S-wave (km/s) = 3.46689 4.09841 3.79581
# Velocity P-wave (km/s) = 6.26418 7.71747 7.02849
#
# Compressibility (1/GPa) = 0.01759410
#
# Stress axis : x y z
#
# Youngs Moduli (GPa) = 39.95120 146.94261 135.98155
#
# Poissons Ratio (x) = 0.62397 0.62883
# Poissons Ratio (y) = 0.16965 0.26206
# Poissons Ratio (z) = 0.18475 0.28318
#
# Static dielectric constant tensor:
#      x y z
#    x 2.226450 0.000000 0.151580 
#    y 0.000000 1.993600 0.000000 
#    z 0.151580 0.000000 2.034330 
# 
# From -- ./inp_files/14930.got.cif
#   From: 2010.05.17/outbox.cif.g08.bks.cpg/sg13_8_cif.got.tgz:14930.got - 2010.06.03 16:44:36.
