data_PCOD9230296
_publ_section_title
;
Structure prediction by ZEFSAII (Michael W. Deem and Ramdas Pophale) SiO2 
 PCOD9230296
Probable space group: P 2/C
;
_chemical_formula_sum "Si O2"
_cell_formula_units_Z 26
_cell_length_a 8.916131
_cell_length_b 17.220498
_cell_length_c 12.390313
_cell_angle_alpha 90.000000
_cell_angle_beta 140.777457
_cell_angle_gamma 90.000000
_cell_volume 1202.959665
_symmetry_space_group_name_H-M "P 2/C"
_symmetry_group_IT_number 13
_symmetry_cell_setting 'monoclinic'
loop_
_space_group_symop_operation_xyz
x,y,z
-x,y,1/2-z
-x,-y,-z
x,-y,1/2+z
loop_
_atom_site_type_symbol
_atom_site_label
_atom_site_fract_x
_atom_site_fract_y
_atom_site_fract_z
Si Si1 0.150505 0.108612 0.980590
Si Si2 0.000000 0.974913 0.750000
Si Si3 0.315405 0.628437 0.241752
Si Si4 0.922991 0.719845 0.090049
Si Si5 0.235753 0.525401 0.805543
Si Si6 0.572710 0.310971 0.103589
Si Si7 0.327084 0.134776 0.318144
O O1 0.195155 0.113345 0.132914
O O2 0.400339 0.115570 0.056366
O O3 0.022835 0.189114 0.881423
O O4 0.027337 0.032378 0.866804
O O5 0.221890 0.918554 0.853268
O O6 0.500000 0.623501 0.250000
O O7 0.209790 0.543541 0.206209
O O8 0.455551 0.667403 0.421670
O O9 0.087888 0.681528 0.093847
O O10 0.000000 0.687167 0.250000
O O11 0.645560 0.701515 0.934344
O O12 0.272695 0.613110 0.785716
O O13 0.000000 0.523236 0.750000
O O14 0.500000 0.500000 0.000000
O O15 0.694985 0.226641 0.169769
#
# Coordination Sequence:
#
# PCOD9230296 Si02
#       7
#     4   2   4   4   4   4   4
#     4  10  21  41  61  88 121 166 206 250 313 391
#     4  12  22  38  66  90 124 156 204 262 318 362
#     4  10  20  36  59  93 121 154 218 265 302 367
#     4   9  17  37  63  80 116 164 209 248 313 374
#     4  10  20  39  62  85 126 172 211 254 322 377
#     4   9  20  39  61  83 123 171 201 257 317 374
#     4  10  23  39  62  92 124 156 208 257 315 376
#
# _framework density 21.613358000000002
#
# number of rings (size 3 to 8) (size 9 to 14) (size 15 to 20)
#    0.000    2.154    0.769    3.231    1.077    1.231 
#    8.308    3.846    0.000    0.000    0.000    0.000 
#    0.000    0.000    0.000    0.000    0.000    0.000 
#
# Total GULP energy -145020.243914 kJ/mol
# GULP energy per Si atom -5577.701689 kJ/mol
# Density = 2.156417 g / cm^3
# Si number density = 21.613358 Si / 1000 Ang^3
#
#
#
# Elastic Constant Matrix: (Units=GPa)
#
#
# Indices 1 2 3 4 5 6 
#
# 1 103.3781 77.4383 13.1604 0.0000 32.7538 0.0000
# 2 77.4383 209.2155 38.7109 0.0000 18.9006 0.0000
# 3 13.1604 38.7109 51.9083 0.0000 -1.3879 0.0000
# 4 0.0000 0.0000 0.0000 21.1176 0.0000 20.9490
# 5 32.7538 18.9006 -1.3879 0.0000 23.5706 0.0000
# 6 0.0000 0.0000 0.0000 20.9490 0.0000 15.1217
#
#
#
# Elastic Compliance Matrix: (Units=1/GPa)
#
#
# Indices 1 2 3 4 5 6 
#
# 1 0.022786 -0.005517 -0.002394 0.000000 -0.027380 0.000000
# 2 -0.005517 0.007454 -0.004121 0.000000 0.001447 0.000000
# 3 -0.002394 -0.004121 0.023159 0.000000 0.007996 0.000000
# 4 0.000000 0.000000 0.000000 -0.126511 0.000000 0.175263
# 5 -0.027380 0.001447 0.007996 0.000000 0.079784 0.000000
# 6 0.000000 0.000000 0.000000 0.175263 0.000000 -0.176674
#
#
# Mechanical properties :
#
#
# Convention : Reuss Voigt Hill
#
# Bulk Modulus (GPa) = 34.09152 69.23569 51.66361
# Shear Modulus (GPa) = -36.72199 27.64145 -4.54027
#
# Velocity S-wave (km/s) = -4.12641 3.58006 -1.45094
# Velocity P-wave (km/s) = 2.62592 7.01373 4.59875
#
# Compressibility (1/GPa) = 0.02933280
#
# Stress axis : x y z
#
# Youngs Moduli (GPa) = 43.88651 134.16142 43.17987
#
# Poissons Ratio (x) = 0.74021 0.10339
# Poissons Ratio (y) = 0.24214 0.17795
# Poissons Ratio (z) = 0.10509 0.55290
#
# Static dielectric constant tensor:
#      x y z
#    x 1.799110 0.000000 -0.010630 
#    y 0.000000 1.781230 0.000000 
#    z -0.010630 0.000000 1.917460 
# 
# From -- ./inp_files/47936.got.cif
#   From: 2010.05.17/outbox.cif.g08.bks.cpg/sg13_24_cif.got.tgz:47936.got - 2010.06.03 16:44:36.
