data_PCOD9230271
_publ_section_title
;
Structure prediction by ZEFSAII (Michael W. Deem and Ramdas Pophale) SiO2 
 PCOD9230271
Probable space group: P 2/C
;
_chemical_formula_sum "Si O2"
_cell_formula_units_Z 24
_cell_length_a 6.938338
_cell_length_b 16.968669
_cell_length_c 10.980817
_cell_angle_alpha 90.000000
_cell_angle_beta 56.443165
_cell_angle_gamma 90.000000
_cell_volume 1077.355482
_symmetry_space_group_name_H-M "P 2/C"
_symmetry_group_IT_number 13
_symmetry_cell_setting 'monoclinic'
loop_
_space_group_symop_operation_xyz
x,y,z
-x,y,1/2-z
-x,-y,-z
x,-y,1/2+z
loop_
_atom_site_type_symbol
_atom_site_label
_atom_site_fract_x
_atom_site_fract_y
_atom_site_fract_z
Si Si1 0.706731 0.899734 0.079830
Si Si2 0.500000 0.333771 0.250000
Si Si3 0.311685 0.223824 0.490558
Si Si4 0.158572 0.056550 0.575934
Si Si5 0.000000 0.324122 0.750000
Si Si6 0.017753 0.593406 0.987964
Si Si7 0.084278 0.746468 0.583064
O O1 0.500000 0.902695 0.250000
O O2 0.958810 0.918373 0.050529
O O3 0.726905 0.812841 0.015062
O O4 0.704212 0.976545 0.995570
O O5 0.515843 0.275188 0.361073
O O6 0.722573 0.386945 0.148462
O O7 0.327853 0.131907 0.511937
O O8 0.116809 0.236527 0.450151
O O9 0.211971 0.266373 0.644591
O O10 0.000000 0.049161 0.750000
O O11 0.973242 0.376491 0.640440
O O12 0.863882 0.653478 0.959031
O O13 0.000000 0.500000 0.000000
O O14 0.000000 0.759221 0.750000
#
# Coordination Sequence:
#
# PCOD9230271 Si02
#       7
#     4   2   4   4   2   4   4
#     4  10  22  38  53  86 119 149 196 235 286 342
#     4   8  18  36  54  86 110 136 196 232 268 344
#     4   9  17  34  58  82 110 150 187 233 275 325
#     4  10  20  36  59  81 116 156 194 239 278 331
#     4   8  16  34  56  80 110 140 184 234 278 330
#     4  10  21  38  62  82 111 148 185 239 288 340
#     4   9  19  38  56  77 116 152 174 229 295 341
#
# _framework density 22.276769000000002
#
# number of rings (size 3 to 8) (size 9 to 14) (size 15 to 20)
#    0.000    3.000    0.833    0.500    2.333    0.667 
#    7.500    3.333    0.000    0.000    0.000    0.000 
#    0.000    0.000    0.000    0.000    0.000    0.000 
#
# Total GULP energy -133750.736936 kJ/mol
# GULP energy per Si atom -5572.947372 kJ/mol
# Density = 2.222607 g / cm^3
# Si number density = 22.276769 Si / 1000 Ang^3
#
#
#
# Elastic Constant Matrix: (Units=GPa)
#
#
# Indices 1 2 3 4 5 6 
#
# 1 68.3435 34.2127 19.5724 0.0000 -12.0563 0.0000
# 2 34.2127 259.4298 106.5880 0.0000 -13.0139 0.0000
# 3 19.5724 106.5880 163.5601 0.0000 -6.0909 0.0000
# 4 0.0000 0.0000 0.0000 43.5852 0.0000 -0.7442
# 5 -12.0563 -13.0139 -6.0909 0.0000 27.7555 0.0000
# 6 0.0000 0.0000 0.0000 -0.7442 0.0000 36.1744
#
#
#
# Elastic Compliance Matrix: (Units=1/GPa)
#
#
# Indices 1 2 3 4 5 6 
#
# 1 0.016762 -0.001590 -0.000732 0.000000 0.006375 0.000000
# 2 -0.001590 0.005498 -0.003350 0.000000 0.001152 0.000000
# 3 -0.000732 -0.003350 0.008383 0.000000 -0.000049 0.000000
# 4 0.000000 0.000000 0.000000 0.022952 0.000000 0.000472
# 5 0.006375 0.001152 -0.000049 0.000000 0.039327 0.000000
# 6 0.000000 0.000000 0.000000 0.000472 0.000000 0.027654
#
#
# Mechanical properties :
#
#
# Convention : Reuss Voigt Hill
#
# Bulk Modulus (GPa) = 51.81621 90.23107 71.02364
# Shear Modulus (GPa) = 36.13927 43.56705 39.85316
#
# Velocity S-wave (km/s) = 4.03213 4.42715 4.23425
# Velocity P-wave (km/s) = 6.70732 8.16856 7.47374
#
# Compressibility (1/GPa) = 0.01929898
#
# Stress axis : x y z
#
# Youngs Moduli (GPa) = 59.65819 181.86912 119.29036
#
# Poissons Ratio (x) = 0.28914 0.08737
# Poissons Ratio (y) = 0.09485 0.39963
# Poissons Ratio (z) = 0.04369 0.60927
#
# Static dielectric constant tensor:
#      x y z
#    x 2.366640 0.000000 0.110950 
#    y 0.000000 1.870860 0.000000 
#    z 0.110950 0.000000 1.826290 
# 
# From -- ./inp_files/30607.got.cif
#   From: 2010.05.17/outbox.cif.g08.bks.cpg/sg13_16_cif.got.tgz:30607.got - 2010.06.03 16:44:36.
