data_PCOD9230862
_publ_section_title
;
Structure prediction by ZEFSAII (Michael W. Deem and Ramdas Pophale) SiO2 
 PCOD9230862
Probable space group: P 2/C
;
_chemical_formula_sum "Si O2"
_cell_formula_units_Z 24
_cell_length_a 13.667317
_cell_length_b 6.528369
_cell_length_c 11.973575
_cell_angle_alpha 90.000000
_cell_angle_beta 81.817422
_cell_angle_gamma 90.000000
_cell_volume 1057.469450
_symmetry_space_group_name_H-M "P 2/C"
_symmetry_group_IT_number 13
_symmetry_cell_setting 'monoclinic'
loop_
_space_group_symop_operation_xyz
x,y,z
-x,y,1/2-z
-x,-y,-z
x,-y,1/2+z
loop_
_atom_site_type_symbol
_atom_site_label
_atom_site_fract_x
_atom_site_fract_y
_atom_site_fract_z
Si Si1 0.448660 0.745851 0.400009
Si Si2 0.246061 0.404646 0.979604
Si Si3 0.902338 0.850960 0.878211
Si Si4 0.000000 0.771056 0.250000
Si Si5 0.901548 0.609266 0.651926
Si Si6 0.500000 0.878321 0.750000
Si Si7 0.390028 0.421574 0.140705
O O1 0.340339 0.654485 0.388535
O O2 0.544134 0.618405 0.348124
O O3 0.444353 0.709222 0.533349
O O4 0.464112 0.970064 0.352621
O O5 0.183903 0.200508 0.021262
O O6 0.289899 0.477628 0.092591
O O7 0.178653 0.570541 0.929730
O O8 0.872832 0.749260 0.763148
O O9 0.997580 0.719798 0.903680
O O10 0.938842 0.077990 0.842110
O O11 0.070257 0.615555 0.305727
O O12 0.594080 0.733579 0.761143
#
# Coordination Sequence:
#
# PCOD9230862 Si02
#       7
#     4   4   4   2   4   2   4
#     4   9  22  41  57  85 117 150 191 233 286 341
#     4  10  20  38  58  86 112 144 196 232 282 338
#     4   9  19  36  57  80 114 152 185 230 279 334
#     4   8  18  36  52  82 116 148 186 220 288 334
#     4   9  19  36  57  80 114 152 185 230 279 334
#     4  12  20  38  64  80 120 154 184 238 288 336
#     4   9  22  41  57  85 117 150 191 233 286 341
#
# _framework density 22.695692999999999
#
# number of rings (size 3 to 8) (size 9 to 14) (size 15 to 20)
#    1.000    2.000    0.000    1.500    0.000    4.667 
#    0.000   11.667    0.000    0.000    0.000    0.000 
#    0.000    0.000    0.000    0.000    0.000    0.000 
#
# Total GULP energy -133720.664961 kJ/mol
# GULP energy per Si atom -5571.694373 kJ/mol
# Density = 2.264404 g / cm^3
# Si number density = 22.695693 Si / 1000 Ang^3
#
#
#
# Elastic Constant Matrix: (Units=GPa)
#
#
# Indices 1 2 3 4 5 6 
#
# 1 93.2173 21.6241 27.9985 0.0000 16.5173 0.0000
# 2 21.6241 108.3925 31.6912 0.0000 19.7395 0.0000
# 3 27.9985 31.6912 53.7125 0.0000 23.5693 0.0000
# 4 0.0000 0.0000 0.0000 23.3914 0.0000 -6.0322
# 5 16.5173 19.7395 23.5693 0.0000 52.5179 0.0000
# 6 0.0000 0.0000 0.0000 -6.0322 0.0000 -2.3228
#
#
#
# Elastic Compliance Matrix: (Units=1/GPa)
#
#
# Indices 1 2 3 4 5 6 
#
# 1 0.012826 -0.000652 -0.005776 0.000000 -0.001197 0.000000
# 2 -0.000652 0.011283 -0.005661 0.000000 -0.001495 0.000000
# 3 -0.005776 -0.005661 0.028936 0.000000 -0.009042 0.000000
# 4 0.000000 0.000000 0.000000 0.025604 0.000000 -0.066492
# 5 -0.001197 -0.001495 -0.009042 0.000000 0.024037 0.000000
# 6 0.000000 0.000000 0.000000 -0.066492 0.000000 -0.257840
#
#
# Mechanical properties :
#
#
# Convention : Reuss Voigt Hill
#
# Bulk Modulus (GPa) = 34.64187 46.43887 40.54037
# Shear Modulus (GPa) = -41.20213 26.31786 -7.44213
#
# Velocity S-wave (km/s) = -4.26539 3.40898 -1.81279
# Velocity P-wave (km/s) = 2.99355 6.00007 3.67692
#
# Compressibility (1/GPa) = 0.02886680
#
# Stress axis : x y z
#
# Youngs Moduli (GPa) = 77.96827 88.62627 34.55876
#
# Poissons Ratio (x) = 0.05779 0.19960
# Poissons Ratio (y) = 0.05084 0.19565
# Poissons Ratio (z) = 0.45033 0.50174
#
# Static dielectric constant tensor:
#      x y z
#    x 1.902960 0.000000 -0.000430 
#    y 0.000000 1.782540 0.000000 
#    z -0.000430 0.000000 1.954160 
# 
# From -- ./inp_files/51931.got.cif
#   From: 2010.05.17/outbox.cif.g08.bks.cpg/sg13_26_cif.got.tgz:51931.got - 2010.06.03 16:44:36.
