data_PCOD9230179
_publ_section_title
;
Structure prediction by ZEFSAII (Michael W. Deem and Ramdas Pophale) SiO2 
 PCOD9230179
Probable space group: P 2/C
;
_chemical_formula_sum "Si O2"
_cell_formula_units_Z 26
_cell_length_a 19.293357
_cell_length_b 9.145089
_cell_length_c 7.800990
_cell_angle_alpha 90.000000
_cell_angle_beta 128.198149
_cell_angle_gamma 90.000000
_cell_volume 1081.682903
_symmetry_space_group_name_H-M "P 2/C"
_symmetry_group_IT_number 13
_symmetry_cell_setting 'monoclinic'
loop_
_space_group_symop_operation_xyz
x,y,z
-x,y,1/2-z
-x,-y,-z
x,-y,1/2+z
loop_
_atom_site_type_symbol
_atom_site_label
_atom_site_fract_x
_atom_site_fract_y
_atom_site_fract_z
Si Si1 0.929024 0.197562 0.331445
Si Si2 0.500000 0.477963 0.250000
Si Si3 0.500000 0.979999 0.250000
Si Si4 0.000000 0.078499 0.750000
Si Si5 0.883810 0.652343 0.443945
Si Si6 0.427694 0.209160 0.938592
Si Si7 0.684269 0.362052 0.969712
Si Si8 0.795750 0.382675 0.460340
O O1 0.928933 0.172138 0.534315
O O2 0.016814 0.297820 0.445163
O O3 0.862955 0.266679 0.092802
O O4 0.946215 0.034299 0.286014
O O5 0.524643 0.359404 0.435475
O O6 0.412348 0.575559 0.126950
O O7 0.515005 0.875709 0.113707
O O8 0.577700 0.096006 0.411680
O O9 0.868117 0.482669 0.468451
O O10 0.832245 0.690321 0.190174
O O11 0.336703 0.243114 0.706654
O O12 0.730520 0.497415 0.946291
O O13 0.738527 0.310952 0.220026
#
# Coordination Sequence:
#
# PCOD9230179 Si02
#       8
#     4   2   2   2   4   4   4   4
#     4   9  18  34  63  87 112 148 196 236 272 328
#     4  11  21  34  60  94 103 143 204 250 302 341
#     4   9  21  36  56  82 107 151 180 258 286 333
#     4   8  16  32  58  98 108 136 200 252 268 302
#     4   9  20  36  52  81 115 155 181 226 280 349
#     4  10  20  36  56  82 111 138 194 240 290 353
#     4  11  21  36  57  87 111 152 189 255 294 356
#     4  10  22  36  52  81 123 149 183 227 314 341
#
# _framework density 24.036621
#
# number of rings (size 3 to 8) (size 9 to 14) (size 15 to 20)
#    0.000    2.462    1.538    0.923    2.154    4.923 
#    0.000    0.000    0.000   22.154    0.000    0.000 
#    0.000    0.000    0.000    0.000    0.000    0.000 
#
# Total GULP energy -144895.097645 kJ/mol
# GULP energy per Si atom -5572.888371 kJ/mol
# Density = 2.398191 g / cm^3
# Si number density = 24.036621 Si / 1000 Ang^3
#
#
#
# Elastic Constant Matrix: (Units=GPa)
#
#
# Indices 1 2 3 4 5 6 
#
# 1 51.1156 7.1045 18.3599 0.0000 4.1783 0.0000
# 2 7.1045 74.4298 62.1410 0.0000 3.3515 0.0000
# 3 18.3599 62.1410 258.2082 0.0000 -22.9122 0.0000
# 4 0.0000 0.0000 0.0000 0.6962 0.0000 1.9459
# 5 4.1783 3.3515 -22.9122 0.0000 39.3358 0.0000
# 6 0.0000 0.0000 0.0000 1.9459 0.0000 14.0212
#
#
#
# Elastic Compliance Matrix: (Units=1/GPa)
#
#
# Indices 1 2 3 4 5 6 
#
# 1 0.020460 -0.000466 -0.001616 0.000000 -0.003075 0.000000
# 2 -0.000466 0.017442 -0.004526 0.000000 -0.004073 0.000000
# 3 -0.001616 -0.004526 0.005406 0.000000 0.003706 0.000000
# 4 0.000000 0.000000 0.000000 2.346784 0.000000 -0.325701
# 5 -0.003075 -0.004073 0.003706 0.000000 0.028254 0.000000
# 6 0.000000 0.000000 0.000000 -0.325701 0.000000 0.116523
#
#
# Mechanical properties :
#
#
# Convention : Reuss Voigt Hill
#
# Bulk Modulus (GPa) = 33.22998 62.10714 47.66856
# Shear Modulus (GPa) = 1.95456 30.55384 16.25420
#
# Velocity S-wave (km/s) = 0.90273 3.56917 2.60326
# Velocity P-wave (km/s) = 3.86540 6.54828 5.37686
#
# Compressibility (1/GPa) = 0.03009331
#
# Stress axis : x y z
#
# Youngs Moduli (GPa) = 48.87630 57.33283 184.98678
#
# Poissons Ratio (x) = 0.02670 0.29886
# Poissons Ratio (y) = 0.02276 0.83724
# Poissons Ratio (z) = 0.07896 0.25948
#
# Static dielectric constant tensor:
#      x y z
#    x 2.035600 0.000000 -0.064860 
#    y 0.000000 1.946240 0.000000 
#    z -0.064860 0.000000 2.062820 
# 
# From -- ./inp_files/24491.got.cif
#   From: 2010.05.17/outbox.cif.g08.bks.cpg/sg13_13_cif.got.tgz:24491.got - 2010.06.03 16:44:36.
