data_PCOD9230323
_publ_section_title
;
Structure prediction by ZEFSAII (Michael W. Deem and Ramdas Pophale) SiO2 
 PCOD9230323
Probable space group: P 2/C
;
_chemical_formula_sum "Si O2"
_cell_formula_units_Z 22
_cell_length_a 8.176862
_cell_length_b 9.629350
_cell_length_c 20.178991
_cell_angle_alpha 90.000000
_cell_angle_beta 137.643086
_cell_angle_gamma 90.000000
_cell_volume 1070.483203
_symmetry_space_group_name_H-M "P 2/C"
_symmetry_group_IT_number 13
_symmetry_cell_setting 'monoclinic'
loop_
_space_group_symop_operation_xyz
x,y,z
-x,y,1/2-z
-x,-y,-z
x,-y,1/2+z
loop_
_atom_site_type_symbol
_atom_site_label
_atom_site_fract_x
_atom_site_fract_y
_atom_site_fract_z
Si Si1 0.000000 0.966844 0.750000
Si Si2 0.778900 0.593483 0.276457
Si Si3 0.468224 0.104383 0.137622
Si Si4 0.712875 0.107887 0.554150
Si Si5 0.500000 0.652295 0.750000
Si Si6 0.500000 0.851670 0.250000
Si Si7 0.658316 0.400253 0.592139
O O1 0.747278 0.890416 0.692526
O O2 0.935503 0.058491 0.666074
O O3 0.713296 0.456360 0.297919
O O4 0.706643 0.738413 0.290605
O O5 0.631922 0.584429 0.163007
O O6 0.059028 0.586056 0.341740
O O7 0.440740 0.241258 0.173571
O O8 0.447739 0.960748 0.173988
O O9 0.269936 0.114098 0.019734
O O10 0.604891 0.245498 0.553651
O O11 0.500000 0.000000 0.500000
O O12 0.500000 0.500000 0.500000
#
# Coordination Sequence:
#
# PCOD9230323 Si02
#       7
#     2   4   4   4   2   2   4
#     4  10  20  38  64  88 114 156 200 246 294 352
#     4  10  22  41  61  83 122 163 198 241 296 359
#     4  10  21  38  61  90 121 152 198 248 296 349
#     4  10  20  36  60  89 114 145 197 248 291 345
#     4  10  22  40  58  88 128 160 190 244 306 350
#     4  10  20  40  62  86 126 164 190 240 306 364
#     4  11  22  39  63  88 114 158 209 248 289 349
#
# _framework density 20.551468
#
# number of rings (size 3 to 8) (size 9 to 14) (size 15 to 20)
#    0.000    1.818    0.000    5.455    0.000    4.364 
#    0.000   20.000    0.000    0.000    0.000    0.000 
#    0.000    0.000    0.000    0.000    0.000    0.000 
#
# Total GULP energy -122664.220093 kJ/mol
# GULP energy per Si atom -5575.646368 kJ/mol
# Density = 2.050469 g / cm^3
# Si number density = 20.551468 Si / 1000 Ang^3
#
#
#
# Elastic Constant Matrix: (Units=GPa)
#
#
# Indices 1 2 3 4 5 6 
#
# 1 85.3396 45.3854 29.8992 0.0000 -14.5706 0.0000
# 2 45.3854 151.6344 46.6661 0.0000 -8.2370 0.0000
# 3 29.8992 46.6661 117.1529 0.0000 -16.5910 0.0000
# 4 0.0000 0.0000 0.0000 54.0539 0.0000 59.2954
# 5 -14.5706 -8.2370 -16.5910 0.0000 21.8091 0.0000
# 6 0.0000 0.0000 0.0000 59.2954 0.0000 148.5016
#
#
#
# Elastic Compliance Matrix: (Units=1/GPa)
#
#
# Indices 1 2 3 4 5 6 
#
# 1 0.015572 -0.003821 -0.001326 0.000000 0.007952 0.000000
# 2 -0.003821 0.008461 -0.002582 0.000000 -0.001321 0.000000
# 3 -0.001326 -0.002582 0.010803 0.000000 0.006357 0.000000
# 4 0.000000 0.000000 0.000000 0.032919 0.000000 -0.013144
# 5 0.007952 -0.001321 0.006357 0.000000 0.055502 0.000000
# 6 0.000000 0.000000 0.000000 -0.013144 0.000000 0.011982
#
#
# Mechanical properties :
#
#
# Convention : Reuss Voigt Hill
#
# Bulk Modulus (GPa) = 51.60514 66.44758 59.02636
# Shear Modulus (GPa) = 31.81508 60.35132 46.08320
#
# Velocity S-wave (km/s) = 3.93882 5.42491 4.74046
# Velocity P-wave (km/s) = 6.77129 8.46416 7.66461
#
# Compressibility (1/GPa) = 0.01937791
#
# Stress axis : x y z
#
# Youngs Moduli (GPa) = 64.21717 118.18388 92.56438
#
# Poissons Ratio (x) = 0.45156 0.12276
# Poissons Ratio (y) = 0.24536 0.23905
# Poissons Ratio (z) = 0.08516 0.30521
#
# Static dielectric constant tensor:
#      x y z
#    x 1.761050 0.000000 -0.073040 
#    y 0.000000 1.697730 0.000000 
#    z -0.073040 0.000000 1.717850 
# 
# From -- ./inp_files/46053.got.cif
#   From: 2010.05.17/outbox.cif.g08.bks.cpg/sg13_24_cif.got.tgz:46053.got - 2010.06.03 16:44:36.
