data_PCOD9230456
_publ_section_title
;
Structure prediction by ZEFSAII (Michael W. Deem and Ramdas Pophale) SiO2 
 PCOD9230456
Probable space group: P 2/C
;
_chemical_formula_sum "Si O2"
_cell_formula_units_Z 24
_cell_length_a 13.838066
_cell_length_b 9.987708
_cell_length_c 17.931258
_cell_angle_alpha 90.000000
_cell_angle_beta 30.494369
_cell_angle_gamma 90.000000
_cell_volume 1257.617002
_symmetry_space_group_name_H-M "P 2/C"
_symmetry_group_IT_number 13
_symmetry_cell_setting 'monoclinic'
loop_
_space_group_symop_operation_xyz
x,y,z
-x,y,1/2-z
-x,-y,-z
x,-y,1/2+z
loop_
_atom_site_type_symbol
_atom_site_label
_atom_site_fract_x
_atom_site_fract_y
_atom_site_fract_z
Si Si1 0.000000 0.455098 0.250000
Si Si2 0.786017 0.787619 0.955002
Si Si3 0.023110 0.117235 0.424636
Si Si4 0.500000 0.343335 0.750000
Si Si5 0.606037 0.139694 0.416046
Si Si6 0.155114 0.613290 0.388625
Si Si7 0.664630 0.388780 0.894262
O O1 0.086849 0.348672 0.132886
O O2 0.171472 0.548556 0.162920
O O3 0.727164 0.826155 0.910584
O O4 0.898670 0.894328 0.930750
O O5 0.593207 0.749645 0.125338
O O6 0.240506 0.132841 0.252672
O O7 0.936220 0.249647 0.520598
O O8 0.000000 0.000000 0.500000
O O9 0.665844 0.424531 0.678708
O O10 0.446037 0.253557 0.510079
O O11 0.500000 0.000000 0.500000
O O12 0.235432 0.629866 0.252222
O O13 0.000000 0.500000 0.500000
O O14 0.500000 0.500000 0.000000
#
# Coordination Sequence:
#
# PCOD9230456 Si02
#       7
#     2   4   4   2   4   4   4
#     4  12  22  42  70 102 128 182 232 284 336 408
#     4  11  21  42  70  92 128 178 222 270 342 411
#     4  11  24  43  68  95 133 175 223 275 338 410
#     4  10  20  36  64  94 122 168 218 258 328 396
#     4  12  24  43  67  99 134 181 225 280 343 410
#     4  11  22  38  65  97 132 170 217 281 333 391
#     4  12  22  41  68  97 133 174 232 279 333 407
#
# _framework density 19.083712999999999
#
# number of rings (size 3 to 8) (size 9 to 14) (size 15 to 20)
#    0.000    0.667    5.000    4.000    2.333    0.000 
#    6.000    0.000    0.000    0.000    0.000    0.000 
#    0.000    0.000    0.000    0.000    0.000    0.000 
#
# Total GULP energy -134009.703250 kJ/mol
# GULP energy per Si atom -5583.737635 kJ/mol
# Density = 1.904028 g / cm^3
# Si number density = 19.083713 Si / 1000 Ang^3
#
#
#
# Elastic Constant Matrix: (Units=GPa)
#
#
# Indices 1 2 3 4 5 6 
#
# 1 119.4471 57.1788 47.2055 0.0000 -23.0480 0.0000
# 2 57.1788 119.0555 53.5729 0.0000 -19.1463 0.0000
# 3 47.2055 53.5729 173.7684 0.0000 -0.7734 0.0000
# 4 0.0000 0.0000 0.0000 37.6606 0.0000 0.8509
# 5 -23.0480 -19.1463 -0.7734 0.0000 42.7870 0.0000
# 6 0.0000 0.0000 0.0000 0.8509 0.0000 33.9353
#
#
#
# Elastic Compliance Matrix: (Units=1/GPa)
#
#
# Indices 1 2 3 4 5 6 
#
# 1 0.012020 -0.004152 -0.001965 0.000000 0.004581 0.000000
# 2 -0.004152 0.012052 -0.002574 0.000000 0.003110 0.000000
# 3 -0.001965 -0.002574 0.007073 0.000000 -0.002082 0.000000
# 4 0.000000 0.000000 0.000000 0.026568 0.000000 -0.000666
# 5 0.004581 0.003110 -0.002082 0.000000 0.027193 0.000000
# 6 0.000000 0.000000 0.000000 -0.000666 0.000000 0.029485
#
#
# Mechanical properties :
#
#
# Convention : Reuss Voigt Hill
#
# Bulk Modulus (GPa) = 72.65699 80.90951 76.78325
# Shear Modulus (GPa) = 36.66779 39.83083 38.24931
#
# Velocity S-wave (km/s) = 4.38815 4.57350 4.48179
# Velocity P-wave (km/s) = 7.98936 8.38919 8.19172
#
# Compressibility (1/GPa) = 0.01376330
#
# Stress axis : x y z
#
# Youngs Moduli (GPa) = 83.19521 82.97524 141.38644
#
# Poissons Ratio (x) = 0.34450 0.27781
# Poissons Ratio (y) = 0.34542 0.36391
# Poissons Ratio (z) = 0.16347 0.21357
#
# Static dielectric constant tensor:
#      x y z
#    x 1.711310 0.000000 0.019620 
#    y 0.000000 1.643060 0.000000 
#    z 0.019620 0.000000 1.689290 
# 
# From -- ./inp_files/46261.got.cif
#   From: 2010.05.17/outbox.cif.g08.bks.cpg/sg13_24_cif.got.tgz:46261.got - 2010.06.03 16:44:36.
