data_PCOD9230852
_publ_section_title
;
Structure prediction by ZEFSAII (Michael W. Deem and Ramdas Pophale) SiO2 
 PCOD9230852
Probable space group: P 2/C
;
_chemical_formula_sum "Si O2"
_cell_formula_units_Z 30
_cell_length_a 7.960566
_cell_length_b 33.023676
_cell_length_c 5.450744
_cell_angle_alpha 90.000000
_cell_angle_beta 63.225325
_cell_angle_gamma 90.000000
_cell_volume 1279.298948
_symmetry_space_group_name_H-M "P 2/C"
_symmetry_group_IT_number 13
_symmetry_cell_setting 'monoclinic'
loop_
_space_group_symop_operation_xyz
x,y,z
-x,y,1/2-z
-x,-y,-z
x,-y,1/2+z
loop_
_atom_site_type_symbol
_atom_site_label
_atom_site_fract_x
_atom_site_fract_y
_atom_site_fract_z
Si Si1 0.303286 0.108414 0.238677
Si Si2 0.770167 0.521860 0.397877
Si Si3 0.387325 0.737156 0.570726
Si Si4 0.788293 0.181225 0.491234
Si Si5 0.769112 0.615021 0.394946
Si Si6 0.782116 0.654775 0.884512
Si Si7 0.718681 0.015326 0.158741
Si Si8 0.000000 0.845162 0.250000
O O1 0.500000 0.114782 0.250000
O O2 0.300123 0.137361 0.003931
O O3 0.278095 0.060526 0.233020
O O4 0.120978 0.125163 0.500510
O O5 0.710617 0.504432 0.701427
O O6 0.713521 0.568405 0.399361
O O7 0.000000 0.521136 0.250000
O O8 0.500000 0.735044 0.750000
O O9 0.320634 0.782803 0.563074
O O10 0.231079 0.702275 0.671545
O O11 0.500000 0.726759 0.250000
O O12 0.000000 0.183068 0.250000
O O13 0.835807 0.183187 0.746138
O O14 0.701063 0.631451 0.702626
O O15 0.000000 0.616500 0.250000
O O16 0.707964 0.641862 0.201269
O O17 0.000000 0.643027 0.750000
O O18 0.500000 0.004178 0.250000
O O19 0.797115 0.987783 0.328620
#
# Coordination Sequence:
#
# PCOD9230852 Si02
#       8
#     4   4   4   4   4   4   4   2
#     4  10  22  40  67  94 130 173 218 270 326 383
#     4   9  15  23  39  70 111 151 189 241 299 358
#     4  12  27  43  65  94 124 155 206 257 312 377
#     4  10  24  43  65  92 127 164 208 259 316 383
#     4   9  17  30  51  77 112 159 203 239 301 372
#     4  10  20  38  58  82 116 161 200 245 300 370
#     4   9  19  36  60  94 129 169 217 265 319 381
#     4  10  24  42  64  96 130 168 220 264 320 402
#
# _framework density 23.450346
#
# number of rings (size 3 to 8) (size 9 to 14) (size 15 to 20)
#    0.000    2.133    0.000    2.400    7.467    3.200 
#    3.600    0.667    0.000    0.000    0.000    0.000 
#    0.000   37.333    0.000    0.000    0.000    0.000 
#
# Total GULP energy -167432.080095 kJ/mol
# GULP energy per Si atom -5581.069337 kJ/mol
# Density = 2.339697 g / cm^3
# Si number density = 23.450346 Si / 1000 Ang^3
#
#
#
# Elastic Constant Matrix: (Units=GPa)
#
#
# Indices 1 2 3 4 5 6 
#
# 1 96.4316 36.7489 32.6064 0.0000 24.9601 0.0000
# 2 36.7489 124.9281 35.5752 0.0000 48.4592 0.0000
# 3 32.6064 35.5752 107.3887 0.0000 41.2793 0.0000
# 4 0.0000 0.0000 0.0000 62.0066 0.0000 -1.6803
# 5 24.9601 48.4592 41.2793 0.0000 42.8273 0.0000
# 6 0.0000 0.0000 0.0000 -1.6803 0.0000 22.6200
#
#
#
# Elastic Compliance Matrix: (Units=1/GPa)
#
#
# Indices 1 2 3 4 5 6 
#
# 1 0.012600 -0.001830 -0.001895 0.000000 -0.003447 0.000000
# 2 -0.001830 0.014915 0.002688 0.000000 -0.018400 0.000000
# 3 -0.001895 0.002688 0.015475 0.000000 -0.016852 0.000000
# 4 0.000000 0.000000 0.000000 0.016160 0.000000 0.001200
# 5 -0.003447 -0.018400 -0.016852 0.000000 0.062421 0.000000
# 6 0.000000 0.000000 0.000000 0.001200 0.000000 0.044298
#
#
# Mechanical properties :
#
#
# Convention : Reuss Voigt Hill
#
# Bulk Modulus (GPa) = 24.44048 59.84550 42.14299
# Shear Modulus (GPa) = 27.53580 40.41197 33.97388
#
# Velocity S-wave (km/s) = 3.43040 4.15577 3.81038
# Velocity P-wave (km/s) = 5.11225 6.97156 6.11301
#
# Compressibility (1/GPa) = 0.04091572
#
# Stress axis : x y z
#
# Youngs Moduli (GPa) = 79.36379 67.04660 64.62140
#
# Poissons Ratio (x) = 0.12269 0.12244
# Poissons Ratio (y) = 0.14524 -0.17368
# Poissons Ratio (z) = 0.15037 -0.18019
#
# Static dielectric constant tensor:
#      x y z
#    x 1.955610 0.000000 0.086680 
#    y 0.000000 1.840720 0.000000 
#    z 0.086680 0.000000 2.110070 
# 
# From -- ./inp_files/2719.got.cif
#   From: 2010.05.17/outbox.cif.g08.bks.cpg/sg13_2_cif.got.tgz:2719.got - 2010.06.03 16:44:36.
