data_PCOD9230649
_publ_section_title
;
Structure prediction by ZEFSAII (Michael W. Deem and Ramdas Pophale) SiO2 
 PCOD9230649
Probable space group: P 2/C
;
_chemical_formula_sum "Si O2"
_cell_formula_units_Z 24
_cell_length_a 23.840347
_cell_length_b 8.601841
_cell_length_c 18.662537
_cell_angle_alpha 90.000000
_cell_angle_beta 160.388618
_cell_angle_gamma 90.000000
_cell_volume 1284.537250
_symmetry_space_group_name_H-M "P 2/C"
_symmetry_group_IT_number 13
_symmetry_cell_setting 'monoclinic'
loop_
_space_group_symop_operation_xyz
x,y,z
-x,y,1/2-z
-x,-y,-z
x,-y,1/2+z
loop_
_atom_site_type_symbol
_atom_site_label
_atom_site_fract_x
_atom_site_fract_y
_atom_site_fract_z
Si Si1 0.513129 0.063983 0.434294
Si Si2 0.656515 0.853677 0.384619
Si Si3 0.373570 0.369207 0.321179
Si Si4 0.181406 0.130098 0.185967
Si Si5 0.006231 0.123280 0.118644
Si Si6 0.167008 0.380741 0.496291
O O1 0.472697 0.244829 0.391788
O O2 0.500000 0.000000 0.500000
O O3 0.387560 0.981359 0.228478
O O4 0.696909 0.003636 0.634833
O O5 0.500000 0.842859 0.250000
O O6 0.829513 0.889395 0.634051
O O7 0.691503 0.693736 0.384358
O O8 0.500000 0.500000 0.500000
O O9 0.290657 0.269099 0.285355
O O10 0.230438 0.462291 0.107751
O O11 0.064426 0.181164 0.110257
O O12 0.081429 0.041763 0.002724
O O13 0.880918 0.246273 0.004013
O O14 0.000000 0.406793 0.250000
#
# Coordination Sequence:
#
# PCOD9230649 Si02
#       6
#     4   4   4   4   4   4
#     4  10  20  37  61  87 114 153 206 247 284 347
#     4  11  21  39  66  88 118 158 210 251 295 351
#     4  11  22  36  60  88 125 158 194 244 304 363
#     4  10  20  37  62  89 117 158 205 250 292 353
#     4  10  21  38  63  88 119 155 204 250 297 352
#     4  10  22  38  57  88 121 164 188 240 312 368
#
# _framework density 18.683769999999999
#
# number of rings (size 3 to 8) (size 9 to 14) (size 15 to 20)
#    0.000    1.667    1.667    5.000    0.000    2.000 
#    0.000    0.833    0.000    0.000    0.000    0.000 
#    0.000    0.000    0.000    0.000    0.000    0.000 
#
# Total GULP energy -133914.217486 kJ/mol
# GULP energy per Si atom -5579.759062 kJ/mol
# Density = 1.864124 g / cm^3
# Si number density = 18.683770 Si / 1000 Ang^3
#
#
#
# Elastic Constant Matrix: (Units=GPa)
#
#
# Indices 1 2 3 4 5 6 
#
# 1 90.0219 48.7234 24.9582 0.0000 5.8460 0.0000
# 2 48.7234 114.9836 54.8169 0.0000 -0.0132 0.0000
# 3 24.9582 54.8169 75.4896 0.0000 -4.1287 0.0000
# 4 0.0000 0.0000 0.0000 40.8460 0.0000 -0.7438
# 5 5.8460 -0.0132 -4.1287 0.0000 24.3904 0.0000
# 6 0.0000 0.0000 0.0000 -0.7438 0.0000 17.3045
#
#
#
# Elastic Compliance Matrix: (Units=1/GPa)
#
#
# Indices 1 2 3 4 5 6 
#
# 1 0.014745 -0.005856 -0.000824 0.000000 -0.003677 0.000000
# 2 -0.005856 0.015693 -0.009470 0.000000 -0.000191 0.000000
# 3 -0.000824 -0.009470 0.020597 0.000000 0.003679 0.000000
# 4 0.000000 0.000000 0.000000 0.024501 0.000000 0.001053
# 5 -0.003677 -0.000191 0.003679 0.000000 0.042504 0.000000
# 6 0.000000 0.000000 0.000000 0.001053 0.000000 0.057834
#
#
# Mechanical properties :
#
#
# Convention : Reuss Voigt Hill
#
# Bulk Modulus (GPa) = 53.37349 59.72137 56.54743
# Shear Modulus (GPa) = 23.31899 26.64129 24.98014
#
# Velocity S-wave (km/s) = 3.53666 3.78021 3.66046
# Velocity P-wave (km/s) = 6.73098 7.14752 6.94237
#
# Compressibility (1/GPa) = 0.01873589
#
# Stress axis : x y z
#
# Youngs Moduli (GPa) = 67.81998 63.72371 48.55084
#
# Poissons Ratio (x) = 0.37314 0.04000
# Poissons Ratio (y) = 0.39713 0.45977
# Poissons Ratio (z) = 0.05588 0.60345
#
# Static dielectric constant tensor:
#      x y z
#    x 1.687530 0.000000 -0.003880 
#    y 0.000000 1.626080 0.000000 
#    z -0.003880 0.000000 1.746610 
# 
# From -- ./inp_files/71243.got.cif
#   From: 2010.05.17/outbox.cif.g08.bks.cpg/sg13_36_cif.got.tgz:71243.got - 2010.06.03 16:44:36.
