data_PCOD9230655
_publ_section_title
;
Structure prediction by ZEFSAII (Michael W. Deem and Ramdas Pophale) SiO2 
 PCOD9230655
Probable space group: P 2/C
;
_chemical_formula_sum "Si O2"
_cell_formula_units_Z 32
_cell_length_a 11.522884
_cell_length_b 7.840086
_cell_length_c 25.378421
_cell_angle_alpha 90.000000
_cell_angle_beta 143.186370
_cell_angle_gamma 90.000000
_cell_volume 1373.816138
_symmetry_space_group_name_H-M "P 2/C"
_symmetry_group_IT_number 13
_symmetry_cell_setting 'monoclinic'
loop_
_space_group_symop_operation_xyz
x,y,z
-x,y,1/2-z
-x,-y,-z
x,-y,1/2+z
loop_
_atom_site_type_symbol
_atom_site_label
_atom_site_fract_x
_atom_site_fract_y
_atom_site_fract_z
Si Si1 0.573254 0.259733 0.880125
Si Si2 0.269444 0.938170 0.151735
Si Si3 0.661802 0.233337 0.090947
Si Si4 0.284533 0.691081 0.646042
Si Si5 0.338134 0.611600 0.544520
Si Si6 0.330125 0.143645 0.884017
Si Si7 0.105979 0.567862 0.356359
Si Si8 0.223282 0.613636 0.195028
O O1 0.724167 0.142362 0.904420
O O2 0.654312 0.407396 0.946162
O O3 0.421959 0.151868 0.859322
O O4 0.449652 0.365936 0.792022
O O5 0.500000 0.948162 0.250000
O O6 0.173335 0.800323 0.154732
O O7 0.190375 0.127783 0.126455
O O8 0.536587 0.307033 0.094419
O O9 0.805674 0.384466 0.126372
O O10 0.746907 0.046992 0.134298
O O11 0.507270 0.191067 0.988257
O O12 0.500000 0.693997 0.750000
O O13 0.290451 0.681465 0.584948
O O14 0.185987 0.528162 0.637197
O O15 0.190673 0.635218 0.443077
O O16 0.178576 0.291766 0.841652
O O17 0.881835 0.559795 0.289563
#
# Coordination Sequence:
#
# PCOD9230655 Si02
#       8
#     4   4   4   4   4   4   4   4
#     4  11  18  38  63  82 108 149 192 240 277 331
#     4   9  20  36  57  82 109 144 192 235 278 332
#     4  10  20  37  61  88 109 151 192 235 279 334
#     4  11  20  37  61  84 109 147 196 239 275 336
#     4  11  19  37  63  84 107 147 198 234 277 333
#     4  10  20  37  62  84 114 146 194 236 278 335
#     4  11  23  38  55  85 122 151 182 234 288 346
#     4  11  23  37  56  82 120 152 181 231 295 336
#
# _framework density 23.292781999999999
#
# number of rings (size 3 to 8) (size 9 to 14) (size 15 to 20)
#    0.000    1.500    5.000    1.875    0.000    2.000 
#    0.000    0.625    2.750    0.000    0.000    0.000 
#    0.000    0.000    0.000    0.000    0.000    0.000 
#
# Total GULP energy -178780.233285 kJ/mol
# GULP energy per Si atom -5586.882290 kJ/mol
# Density = 2.323977 g / cm^3
# Si number density = 23.292782 Si / 1000 Ang^3
#
#
#
# Elastic Constant Matrix: (Units=GPa)
#
#
# Indices 1 2 3 4 5 6 
#
# 1 69.6043 34.0218 13.6037 0.0000 -18.1546 0.0000
# 2 34.0218 163.9203 10.4711 0.0000 -3.4427 0.0000
# 3 13.6037 10.4711 57.0989 0.0000 -19.7919 0.0000
# 4 0.0000 0.0000 0.0000 9.6399 0.0000 -11.9829
# 5 -18.1546 -3.4427 -19.7919 0.0000 29.5804 0.0000
# 6 0.0000 0.0000 0.0000 -11.9829 0.0000 15.6455
#
#
#
# Elastic Compliance Matrix: (Units=1/GPa)
#
#
# Indices 1 2 3 4 5 6 
#
# 1 0.019144 -0.003739 0.000060 0.000000 0.011355 0.000000
# 2 -0.003739 0.006903 -0.001161 0.000000 -0.002268 0.000000
# 3 0.000060 -0.001161 0.023016 0.000000 0.015302 0.000000
# 4 0.000000 0.000000 0.000000 2.163792 0.000000 1.657254
# 5 0.011355 -0.002268 0.015302 0.000000 0.050749 0.000000
# 6 0.000000 0.000000 0.000000 1.657254 0.000000 1.333211
#
#
# Mechanical properties :
#
#
# Convention : Reuss Voigt Hill
#
# Bulk Modulus (GPa) = 25.39119 45.20184 35.29651
# Shear Modulus (GPa) = 1.38136 26.47495 13.92815
#
# Velocity S-wave (km/s) = 0.77093 3.37503 2.44798
# Velocity P-wave (km/s) = 3.42301 5.88522 4.81419
#
# Compressibility (1/GPa) = 0.03938374
#
# Stress axis : x y z
#
# Youngs Moduli (GPa) = 52.23504 144.86321 43.44805
#
# Poissons Ratio (x) = 0.54161 -0.00263
# Poissons Ratio (y) = 0.19530 0.05046
# Poissons Ratio (z) = -0.00316 0.16825
#
# Static dielectric constant tensor:
#      x y z
#    x 1.910340 0.000000 0.014240 
#    y 0.000000 1.887420 0.000000 
#    z 0.014240 0.000000 1.951460 
# 
# From -- ./inp_files/86219.got.cif
#   From: 2010.05.17/outbox.cif.g08.bks.cpg/sg13_44_cif.got.tgz:86219.got - 2010.06.03 16:44:36.
