data_PCOD9230130
_publ_section_title
;
Structure prediction by ZEFSAII (Michael W. Deem and Ramdas Pophale) SiO2 
 PCOD9230130
Probable space group: P 2/C
;
_chemical_formula_sum "Si O2"
_cell_formula_units_Z 12
_cell_length_a 6.537695
_cell_length_b 8.954777
_cell_length_c 7.721813
_cell_angle_alpha 90.000000
_cell_angle_beta 90.926026
_cell_angle_gamma 90.000000
_cell_volume 452.003696
_symmetry_space_group_name_H-M "P 2/C"
_symmetry_group_IT_number 13
_symmetry_cell_setting 'monoclinic'
loop_
_space_group_symop_operation_xyz
x,y,z
-x,y,1/2-z
-x,-y,-z
x,-y,1/2+z
loop_
_atom_site_type_symbol
_atom_site_label
_atom_site_fract_x
_atom_site_fract_y
_atom_site_fract_z
Si Si1 0.344577 0.704658 0.939600
Si Si2 0.000000 0.130230 0.750000
Si Si3 0.500000 0.421096 0.750000
Si Si4 0.211125 0.154222 0.109398
O O1 0.376503 0.536506 0.867644
O O2 0.553461 0.800851 0.926542
O O3 0.189003 0.772933 0.801749
O O4 0.335074 0.675413 0.142756
O O5 0.901239 0.198303 0.572330
O O6 0.164294 0.017131 0.657541
#
# Coordination Sequence:
#
# PCOD9230130 Si02
#       4
#     4   2   2   4
#     4   9  18  34  57  79  96 132 173 207 251 300
#     4  10  20  36  48  72 112 136 164 210 248 298
#     4   8  16  32  58  80 100 118 170 226 246 286
#     4   9  20  33  52  73 102 139 170 204 252 294
#
# _framework density 26.548455000000001
#
# number of rings (size 3 to 8) (size 9 to 14) (size 15 to 20)
#    0.000    3.333    0.000    0.000    0.000   10.667 
#    0.000    0.000    0.000   96.000    0.000    0.000 
#    0.000    0.000    0.000    0.000    0.000    0.000 
#
# Total GULP energy -66805.426818 kJ/mol
# GULP energy per Si atom -5567.118902 kJ/mol
# Density = 2.648803 g / cm^3
# Si number density = 26.548455 Si / 1000 Ang^3
#
#
#
# Elastic Constant Matrix: (Units=GPa)
#
#
# Indices 1 2 3 4 5 6 
#
# 1 83.7714 25.6382 78.8413 0.0000 39.5077 0.0000
# 2 25.6382 85.5877 63.3681 0.0000 26.1322 0.0000
# 3 78.8413 63.3681 317.4715 0.0000 54.6489 0.0000
# 4 0.0000 0.0000 0.0000 52.3510 0.0000 39.9750
# 5 39.5077 26.1322 54.6489 0.0000 87.8350 0.0000
# 6 0.0000 0.0000 0.0000 39.9750 0.0000 -65.3882
#
#
#
# Elastic Compliance Matrix: (Units=1/GPa)
#
#
# Indices 1 2 3 4 5 6 
#
# 1 0.018091 -0.001258 -0.003254 0.000000 -0.005738 0.000000
# 2 -0.001258 0.014376 -0.002148 0.000000 -0.002375 0.000000
# 3 -0.003254 -0.002148 0.004508 0.000000 -0.000702 0.000000
# 4 0.000000 0.000000 0.000000 0.013023 0.000000 0.007961
# 5 -0.005738 -0.002375 -0.000702 0.000000 0.015109 0.000000
# 6 0.000000 0.000000 0.000000 0.007961 0.000000 -0.010426
#
#
# Mechanical properties :
#
#
# Convention : Reuss Voigt Hill
#
# Bulk Modulus (GPa) = 42.27521 91.39174 66.83347
# Shear Modulus (GPa) = 65.88836 36.22511 51.05673
#
# Velocity S-wave (km/s) = 4.98719 3.69791 4.39013
# Velocity P-wave (km/s) = 7.00864 7.26168 7.13628
#
# Compressibility (1/GPa) = 0.02365452
#
# Stress axis : x y z
#
# Youngs Moduli (GPa) = 55.27635 69.55812 221.84897
#
# Poissons Ratio (x) = 0.08751 0.72185
# Poissons Ratio (y) = 0.06954 0.47662
# Poissons Ratio (z) = 0.17986 0.14944
#
# Static dielectric constant tensor:
#      x y z
#    x 2.317290 0.000000 -0.038530 
#    y 0.000000 2.049860 0.000000 
#    z -0.038530 0.000000 2.246740 
# 
# From -- ./inp_files/10536.got.cif
#   From: 2010.05.17/outbox.cif.g08.bks.cpg/sg13_6_cif.got.tgz:10536.got - 2010.06.03 16:44:36.
