data_PCOD9230674
_publ_section_title
;
Structure prediction by ZEFSAII (Michael W. Deem and Ramdas Pophale) SiO2 
 PCOD9230674
Probable space group: P 2/C
;
_chemical_formula_sum "Si O2"
_cell_formula_units_Z 16
_cell_length_a 9.448292
_cell_length_b 13.310594
_cell_length_c 9.194628
_cell_angle_alpha 90.000000
_cell_angle_beta 41.597834
_cell_angle_gamma 90.000000
_cell_volume 767.690611
_symmetry_space_group_name_H-M "P 2/C"
_symmetry_group_IT_number 13
_symmetry_cell_setting 'monoclinic'
loop_
_space_group_symop_operation_xyz
x,y,z
-x,y,1/2-z
-x,-y,-z
x,-y,1/2+z
loop_
_atom_site_type_symbol
_atom_site_label
_atom_site_fract_x
_atom_site_fract_y
_atom_site_fract_z
Si Si1 0.936312 0.846012 0.462564
Si Si2 0.732197 0.530323 0.379436
Si Si3 0.347445 0.034648 0.748376
Si Si4 0.897311 0.626868 0.549519
O O1 0.848821 0.743878 0.598895
O O2 0.000000 0.820042 0.250000
O O3 0.152308 0.892063 0.362845
O O4 0.762486 0.934020 0.603423
O O5 0.500000 0.500000 0.500000
O O6 0.764443 0.570888 0.519699
O O7 0.859754 0.431552 0.227566
O O8 0.856281 0.614794 0.189580
O O9 0.500000 0.082812 0.750000
O O10 0.500000 0.000000 0.500000
#
# Coordination Sequence:
#
# PCOD9230674 Si02
#       4
#     4   4   4   4
#     4  11  22  42  70  93 131 176 212 263 328 389
#     4  10  20  37  61  91 123 163 209 261 306 371
#     4  11  24  42  67 100 131 167 217 269 322 387
#     4  10  22  40  63  91 127 166 213 255 317 379
#
# _framework density 20.841729000000001
#
# number of rings (size 3 to 8) (size 9 to 14) (size 15 to 20)
#    0.000    1.500    5.000    0.750    0.000    4.000 
#    0.000   17.500    0.000    0.000    0.000    0.000 
#    0.000    0.000    0.000    0.000    0.000    0.000 
#
# Total GULP energy -89165.006413 kJ/mol
# GULP energy per Si atom -5572.812901 kJ/mol
# Density = 2.079429 g / cm^3
# Si number density = 20.841729 Si / 1000 Ang^3
#
#
#
# Elastic Constant Matrix: (Units=GPa)
#
#
# Indices 1 2 3 4 5 6 
#
# 1 107.1719 26.6663 25.6152 0.0000 -23.5094 0.0000
# 2 26.6663 118.0868 -8.5097 0.0000 3.5312 0.0000
# 3 25.6152 -8.5097 62.5260 0.0000 -11.3772 0.0000
# 4 0.0000 0.0000 0.0000 15.1372 0.0000 7.6589
# 5 -23.5094 3.5312 -11.3772 0.0000 36.6137 0.0000
# 6 0.0000 0.0000 0.0000 7.6589 0.0000 18.7726
#
#
#
# Elastic Compliance Matrix: (Units=1/GPa)
#
#
# Indices 1 2 3 4 5 6 
#
# 1 0.012814 -0.003426 -0.004408 0.000000 0.007188 0.000000
# 2 -0.003426 0.009477 0.002254 0.000000 -0.002413 0.000000
# 3 -0.004408 0.002254 0.018603 0.000000 0.002733 0.000000
# 4 0.000000 0.000000 0.000000 0.083246 0.000000 -0.033963
# 5 0.007188 -0.002413 0.002733 0.000000 0.033010 0.000000
# 6 0.000000 0.000000 0.000000 -0.033963 0.000000 0.067125
#
#
# Mechanical properties :
#
#
# Convention : Reuss Voigt Hill
#
# Bulk Modulus (GPa) = 33.63133 41.70314 37.66724
# Shear Modulus (GPa) = 20.37941 30.37223 25.37582
#
# Velocity S-wave (km/s) = 3.13040 3.82158 3.49312
# Velocity P-wave (km/s) = 5.40717 6.28693 5.86357
#
# Compressibility (1/GPa) = 0.02973418
#
# Stress axis : x y z
#
# Youngs Moduli (GPa) = 78.04201 105.52247 53.75426
#
# Poissons Ratio (x) = 0.36154 0.23693
# Poissons Ratio (y) = 0.26738 -0.12117
# Poissons Ratio (z) = 0.34399 -0.23787
#
# Static dielectric constant tensor:
#      x y z
#    x 1.760500 0.000000 -0.044090 
#    y 0.000000 1.822330 0.000000 
#    z -0.044090 0.000000 1.796510 
# 
# From -- ./inp_files/11492.got.cif
#   From: 2010.05.17/outbox.cif.g08.bks.cpg/sg13_6_cif.got.tgz:11492.got - 2010.06.03 16:44:36.
