data_PCOD9230481
_publ_section_title
;
Structure prediction by ZEFSAII (Michael W. Deem and Ramdas Pophale) SiO2 
 PCOD9230481
Probable space group: P 2/C
;
_chemical_formula_sum "Si O2"
_cell_formula_units_Z 24
_cell_length_a 11.392914
_cell_length_b 8.884325
_cell_length_c 19.814318
_cell_angle_alpha 90.000000
_cell_angle_beta 39.149943
_cell_angle_gamma 90.000000
_cell_volume 1266.222312
_symmetry_space_group_name_H-M "P 2/C"
_symmetry_group_IT_number 13
_symmetry_cell_setting 'monoclinic'
loop_
_space_group_symop_operation_xyz
x,y,z
-x,y,1/2-z
-x,-y,-z
x,-y,1/2+z
loop_
_atom_site_type_symbol
_atom_site_label
_atom_site_fract_x
_atom_site_fract_y
_atom_site_fract_z
Si Si1 0.995690 0.788740 0.330666
Si Si2 0.867402 0.585733 0.113741
Si Si3 0.696130 0.044359 0.324564
Si Si4 0.937526 0.156336 0.495513
Si Si5 0.674529 0.290709 0.220109
Si Si6 0.719383 0.958812 0.967619
O O1 0.029632 0.651943 0.366270
O O2 0.000000 0.744324 0.250000
O O3 0.801842 0.871630 0.433295
O O4 0.150525 0.923161 0.268977
O O5 0.709074 0.470293 0.208797
O O6 0.811977 0.738360 0.099155
O O7 0.000000 0.500000 0.000000
O O8 0.667590 0.189954 0.290572
O O9 0.497868 0.961356 0.419032
O O10 0.750308 0.090932 0.376657
O O11 0.135701 0.233695 0.397682
O O12 0.833486 0.133850 0.471507
O O13 0.000000 0.000000 0.500000
O O14 0.500000 0.259711 0.250000
#
# Coordination Sequence:
#
# PCOD9230481 Si02
#       6
#     4   4   4   4   4   4
#     4  10  20  40  63  88 120 157 205 259 299 362
#     4  10  23  38  55  87 122 164 198 245 313 364
#     4  10  21  37  63  93 120 157 202 260 309 353
#     4  11  19  37  64  86 116 160 207 257 305 347
#     4  11  23  37  56  88 125 161 201 246 303 377
#     4  10  20  36  66  92 120 150 211 260 302 357
#
# _framework density 18.954015999999999
#
# number of rings (size 3 to 8) (size 9 to 14) (size 15 to 20)
#    0.000    1.667    3.333    1.000    2.333    1.333 
#    6.000    0.833    0.000    4.000    0.000    0.000 
#    0.000    0.000    0.000    0.000    0.000    0.000 
#
# Total GULP energy -133725.776634 kJ/mol
# GULP energy per Si atom -5571.907360 kJ/mol
# Density = 1.891088 g / cm^3
# Si number density = 18.954016 Si / 1000 Ang^3
#
#
#
# Elastic Constant Matrix: (Units=GPa)
#
#
# Indices 1 2 3 4 5 6 
#
# 1 155.8616 60.0752 31.2111 0.0000 18.7612 0.0000
# 2 60.0752 91.5978 23.2139 0.0000 24.0565 0.0000
# 3 31.2111 23.2139 52.0009 0.0000 4.5771 0.0000
# 4 0.0000 0.0000 0.0000 19.3055 0.0000 2.4198
# 5 18.7612 24.0565 4.5771 0.0000 32.3520 0.0000
# 6 0.0000 0.0000 0.0000 2.4198 0.0000 37.7244
#
#
#
# Elastic Compliance Matrix: (Units=1/GPa)
#
#
# Indices 1 2 3 4 5 6 
#
# 1 0.009054 -0.004811 -0.003179 0.000000 -0.001223 0.000000
# 2 -0.004811 0.017693 -0.004150 0.000000 -0.009779 0.000000
# 3 -0.003179 -0.004150 0.022841 0.000000 0.001698 0.000000
# 4 0.000000 0.000000 0.000000 0.052218 0.000000 -0.003349
# 5 -0.001223 -0.009779 0.001698 0.000000 0.038651 0.000000
# 6 0.000000 0.000000 0.000000 -0.003349 0.000000 0.026723
#
#
# Mechanical properties :
#
#
# Convention : Reuss Voigt Hill
#
# Bulk Modulus (GPa) = 39.51237 58.71788 49.11513
# Shear Modulus (GPa) = 25.01290 30.20704 27.60997
#
# Velocity S-wave (km/s) = 3.63666 3.99645 3.82079
# Velocity P-wave (km/s) = 6.20688 7.23477 6.74045
#
# Compressibility (1/GPa) = 0.02530853
#
# Stress axis : x y z
#
# Youngs Moduli (GPa) = 110.44518 56.51998 43.78002
#
# Poissons Ratio (x) = 0.27194 0.13917
# Poissons Ratio (y) = 0.53140 0.18168
# Poissons Ratio (z) = 0.35109 0.23454
#
# Static dielectric constant tensor:
#      x y z
#    x 1.655360 0.000000 0.020980 
#    y 0.000000 1.709240 0.000000 
#    z 0.020980 0.000000 1.694110 
# 
# From -- ./inp_files/77942.got.cif
#   From: 2010.05.17/outbox.cif.g08.bks.cpg/sg13_39_cif.got.tgz:77942.got - 2010.06.03 16:44:36.
