data_PCOD9230811
_publ_section_title
;
Structure prediction by ZEFSAII (Michael W. Deem and Ramdas Pophale) SiO2 
 PCOD9230811
Probable space group: P 2/C
;
_chemical_formula_sum "Si O2"
_cell_formula_units_Z 24
_cell_length_a 23.801880
_cell_length_b 9.354328
_cell_length_c 17.942799
_cell_angle_alpha 90.000000
_cell_angle_beta 161.242805
_cell_angle_gamma 90.000000
_cell_volume 1284.617614
_symmetry_space_group_name_H-M "P 2/C"
_symmetry_group_IT_number 13
_symmetry_cell_setting 'monoclinic'
loop_
_space_group_symop_operation_xyz
x,y,z
-x,y,1/2-z
-x,-y,-z
x,-y,1/2+z
loop_
_atom_site_type_symbol
_atom_site_label
_atom_site_fract_x
_atom_site_fract_y
_atom_site_fract_z
Si Si1 0.675347 0.930957 0.259307
Si Si2 0.811806 0.627311 0.799123
Si Si3 0.538463 0.186591 0.881675
Si Si4 0.168133 0.054295 0.761115
Si Si5 0.154577 0.298523 0.640366
Si Si6 0.049077 0.817794 0.392001
O O1 0.623023 0.870127 0.273784
O O2 0.778700 0.804492 0.343273
O O3 0.799044 0.066358 0.423530
O O4 0.500000 0.000000 0.000000
O O5 0.630241 0.695088 0.547439
O O6 0.782800 0.460968 0.779413
O O7 0.891746 0.701623 0.972878
O O8 0.948606 0.671233 0.903807
O O9 0.500000 0.236118 0.750000
O O10 0.680012 0.059309 0.053382
O O11 0.224768 0.204300 0.796992
O O12 0.106287 0.090671 0.765801
O O13 0.000000 0.000000 0.500000
O O14 0.000000 0.758187 0.250000
#
# Coordination Sequence:
#
# PCOD9230811 Si02
#       6
#     4   4   4   4   4   4
#     4  12  20  37  61  90 117 151 200 247 294 342
#     4  10  21  41  60  83 123 156 195 236 296 365
#     4  12  23  37  59  89 122 155 191 247 302 347
#     4  11  17  39  63  81 112 152 200 242 285 347
#     4  10  20  37  68  82 111 165 196 236 299 347
#     4  11  21  37  61  86 114 154 198 243 287 349
#
# _framework density 18.682603
#
# number of rings (size 3 to 8) (size 9 to 14) (size 15 to 20)
#    0.000    1.000    8.333    1.000    0.000    0.667 
#    0.000    6.667    0.000    0.000    0.000    0.000 
#    0.000    0.000    0.000    0.000    0.000    0.000 
#
# Total GULP energy -133673.338081 kJ/mol
# GULP energy per Si atom -5569.722420 kJ/mol
# Density = 1.864008 g / cm^3
# Si number density = 18.682603 Si / 1000 Ang^3
#
#
#
# Elastic Constant Matrix: (Units=GPa)
#
#
# Indices 1 2 3 4 5 6 
#
# 1 111.6128 19.1862 28.6346 0.0000 -9.5851 0.0000
# 2 19.1862 127.6877 31.0746 0.0000 -4.6978 0.0000
# 3 28.6346 31.0746 36.8122 0.0000 -4.9350 0.0000
# 4 0.0000 0.0000 0.0000 2.3397 0.0000 11.4072
# 5 -9.5851 -4.6978 -4.9350 0.0000 20.8791 0.0000
# 6 0.0000 0.0000 0.0000 11.4072 0.0000 20.5557
#
#
#
# Elastic Compliance Matrix: (Units=1/GPa)
#
#
# Indices 1 2 3 4 5 6 
#
# 1 0.011436 0.000579 -0.008946 0.000000 0.003266 0.000000
# 2 0.000579 0.009887 -0.008740 0.000000 0.000425 0.000000
# 3 -0.008946 -0.008740 0.042019 0.000000 0.003858 0.000000
# 4 0.000000 0.000000 0.000000 -0.250586 0.000000 0.139061
# 5 0.003266 0.000425 0.003858 0.000000 0.050401 0.000000
# 6 0.000000 0.000000 0.000000 0.139061 0.000000 -0.028522
#
#
# Mechanical properties :
#
#
# Convention : Reuss Voigt Hill
#
# Bulk Modulus (GPa) = 34.33175 48.21150 41.27163
# Shear Modulus (GPa) = -41.17160 21.90271 -9.63444
#
# Velocity S-wave (km/s) = -4.69949 3.42769 -2.27335
# Velocity P-wave (km/s) = 3.32126 6.44414 3.90488
#
# Compressibility (1/GPa) = 0.02912755
#
# Stress axis : x y z
#
# Youngs Moduli (GPa) = 87.44573 101.14159 23.79901
#
# Poissons Ratio (x) = -0.05857 0.21291
# Poissons Ratio (y) = -0.05064 0.20799
# Poissons Ratio (z) = 0.78232 0.88394
#
# Static dielectric constant tensor:
#      x y z
#    x 1.706810 0.000000 0.019330 
#    y 0.000000 1.585000 0.000000 
#    z 0.019330 0.000000 1.683940 
# 
# From -- ./inp_files/71181.got.cif
#   From: 2010.05.17/outbox.cif.g08.bks.cpg/sg13_36_cif.got.tgz:71181.got - 2010.06.03 16:44:36.
