data_PCOD9230936
_publ_section_title
;
Structure prediction by ZEFSAII (Michael W. Deem and Ramdas Pophale) SiO2 
 PCOD9230936
Probable space group: P 2/C
;
_chemical_formula_sum "Si O2"
_cell_formula_units_Z 26
_cell_length_a 8.114893
_cell_length_b 13.794745
_cell_length_c 10.868636
_cell_angle_alpha 90.000000
_cell_angle_beta 112.615943
_cell_angle_gamma 90.000000
_cell_volume 1123.108716
_symmetry_space_group_name_H-M "P 2/C"
_symmetry_group_IT_number 13
_symmetry_cell_setting 'monoclinic'
loop_
_space_group_symop_operation_xyz
x,y,z
-x,y,1/2-z
-x,-y,-z
x,-y,1/2+z
loop_
_atom_site_type_symbol
_atom_site_label
_atom_site_fract_x
_atom_site_fract_y
_atom_site_fract_z
Si Si1 0.727206 0.167769 0.472050
Si Si2 0.447160 0.605143 0.437071
Si Si3 0.857774 0.558006 0.319533
Si Si4 0.195150 0.031269 0.600489
Si Si5 0.577535 0.206066 0.912444
Si Si6 0.842099 0.354450 0.436549
Si Si7 0.000000 0.884229 0.250000
O O1 0.565119 0.178430 0.522430
O O2 0.788183 0.245459 0.383787
O O3 0.902416 0.172981 0.613076
O O4 0.694858 0.064335 0.398783
O O5 0.500000 0.500000 0.500000
O O6 0.674383 0.601754 0.219213
O O7 0.604693 0.681568 0.459867
O O8 0.305324 0.638418 0.498292
O O9 0.814036 0.447105 0.342427
O O10 0.000000 0.553952 0.250000
O O11 0.962911 0.620490 0.451799
O O12 0.267775 0.126253 0.552111
O O13 0.159368 0.055491 0.732686
O O14 0.000000 0.000000 0.500000
O O15 0.500000 0.203097 0.750000
#
# Coordination Sequence:
#
# PCOD9230936 Si02
#       7
#     4   4   4   4   4   4   2
#     4  10  21  38  64  92 127 160 221 275 336 395
#     4  10  23  37  59  95 133 171 219 277 327 398
#     4   9  19  39  59  90 135 174 226 274 328 406
#     4  10  22  41  62  93 127 161 215 276 329 394
#     4  11  22  39  67  94 120 176 222 269 332 396
#     4   9  20  37  62  91 126 174 216 277 331 387
#     4  10  20  38  60  92 122 160 214 276 316 400
#
# _framework density 23.150030999999998
#
# number of rings (size 3 to 8) (size 9 to 14) (size 15 to 20)
#    0.000    2.154    1.538    0.462    7.538    0.000 
#   12.462    1.538    3.385    0.000    0.000    0.000 
#    0.000    0.000    0.000    0.000    0.000    0.000 
#
# Total GULP energy -144813.529993 kJ/mol
# GULP energy per Si atom -5569.751154 kJ/mol
# Density = 2.309734 g / cm^3
# Si number density = 23.150031 Si / 1000 Ang^3
#
#
#
# Elastic Constant Matrix: (Units=GPa)
#
#
# Indices 1 2 3 4 5 6 
#
# 1 102.2115 57.8033 9.7896 0.0000 -25.4505 0.0000
# 2 57.8033 154.8113 8.4904 0.0000 -19.9665 0.0000
# 3 9.7896 8.4904 -4.9614 0.0000 -14.3571 0.0000
# 4 0.0000 0.0000 0.0000 -6.0740 0.0000 -23.5587
# 5 -25.4505 -19.9665 -14.3571 0.0000 30.9487 0.0000
# 6 0.0000 0.0000 0.0000 -23.5587 0.0000 40.6388
#
#
#
# Elastic Compliance Matrix: (Units=1/GPa)
#
#
# Indices 1 2 3 4 5 6 
#
# 1 0.014390 -0.004208 -0.002218 0.000000 0.008090 0.000000
# 2 -0.004208 0.008274 0.000181 0.000000 0.001961 0.000000
# 3 -0.002218 0.000181 -0.085673 0.000000 -0.041451 0.000000
# 4 0.000000 0.000000 0.000000 -0.050681 0.000000 -0.029380
# 5 0.008090 0.001961 -0.041451 0.000000 0.021000 0.000000
# 6 0.000000 0.000000 0.000000 -0.029380 0.000000 0.007575
#
#
# Mechanical properties :
#
#
# Convention : Reuss Voigt Hill
#
# Bulk Modulus (GPa) = -13.24504 44.91421 15.83459
# Shear Modulus (GPa) = -51.12907 24.83459 -13.14724
#
# Velocity S-wave (km/s) = -4.70467 3.27887 -2.38568
# Velocity P-wave (km/s) = 5.93681 5.81189 0.85662
#
# Compressibility (1/GPa) = -0.07549995
#
# Stress axis : x y z
#
# Youngs Moduli (GPa) = 69.49175 120.86540 -11.67222
#
# Poissons Ratio (x) = 0.50860 -0.02589
# Poissons Ratio (y) = 0.29242 0.00211
# Poissons Ratio (z) = 0.15412 -0.02183
#
# Static dielectric constant tensor:
#      x y z
#    x 1.898960 0.000000 0.003230 
#    y 0.000000 2.308050 0.000000 
#    z 0.003230 0.000000 1.919710 
# 
# From -- ./inp_files/29909.got.cif
#   From: 2010.05.17/outbox.cif.g08.bks.cpg/sg13_15_cif.got.tgz:29909.got - 2010.06.03 16:44:36.
