data_PCOD9230082
_publ_section_title
;
Structure prediction by ZEFSAII (Michael W. Deem and Ramdas Pophale) SiO2 
 PCOD9230082
Probable space group: P 2/C
;
_chemical_formula_sum "Si O2"
_cell_formula_units_Z 24
_cell_length_a 6.914168
_cell_length_b 9.092680
_cell_length_c 20.472007
_cell_angle_alpha 90.000000
_cell_angle_beta 131.955893
_cell_angle_gamma 90.000000
_cell_volume 957.120260
_symmetry_space_group_name_H-M "P 2/C"
_symmetry_group_IT_number 13
_symmetry_cell_setting 'monoclinic'
loop_
_space_group_symop_operation_xyz
x,y,z
-x,y,1/2-z
-x,-y,-z
x,-y,1/2+z
loop_
_atom_site_type_symbol
_atom_site_label
_atom_site_fract_x
_atom_site_fract_y
_atom_site_fract_z
Si Si1 0.459448 0.317323 0.044972
Si Si2 0.281010 0.131899 0.284350
Si Si3 0.761521 0.634651 0.487031
Si Si4 0.427218 0.809488 0.322085
Si Si5 0.961960 0.304363 0.650707
Si Si6 0.797626 0.600693 0.825273
O O1 0.416432 0.488649 0.051396
O O2 0.188746 0.272737 0.950204
O O3 0.564554 0.235300 0.131020
O O4 0.665429 0.289476 0.032896
O O5 0.218275 0.236201 0.208614
O O6 0.000000 0.089191 0.250000
O O7 0.446754 0.983633 0.318050
O O8 0.682354 0.727350 0.406172
O O9 0.064090 0.604496 0.572221
O O10 0.247405 0.763082 0.220759
O O11 0.228471 0.760716 0.336851
O O12 0.020224 0.480054 0.670077
O O13 0.500000 0.547190 0.750000
#
# Coordination Sequence:
#
# PCOD9230082 Si02
#       6
#     4   4   4   4   4   4
#     4   9  18  32  58  88 111 149 197 252 288 329
#     4  12  22  35  59  94 118 153 196 243 302 345
#     4   9  18  35  57  84 119 152 196 244 294 341
#     4  10  20  35  60  93 118 148 195 250 297 344
#     4   9  19  37  58  86 119 152 199 244 290 339
#     4  11  24  40  60  87 122 160 196 241 294 354
#
# _framework density 25.075219000000001
#
# number of rings (size 3 to 8) (size 9 to 14) (size 15 to 20)
#    0.000    2.000    3.333    2.000    2.333    4.000 
#    0.000    9.167    0.000    0.000    0.000    0.000 
#    0.000    0.000    0.000    0.000    0.000    0.000 
#
# Total GULP energy -134123.825356 kJ/mol
# GULP energy per Si atom -5588.492723 kJ/mol
# Density = 2.501815 g / cm^3
# Si number density = 25.075219 Si / 1000 Ang^3
#
#
#
# Elastic Constant Matrix: (Units=GPa)
#
#
# Indices 1 2 3 4 5 6 
#
# 1 71.0883 -0.2409 25.2350 0.0000 9.1032 0.0000
# 2 -0.2409 101.0651 57.8600 0.0000 -24.3082 0.0000
# 3 25.2350 57.8600 222.9702 0.0000 -11.9874 0.0000
# 4 0.0000 0.0000 0.0000 440.7288 0.0000 16.3156
# 5 9.1032 -24.3082 -11.9874 0.0000 50.4153 0.0000
# 6 0.0000 0.0000 0.0000 16.3156 0.0000 14.0733
#
#
#
# Elastic Compliance Matrix: (Units=1/GPa)
#
#
# Indices 1 2 3 4 5 6 
#
# 1 0.015160 0.000459 -0.001996 0.000000 -0.002990 0.000000
# 2 0.000459 0.012997 -0.003132 0.000000 0.005439 0.000000
# 3 -0.001996 -0.003132 0.005532 0.000000 0.000166 0.000000
# 4 0.000000 0.000000 0.000000 0.002371 0.000000 -0.002748
# 5 -0.002990 0.005439 0.000166 0.000000 0.023037 0.000000
# 6 0.000000 0.000000 0.000000 -0.002748 0.000000 0.074243
#
#
# Mechanical properties :
#
#
# Convention : Reuss Voigt Hill
#
# Bulk Modulus (GPa) = 41.06369 62.31465 51.68917
# Shear Modulus (GPa) = 33.15761 121.86143 77.50952
#
# Velocity S-wave (km/s) = 3.64032 6.97881 5.56578
# Velocity P-wave (km/s) = 5.83790 9.47858 7.87161
#
# Compressibility (1/GPa) = 0.02435242
#
# Stress axis : x y z
#
# Youngs Moduli (GPa) = 65.96326 76.94007 180.75013
#
# Poissons Ratio (x) = -0.03535 0.36073
# Poissons Ratio (y) = -0.03031 0.56616
# Poissons Ratio (z) = 0.13165 0.24100
#
# Static dielectric constant tensor:
#      x y z
#    x 2.120190 0.000000 0.041280 
#    y 0.000000 1.960150 0.000000 
#    z 0.041280 0.000000 1.992590 
# 
# From -- ./inp_files/96016.got.cif
#   From: 2010.05.17/outbox.cif.g08.bks.cpg/sg13_49_cif.got.tgz:96016.got - 2010.06.03 16:44:36.
