data_PCOD9230384
_publ_section_title
;
Structure prediction by ZEFSAII (Michael W. Deem and Ramdas Pophale) SiO2 
 PCOD9230384
Probable space group: P 2/C
;
_chemical_formula_sum "Si O2"
_cell_formula_units_Z 28
_cell_length_a 8.819604
_cell_length_b 8.536873
_cell_length_c 29.119311
_cell_angle_alpha 90.000000
_cell_angle_beta 137.738647
_cell_angle_gamma 90.000000
_cell_volume 1474.449784
_symmetry_space_group_name_H-M "P 2/C"
_symmetry_group_IT_number 13
_symmetry_cell_setting 'monoclinic'
loop_
_space_group_symop_operation_xyz
x,y,z
-x,y,1/2-z
-x,-y,-z
x,-y,1/2+z
loop_
_atom_site_type_symbol
_atom_site_label
_atom_site_fract_x
_atom_site_fract_y
_atom_site_fract_z
Si Si1 0.346029 0.423591 0.641718
Si Si2 0.500000 0.823631 0.250000
Si Si3 0.704093 0.896200 0.064658
Si Si4 0.953806 0.153702 0.459302
Si Si5 0.141069 0.076726 0.166456
Si Si6 0.418014 0.346684 0.556078
Si Si7 0.824662 0.347369 0.513532
Si Si8 0.500000 0.671698 0.750000
O O1 0.416087 0.279074 0.689223
O O2 0.457458 0.396590 0.617445
O O3 0.425021 0.569765 0.689534
O O4 0.075973 0.419056 0.573995
O O5 0.293865 0.933410 0.216695
O O6 0.610423 0.764820 0.078681
O O7 0.802924 0.792592 0.045022
O O8 0.889880 0.022292 0.122930
O O9 0.500000 0.000000 0.000000
O O10 0.856310 0.101612 0.388453
O O11 0.808441 0.270554 0.459013
O O12 0.190005 0.242175 0.503466
O O13 0.000000 0.000000 0.500000
O O14 0.280296 0.226814 0.214804
O O15 0.352976 0.512806 0.517951
#
# Coordination Sequence:
#
# PCOD9230384 Si02
#       8
#     4   2   4   4   4   4   4   2
#     4  10  20  39  61  90 112 156 212 250 300 343
#     4  10  20  36  62  80 116 160 200 248 280 354
#     4  12  23  38  58  91 128 159 189 246 320 381
#     4  11  18  35  61  92 123 151 200 258 296 353
#     4  11  20  37  58  92 119 156 204 244 310 352
#     4  11  22  36  59  91 123 157 195 251 313 360
#     4  11  21  37  61  90 124 156 200 257 308 355
#     4  10  22  36  66  90 114 156 216 270 280 358
#
# _framework density 18.990136
#
# number of rings (size 3 to 8) (size 9 to 14) (size 15 to 20)
#    0.000    1.143    4.286    4.714    0.000    0.000 
#    0.000    0.714    0.000    0.000    3.714    0.000 
#    0.000    0.000    0.000    0.000    0.000    0.000 
#
# Total GULP energy -156184.459900 kJ/mol
# GULP energy per Si atom -5578.016425 kJ/mol
# Density = 1.894691 g / cm^3
# Si number density = 18.990136 Si / 1000 Ang^3
#
#
#
# Elastic Constant Matrix: (Units=GPa)
#
#
# Indices 1 2 3 4 5 6 
#
# 1 80.8095 31.9837 17.7000 0.0000 3.7942 0.0000
# 2 31.9837 117.0743 32.7861 0.0000 5.3451 0.0000
# 3 17.7000 32.7861 57.3044 0.0000 4.9678 0.0000
# 4 0.0000 0.0000 0.0000 12.4683 0.0000 11.7886
# 5 3.7942 5.3451 4.9678 0.0000 31.3459 0.0000
# 6 0.0000 0.0000 0.0000 11.7886 0.0000 64.7849
#
#
#
# Elastic Compliance Matrix: (Units=1/GPa)
#
#
# Indices 1 2 3 4 5 6 
#
# 1 0.014207 -0.003138 -0.002525 0.000000 -0.000784 0.000000
# 2 -0.003138 0.010886 -0.005202 0.000000 -0.000652 0.000000
# 3 -0.002525 -0.005202 0.021397 0.000000 -0.002198 0.000000
# 4 0.000000 0.000000 0.000000 0.096869 0.000000 -0.017627
# 5 -0.000784 -0.000652 -0.002198 0.000000 0.032457 0.000000
# 6 0.000000 0.000000 0.000000 -0.017627 0.000000 0.018643
#
#
# Mechanical properties :
#
#
# Convention : Reuss Voigt Hill
#
# Bulk Modulus (GPa) = 40.38856 46.68087 43.53471
# Shear Modulus (GPa) = 22.27752 33.23439 27.75596
#
# Velocity S-wave (km/s) = 3.42879 4.18794 3.82723
# Velocity P-wave (km/s) = 6.08192 6.92966 6.51958
#
# Compressibility (1/GPa) = 0.02475949
#
# Stress axis : x y z
#
# Youngs Moduli (GPa) = 70.38934 91.86479 46.73468
#
# Poissons Ratio (x) = 0.28830 0.11798
# Poissons Ratio (y) = 0.22091 0.24312
# Poissons Ratio (z) = 0.17770 0.47790
#
# Static dielectric constant tensor:
#      x y z
#    x 1.632460 0.000000 -0.056100 
#    y 0.000000 1.702510 0.000000 
#    z -0.056100 0.000000 1.579240 
# 
# From -- ./inp_files/82165.got.cif
#   From: 2010.05.17/outbox.cif.g08.bks.cpg/sg13_42_cif.got.tgz:82165.got - 2010.06.03 16:44:36.
