data_PCOD9230783
_publ_section_title
;
Structure prediction by ZEFSAII (Michael W. Deem and Ramdas Pophale) SiO2 
 PCOD9230783
Probable space group: P 2/C
;
_chemical_formula_sum "Si O2"
_cell_formula_units_Z 30
_cell_length_a 21.698710
_cell_length_b 11.564813
_cell_length_c 12.166567
_cell_angle_alpha 90.000000
_cell_angle_beta 149.692796
_cell_angle_gamma 90.000000
_cell_volume 1540.703129
_symmetry_space_group_name_H-M "P 2/C"
_symmetry_group_IT_number 13
_symmetry_cell_setting 'monoclinic'
loop_
_space_group_symop_operation_xyz
x,y,z
-x,y,1/2-z
-x,-y,-z
x,-y,1/2+z
loop_
_atom_site_type_symbol
_atom_site_label
_atom_site_fract_x
_atom_site_fract_y
_atom_site_fract_z
Si Si1 0.791147 0.336668 0.046757
Si Si2 0.147452 0.880660 0.467026
Si Si3 0.057983 0.444867 0.697579
Si Si4 0.141014 0.862119 0.003747
Si Si5 0.615712 0.455288 0.617401
Si Si6 0.201402 0.343841 0.179874
Si Si7 0.500000 0.299699 0.250000
Si Si8 0.227606 0.767997 0.375425
O O1 0.887194 0.439339 0.163513
O O2 0.784956 0.330596 0.168209
O O3 0.811479 0.213664 0.023828
O O4 0.675115 0.379990 0.803821
O O5 0.212362 0.777351 0.633862
O O6 0.182084 0.862756 0.392959
O O7 0.000000 0.869916 0.250000
O O8 0.185128 0.005722 0.571021
O O9 0.163154 0.352008 0.822198
O O10 0.000000 0.500000 0.500000
O O11 0.937388 0.383734 0.559380
O O12 0.174766 0.798870 0.171765
O O13 0.000000 0.868342 0.750000
O O14 0.500000 0.500000 0.500000
O O15 0.705895 0.557169 0.716901
O O16 0.567122 0.379478 0.442523
O O17 0.623388 0.235896 0.394776
#
# Coordination Sequence:
#
# PCOD9230783 Si02
#       8
#     4   4   4   4   4   4   2   4
#     4  11  24  38  65 100 134 175 222 280 343 407
#     4  11  25  43  69  99 137 185 229 287 347 407
#     4  10  20  37  64  98 137 168 213 275 346 413
#     4  11  26  42  69 100 137 181 231 290 344 409
#     4  12  24  40  66  98 136 181 227 280 350 416
#     4  11  23  41  66  99 139 177 226 280 343 417
#     4  12  24  44  66  98 140 188 224 280 358 412
#     4  12  24  47  69  99 139 183 229 282 349 421
#
# _framework density 19.471627999999999
#
# number of rings (size 3 to 8) (size 9 to 14) (size 15 to 20)
#    0.000    0.800    2.667    6.400    3.733    1.067 
#    0.000    0.667    0.000    0.000    0.000    0.000 
#    0.000    0.000    0.000    0.000    0.000    0.000 
#
# Total GULP energy -167239.704743 kJ/mol
# GULP energy per Si atom -5574.656825 kJ/mol
# Density = 1.942731 g / cm^3
# Si number density = 19.471628 Si / 1000 Ang^3
#
#
#
# Elastic Constant Matrix: (Units=GPa)
#
#
# Indices 1 2 3 4 5 6 
#
# 1 113.7244 33.5286 44.5864 0.0000 -4.3269 0.0000
# 2 33.5286 79.8842 34.1714 0.0000 -3.4465 0.0000
# 3 44.5864 34.1714 120.1678 0.0000 -8.6185 0.0000
# 4 0.0000 0.0000 0.0000 29.6656 0.0000 -6.5702
# 5 -4.3269 -3.4465 -8.6185 0.0000 45.4200 0.0000
# 6 0.0000 0.0000 0.0000 -6.5702 0.0000 25.0673
#
#
#
# Elastic Compliance Matrix: (Units=1/GPa)
#
#
# Indices 1 2 3 4 5 6 
#
# 1 0.010993 -0.003263 -0.003136 0.000000 0.000205 0.000000
# 2 -0.003263 0.015225 -0.003100 0.000000 0.000256 0.000000
# 3 -0.003136 -0.003100 0.010471 0.000000 0.001453 0.000000
# 4 0.000000 0.000000 0.000000 0.035786 0.000000 0.009380
# 5 0.000205 0.000256 0.001453 0.000000 0.022331 0.000000
# 6 0.000000 0.000000 0.000000 0.009380 0.000000 0.042351
#
#
# Mechanical properties :
#
#
# Convention : Reuss Voigt Hill
#
# Bulk Modulus (GPa) = 56.53112 59.81656 58.17384
# Shear Modulus (GPa) = 30.85405 33.46326 32.15865
#
# Velocity S-wave (km/s) = 3.98498 4.15006 4.06835
# Velocity P-wave (km/s) = 7.09006 7.33147 7.21178
#
# Compressibility (1/GPa) = 0.01768937
#
# Stress axis : x y z
#
# Youngs Moduli (GPa) = 90.97042 65.68115 95.50158
#
# Poissons Ratio (x) = 0.21435 0.29949
# Poissons Ratio (y) = 0.29688 0.29608
# Poissons Ratio (z) = 0.28528 0.20363
#
# Static dielectric constant tensor:
#      x y z
#    x 1.659860 0.000000 -0.026930 
#    y 0.000000 1.668230 0.000000 
#    z -0.026930 0.000000 1.628240 
# 
# From -- ./inp_files/40904.got.cif
#   From: 2010.05.17/outbox.cif.g08.bks.cpg/sg13_21_cif.got.tgz:40904.got - 2010.06.03 16:44:36.
