data_PCOD9230569
_publ_section_title
;
Structure prediction by ZEFSAII (Michael W. Deem and Ramdas Pophale) SiO2 
 PCOD9230569
Probable space group: P 2/C
;
_chemical_formula_sum "Si O2"
_cell_formula_units_Z 26
_cell_length_a 10.066811
_cell_length_b 7.872393
_cell_length_c 21.137769
_cell_angle_alpha 90.000000
_cell_angle_beta 41.739294
_cell_angle_gamma 90.000000
_cell_volume 1115.228728
_symmetry_space_group_name_H-M "P 2/C"
_symmetry_group_IT_number 13
_symmetry_cell_setting 'monoclinic'
loop_
_space_group_symop_operation_xyz
x,y,z
-x,y,1/2-z
-x,-y,-z
x,-y,1/2+z
loop_
_atom_site_type_symbol
_atom_site_label
_atom_site_fract_x
_atom_site_fract_y
_atom_site_fract_z
Si Si1 0.170729 0.890075 0.972067
Si Si2 0.000000 0.355912 0.750000
Si Si3 0.500000 0.057774 0.250000
Si Si4 0.280738 0.455361 0.441788
Si Si5 0.365739 0.606544 0.595710
Si Si6 0.500000 0.441768 0.750000
Si Si7 0.295327 0.186796 0.726846
Si Si8 0.333692 0.188210 0.992732
O O1 0.122683 0.696037 0.008297
O O2 0.349066 0.874478 0.857030
O O3 0.236688 0.012694 0.005626
O O4 0.000000 0.000000 0.000000
O O5 0.820724 0.486584 0.826113
O O6 0.921188 0.235786 0.721544
O O7 0.659911 0.963801 0.240146
O O8 0.487503 0.378565 0.397476
O O9 0.322646 0.475038 0.352636
O O10 0.247444 0.640794 0.486575
O O11 0.500000 0.500000 0.500000
O O12 0.316222 0.774114 0.573307
O O13 0.390303 0.337222 0.734517
O O14 0.439985 0.173817 0.614104
#
# Coordination Sequence:
#
# PCOD9230569 Si02
#       8
#     4   2   2   4   4   2   4   4
#     4  11  24  40  62  92 119 165 214 249 305 372
#     4  12  18  32  64 100 114 162 218 236 302 388
#     4   9  21  42  58  83 137 154 197 271 302 355
#     4  10  20  37  64  87 124 165 198 251 320 349
#     4  10  20  37  58  93 128 158 204 259 305 366
#     4   9  15  34  56  89 125 160 193 245 314 355
#     4   9  18  33  63  91 118 165 202 247 309 358
#     4   9  20  42  59  87 129 157 199 263 306 357
#
# _framework density 23.313601999999999
#
# number of rings (size 3 to 8) (size 9 to 14) (size 15 to 20)
#    0.000    2.154    4.615    1.385    0.000    4.923 
#    2.769    0.000    0.000    0.000    0.000    0.000 
#    0.000    0.000    0.000    0.000    0.000    0.000 
#
# Total GULP energy -144818.012811 kJ/mol
# GULP energy per Si atom -5569.923570 kJ/mol
# Density = 2.326054 g / cm^3
# Si number density = 23.313602 Si / 1000 Ang^3
#
#
#
# Elastic Constant Matrix: (Units=GPa)
#
#
# Indices 1 2 3 4 5 6 
#
# 1 88.6476 -7.3475 12.7356 0.0000 -4.2456 0.0000
# 2 -7.3475 64.7404 3.8695 0.0000 -3.3077 0.0000
# 3 12.7356 3.8695 52.2553 0.0000 3.2517 0.0000
# 4 0.0000 0.0000 0.0000 3.6569 0.0000 -17.1142
# 5 -4.2456 -3.3077 3.2517 0.0000 23.2154 0.0000
# 6 0.0000 0.0000 0.0000 -17.1142 0.0000 41.8771
#
#
#
# Elastic Compliance Matrix: (Units=1/GPa)
#
#
# Indices 1 2 3 4 5 6 
#
# 1 0.012026 0.001706 -0.003237 0.000000 0.002896 0.000000
# 2 0.001706 0.015890 -0.001768 0.000000 0.002824 0.000000
# 3 -0.003237 -0.001768 0.020286 0.000000 -0.003685 0.000000
# 4 0.000000 0.000000 0.000000 -0.299644 0.000000 -0.122457
# 5 0.002896 0.002824 -0.003685 0.000000 0.044523 0.000000
# 6 0.000000 0.000000 0.000000 -0.122457 0.000000 -0.026166
#
#
# Mechanical properties :
#
#
# Convention : Reuss Voigt Hill
#
# Bulk Modulus (GPa) = 24.03668 24.90650 24.47159
# Shear Modulus (GPa) = -23.51623 26.84225 1.66301
#
# Velocity S-wave (km/s) = -3.17944 3.39684 0.84550
# Velocity P-wave (km/s) = 1.77366 5.10795 3.38713
#
# Compressibility (1/GPa) = 0.04160308
#
# Stress axis : x y z
#
# Youngs Moduli (GPa) = 83.15418 62.93306 49.29483
#
# Poissons Ratio (x) = -0.10738 0.15959
# Poissons Ratio (y) = -0.14188 0.08716
# Poissons Ratio (z) = 0.26921 0.11128
#
# Static dielectric constant tensor:
#      x y z
#    x 1.972600 0.000000 0.025490 
#    y 0.000000 1.994280 0.000000 
#    z 0.025490 0.000000 1.825420 
# 
# From -- ./inp_files/52969.got.cif
#   From: 2010.05.17/outbox.cif.g08.bks.cpg/sg13_27_cif.got.tgz:52969.got - 2010.06.03 16:44:36.
