data_PCOD9230155
_publ_section_title
;
Structure prediction by ZEFSAII (Michael W. Deem and Ramdas Pophale) SiO2 
 PCOD9230155
Probable space group: P 2/C
;
_chemical_formula_sum "Si O2"
_cell_formula_units_Z 30
_cell_length_a 13.705331
_cell_length_b 11.662527
_cell_length_c 9.030287
_cell_angle_alpha 90.000000
_cell_angle_beta 77.289051
_cell_angle_gamma 90.000000
_cell_volume 1408.016309
_symmetry_space_group_name_H-M "P 2/C"
_symmetry_group_IT_number 13
_symmetry_cell_setting 'monoclinic'
loop_
_space_group_symop_operation_xyz
x,y,z
-x,y,1/2-z
-x,-y,-z
x,-y,1/2+z
loop_
_atom_site_type_symbol
_atom_site_label
_atom_site_fract_x
_atom_site_fract_y
_atom_site_fract_z
Si Si1 0.249814 0.771172 0.699667
Si Si2 0.673741 0.853240 0.347181
Si Si3 0.461092 0.334788 0.611684
Si Si4 0.835731 0.932856 0.518444
Si Si5 0.598227 0.417482 0.319769
Si Si6 0.432672 0.063364 0.145051
Si Si7 0.000000 0.178077 0.750000
Si Si8 0.160790 0.203384 0.918600
O O1 0.184427 0.845862 0.838079
O O2 0.302927 0.656194 0.746346
O O3 0.184098 0.750477 0.574287
O O4 0.346809 0.849196 0.624929
O O5 0.597940 0.765532 0.448346
O O6 0.738277 0.917061 0.448929
O O7 0.624322 0.953271 0.268007
O O8 0.743050 0.779838 0.216759
O O9 0.500000 0.281359 0.750000
O O10 0.556940 0.378747 0.492724
O O11 0.393125 0.445194 0.671321
O O12 0.925394 0.895293 0.379195
O O13 0.850452 0.064084 0.562198
O O14 0.500000 0.398358 0.250000
O O15 0.500000 0.116718 0.250000
O O16 0.500000 0.000000 0.000000
O O17 0.067782 0.243808 0.848955
#
# Coordination Sequence:
#
# PCOD9230155 Si02
#       8
#     4   4   4   4   4   4   2   4
#     4  12  21  35  55  81 117 148 185 237 276 320
#     4  11  20  35  52  78 114 153 187 229 274 321
#     4  10  20  36  55  77 113 156 204 236 261 311
#     4  11  21  38  55  82 113 143 182 233 280 350
#     4  10  21  36  54  81 113 155 200 239 266 303
#     4  12  21  30  48  74 113 153 186 210 265 323
#     4  10  24  38  60  80 110 150 178 220 300 352
#     4  11  21  38  55  82 112 143 183 230 282 353
#
# _framework density 21.306571999999999
#
# number of rings (size 3 to 8) (size 9 to 14) (size 15 to 20)
#    0.000    1.067    2.667    6.000    0.000    0.533 
#    0.000    0.000    0.000    0.000    0.000   14.933 
#    0.000    2.133    0.000    0.000    0.000    0.000 
#
# Total GULP energy -167483.474772 kJ/mol
# GULP energy per Si atom -5582.782492 kJ/mol
# Density = 2.125808 g / cm^3
# Si number density = 21.306572 Si / 1000 Ang^3
#
#
#
# Elastic Constant Matrix: (Units=GPa)
#
#
# Indices 1 2 3 4 5 6 
#
# 1 80.5373 25.7283 27.8771 0.0000 14.1657 0.0000
# 2 25.7283 82.0911 -1.2155 0.0000 6.3612 0.0000
# 3 27.8771 -1.2155 97.4829 0.0000 11.9687 0.0000
# 4 0.0000 0.0000 0.0000 14.3975 0.0000 -1.5526
# 5 14.1657 6.3612 11.9687 0.0000 39.5305 0.0000
# 6 0.0000 0.0000 0.0000 -1.5526 0.0000 10.6129
#
#
#
# Elastic Compliance Matrix: (Units=1/GPa)
#
#
# Indices 1 2 3 4 5 6 
#
# 1 0.016057 -0.004807 -0.004196 0.000000 -0.003710 0.000000
# 2 -0.004807 0.013791 0.001670 0.000000 -0.001002 0.000000
# 3 -0.004196 0.001670 0.011765 0.000000 -0.002327 0.000000
# 4 0.000000 0.000000 0.000000 0.070570 0.000000 0.010324
# 5 -0.003710 -0.001002 -0.002327 0.000000 0.027492 0.000000
# 6 0.000000 0.000000 0.000000 0.010324 0.000000 0.095736
#
#
# Mechanical properties :
#
#
# Convention : Reuss Voigt Hill
#
# Bulk Modulus (GPa) = 37.11264 40.54345 38.82804
# Shear Modulus (GPa) = 19.30058 26.75628 23.02843
#
# Velocity S-wave (km/s) = 3.01300 3.54754 3.29114
# Velocity P-wave (km/s) = 5.43695 5.98748 5.71885
#
# Compressibility (1/GPa) = 0.02694500
#
# Stress axis : x y z
#
# Youngs Moduli (GPa) = 62.27666 72.51317 84.99969
#
# Poissons Ratio (x) = 0.34859 0.35669
# Poissons Ratio (y) = 0.29938 -0.14192
# Poissons Ratio (z) = 0.26133 -0.12107
#
# Static dielectric constant tensor:
#      x y z
#    x 1.867120 0.000000 -0.005570 
#    y 0.000000 1.778950 0.000000 
#    z -0.005570 0.000000 1.828020 
# 
# From -- ./inp_files/18773.got.cif
#   From: 2010.05.17/outbox.cif.g08.bks.cpg/sg13_10_cif.got.tgz:18773.got - 2010.06.03 16:44:36.
