data_PCOD9230451
_publ_section_title
;
Structure prediction by ZEFSAII (Michael W. Deem and Ramdas Pophale) SiO2 
 PCOD9230451
Probable space group: P 2/C
;
_chemical_formula_sum "Si O2"
_cell_formula_units_Z 32
_cell_length_a 26.171137
_cell_length_b 6.584951
_cell_length_c 16.837216
_cell_angle_alpha 90.000000
_cell_angle_beta 145.246317
_cell_angle_gamma 90.000000
_cell_volume 1654.085863
_symmetry_space_group_name_H-M "P 2/C"
_symmetry_group_IT_number 13
_symmetry_cell_setting 'monoclinic'
loop_
_space_group_symop_operation_xyz
x,y,z
-x,y,1/2-z
-x,-y,-z
x,-y,1/2+z
loop_
_atom_site_type_symbol
_atom_site_label
_atom_site_fract_x
_atom_site_fract_y
_atom_site_fract_z
Si Si1 0.749356 0.465023 0.536080
Si Si2 0.087823 0.716138 0.687816
Si Si3 0.806384 0.111380 0.719431
Si Si4 0.354878 0.065216 0.380774
Si Si5 0.100475 0.555548 0.049919
Si Si6 0.732411 0.407607 0.329274
Si Si7 0.428032 0.358103 0.953274
Si Si8 0.422732 0.390029 0.589609
O O1 0.837318 0.598696 0.665820
O O2 0.768167 0.245638 0.598691
O O3 0.725562 0.442884 0.413822
O O4 0.669386 0.572533 0.481831
O O5 0.083704 0.621005 0.593574
O O6 0.990624 0.657613 0.597969
O O7 0.122120 0.945739 0.720329
O O8 0.851672 0.267962 0.838312
O O9 0.724387 0.011639 0.662466
O O10 0.305363 0.189482 0.247404
O O11 0.410675 0.219704 0.506975
O O12 0.417289 0.882344 0.430363
O O13 0.167418 0.458813 0.071544
O O14 0.668050 0.559492 0.198517
O O15 0.500000 0.500000 0.000000
O O16 0.442628 0.406643 0.064653
O O17 0.500000 0.342201 0.750000
#
# Coordination Sequence:
#
# PCOD9230451 Si02
#       8
#     4   4   4   4   4   4   4   4
#     4  11  23  39  60  90 127 169 209 269 331 384
#     4  10  20  37  64  90 122 163 215 262 320 394
#     4  11  18  40  64  91 119 165 221 264 317 391
#     4  11  21  42  67  89 126 168 218 271 317 396
#     4  10  20  36  64  92 120 165 211 264 322 387
#     4  11  23  39  61  91 129 169 210 269 330 385
#     4  11  23  43  64  89 124 164 214 269 326 387
#     4  11  23  41  62  92 123 163 217 266 325 397
#
# _framework density 19.346032999999998
#
# number of rings (size 3 to 8) (size 9 to 14) (size 15 to 20)
#    0.000    1.250    5.000    2.625    0.000    4.000 
#    4.500    0.000    0.000    0.000    0.000    0.000 
#    0.000    0.000    0.000    0.000    0.000    0.000 
#
# Total GULP energy -178608.522745 kJ/mol
# GULP energy per Si atom -5581.516336 kJ/mol
# Density = 1.930200 g / cm^3
# Si number density = 19.346033 Si / 1000 Ang^3
#
#
#
# Elastic Constant Matrix: (Units=GPa)
#
#
# Indices 1 2 3 4 5 6 
#
# 1 80.6919 31.2244 30.7824 0.0000 4.7264 0.0000
# 2 31.2244 105.4674 19.6701 0.0000 6.1797 0.0000
# 3 30.7824 19.6701 79.5161 0.0000 7.6340 0.0000
# 4 0.0000 0.0000 0.0000 11.5489 0.0000 7.1876
# 5 4.7264 6.1797 7.6340 0.0000 35.9431 0.0000
# 6 0.0000 0.0000 0.0000 7.1876 0.0000 25.1603
#
#
#
# Elastic Compliance Matrix: (Units=1/GPa)
#
#
# Indices 1 2 3 4 5 6 
#
# 1 0.015818 -0.003698 -0.005176 0.000000 -0.000345 0.000000
# 2 -0.003698 0.010856 -0.001145 0.000000 -0.001137 0.000000
# 3 -0.005176 -0.001145 0.015086 0.000000 -0.002327 0.000000
# 4 0.000000 0.000000 0.000000 0.105312 0.000000 -0.030085
# 5 -0.000345 -0.001137 -0.002327 0.000000 0.028557 0.000000
# 6 0.000000 0.000000 0.000000 -0.030085 0.000000 0.048340
#
#
# Mechanical properties :
#
#
# Convention : Reuss Voigt Hill
#
# Bulk Modulus (GPa) = 46.03132 47.66992 46.85062
# Shear Modulus (GPa) = 19.90064 26.79702 23.34883
#
# Velocity S-wave (km/s) = 3.21076 3.72579 3.47782
# Velocity P-wave (km/s) = 6.13112 6.57289 6.35584
#
# Compressibility (1/GPa) = 0.02172434
#
# Stress axis : x y z
#
# Youngs Moduli (GPa) = 63.21788 92.11083 66.28510
#
# Poissons Ratio (x) = 0.34059 0.34308
# Poissons Ratio (y) = 0.23375 0.07590
# Poissons Ratio (z) = 0.32720 0.10547
#
# Static dielectric constant tensor:
#      x y z
#    x 1.698720 0.000000 0.041620 
#    y 0.000000 1.704720 0.000000 
#    z 0.041620 0.000000 1.652930 
# 
# From -- ./inp_files/72226.got.cif
#   From: 2010.05.17/outbox.cif.g08.bks.cpg/sg13_37_cif.got.tgz:72226.got - 2010.06.03 16:44:36.
