data_PCOD9230128
_publ_section_title
;
Structure prediction by ZEFSAII (Michael W. Deem and Ramdas Pophale) SiO2 
 PCOD9230128
Probable space group: P 2/C
;
_chemical_formula_sum "Si O2"
_cell_formula_units_Z 28
_cell_length_a 13.105306
_cell_length_b 7.798944
_cell_length_c 15.933941
_cell_angle_alpha 90.000000
_cell_angle_beta 53.905914
_cell_angle_gamma 90.000000
_cell_volume 1315.966340
_symmetry_space_group_name_H-M "P 2/C"
_symmetry_group_IT_number 13
_symmetry_cell_setting 'monoclinic'
loop_
_space_group_symop_operation_xyz
x,y,z
-x,y,1/2-z
-x,-y,-z
x,-y,1/2+z
loop_
_atom_site_type_symbol
_atom_site_label
_atom_site_fract_x
_atom_site_fract_y
_atom_site_fract_z
Si Si1 0.030836 0.963510 0.889528
Si Si2 0.806447 0.271943 0.754947
Si Si3 0.772633 0.915663 0.433911
Si Si4 0.363598 0.250117 0.070518
Si Si5 0.524759 0.741767 0.332724
Si Si6 0.105675 0.621453 0.769816
Si Si7 0.533376 0.851534 0.642252
O O1 0.080629 0.774141 0.846564
O O2 0.135624 0.098719 0.809914
O O3 0.902569 0.998709 0.899685
O O4 0.000000 0.000000 0.000000
O O5 0.801371 0.238435 0.856989
O O6 0.666330 0.301510 0.789834
O O7 0.893266 0.433056 0.691713
O O8 0.683119 0.855606 0.552784
O O9 0.689476 0.058821 0.425003
O O10 0.242352 0.353287 0.160556
O O11 0.464028 0.237735 0.097447
O O12 0.429199 0.315193 0.952983
O O13 0.500000 0.680373 0.250000
O O14 0.512095 0.949642 0.337195
O O15 0.000000 0.634452 0.750000
O O16 0.500000 0.780366 0.750000
#
# Coordination Sequence:
#
# PCOD9230128 Si02
#       7
#     4   4   4   4   4   4   4
#     4  12  27  43  70 100 137 181 229 284 344 407
#     4  12  24  45  69  99 135 179 235 279 340 413
#     4  11  20  41  67  98 135 178 226 281 337 405
#     4  11  20  41  68  96 137 177 227 275 339 410
#     4  10  21  38  66 100 135 178 223 283 344 403
#     4  12  25  44  72  97 134 185 229 276 345 412
#     4  10  20  35  69 104 136 176 229 280 341 408
#
# _framework density 21.277138999999998
#
# number of rings (size 3 to 8) (size 9 to 14) (size 15 to 20)
#    0.000    0.857    5.714    2.143    8.000    1.143 
#    0.000    2.143    0.000    0.000    0.000    0.000 
#    0.000    0.000    0.000    0.000    0.000    0.000 
#
# Total GULP energy -156641.444330 kJ/mol
# GULP energy per Si atom -5594.337297 kJ/mol
# Density = 2.122871 g / cm^3
# Si number density = 21.277139 Si / 1000 Ang^3
#
#
#
# Elastic Constant Matrix: (Units=GPa)
#
#
# Indices 1 2 3 4 5 6 
#
# 1 79.4014 9.6934 34.3014 0.0000 0.2327 0.0000
# 2 9.6934 82.7257 14.6226 0.0000 3.7002 0.0000
# 3 34.3014 14.6226 117.3023 0.0000 9.4926 0.0000
# 4 0.0000 0.0000 0.0000 1.3389 0.0000 -9.3962
# 5 0.2327 3.7002 9.4926 0.0000 34.5538 0.0000
# 6 0.0000 0.0000 0.0000 -9.3962 0.0000 12.3236
#
#
#
# Elastic Compliance Matrix: (Units=1/GPa)
#
#
# Indices 1 2 3 4 5 6 
#
# 1 0.014537 -0.001010 -0.004220 0.000000 0.001169 0.000000
# 2 -0.001010 0.012459 -0.001177 0.000000 -0.001004 0.000000
# 3 -0.004220 -0.001177 0.010118 0.000000 -0.002625 0.000000
# 4 0.000000 0.000000 0.000000 -0.171663 0.000000 -0.130886
# 5 0.001169 -0.001004 -0.002625 0.000000 0.029761 0.000000
# 6 0.000000 0.000000 0.000000 -0.130886 0.000000 -0.018650
#
#
# Mechanical properties :
#
#
# Convention : Reuss Voigt Hill
#
# Bulk Modulus (GPa) = 41.14852 44.07381 42.61116
# Shear Modulus (GPa) = -48.76907 24.36405 -12.20251
#
# Velocity S-wave (km/s) = -4.79277 3.38758 -2.39739
# Velocity P-wave (km/s) = 3.35354 6.00500 3.52234
#
# Compressibility (1/GPa) = 0.02430221
#
# Stress axis : x y z
#
# Youngs Moduli (GPa) = 68.79012 80.26092 98.83373
#
# Poissons Ratio (x) = 0.08105 0.41704
# Poissons Ratio (y) = 0.06947 0.11629
# Poissons Ratio (z) = 0.29027 0.09443
#
# Static dielectric constant tensor:
#      x y z
#    x 1.747340 0.000000 -0.011720 
#    y 0.000000 1.807070 0.000000 
#    z -0.011720 0.000000 1.881780 
# 
# From -- ./inp_files/50238.got.cif
#   From: 2010.05.17/outbox.cif.g08.bks.cpg/sg13_26_cif.got.tgz:50238.got - 2010.06.03 16:44:36.
