data_PCOD9230257
_publ_section_title
;
Structure prediction by ZEFSAII (Michael W. Deem and Ramdas Pophale) SiO2 
 PCOD9230257
Probable space group: P 2/C
;
_chemical_formula_sum "Si O2"
_cell_formula_units_Z 16
_cell_length_a 7.367536
_cell_length_b 16.707887
_cell_length_c 8.856858
_cell_angle_alpha 90.000000
_cell_angle_beta 146.479093
_cell_angle_gamma 90.000000
_cell_volume 602.077372
_symmetry_space_group_name_H-M "P 2/C"
_symmetry_group_IT_number 13
_symmetry_cell_setting 'monoclinic'
loop_
_space_group_symop_operation_xyz
x,y,z
-x,y,1/2-z
-x,-y,-z
x,-y,1/2+z
loop_
_atom_site_type_symbol
_atom_site_label
_atom_site_fract_x
_atom_site_fract_y
_atom_site_fract_z
Si Si1 0.663523 0.074629 0.198115
Si Si2 0.580151 0.415785 0.631061
Si Si3 0.176860 0.318851 0.121775
Si Si4 0.825114 0.162625 0.795931
O O1 0.500000 0.078428 0.250000
O O2 0.039573 0.090701 0.503298
O O3 0.546160 0.147580 0.009516
O O4 0.500000 0.000000 0.000000
O O5 0.500000 0.421044 0.750000
O O6 0.500000 0.500000 0.500000
O O7 0.336223 0.352109 0.384132
O O8 0.960725 0.388020 0.891325
O O9 0.500000 0.296253 0.250000
O O10 0.931117 0.244026 0.948259
O O11 0.000000 0.161415 0.750000
#
# Coordination Sequence:
#
# PCOD9230257 Si02
#       4
#     4   4   4   4
#     4  10  20  36  58  87 125 169 215 266 321 385
#     4  12  27  47  68  99 139 178 218 273 338 403
#     4  12  24  44  73 101 129 175 230 279 331 399
#     4  10  20  37  62  91 124 166 218 270 324 389
#
# _framework density 26.574659
#
# number of rings (size 3 to 8) (size 9 to 14) (size 15 to 20)
#    0.000    1.000    0.000    9.000    0.000    2.000 
#    0.000    7.500    0.000    0.000    0.000    0.000 
#    0.000    0.000    0.000    0.000    0.000    0.000 
#
# Total GULP energy -89575.873126 kJ/mol
# GULP energy per Si atom -5598.492070 kJ/mol
# Density = 2.651417 g / cm^3
# Si number density = 26.574659 Si / 1000 Ang^3
#
#
#
# Elastic Constant Matrix: (Units=GPa)
#
#
# Indices 1 2 3 4 5 6 
#
# 1 63.4944 9.4505 32.8950 0.0000 -23.0983 0.0000
# 2 9.4505 137.2345 86.8781 0.0000 -31.7356 0.0000
# 3 32.8950 86.8781 267.7003 0.0000 -26.9713 0.0000
# 4 0.0000 0.0000 0.0000 76.6658 0.0000 -11.7269
# 5 -23.0983 -31.7356 -26.9713 0.0000 46.3879 0.0000
# 6 0.0000 0.0000 0.0000 -11.7269 0.0000 18.3215
#
#
#
# Elastic Compliance Matrix: (Units=1/GPa)
#
#
# Indices 1 2 3 4 5 6 
#
# 1 0.020370 0.002445 -0.002237 0.000000 0.010515 0.000000
# 2 0.002445 0.010609 -0.003069 0.000000 0.006691 0.000000
# 3 -0.002237 -0.003069 0.004974 0.000000 -0.000322 0.000000
# 4 0.000000 0.000000 0.000000 0.014459 0.000000 0.009255
# 5 0.010515 0.006691 -0.000322 0.000000 0.031183 0.000000
# 6 0.000000 0.000000 0.000000 0.009255 0.000000 0.060504
#
#
# Mechanical properties :
#
#
# Convention : Reuss Voigt Hill
#
# Bulk Modulus (GPa) = 33.07990 80.76404 56.92197
# Shear Modulus (GPa) = 31.66588 50.88875 41.27732
#
# Velocity S-wave (km/s) = 3.45567 4.38074 3.94542
# Velocity P-wave (km/s) = 5.32890 7.48634 6.49779
#
# Compressibility (1/GPa) = 0.03022984
#
# Stress axis : x y z
#
# Youngs Moduli (GPa) = 49.09264 94.26244 201.04192
#
# Poissons Ratio (x) = -0.23048 0.44976
# Poissons Ratio (y) = -0.12004 0.61705
# Poissons Ratio (z) = 0.10983 0.28931
#
# Static dielectric constant tensor:
#      x y z
#    x 1.943810 0.000000 -0.029070 
#    y 0.000000 2.177730 0.000000 
#    z -0.029070 0.000000 1.946070 
# 
# From -- ./inp_files/13237.got.cif
#   From: 2010.05.17/outbox.cif.g08.bks.cpg/sg13_7_cif.got.tgz:13237.got - 2010.06.03 16:44:36.
