data_PCOD9230944
_publ_section_title
;
Structure prediction by ZEFSAII (Michael W. Deem and Ramdas Pophale) SiO2 
 PCOD9230944
Probable space group: P 2/C
;
_chemical_formula_sum "Si O2"
_cell_formula_units_Z 28
_cell_length_a 8.589386
_cell_length_b 6.268500
_cell_length_c 28.028159
_cell_angle_alpha 90.000000
_cell_angle_beta 60.803536
_cell_angle_gamma 90.000000
_cell_volume 1317.379128
_symmetry_space_group_name_H-M "P 2/C"
_symmetry_group_IT_number 13
_symmetry_cell_setting 'monoclinic'
loop_
_space_group_symop_operation_xyz
x,y,z
-x,y,1/2-z
-x,-y,-z
x,-y,1/2+z
loop_
_atom_site_type_symbol
_atom_site_label
_atom_site_fract_x
_atom_site_fract_y
_atom_site_fract_z
Si Si1 0.500000 0.873302 0.750000
Si Si2 0.698470 0.214720 0.782653
Si Si3 0.165737 0.408519 0.303597
Si Si4 0.804995 0.463967 0.007710
Si Si5 0.319377 0.882328 0.044193
Si Si6 0.441140 0.451329 0.607066
Si Si7 0.000000 0.908444 0.750000
Si Si8 0.832121 0.294217 0.407203
O O1 0.571563 0.036165 0.779035
O O2 0.655578 0.716535 0.708599
O O3 0.785780 0.367114 0.728783
O O4 0.603395 0.369288 0.834005
O O5 0.845852 0.073273 0.787664
O O6 0.015908 0.412077 0.366674
O O7 0.074623 0.248541 0.278938
O O8 0.767293 0.238895 0.987691
O O9 0.775455 0.624838 0.967855
O O10 0.648078 0.499916 0.069005
O O11 0.000000 0.500000 0.000000
O O12 0.380441 0.721962 0.076613
O O13 0.171507 0.041411 0.087516
O O14 0.500000 0.000000 0.000000
O O15 0.315561 0.647567 0.610388
#
# Coordination Sequence:
#
# PCOD9230944 Si02
#       8
#     2   4   4   4   4   4   2   4
#     4  10  26  44  60  92 134 172 220 258 330 414
#     4  11  23  41  65  90 133 167 207 280 320 377
#     4  11  23  41  64  93 125 170 215 261 332 385
#     4  11  25  40  59  97 130 164 216 263 328 395
#     4  11  20  43  67  90 127 170 217 274 320 380
#     4  11  22  40  66  94 124 167 219 264 326 387
#     4  10  20  38  60  98 118 152 222 256 312 396
#     4  11  22  41  67  91 124 168 215 268 318 391
#
# _framework density 21.25432
#
# number of rings (size 3 to 8) (size 9 to 14) (size 15 to 20)
#    0.000    1.143    2.857    4.286    0.000    8.571 
#    2.571    0.000    0.000    0.000    0.000    0.000 
#    0.000    0.000    0.000    0.000    0.000    0.000 
#
# Total GULP energy -156436.108920 kJ/mol
# GULP energy per Si atom -5587.003890 kJ/mol
# Density = 2.120594 g / cm^3
# Si number density = 21.254320 Si / 1000 Ang^3
#
#
#
# Elastic Constant Matrix: (Units=GPa)
#
#
# Indices 1 2 3 4 5 6 
#
# 1 101.6451 13.9904 4.2299 0.0000 -19.9469 0.0000
# 2 13.9904 74.4330 -6.7353 0.0000 -1.8645 0.0000
# 3 4.2299 -6.7353 53.1674 0.0000 -14.8797 0.0000
# 4 0.0000 0.0000 0.0000 27.2020 0.0000 -5.5465
# 5 -19.9469 -1.8645 -14.8797 0.0000 26.3926 0.0000
# 6 0.0000 0.0000 0.0000 -5.5465 0.0000 34.8806
#
#
#
# Elastic Compliance Matrix: (Units=1/GPa)
#
#
# Indices 1 2 3 4 5 6 
#
# 1 0.011947 -0.001861 0.001548 0.000000 0.009771 0.000000
# 2 -0.001861 0.013998 0.002143 0.000000 0.000791 0.000000
# 3 0.001548 0.002143 0.022947 0.000000 0.014259 0.000000
# 4 0.000000 0.000000 0.000000 0.037994 0.000000 0.006042
# 5 0.009771 0.000791 0.014259 0.000000 0.053369 0.000000
# 6 0.000000 0.000000 0.000000 0.006042 0.000000 0.029630
#
#
# Mechanical properties :
#
#
# Convention : Reuss Voigt Hill
#
# Bulk Modulus (GPa) = 19.02830 28.02395 23.52612
# Shear Modulus (GPa) = 27.21193 32.21241 29.71217
#
# Velocity S-wave (km/s) = 3.58201 3.89726 3.74295
# Velocity P-wave (km/s) = 5.10684 5.78491 5.45642
#
# Compressibility (1/GPa) = 0.05255330
#
# Stress axis : x y z
#
# Youngs Moduli (GPa) = 83.70106 71.43713 43.57804
#
# Poissons Ratio (x) = 0.13293 -0.06747
# Poissons Ratio (y) = 0.15575 -0.09337
# Poissons Ratio (z) = -0.12960 -0.15306
#
# Static dielectric constant tensor:
#      x y z
#    x 1.776880 0.000000 -0.027840 
#    y 0.000000 1.778110 0.000000 
#    z -0.027840 0.000000 1.788160 
# 
# From -- ./inp_files/90809.got.cif
#   From: 2010.05.17/outbox.cif.g08.bks.cpg/sg13_46_cif.got.tgz:90809.got - 2010.06.03 16:44:36.
