data_PCOD9230951
_publ_section_title
;
Structure prediction by ZEFSAII (Michael W. Deem and Ramdas Pophale) SiO2 
 PCOD9230951
Probable space group: P 2/C
;
_chemical_formula_sum "Si O2"
_cell_formula_units_Z 32
_cell_length_a 27.020611
_cell_length_b 7.043694
_cell_length_c 18.771998
_cell_angle_alpha 90.000000
_cell_angle_beta 159.557793
_cell_angle_gamma 90.000000
_cell_volume 1247.837354
_symmetry_space_group_name_H-M "P 2/C"
_symmetry_group_IT_number 13
_symmetry_cell_setting 'monoclinic'
loop_
_space_group_symop_operation_xyz
x,y,z
-x,y,1/2-z
-x,-y,-z
x,-y,1/2+z
loop_
_atom_site_type_symbol
_atom_site_label
_atom_site_fract_x
_atom_site_fract_y
_atom_site_fract_z
Si Si1 0.017994 0.251858 0.080079
Si Si2 0.826480 0.952215 0.112022
Si Si3 0.934209 0.551378 0.253938
Si Si4 0.774572 0.804532 0.761807
Si Si5 0.350626 0.914697 0.766320
Si Si6 0.371637 0.100312 0.028270
Si Si7 0.704318 0.362651 0.684583
Si Si8 0.748590 0.493175 0.882987
O O1 0.067397 0.464481 0.169146
O O2 0.081222 0.190984 0.089447
O O3 0.083914 0.122334 0.232265
O O4 0.849405 0.256105 0.857561
O O5 0.746409 0.861275 0.071930
O O6 0.720878 0.997649 0.902993
O O7 0.921805 0.773088 0.219816
O O8 0.092448 0.504170 0.438696
O O9 0.800086 0.458557 0.032223
O O10 0.725438 0.586953 0.702305
O O11 0.655215 0.684842 0.756475
O O12 0.665701 0.915570 0.566250
O O13 0.237531 0.910580 0.679215
O O14 0.500000 0.000000 0.000000
O O15 0.500000 0.052318 0.250000
O O16 0.402190 0.268885 0.014372
O O17 0.676752 0.344823 0.732090
#
# Coordination Sequence:
#
# PCOD9230951 Si02
#       8
#     4   4   4   4   4   4   4   4
#     4  10  21  36  62  95 122 155 203 258 326 385
#     4  10  22  38  59  88 119 160 204 253 314 375
#     4   9  17  37  60  89 132 159 194 258 318 376
#     4  10  22  39  62  89 121 162 207 261 320 378
#     4  10  20  38  61  84 120 169 215 255 304 369
#     4  11  24  40  59  86 121 162 210 255 305 374
#     4  10  21  38  63  92 123 158 203 260 319 377
#     4   8  18  35  60  92 125 165 204 249 314 382
#
# _framework density 25.644366999999999
#
# number of rings (size 3 to 8) (size 9 to 14) (size 15 to 20)
#    0.000    2.250    0.000    1.875    0.000    8.500 
#    0.000   12.500    0.000    8.250    0.000    0.000 
#    0.000    0.000    0.000    0.000    0.000    0.000 
#
# Total GULP energy -178698.615941 kJ/mol
# GULP energy per Si atom -5584.331748 kJ/mol
# Density = 2.558600 g / cm^3
# Si number density = 25.644367 Si / 1000 Ang^3
#
#
#
# Elastic Constant Matrix: (Units=GPa)
#
#
# Indices 1 2 3 4 5 6 
#
# 1 132.4601 38.3030 55.6517 0.0000 -30.4216 0.0000
# 2 38.3030 95.3632 32.0636 0.0000 -9.8065 0.0000
# 3 55.6517 32.0636 94.0052 0.0000 -31.4269 0.0000
# 4 0.0000 0.0000 0.0000 26.1361 0.0000 -13.3367
# 5 -30.4216 -9.8065 -31.4269 0.0000 46.3946 0.0000
# 6 0.0000 0.0000 0.0000 -13.3367 0.0000 40.2050
#
#
#
# Elastic Compliance Matrix: (Units=1/GPa)
#
#
# Indices 1 2 3 4 5 6 
#
# 1 0.010982 -0.002553 -0.004400 0.000000 0.003681 0.000000
# 2 -0.002553 0.012441 -0.003119 0.000000 -0.001157 0.000000
# 3 -0.004400 -0.003119 0.016963 0.000000 0.007946 0.000000
# 4 0.000000 0.000000 0.000000 0.046057 0.000000 0.015278
# 5 0.003681 -0.001157 0.007946 0.000000 0.029106 0.000000
# 6 0.000000 0.000000 0.000000 0.015278 0.000000 0.029941
#
#
# Mechanical properties :
#
#
# Convention : Reuss Voigt Hill
#
# Bulk Modulus (GPa) = 49.40221 63.76278 56.58250
# Shear Modulus (GPa) = 29.00567 35.60115 32.30341
#
# Velocity S-wave (km/s) = 3.36679 3.72998 3.55303
# Velocity P-wave (km/s) = 5.86685 6.59307 6.24053
#
# Compressibility (1/GPa) = 0.02024201
#
# Stress axis : x y z
#
# Youngs Moduli (GPa) = 91.06166 80.37730 58.95292
#
# Poissons Ratio (x) = 0.20520 0.25939
# Poissons Ratio (y) = 0.23247 0.18387
# Poissons Ratio (z) = 0.40066 0.25069
#
# Static dielectric constant tensor:
#      x y z
#    x 2.192570 0.000000 0.059240 
#    y 0.000000 2.111760 0.000000 
#    z 0.059240 0.000000 2.130820 
# 
# From -- ./inp_files/82793.got.cif
#   From: 2010.05.17/outbox.cif.g08.bks.cpg/sg13_42_cif.got.tgz:82793.got - 2010.06.03 16:44:36.
