data_PCOD9230337
_publ_section_title
;
Structure prediction by ZEFSAII (Michael W. Deem and Ramdas Pophale) SiO2 
 PCOD9230337
Probable space group: P 2/C
;
_chemical_formula_sum "Si O2"
_cell_formula_units_Z 22
_cell_length_a 8.072890
_cell_length_b 16.131773
_cell_length_c 7.522221
_cell_angle_alpha 90.000000
_cell_angle_beta 89.913416
_cell_angle_gamma 90.000000
_cell_volume 979.617940
_symmetry_space_group_name_H-M "P 2/C"
_symmetry_group_IT_number 13
_symmetry_cell_setting 'monoclinic'
loop_
_space_group_symop_operation_xyz
x,y,z
-x,y,1/2-z
-x,-y,-z
x,-y,1/2+z
loop_
_atom_site_type_symbol
_atom_site_label
_atom_site_fract_x
_atom_site_fract_y
_atom_site_fract_z
Si Si1 0.000000 0.831319 0.250000
Si Si2 0.260837 0.722321 0.474186
Si Si3 0.199542 0.408771 0.697365
Si Si4 0.805267 0.406130 0.217138
Si Si5 0.603473 0.893780 0.990262
Si Si6 0.271136 0.944160 0.121402
O O1 0.107030 0.772839 0.382057
O O2 0.102201 0.893143 0.119086
O O3 0.296646 0.656173 0.319256
O O4 0.381282 0.796332 0.528949
O O5 0.241877 0.666437 0.648756
O O6 0.219966 0.388729 0.490218
O O7 0.260677 0.502438 0.733438
O O8 0.000000 0.404863 0.750000
O O9 0.000000 0.415268 0.250000
O O10 0.411117 0.918623 0.978271
O O11 0.660050 0.913383 0.190436
O O12 0.723136 0.956249 0.882974
#
# Coordination Sequence:
#
# PCOD9230337 Si02
#       6
#     2   4   4   4   4   4
#     4  10  20  36  60  92 120 152 212 264 290 360
#     4  11  20  34  53  92 120 157 211 249 298 364
#     4  11  18  32  51  80 130 162 201 250 309 362
#     4  11  18  31  52  80 127 167 197 253 308 362
#     4   9  20  39  59  83 120 163 200 246 314 379
#     4   9  19  39  61  81 119 164 195 251 319 354
#
# _framework density 22.457736000000001
#
# number of rings (size 3 to 8) (size 9 to 14) (size 15 to 20)
#    0.000    1.818    4.545    1.091    0.000    2.909 
#   11.455    0.000    0.000    0.000    0.000   22.909 
#    0.000    0.000    0.000    0.000    0.000    0.000 
#
# Total GULP energy -122632.440249 kJ/mol
# GULP energy per Si atom -5574.201829 kJ/mol
# Density = 2.240662 g / cm^3
# Si number density = 22.457736 Si / 1000 Ang^3
#
#
#
# Elastic Constant Matrix: (Units=GPa)
#
#
# Indices 1 2 3 4 5 6 
#
# 1 25.1552 32.5355 15.6875 0.0000 -5.4908 0.0000
# 2 32.5355 199.4972 83.2764 0.0000 -13.1007 0.0000
# 3 15.6875 83.2764 147.9436 0.0000 9.4862 0.0000
# 4 0.0000 0.0000 0.0000 45.4884 0.0000 -1.6858
# 5 -5.4908 -13.1007 9.4862 0.0000 9.8983 0.0000
# 6 0.0000 0.0000 0.0000 -1.6858 0.0000 24.3761
#
#
#
# Elastic Compliance Matrix: (Units=1/GPa)
#
#
# Indices 1 2 3 4 5 6 
#
# 1 0.055737 -0.005193 -0.004825 0.000000 0.028670 0.000000
# 2 -0.005193 0.009103 -0.005499 0.000000 0.014438 0.000000
# 3 -0.004825 -0.005499 0.011725 0.000000 -0.021192 0.000000
# 4 0.000000 0.000000 0.000000 0.022040 0.000000 0.001524
# 5 0.028670 0.014438 -0.021192 0.000000 0.156351 0.000000
# 6 0.000000 0.000000 0.000000 0.001524 0.000000 0.041129
#
#
# Mechanical properties :
#
#
# Convention : Reuss Voigt Hill
#
# Bulk Modulus (GPa) = 21.96343 70.62165 46.29254
# Shear Modulus (GPa) = 14.60715 32.02564 23.31640
#
# Velocity S-wave (km/s) = 2.55312 3.78039 3.22566
# Velocity P-wave (km/s) = 4.30027 7.11125 5.87632
#
# Compressibility (1/GPa) = 0.04553024
#
# Stress axis : x y z
#
# Youngs Moduli (GPa) = 17.94139 109.85155 85.28527
#
# Poissons Ratio (x) = 0.57046 0.41154
# Poissons Ratio (y) = 0.09317 0.46900
# Poissons Ratio (z) = 0.08657 0.60410
#
# Static dielectric constant tensor:
#      x y z
#    x 1.947660 0.000000 -0.008760 
#    y 0.000000 1.867490 0.000000 
#    z -0.008760 0.000000 1.787470 
# 
# From -- ./inp_files/12429.got.cif
#   From: 2010.05.17/outbox.cif.g08.bks.cpg/sg13_7_cif.got.tgz:12429.got - 2010.06.03 16:44:36.
