data_PCOD9230460
_publ_section_title
;
Structure prediction by ZEFSAII (Michael W. Deem and Ramdas Pophale) SiO2 
 PCOD9230460
Probable space group: P 2/C
;
_chemical_formula_sum "Si O2"
_cell_formula_units_Z 22
_cell_length_a 12.573476
_cell_length_b 4.890088
_cell_length_c 25.774508
_cell_angle_alpha 90.000000
_cell_angle_beta 142.386409
_cell_angle_gamma 90.000000
_cell_volume 967.229041
_symmetry_space_group_name_H-M "P 2/C"
_symmetry_group_IT_number 13
_symmetry_cell_setting 'monoclinic'
loop_
_space_group_symop_operation_xyz
x,y,z
-x,y,1/2-z
-x,-y,-z
x,-y,1/2+z
loop_
_atom_site_type_symbol
_atom_site_label
_atom_site_fract_x
_atom_site_fract_y
_atom_site_fract_z
Si Si1 0.768064 0.143429 0.518423
Si Si2 0.677766 0.372116 0.717796
Si Si3 0.133490 0.162886 0.173056
Si Si4 0.500000 0.683597 0.250000
Si Si5 0.799732 0.077483 0.411307
Si Si6 0.427495 0.634449 0.023911
O O1 0.733824 0.148271 0.443179
O O2 0.740432 0.452056 0.525635
O O3 0.631657 0.948844 0.495876
O O4 0.954161 0.004921 0.600837
O O5 0.844088 0.571203 0.783048
O O6 0.558810 0.469039 0.720587
O O7 0.571212 0.396477 0.624309
O O8 0.731177 0.062132 0.752089
O O9 0.172126 0.264224 0.128712
O O10 0.663673 0.859595 0.335010
O O11 0.000000 0.000000 0.500000
O O12 0.500000 0.500000 0.000000
#
# Coordination Sequence:
#
# PCOD9230460 Si02
#       6
#     4   4   4   2   4   4
#     4  11  23  44  65  92 130 172 209 266 329 377
#     4  11  23  40  64  96 130 164 220 260 321 387
#     4  10  23  40  65  98 132 161 209 267 327 395
#     4  10  20  36  64  98 134 176 204 270 334 388
#     4   9  20  37  63  99 135 168 207 261 331 405
#     4  12  26  44  65  91 126 173 223 263 311 383
#
# _framework density 22.745388999999999
#
# number of rings (size 3 to 8) (size 9 to 14) (size 15 to 20)
#    0.000    1.455    1.818    2.727    5.091    0.727 
#    0.000   12.727    0.000    0.000    0.000    0.000 
#    0.000    0.000    0.000    0.000    0.000    0.000 
#
# Total GULP energy -122726.357811 kJ/mol
# GULP energy per Si atom -5578.470810 kJ/mol
# Density = 2.269362 g / cm^3
# Si number density = 22.745389 Si / 1000 Ang^3
#
#
#
# Elastic Constant Matrix: (Units=GPa)
#
#
# Indices 1 2 3 4 5 6 
#
# 1 73.1659 -4.0654 34.8600 0.0000 -16.9341 0.0000
# 2 -4.0654 72.2239 10.8769 0.0000 5.6676 0.0000
# 3 34.8600 10.8769 132.7991 0.0000 1.7866 0.0000
# 4 0.0000 0.0000 0.0000 29.9895 0.0000 5.5237
# 5 -16.9341 5.6676 1.7866 0.0000 27.1738 0.0000
# 6 0.0000 0.0000 0.0000 5.5237 0.0000 25.1945
#
#
#
# Elastic Compliance Matrix: (Units=1/GPa)
#
#
# Indices 1 2 3 4 5 6 
#
# 1 0.018976 0.000914 -0.005217 0.000000 0.011978 0.000000
# 2 0.000914 0.014287 -0.001379 0.000000 -0.002320 0.000000
# 3 -0.005217 -0.001379 0.009061 0.000000 -0.003559 0.000000
# 4 0.000000 0.000000 0.000000 0.034748 0.000000 -0.007618
# 5 0.011978 -0.002320 -0.003559 0.000000 0.044982 0.000000
# 6 0.000000 0.000000 0.000000 -0.007618 0.000000 0.041361
#
#
# Mechanical properties :
#
#
# Convention : Reuss Voigt Hill
#
# Bulk Modulus (GPa) = 32.30038 40.17022 36.23530
# Shear Modulus (GPa) = 27.01236 32.23940 29.62588
#
# Velocity S-wave (km/s) = 3.44989 3.76893 3.61293
# Velocity P-wave (km/s) = 5.48641 6.05301 5.77666
#
# Compressibility (1/GPa) = 0.03095939
#
# Stress axis : x y z
#
# Youngs Moduli (GPa) = 52.69681 69.99392 110.36835
#
# Poissons Ratio (x) = -0.06397 0.57583
# Poissons Ratio (y) = -0.04816 0.15218
# Poissons Ratio (z) = 0.27494 0.09651
#
# Static dielectric constant tensor:
#      x y z
#    x 1.792050 0.000000 -0.051820 
#    y 0.000000 1.869330 0.000000 
#    z -0.051820 0.000000 1.713010 
# 
# From -- ./inp_files/59098.got.cif
#   From: 2010.05.17/outbox.cif.g08.bks.cpg/sg13_30_cif.got.tgz:59098.got - 2010.06.03 16:44:36.
