data_PCOD9230924
_publ_section_title
;
Structure prediction by ZEFSAII (Michael W. Deem and Ramdas Pophale) SiO2 
 PCOD9230924
Probable space group: P 2/C
;
_chemical_formula_sum "Si O2"
_cell_formula_units_Z 30
_cell_length_a 12.204221
_cell_length_b 6.552205
_cell_length_c 20.503292
_cell_angle_alpha 90.000000
_cell_angle_beta 114.895252
_cell_angle_gamma 90.000000
_cell_volume 1487.189130
_symmetry_space_group_name_H-M "P 2/C"
_symmetry_group_IT_number 13
_symmetry_cell_setting 'monoclinic'
loop_
_space_group_symop_operation_xyz
x,y,z
-x,y,1/2-z
-x,-y,-z
x,-y,1/2+z
loop_
_atom_site_type_symbol
_atom_site_label
_atom_site_fract_x
_atom_site_fract_y
_atom_site_fract_z
Si Si1 0.098397 0.103548 0.477199
Si Si2 0.253272 0.473474 0.706141
Si Si3 0.373353 0.124642 0.236195
Si Si4 0.608912 0.793763 0.151397
Si Si5 0.660257 0.213130 0.885016
Si Si6 0.000000 0.908325 0.750000
Si Si7 0.830975 0.182103 0.627341
Si Si8 0.010099 0.563704 0.861196
O O1 0.224593 0.155367 0.543613
O O2 0.044983 0.315992 0.435509
O O3 0.130672 0.946279 0.426720
O O4 0.000000 0.000000 0.500000
O O5 0.268623 0.714159 0.714860
O O6 0.324299 0.367543 0.783451
O O7 0.311092 0.407168 0.652466
O O8 0.111280 0.428552 0.667575
O O9 0.500000 0.232129 0.250000
O O10 0.383816 0.003715 0.306086
O O11 0.355017 0.962963 0.173740
O O12 0.466166 0.753976 0.109516
O O13 0.688708 0.806692 0.106590
O O14 0.987774 0.749963 0.806042
O O15 0.109067 0.059266 0.796903
O O16 0.885579 0.409146 0.635493
#
# Coordination Sequence:
#
# PCOD9230924 Si02
#       8
#     4   4   4   4   4   2   4   4
#     4  11  25  43  59  83 116 155 203 245 286 347
#     4  11  19  34  60  89 117 146 189 244 292 340
#     4   9  18  34  59  88 115 149 188 235 296 344
#     4  10  21  37  58  87 119 149 190 241 293 352
#     4  10  22  38  57  85 119 155 196 236 282 346
#     4  10  20  38  60  90 120 144 186 244 298 352
#     4  11  23  39  59  85 118 153 191 241 297 349
#     4  11  23  37  62  90 115 152 194 238 294 347
#
# _framework density 20.172284000000001
#
# number of rings (size 3 to 8) (size 9 to 14) (size 15 to 20)
#    0.000    1.600    0.000    6.400    0.000    9.067 
#    0.000    0.667    0.000    0.000    0.000    0.000 
#    0.000    0.000    0.000    0.000    0.000    0.000 
#
# Total GULP energy -167451.702337 kJ/mol
# GULP energy per Si atom -5581.723411 kJ/mol
# Density = 2.012637 g / cm^3
# Si number density = 20.172284 Si / 1000 Ang^3
#
#
#
# Elastic Constant Matrix: (Units=GPa)
#
#
# Indices 1 2 3 4 5 6 
#
# 1 155.5793 36.0570 48.3164 0.0000 9.7175 0.0000
# 2 36.0570 75.1832 16.5931 0.0000 -4.7367 0.0000
# 3 48.3164 16.5931 70.8128 0.0000 9.8662 0.0000
# 4 0.0000 0.0000 0.0000 19.2093 0.0000 3.5564
# 5 9.7175 -4.7367 9.8662 0.0000 28.4338 0.0000
# 6 0.0000 0.0000 0.0000 3.5564 0.0000 28.6085
#
#
#
# Elastic Compliance Matrix: (Units=1/GPa)
#
#
# Indices 1 2 3 4 5 6 
#
# 1 0.008856 -0.003253 -0.005026 0.000000 -0.001825 0.000000
# 2 -0.003253 0.015592 -0.002050 0.000000 0.004420 0.000000
# 3 -0.005026 -0.002050 0.018746 0.000000 -0.005128 0.000000
# 4 0.000000 0.000000 0.000000 0.053285 0.000000 -0.006624
# 5 -0.001825 0.004420 -0.005128 0.000000 0.038309 0.000000
# 6 0.000000 0.000000 0.000000 -0.006624 0.000000 0.035778
#
#
# Mechanical properties :
#
#
# Convention : Reuss Voigt Hill
#
# Bulk Modulus (GPa) = 44.37358 55.94536 50.15947
# Shear Modulus (GPa) = 25.15893 28.62422 26.89158
#
# Velocity S-wave (km/s) = 3.53541 3.77103 3.65512
# Velocity P-wave (km/s) = 6.22178 6.83775 6.53703
#
# Compressibility (1/GPa) = 0.02253593
#
# Stress axis : x y z
#
# Youngs Moduli (GPa) = 112.91172 64.13591 53.34430
#
# Poissons Ratio (x) = 0.20864 0.26813
# Poissons Ratio (y) = 0.36731 0.10935
# Poissons Ratio (z) = 0.56754 0.13147
#
# Static dielectric constant tensor:
#      x y z
#    x 1.754650 0.000000 0.004000 
#    y 0.000000 1.699380 0.000000 
#    z 0.004000 0.000000 1.718690 
# 
# From -- ./inp_files/77559.got.cif
#   From: 2010.05.17/outbox.cif.g08.bks.cpg/sg13_39_cif.got.tgz:77559.got - 2010.06.03 16:44:36.
