data_PCOD9230359
_publ_section_title
;
Structure prediction by ZEFSAII (Michael W. Deem and Ramdas Pophale) SiO2 
 PCOD9230359
Probable space group: P 2/C
;
_chemical_formula_sum "Si O2"
_cell_formula_units_Z 32
_cell_length_a 5.563117
_cell_length_b 9.044021
_cell_length_c 30.355770
_cell_angle_alpha 90.000000
_cell_angle_beta 101.151649
_cell_angle_gamma 90.000000
_cell_volume 1498.451085
_symmetry_space_group_name_H-M "P 2/C"
_symmetry_group_IT_number 13
_symmetry_cell_setting 'monoclinic'
loop_
_space_group_symop_operation_xyz
x,y,z
-x,y,1/2-z
-x,-y,-z
x,-y,1/2+z
loop_
_atom_site_type_symbol
_atom_site_label
_atom_site_fract_x
_atom_site_fract_y
_atom_site_fract_z
Si Si1 0.119658 0.995854 0.940694
Si Si2 0.988748 0.478617 0.107541
Si Si3 0.929766 0.390243 0.698153
Si Si4 0.456767 0.962445 0.381224
Si Si5 0.172562 0.255195 0.554380
Si Si6 0.367613 0.706308 0.970038
Si Si7 0.302379 0.243360 0.087668
Si Si8 0.434196 0.791975 0.199408
O O1 0.196541 0.061645 0.895781
O O2 0.037076 0.135757 0.966112
O O3 0.324466 0.885808 0.967205
O O4 0.905003 0.879336 0.925445
O O5 0.063748 0.627286 0.084513
O O6 0.225057 0.372873 0.116783
O O7 0.905043 0.507315 0.154195
O O8 0.801968 0.388044 0.069448
O O9 0.661041 0.316875 0.694587
O O10 0.000000 0.447974 0.750000
O O11 0.164251 0.283641 0.693311
O O12 0.628064 0.851997 0.415932
O O13 0.532506 0.918674 0.335303
O O14 0.483092 0.139354 0.387046
O O15 0.298960 0.332630 0.517148
O O16 0.631270 0.687973 0.957358
O O17 0.500000 0.848543 0.250000
#
# Coordination Sequence:
#
# PCOD9230359 Si02
#       8
#     4   4   4   4   4   4   4   4
#     4   9  20  37  57  80 115 159 208 257 305 363
#     4  11  22  37  59  85 124 163 201 259 310 372
#     4  10  22  40  67  97 123 156 204 261 317 371
#     4  10  20  36  61  85 115 160 201 257 313 373
#     4  11  21  34  58  88 117 155 215 254 309 369
#     4  10  22  37  54  83 121 168 202 256 307 371
#     4   9  22  38  54  79 123 161 204 246 309 368
#     4  10  21  39  66  98 123 150 202 267 318 366
#
# _framework density 21.355383
#
# number of rings (size 3 to 8) (size 9 to 14) (size 15 to 20)
#    0.000    2.000    1.250    1.500    3.500    8.000 
#    0.000    0.000    8.250    0.000    0.000    0.000 
#    0.000    0.000    0.000    0.000    0.000    0.000 
#
# Total GULP energy -178267.469730 kJ/mol
# GULP energy per Si atom -5570.858429 kJ/mol
# Density = 2.130678 g / cm^3
# Si number density = 21.355383 Si / 1000 Ang^3
#
#
#
# Elastic Constant Matrix: (Units=GPa)
#
#
# Indices 1 2 3 4 5 6 
#
# 1 67.8673 18.5448 20.6057 0.0000 -25.3412 0.0000
# 2 18.5448 93.8851 45.9458 0.0000 -10.4841 0.0000
# 3 20.6057 45.9458 138.9589 0.0000 -38.6010 0.0000
# 4 0.0000 0.0000 0.0000 26.9835 0.0000 -8.0731
# 5 -25.3412 -10.4841 -38.6010 0.0000 34.7406 0.0000
# 6 0.0000 0.0000 0.0000 -8.0731 0.0000 20.7720
#
#
#
# Elastic Compliance Matrix: (Units=1/GPa)
#
#
# Indices 1 2 3 4 5 6 
#
# 1 0.021536 -0.003730 0.003025 0.000000 0.017944 0.000000
# 2 -0.003730 0.013389 -0.005073 0.000000 -0.004317 0.000000
# 3 0.003025 -0.005073 0.012458 0.000000 0.014518 0.000000
# 4 0.000000 0.000000 0.000000 0.041936 0.000000 0.016299
# 5 0.017944 -0.004317 0.014518 0.000000 0.056702 0.000000
# 6 0.000000 0.000000 0.000000 0.016299 0.000000 0.054476
#
#
# Mechanical properties :
#
#
# Convention : Reuss Voigt Hill
#
# Bulk Modulus (GPa) = 27.91344 52.32267 40.11805
# Shear Modulus (GPa) = 22.32187 30.87356 26.59771
#
# Velocity S-wave (km/s) = 3.23655 3.80637 3.53297
# Velocity P-wave (km/s) = 5.20253 6.62360 5.95560
#
# Compressibility (1/GPa) = 0.03582503
#
# Stress axis : x y z
#
# Youngs Moduli (GPa) = 46.43433 74.68992 80.26950
#
# Poissons Ratio (x) = 0.27861 -0.24278
# Poissons Ratio (y) = 0.17321 0.40721
# Poissons Ratio (z) = -0.14044 0.37890
#
# Static dielectric constant tensor:
#      x y z
#    x 1.968780 0.000000 0.026270 
#    y 0.000000 1.786260 0.000000 
#    z 0.026270 0.000000 1.816850 
# 
# From -- ./inp_files/95052.got.cif
#   From: 2010.05.17/outbox.cif.g08.bks.cpg/sg13_48_cif.got.tgz:95052.got - 2010.06.03 16:44:36.
