data_PCOD9230210
_publ_section_title
;
Structure prediction by ZEFSAII (Michael W. Deem and Ramdas Pophale) SiO2 
 PCOD9230210
Probable space group: P 2/C
;
_chemical_formula_sum "Si O2"
_cell_formula_units_Z 14
_cell_length_a 6.599971
_cell_length_b 7.235529
_cell_length_c 12.965353
_cell_angle_alpha 90.000000
_cell_angle_beta 113.716625
_cell_angle_gamma 90.000000
_cell_volume 566.861283
_symmetry_space_group_name_H-M "P 2/C"
_symmetry_group_IT_number 13
_symmetry_cell_setting 'monoclinic'
loop_
_space_group_symop_operation_xyz
x,y,z
-x,y,1/2-z
-x,-y,-z
x,-y,1/2+z
loop_
_atom_site_type_symbol
_atom_site_label
_atom_site_fract_x
_atom_site_fract_y
_atom_site_fract_z
Si Si1 0.144756 0.468417 0.866637
Si Si2 0.593017 0.715185 0.448624
Si Si3 0.538556 0.085337 0.150156
Si Si4 0.000000 0.878367 0.250000
O O1 0.200187 0.589325 0.977478
O O2 0.018446 0.271648 0.847575
O O3 0.000000 0.572040 0.750000
O O4 0.385422 0.407762 0.869859
O O5 0.615696 0.901738 0.388255
O O6 0.510528 0.793672 0.543381
O O7 0.500000 0.184537 0.250000
O O8 0.784599 0.002015 0.200210
#
# Coordination Sequence:
#
# PCOD9230210 Si02
#       4
#     4   4   4   2
#     4   8  16  34  58  77 108 148 181 225 275 317
#     4   9  18  35  58  78 112 147 177 231 277 313
#     4  10  20  36  57  84 113 143 183 228 273 332
#     4   8  18  34  58  78 112 142 178 230 266 318
#
# _framework density 24.697398
#
# number of rings (size 3 to 8) (size 9 to 14) (size 15 to 20)
#    0.857    2.286    0.000    0.000    2.000    0.000 
#    0.000   27.143    0.000    0.000    0.000    0.000 
#    0.000    0.000    0.000    0.000    0.000    0.000 
#
# Total GULP energy -78027.248921 kJ/mol
# GULP energy per Si atom -5573.374923 kJ/mol
# Density = 2.464119 g / cm^3
# Si number density = 24.697398 Si / 1000 Ang^3
#
#
#
# Elastic Constant Matrix: (Units=GPa)
#
#
# Indices 1 2 3 4 5 6 
#
# 1 31.8287 21.7040 40.6160 0.0000 8.5294 0.0000
# 2 21.7040 78.9775 15.7627 0.0000 15.5681 0.0000
# 3 40.6160 15.7627 122.5559 0.0000 31.0198 0.0000
# 4 0.0000 0.0000 0.0000 33.4053 0.0000 -7.7075
# 5 8.5294 15.5681 31.0198 0.0000 44.8771 0.0000
# 6 0.0000 0.0000 0.0000 -7.7075 0.0000 -0.7743
#
#
#
# Elastic Compliance Matrix: (Units=1/GPa)
#
#
# Indices 1 2 3 4 5 6 
#
# 1 0.069776 -0.016203 -0.023158 0.000000 0.008366 0.000000
# 2 -0.016203 0.017399 0.004703 0.000000 -0.006207 0.000000
# 3 -0.023158 0.004703 0.017609 0.000000 -0.009402 0.000000
# 4 0.000000 0.000000 0.000000 0.009081 0.000000 -0.090387
# 5 0.008366 -0.006207 -0.009402 0.000000 0.029345 0.000000
# 6 0.000000 0.000000 0.000000 -0.090387 0.000000 -0.391753
#
#
# Mechanical properties :
#
#
# Convention : Reuss Voigt Hill
#
# Bulk Modulus (GPa) = 28.19332 43.28083 35.73708
# Shear Modulus (GPa) = -29.86791 25.85358 -2.00716
#
# Velocity S-wave (km/s) = -3.48135 3.23896 -0.90248
# Velocity P-wave (km/s) = 2.17243 5.61697 3.66271
#
# Compressibility (1/GPa) = 0.03546939
#
# Stress axis : x y z
#
# Youngs Moduli (GPa) = 14.33150 57.47312 56.78886
#
# Poissons Ratio (x) = 0.93121 1.31512
# Poissons Ratio (y) = 0.23221 -0.26707
# Poissons Ratio (z) = 0.33189 -0.27029
#
# Static dielectric constant tensor:
#      x y z
#    x 1.950240 0.000000 0.019950 
#    y 0.000000 1.998940 0.000000 
#    z 0.019950 0.000000 2.029640 
# 
# From -- ./inp_files/27312.got.cif
#   From: 2010.05.17/outbox.cif.g08.bks.cpg/sg13_14_cif.got.tgz:27312.got - 2010.06.03 16:44:36.
