data_PCOD9230402
_publ_section_title
;
Structure prediction by ZEFSAII (Michael W. Deem and Ramdas Pophale) SiO2 
 PCOD9230402
Probable space group: P 2/C
;
_chemical_formula_sum "Si O2"
_cell_formula_units_Z 24
_cell_length_a 9.793955
_cell_length_b 8.440846
_cell_length_c 19.739291
_cell_angle_alpha 90.000000
_cell_angle_beta 131.820569
_cell_angle_gamma 90.000000
_cell_volume 1216.101562
_symmetry_space_group_name_H-M "P 2/C"
_symmetry_group_IT_number 13
_symmetry_cell_setting 'monoclinic'
loop_
_space_group_symop_operation_xyz
x,y,z
-x,y,1/2-z
-x,-y,-z
x,-y,1/2+z
loop_
_atom_site_type_symbol
_atom_site_label
_atom_site_fract_x
_atom_site_fract_y
_atom_site_fract_z
Si Si1 0.067817 0.931613 0.951184
Si Si2 0.282786 0.803272 0.443060
Si Si3 0.448995 0.610841 0.622610
Si Si4 0.796052 0.337667 0.327834
Si Si5 0.388290 0.286061 0.528373
Si Si6 0.896146 0.480558 0.147694
O O1 0.900182 0.829765 0.865954
O O2 0.151245 0.057538 0.925356
O O3 0.237727 0.812408 0.019305
O O4 0.000000 0.000000 0.000000
O O5 0.376304 0.727793 0.540829
O O6 0.451657 0.826555 0.447074
O O7 0.168754 0.660401 0.371755
O O8 0.301567 0.619309 0.634386
O O9 0.641173 0.659033 0.719118
O O10 0.461306 0.434432 0.595674
O O11 0.955648 0.461229 0.362834
O O12 0.275056 0.369099 0.429068
O O13 0.000000 0.431477 0.250000
#
# Coordination Sequence:
#
# PCOD9230402 Si02
#       6
#     4   4   4   4   4   4
#     4  11  23  39  59  88 126 162 196 242 309 375
#     4  11  21  38  62  86 125 158 197 247 307 366
#     4  10  20  38  64  88 117 154 211 254 300 344
#     4  10  21  37  61  91 117 160 203 254 298 353
#     4  10  22  37  64  90 117 163 204 251 305 349
#     4  10  20  36  62  90 121 151 213 253 296 347
#
# _framework density 19.735195000000001
#
# number of rings (size 3 to 8) (size 9 to 14) (size 15 to 20)
#    0.000    1.667    1.667    4.500    2.333    2.000 
#    0.000    8.333    0.000    0.000    0.000    0.000 
#    0.000    0.000    0.000    0.000    0.000    0.000 
#
# Total GULP energy -133990.562206 kJ/mol
# GULP energy per Si atom -5582.940092 kJ/mol
# Density = 1.969028 g / cm^3
# Si number density = 19.735195 Si / 1000 Ang^3
#
#
#
# Elastic Constant Matrix: (Units=GPa)
#
#
# Indices 1 2 3 4 5 6 
#
# 1 141.5240 51.3537 48.6723 0.0000 20.3292 0.0000
# 2 51.3537 83.3208 31.0350 0.0000 11.1229 0.0000
# 3 48.6723 31.0350 78.3756 0.0000 5.2944 0.0000
# 4 0.0000 0.0000 0.0000 14.9694 0.0000 5.9641
# 5 20.3292 11.1229 5.2944 0.0000 25.2666 0.0000
# 6 0.0000 0.0000 0.0000 5.9641 0.0000 40.6909
#
#
#
# Elastic Compliance Matrix: (Units=1/GPa)
#
#
# Indices 1 2 3 4 5 6 
#
# 1 0.011144 -0.004260 -0.004823 0.000000 -0.006080 0.000000
# 2 -0.004260 0.016387 -0.003639 0.000000 -0.003023 0.000000
# 3 -0.004823 -0.003639 0.017066 0.000000 0.001906 0.000000
# 4 0.000000 0.000000 0.000000 0.070946 0.000000 -0.010399
# 5 -0.006080 -0.003023 0.001906 0.000000 0.045401 0.000000
# 6 0.000000 0.000000 0.000000 -0.010399 0.000000 0.026100
#
#
# Mechanical properties :
#
#
# Convention : Reuss Voigt Hill
#
# Bulk Modulus (GPa) = 52.21143 62.81584 57.51363
# Shear Modulus (GPa) = 22.84440 27.66266 25.25353
#
# Velocity S-wave (km/s) = 3.40596 3.74798 3.58106
# Velocity P-wave (km/s) = 6.47927 7.11535 6.80475
#
# Compressibility (1/GPa) = 0.01915290
#
# Stress axis : x y z
#
# Youngs Moduli (GPa) = 89.73549 61.02555 58.59538
#
# Poissons Ratio (x) = 0.25999 0.28259
# Poissons Ratio (y) = 0.38230 0.21321
# Poissons Ratio (z) = 0.43277 0.22206
#
# Static dielectric constant tensor:
#      x y z
#    x 1.734050 0.000000 0.009660 
#    y 0.000000 1.691570 0.000000 
#    z 0.009660 0.000000 1.678420 
# 
# From -- ./inp_files/71313.got.cif
#   From: 2010.05.17/outbox.cif.g08.bks.cpg/sg13_36_cif.got.tgz:71313.got - 2010.06.03 16:44:36.
