data_PCOD9230404
_publ_section_title
;
Structure prediction by ZEFSAII (Michael W. Deem and Ramdas Pophale) SiO2 
 PCOD9230404
Probable space group: P 2/C
;
_chemical_formula_sum "Si O2"
_cell_formula_units_Z 32
_cell_length_a 8.965255
_cell_length_b 12.325080
_cell_length_c 21.426943
_cell_angle_alpha 90.000000
_cell_angle_beta 138.889179
_cell_angle_gamma 90.000000
_cell_volume 1556.753890
_symmetry_space_group_name_H-M "P 2/C"
_symmetry_group_IT_number 13
_symmetry_cell_setting 'monoclinic'
loop_
_space_group_symop_operation_xyz
x,y,z
-x,y,1/2-z
-x,-y,-z
x,-y,1/2+z
loop_
_atom_site_type_symbol
_atom_site_label
_atom_site_fract_x
_atom_site_fract_y
_atom_site_fract_z
Si Si1 0.977395 0.432988 0.922791
Si Si2 0.489902 0.398563 0.382365
Si Si3 0.204961 0.391988 0.765046
Si Si4 0.569274 0.049782 0.090350
Si Si5 0.729827 0.181902 0.657742
Si Si6 0.397277 0.813578 0.651172
Si Si7 0.036493 0.324052 0.459880
Si Si8 0.360393 0.745595 0.950892
O O1 0.911145 0.381715 0.837642
O O2 0.922696 0.561410 0.902301
O O3 0.862336 0.367090 0.942803
O O4 0.246451 0.421622 0.020030
O O5 0.365554 0.504618 0.319838
O O6 0.474905 0.297356 0.330095
O O7 0.380942 0.356865 0.412539
O O8 0.340291 0.281844 0.821103
O O9 0.000000 0.406657 0.750000
O O10 0.416764 0.106846 0.096861
O O11 0.658701 0.940193 0.150221
O O12 0.388937 0.218285 0.945064
O O13 0.723593 0.150945 0.115941
O O14 0.000000 0.181837 0.750000
O O15 0.500000 0.000000 0.500000
O O16 0.500000 0.852812 0.750000
O O17 0.143265 0.770628 0.583108
O O18 0.206465 0.282623 0.460997
#
# Coordination Sequence:
#
# PCOD9230404 Si02
#       8
#     4   4   4   4   4   4   4   4
#     4  10  21  37  55  87 133 168 195 242 312 378
#     4  10  20  36  62  90 123 164 205 247 296 369
#     4  11  21  33  58  91 120 155 200 247 300 367
#     4   9  21  42  63  83 113 158 207 253 307 367
#     4  10  21  37  58  86 118 151 195 252 306 356
#     4  10  21  38  61  90 123 159 203 258 312 362
#     4  10  21  37  59  87 125 165 201 247 308 371
#     4  10  20  39  64  89 116 158 210 253 300 363
#
# _framework density 20.555592999999998
#
# number of rings (size 3 to 8) (size 9 to 14) (size 15 to 20)
#    0.000    2.000    0.000    3.750    0.000    4.500 
#    0.000   11.875    0.000    0.000    0.000    0.000 
#    0.000    0.000    0.000    0.000    0.000    0.000 
#
# Total GULP energy -178196.875948 kJ/mol
# GULP energy per Si atom -5568.652373 kJ/mol
# Density = 2.050881 g / cm^3
# Si number density = 20.555593 Si / 1000 Ang^3
#
#
#
# Elastic Constant Matrix: (Units=GPa)
#
#
# Indices 1 2 3 4 5 6 
#
# 1 135.9351 33.4955 28.1260 0.0000 -15.8965 0.0000
# 2 33.4955 90.8161 18.1679 0.0000 1.1426 0.0000
# 3 28.1260 18.1679 57.0313 0.0000 -17.8112 0.0000
# 4 0.0000 0.0000 0.0000 19.6115 0.0000 -1.4978
# 5 -15.8965 1.1426 -17.8112 0.0000 28.0776 0.0000
# 6 0.0000 0.0000 0.0000 -1.4978 0.0000 21.6330
#
#
#
# Elastic Compliance Matrix: (Units=1/GPa)
#
#
# Indices 1 2 3 4 5 6 
#
# 1 0.008990 -0.002892 -0.002352 0.000000 0.003716 0.000000
# 2 -0.002892 0.012984 -0.004223 0.000000 -0.004844 0.000000
# 3 -0.002352 -0.004223 0.024539 0.000000 0.014406 0.000000
# 4 0.000000 0.000000 0.000000 0.051262 0.000000 0.003549
# 5 0.003716 -0.004844 0.014406 0.000000 0.047055 0.000000
# 6 0.000000 0.000000 0.000000 0.003549 0.000000 0.046471
#
#
# Mechanical properties :
#
#
# Convention : Reuss Voigt Hill
#
# Bulk Modulus (GPa) = 36.25968 49.26237 42.76102
# Shear Modulus (GPa) = 22.78659 27.46395 25.12527
#
# Velocity S-wave (km/s) = 3.33308 3.65921 3.49995
# Velocity P-wave (km/s) = 5.70006 6.47075 6.09759
#
# Compressibility (1/GPa) = 0.02757884
#
# Stress axis : x y z
#
# Youngs Moduli (GPa) = 111.23171 77.01983 40.75213
#
# Poissons Ratio (x) = 0.22275 0.09585
# Poissons Ratio (y) = 0.32169 0.17209
# Poissons Ratio (z) = 0.26161 0.32524
#
# Static dielectric constant tensor:
#      x y z
#    x 1.767430 0.000000 -0.003730 
#    y 0.000000 1.764400 0.000000 
#    z -0.003730 0.000000 1.785560 
# 
# From -- ./inp_files/76637.got.cif
#   From: 2010.05.17/outbox.cif.g08.bks.cpg/sg13_39_cif.got.tgz:76637.got - 2010.06.03 16:44:36.
