data_PCOD9230607
_publ_section_title
;
Structure prediction by ZEFSAII (Michael W. Deem and Ramdas Pophale) SiO2 
 PCOD9230607
Probable space group: P 2/C
;
_chemical_formula_sum "Si O2"
_cell_formula_units_Z 26
_cell_length_a 7.414318
_cell_length_b 19.573454
_cell_length_c 10.492656
_cell_angle_alpha 90.000000
_cell_angle_beta 44.305789
_cell_angle_gamma 90.000000
_cell_volume 1063.610975
_symmetry_space_group_name_H-M "P 2/C"
_symmetry_group_IT_number 13
_symmetry_cell_setting 'monoclinic'
loop_
_space_group_symop_operation_xyz
x,y,z
-x,y,1/2-z
-x,-y,-z
x,-y,1/2+z
loop_
_atom_site_type_symbol
_atom_site_label
_atom_site_fract_x
_atom_site_fract_y
_atom_site_fract_z
Si Si1 0.749443 0.016378 0.711180
Si Si2 0.738737 0.530251 0.802097
Si Si3 0.793635 0.839113 0.110101
Si Si4 0.618716 0.322510 0.448379
Si Si5 0.136795 0.607931 0.312835
Si Si6 0.913574 0.715005 0.593275
Si Si7 0.000000 0.912500 0.750000
O O1 0.500000 0.005087 0.750000
O O2 0.774376 0.097782 0.718217
O O3 0.775820 0.964100 0.814039
O O4 0.000000 0.000000 0.500000
O O5 0.658150 0.609386 0.841490
O O6 0.781694 0.467798 0.678565
O O7 0.000000 0.537560 0.750000
O O8 0.500000 0.500000 0.000000
O O9 0.500000 0.812276 0.250000
O O10 0.995946 0.779644 0.034674
O O11 0.888382 0.868693 0.924148
O O12 0.374277 0.342032 0.658283
O O13 0.844926 0.303284 0.433496
O O14 0.666795 0.269354 0.308092
O O15 0.925926 0.648900 0.498103
O O16 0.000000 0.593183 0.250000
#
# Coordination Sequence:
#
# PCOD9230607 Si02
#       7
#     4   4   4   4   4   4   2
#     4   9  20  37  62  95 128 157 208 249 302 371
#     4   9  17  34  53  82 113 144 199 250 302 363
#     4  10  21  36  59  93 121 155 207 243 294 371
#     4  10  20  37  60  84 109 154 209 247 295 366
#     4  10  22  37  56  82 121 153 189 253 314 360
#     4  11  21  37  63  83 117 158 206 244 297 363
#     4  10  20  40  68  90 130 170 194 264 314 344
#
# _framework density 24.445031
#
# number of rings (size 3 to 8) (size 9 to 14) (size 15 to 20)
#    0.000    2.154    1.538    2.308    0.000    6.769 
#    1.385    0.000   20.308    0.000    0.000    0.000 
#    0.000    0.000    0.000    0.000    0.000    0.000 
#
# Total GULP energy -144771.442921 kJ/mol
# GULP energy per Si atom -5568.132420 kJ/mol
# Density = 2.438939 g / cm^3
# Si number density = 24.445031 Si / 1000 Ang^3
#
#
#
# Elastic Constant Matrix: (Units=GPa)
#
#
# Indices 1 2 3 4 5 6 
#
# 1 44.4418 3.0775 7.3341 0.0000 -10.6822 0.0000
# 2 3.0775 65.5957 7.9735 0.0000 8.3051 0.0000
# 3 7.3341 7.9735 110.3448 0.0000 -9.9565 0.0000
# 4 0.0000 0.0000 0.0000 45.0408 0.0000 -7.8458
# 5 -10.6822 8.3051 -9.9565 0.0000 37.2568 0.0000
# 6 0.0000 0.0000 0.0000 -7.8458 0.0000 28.4492
#
#
#
# Elastic Compliance Matrix: (Units=1/GPa)
#
#
# Indices 1 2 3 4 5 6 
#
# 1 0.024516 -0.001966 -0.000834 0.000000 0.007245 0.000000
# 2 -0.001966 0.016086 -0.001441 0.000000 -0.004535 0.000000
# 3 -0.000834 -0.001441 0.009457 0.000000 0.002610 0.000000
# 4 0.000000 0.000000 0.000000 0.023322 0.000000 0.006432
# 5 0.007245 -0.004535 0.002610 0.000000 0.030626 0.000000
# 6 0.000000 0.000000 0.000000 0.006432 0.000000 0.036924
#
#
# Mechanical properties :
#
#
# Convention : Reuss Voigt Hill
#
# Bulk Modulus (GPa) = 24.05066 28.57249 26.31158
# Shear Modulus (GPa) = 30.62329 35.61585 33.11957
#
# Velocity S-wave (km/s) = 3.54325 3.82118 3.68483
# Velocity P-wave (km/s) = 5.15747 5.58412 5.37503
#
# Compressibility (1/GPa) = 0.04157890
#
# Stress axis : x y z
#
# Youngs Moduli (GPa) = 40.78892 62.16418 105.73622
#
# Poissons Ratio (x) = 0.12222 0.08815
# Poissons Ratio (y) = 0.08020 0.15235
# Poissons Ratio (z) = 0.03401 0.08957
#
# Static dielectric constant tensor:
#      x y z
#    x 2.001070 0.000000 0.059660 
#    y 0.000000 2.070200 0.000000 
#    z 0.059660 0.000000 2.042600 
# 
# From -- ./inp_files/30782.got.cif
#   From: 2010.05.17/outbox.cif.g08.bks.cpg/sg13_16_cif.got.tgz:30782.got - 2010.06.03 16:44:36.
