data_PCOD9230839
_publ_section_title
;
Structure prediction by ZEFSAII (Michael W. Deem and Ramdas Pophale) SiO2 
 PCOD9230839
Probable space group: P 2/C
;
_chemical_formula_sum "Si O2"
_cell_formula_units_Z 22
_cell_length_a 9.359977
_cell_length_b 6.295058
_cell_length_c 23.953916
_cell_angle_alpha 90.000000
_cell_angle_beta 133.581572
_cell_angle_gamma 90.000000
_cell_volume 1022.411345
_symmetry_space_group_name_H-M "P 2/C"
_symmetry_group_IT_number 13
_symmetry_cell_setting 'monoclinic'
loop_
_space_group_symop_operation_xyz
x,y,z
-x,y,1/2-z
-x,-y,-z
x,-y,1/2+z
loop_
_atom_site_type_symbol
_atom_site_label
_atom_site_fract_x
_atom_site_fract_y
_atom_site_fract_z
Si Si1 0.572451 0.803350 0.557913
Si Si2 0.208578 0.563896 0.451486
Si Si3 0.500000 0.062161 0.250000
Si Si4 0.776270 0.442034 0.348582
Si Si5 0.806811 0.163251 0.661339
Si Si6 0.573821 0.326145 0.693069
O O1 0.379001 0.689779 0.531189
O O2 0.685041 0.633288 0.550220
O O3 0.500000 0.000000 0.500000
O O4 0.725939 0.923050 0.638577
O O5 0.154855 0.735323 0.388617
O O6 0.005515 0.478014 0.422179
O O7 0.681399 0.208156 0.319553
O O8 0.430800 0.907517 0.280810
O O9 0.640593 0.574491 0.354714
O O10 0.719697 0.537857 0.272007
O O11 0.644955 0.306718 0.649463
O O12 0.000000 0.174510 0.750000
#
# Coordination Sequence:
#
# PCOD9230839 Si02
#       6
#     4   4   2   4   4   4
#     4   9  22  37  55  81 114 148 187 221 272 334
#     4  10  20  38  57  79 112 150 184 228 274 328
#     4   8  18  30  52  74 112 148 180 220 278 328
#     4   9  18  33  54  75 109 149 181 219 280 325
#     4  11  21  34  57  87 113 139 182 236 284 322
#     4   9  19  34  49  84 116 134 182 231 266 336
#
# _framework density 21.517758000000001
#
# number of rings (size 3 to 8) (size 9 to 14) (size 15 to 20)
#    0.000    2.909    1.818    0.000    2.545    5.091 
#    0.000    0.909    0.000   10.909    0.000    0.000 
#    0.000    0.000    0.000    0.000    0.000    0.000 
#
# Total GULP energy -122734.780604 kJ/mol
# GULP energy per Si atom -5578.853664 kJ/mol
# Density = 2.146878 g / cm^3
# Si number density = 21.517758 Si / 1000 Ang^3
#
#
#
# Elastic Constant Matrix: (Units=GPa)
#
#
# Indices 1 2 3 4 5 6 
#
# 1 50.0665 -9.0107 18.2093 0.0000 22.4985 0.0000
# 2 -9.0107 83.9514 29.7932 0.0000 11.9593 0.0000
# 3 18.2093 29.7932 47.6213 0.0000 28.0317 0.0000
# 4 0.0000 0.0000 0.0000 15.5587 0.0000 -11.0449
# 5 22.4985 11.9593 28.0317 0.0000 39.4382 0.0000
# 6 0.0000 0.0000 0.0000 -11.0449 0.0000 2.9261
#
#
#
# Elastic Compliance Matrix: (Units=1/GPa)
#
#
# Indices 1 2 3 4 5 6 
#
# 1 0.031013 0.008505 -0.009021 0.000000 -0.013859 0.000000
# 2 0.008505 0.017968 -0.014494 0.000000 0.000002 0.000000
# 3 -0.009021 -0.014494 0.047970 0.000000 -0.024554 0.000000
# 4 0.000000 0.000000 0.000000 -0.038267 0.000000 -0.144445
# 5 -0.013859 0.000002 -0.024554 0.000000 0.050714 0.000000
# 6 0.000000 0.000000 0.000000 -0.144445 0.000000 -0.203477
#
#
# Mechanical properties :
#
#
# Convention : Reuss Voigt Hill
#
# Bulk Modulus (GPa) = 14.94129 28.84697 21.89413
# Shear Modulus (GPa) = -119.77177 21.09442 -49.33868
#
# Velocity S-wave (km/s) = -7.46878 3.13441 -4.79365
# Velocity P-wave (km/s) = 8.21085 5.15118 4.52126
#
# Compressibility (1/GPa) = 0.06692863
#
# Stress axis : x y z
#
# Youngs Moduli (GPa) = 32.24458 55.65433 20.84626
#
# Poissons Ratio (x) = -0.47332 0.18806
# Poissons Ratio (y) = -0.27423 0.30215
# Poissons Ratio (z) = 0.29089 0.80668
#
# Static dielectric constant tensor:
#      x y z
#    x 1.799840 0.000000 0.000200 
#    y 0.000000 1.789200 0.000000 
#    z 0.000200 0.000000 1.834450 
# 
# From -- ./inp_files/96366.got.cif
#   From: 2010.05.17/outbox.cif.g08.bks.cpg/sg13_49_cif.got.tgz:96366.got - 2010.06.03 16:44:36.
