data_PCOD9230267
_publ_section_title
;
Structure prediction by ZEFSAII (Michael W. Deem and Ramdas Pophale) SiO2 
 PCOD9230267
Probable space group: P 2/C
;
_chemical_formula_sum "Si O2"
_cell_formula_units_Z 32
_cell_length_a 10.977486
_cell_length_b 18.691045
_cell_length_c 14.067968
_cell_angle_alpha 90.000000
_cell_angle_beta 147.058131
_cell_angle_gamma 90.000000
_cell_volume 1569.630227
_symmetry_space_group_name_H-M "P 2/C"
_symmetry_group_IT_number 13
_symmetry_cell_setting 'monoclinic'
loop_
_space_group_symop_operation_xyz
x,y,z
-x,y,1/2-z
-x,-y,-z
x,-y,1/2+z
loop_
_atom_site_type_symbol
_atom_site_label
_atom_site_fract_x
_atom_site_fract_y
_atom_site_fract_z
Si Si1 0.864007 0.049322 0.742177
Si Si2 0.258780 0.914318 0.631073
Si Si3 0.360483 0.092308 0.423159
Si Si4 0.615989 0.473351 0.425086
Si Si5 0.989935 0.366046 0.849458
Si Si6 0.769459 0.251076 0.152783
Si Si7 0.518499 0.605207 0.483322
Si Si8 0.258549 0.251642 0.136350
O O1 0.625829 0.083319 0.613615
O O2 0.000000 0.091312 0.750000
O O3 0.776123 0.976785 0.631228
O O4 0.043596 0.046085 0.945265
O O5 0.500000 0.940221 0.750000
O O6 0.295187 0.914056 0.768398
O O7 0.228102 0.830568 0.584163
O O8 0.293524 0.169920 0.416405
O O9 0.500000 0.488983 0.250000
O O10 0.843632 0.432790 0.549859
O O11 0.642585 0.545358 0.503068
O O12 0.474190 0.419843 0.401280
O O13 0.000000 0.332732 0.750000
O O14 0.744789 0.394322 0.712210
O O15 0.078916 0.306736 0.978777
O O16 0.762939 0.251488 0.263688
O O17 0.000000 0.267084 0.250000
O O18 0.604308 0.315648 0.020050
O O19 0.500000 0.273861 0.250000
#
# Coordination Sequence:
#
# PCOD9230267 Si02
#       8
#     4   4   4   4   4   4   4   4
#     4  11  21  37  65  92 122 166 212 276 316 379
#     4  10  20  36  58  93 127 160 215 270 323 378
#     4  10  23  40  60  90 125 170 217 252 331 388
#     4  10  21  39  59  88 122 159 208 266 315 371
#     4  10  20  36  60  90 121 157 212 268 313 373
#     4  11  24  43  63  87 130 171 203 260 320 394
#     4  10  23  37  60  90 117 162 213 253 319 382
#     4  10  21  38  64  93 123 165 209 262 322 377
#
# _framework density 20.386966999999999
#
# number of rings (size 3 to 8) (size 9 to 14) (size 15 to 20)
#    0.000    1.750    1.250    3.375    1.750    4.500 
#    0.000    0.000    0.000    0.000    0.000    0.000 
#    0.000    0.000    0.000    0.000    0.000    0.000 
#
# Total GULP energy -178463.459680 kJ/mol
# GULP energy per Si atom -5576.983115 kJ/mol
# Density = 2.034057 g / cm^3
# Si number density = 20.386967 Si / 1000 Ang^3
#
#
#
# Elastic Constant Matrix: (Units=GPa)
#
#
# Indices 1 2 3 4 5 6 
#
# 1 72.6563 10.6194 34.4278 0.0000 12.0105 0.0000
# 2 10.6194 91.4099 29.0751 0.0000 11.8646 0.0000
# 3 34.4278 29.0751 97.1369 0.0000 11.8935 0.0000
# 4 0.0000 0.0000 0.0000 21.3656 0.0000 -11.0537
# 5 12.0105 11.8646 11.8935 0.0000 25.1631 0.0000
# 6 0.0000 0.0000 0.0000 -11.0537 0.0000 10.0705
#
#
#
# Elastic Compliance Matrix: (Units=1/GPa)
#
#
# Indices 1 2 3 4 5 6 
#
# 1 0.017296 0.000524 -0.005568 0.000000 -0.005871 0.000000
# 2 0.000524 0.012548 -0.003382 0.000000 -0.004568 0.000000
# 3 -0.005568 -0.003382 0.013544 0.000000 -0.002149 0.000000
# 4 0.000000 0.000000 0.000000 0.108311 0.000000 0.118886
# 5 -0.005871 -0.004568 -0.002149 0.000000 0.045712 0.000000
# 6 0.000000 0.000000 0.000000 0.118886 0.000000 0.229793
#
#
# Mechanical properties :
#
#
# Convention : Reuss Voigt Hill
#
# Bulk Modulus (GPa) = 37.68735 45.49420 41.59078
# Shear Modulus (GPa) = 11.03995 23.79189 17.41592
#
# Velocity S-wave (km/s) = 2.32958 3.41987 2.92596
# Velocity P-wave (km/s) = 5.07564 6.16099 5.64446
#
# Compressibility (1/GPa) = 0.02653410
#
# Stress axis : x y z
#
# Youngs Moduli (GPa) = 57.81793 79.69709 73.83534
#
# Poissons Ratio (x) = -0.04174 0.41111
# Poissons Ratio (y) = -0.03028 0.24972
# Poissons Ratio (z) = 0.32193 0.26954
#
# Static dielectric constant tensor:
#      x y z
#    x 1.838120 0.000000 -0.022740 
#    y 0.000000 1.751670 0.000000 
#    z -0.022740 0.000000 1.734660 
# 
# From -- ./inp_files/51667.got.cif
#   From: 2010.05.17/outbox.cif.g08.bks.cpg/sg13_26_cif.got.tgz:51667.got - 2010.06.03 16:44:36.
