data_PCOD9230108
_publ_section_title
;
Structure prediction by ZEFSAII (Michael W. Deem and Ramdas Pophale) SiO2 
 PCOD9230108
Probable space group: P 2/C
;
_chemical_formula_sum "Si O2"
_cell_formula_units_Z 24
_cell_length_a 12.750099
_cell_length_b 13.493288
_cell_length_c 16.274353
_cell_angle_alpha 90.000000
_cell_angle_beta 24.060717
_cell_angle_gamma 90.000000
_cell_volume 1141.512295
_symmetry_space_group_name_H-M "P 2/C"
_symmetry_group_IT_number 13
_symmetry_cell_setting 'monoclinic'
loop_
_space_group_symop_operation_xyz
x,y,z
-x,y,1/2-z
-x,-y,-z
x,-y,1/2+z
loop_
_atom_site_type_symbol
_atom_site_label
_atom_site_fract_x
_atom_site_fract_y
_atom_site_fract_z
Si Si1 0.500000 0.361242 0.750000
Si Si2 0.711501 0.494862 0.740538
Si Si3 0.752775 0.969844 0.728894
Si Si4 0.731056 0.368951 0.893087
Si Si5 0.554072 0.164885 0.947126
Si Si6 0.500000 0.976917 0.250000
Si Si7 0.767349 0.195386 0.478725
O O1 0.555849 0.426353 0.788882
O O2 0.738629 0.289884 0.557041
O O3 0.739192 0.440936 0.808280
O O4 0.000000 0.500000 0.500000
O O5 0.534298 0.593564 0.873651
O O6 0.709970 0.063003 0.821052
O O7 0.547957 0.965272 0.799700
O O8 0.695367 0.871410 0.822262
O O9 0.000000 0.000000 0.500000
O O10 0.693667 0.255557 0.890887
O O11 0.000000 0.379656 0.750000
O O12 0.473421 0.196297 0.912783
O O13 0.268831 0.902046 0.440372
O O14 0.000000 0.196602 0.250000
#
# Coordination Sequence:
#
# PCOD9230108 Si02
#       7
#     2   4   4   4   4   2   4
#     4  11  22  38  63  96 116 160 217 264 313 380
#     4  11  25  43  67  95 133 171 221 274 332 398
#     4  10  21  38  63  88 131 164 215 266 323 389
#     4  11  25  45  65  96 137 176 220 272 339 405
#     4  10  22  40  60  96 124 172 214 264 331 396
#     4   9  20  36  53  92 116 154 211 252 309 386
#     4  10  20  35  63  87 119 156 210 264 316 372
#
# _framework density 21.024740999999999
#
# number of rings (size 3 to 8) (size 9 to 14) (size 15 to 20)
#    0.000    1.667    1.667    2.000    2.333    3.333 
#    0.000    2.500    0.000    0.000    0.000    0.000 
#    0.000    0.000    0.000    0.000    0.000    0.000 
#
# Total GULP energy -133789.459026 kJ/mol
# GULP energy per Si atom -5574.560793 kJ/mol
# Density = 2.097689 g / cm^3
# Si number density = 21.024741 Si / 1000 Ang^3
#
#
#
# Elastic Constant Matrix: (Units=GPa)
#
#
# Indices 1 2 3 4 5 6 
#
# 1 109.9541 36.9519 2.3895 0.0000 4.2343 0.0000
# 2 36.9519 76.8474 16.5146 0.0000 2.9659 0.0000
# 3 2.3895 16.5146 125.1524 0.0000 10.2943 0.0000
# 4 0.0000 0.0000 0.0000 15.9512 0.0000 21.6034
# 5 4.2343 2.9659 10.2943 0.0000 30.7257 0.0000
# 6 0.0000 0.0000 0.0000 21.6034 0.0000 -6.0510
#
#
#
# Elastic Compliance Matrix: (Units=1/GPa)
#
#
# Indices 1 2 3 4 5 6 
#
# 1 0.010920 -0.005332 0.000593 0.000000 -0.001189 0.000000
# 2 -0.005332 0.016012 -0.001999 0.000000 -0.000141 0.000000
# 3 0.000593 -0.001999 0.008467 0.000000 -0.002725 0.000000
# 4 0.000000 0.000000 0.000000 0.010743 0.000000 0.038356
# 5 -0.001189 -0.000141 -0.002725 0.000000 0.033637 0.000000
# 6 0.000000 0.000000 0.000000 0.038356 0.000000 -0.028321
#
#
# Mechanical properties :
#
#
# Convention : Reuss Voigt Hill
#
# Bulk Modulus (GPa) = 45.61850 47.07399 46.34624
# Shear Modulus (GPa) = 69.21184 25.19837 47.20510
#
# Velocity S-wave (km/s) = 5.74375 3.46571 4.74351
# Velocity P-wave (km/s) = 8.10754 6.20107 7.21753
#
# Compressibility (1/GPa) = 0.02192093
#
# Stress axis : x y z
#
# Youngs Moduli (GPa) = 91.57876 62.45356 118.10613
#
# Poissons Ratio (x) = 0.33301 -0.07003
# Poissons Ratio (y) = 0.48831 0.23615
# Poissons Ratio (z) = -0.05430 0.12487
#
# Static dielectric constant tensor:
#      x y z
#    x 1.794730 0.000000 -0.068580 
#    y 0.000000 1.769980 0.000000 
#    z -0.068580 0.000000 1.839690 
# 
# From -- ./inp_files/51398.got.cif
#   From: 2010.05.17/outbox.cif.g08.bks.cpg/sg13_26_cif.got.tgz:51398.got - 2010.06.03 16:44:36.
