data_PCOD9230962
_publ_section_title
;
Structure prediction by ZEFSAII (Michael W. Deem and Ramdas Pophale) SiO2 
 PCOD9230962
Probable space group: P 2/C
;
_chemical_formula_sum "Si O2"
_cell_formula_units_Z 24
_cell_length_a 14.109157
_cell_length_b 10.348309
_cell_length_c 19.432522
_cell_angle_alpha 90.000000
_cell_angle_beta 19.580574
_cell_angle_gamma 90.000000
_cell_volume 950.858105
_symmetry_space_group_name_H-M "P 2/C"
_symmetry_group_IT_number 13
_symmetry_cell_setting 'monoclinic'
loop_
_space_group_symop_operation_xyz
x,y,z
-x,y,1/2-z
-x,-y,-z
x,-y,1/2+z
loop_
_atom_site_type_symbol
_atom_site_label
_atom_site_fract_x
_atom_site_fract_y
_atom_site_fract_z
Si Si1 0.194864 0.172121 0.314894
Si Si2 0.158339 0.102586 0.068601
Si Si3 0.706859 0.882833 0.254237
Si Si4 0.034737 0.185460 0.644823
Si Si5 0.266901 0.461646 0.270755
Si Si6 0.133592 0.533731 0.082655
O O1 0.338722 0.308949 0.222834
O O2 0.004512 0.179358 0.377458
O O3 0.996320 0.146762 0.516770
O O4 0.354551 0.035990 0.196310
O O5 0.000000 0.102216 0.250000
O O6 0.172472 0.953350 0.032776
O O7 0.458553 0.164678 0.876619
O O8 0.735326 0.821671 0.309587
O O9 0.173710 0.318891 0.527787
O O10 0.000000 0.186377 0.750000
O O11 0.000000 0.500000 0.500000
O O12 0.120987 0.485431 0.294696
O O13 0.549916 0.521064 0.114674
O O14 0.000000 0.536153 0.250000
#
# Coordination Sequence:
#
# PCOD9230962 Si02
#       6
#     4   4   4   4   4   4
#     4  10  23  39  60  88 121 160 201 251 306 367
#     4  10  21  35  59  93 123 155 196 248 309 369
#     4  10  20  38  61  88 122 158 198 247 308 371
#     4   9  20  37  61  89 119 158 201 250 306 367
#     4  12  26  44  66  93 127 168 215 263 313 370
#     4  11  25  45  68  93 125 167 214 263 314 372
#
# _framework density 25.240359000000002
#
# number of rings (size 3 to 8) (size 9 to 14) (size 15 to 20)
#    0.000    1.667    0.000    3.500    0.000   13.333 
#    0.000    5.000    0.000    0.000    0.000    0.000 
#    0.000    0.000    0.000    0.000    0.000    0.000 
#
# Total GULP energy -133869.062610 kJ/mol
# GULP energy per Si atom -5577.877609 kJ/mol
# Density = 2.518291 g / cm^3
# Si number density = 25.240359 Si / 1000 Ang^3
#
#
#
# Elastic Constant Matrix: (Units=GPa)
#
#
# Indices 1 2 3 4 5 6 
#
# 1 138.8076 18.7856 17.8406 0.0000 -22.3724 0.0000
# 2 18.7856 112.2548 -0.0312 0.0000 -16.0444 0.0000
# 3 17.8406 -0.0312 62.9272 0.0000 -26.3169 0.0000
# 4 0.0000 0.0000 0.0000 2.2145 0.0000 8.9078
# 5 -22.3724 -16.0444 -26.3169 0.0000 55.5984 0.0000
# 6 0.0000 0.0000 0.0000 8.9078 0.0000 6.6369
#
#
#
# Elastic Compliance Matrix: (Units=1/GPa)
#
#
# Indices 1 2 3 4 5 6 
#
# 1 0.007870 -0.000992 -0.001281 0.000000 0.002274 0.000000
# 2 -0.000992 0.009517 0.001581 0.000000 0.003095 0.000000
# 3 -0.001281 0.001581 0.020236 0.000000 0.009520 0.000000
# 4 0.000000 0.000000 0.000000 -0.102658 0.000000 0.137782
# 5 0.002274 0.003095 0.009520 0.000000 0.024300 0.000000
# 6 0.000000 0.000000 0.000000 0.137782 0.000000 -0.034253
#
#
# Mechanical properties :
#
#
# Convention : Reuss Voigt Hill
#
# Bulk Modulus (GPa) = 27.59481 43.01995 35.30738
# Shear Modulus (GPa) = -81.27020 31.38294 -24.94363
#
# Velocity S-wave (km/s) = -5.68053 3.52996 -3.14704
# Velocity P-wave (km/s) = 5.66286 5.80476 0.90202
#
# Compressibility (1/GPa) = 0.03623870
#
# Stress axis : x y z
#
# Youngs Moduli (GPa) = 127.07062 105.07283 49.41593
#
# Poissons Ratio (x) = 0.10426 0.06328
# Poissons Ratio (y) = 0.12609 -0.07810
# Poissons Ratio (z) = 0.16272 -0.16607
#
# Static dielectric constant tensor:
#      x y z
#    x 2.030730 0.000000 -0.071870 
#    y 0.000000 2.003750 0.000000 
#    z -0.071870 0.000000 2.032920 
# 
# From -- ./inp_files/80153.got.cif
#   From: 2010.05.17/outbox.cif.g08.bks.cpg/sg13_41_cif.got.tgz:80153.got - 2010.06.03 16:44:36.
