data_PCOD9230438
_publ_section_title
;
Structure prediction by ZEFSAII (Michael W. Deem and Ramdas Pophale) SiO2 
 PCOD9230438
Probable space group: P 2/C
;
_chemical_formula_sum "Si O2"
_cell_formula_units_Z 28
_cell_length_a 12.188899
_cell_length_b 8.766947
_cell_length_c 20.125234
_cell_angle_alpha 90.000000
_cell_angle_beta 148.837126
_cell_angle_gamma 90.000000
_cell_volume 1112.861707
_symmetry_space_group_name_H-M "P 2/C"
_symmetry_group_IT_number 13
_symmetry_cell_setting 'monoclinic'
loop_
_space_group_symop_operation_xyz
x,y,z
-x,y,1/2-z
-x,-y,-z
x,-y,1/2+z
loop_
_atom_site_type_symbol
_atom_site_label
_atom_site_fract_x
_atom_site_fract_y
_atom_site_fract_z
Si Si1 0.804402 0.423638 0.465727
Si Si2 0.826324 0.275521 0.065137
Si Si3 0.727337 0.322326 0.164485
Si Si4 0.565572 0.151364 0.712291
Si Si5 0.663950 0.871840 0.058863
Si Si6 0.664973 0.492114 0.255934
Si Si7 0.948228 0.842638 0.329856
O O1 0.838090 0.585965 0.519321
O O2 0.554419 0.403194 0.348713
O O3 0.184090 0.571712 0.608273
O O4 0.944238 0.294650 0.573004
O O5 0.754864 0.341973 0.099931
O O6 0.068710 0.223894 0.205069
O O7 0.642840 0.165021 0.942084
O O8 0.731435 0.467699 0.214416
O O9 0.500458 0.246559 0.056442
O O10 0.500000 0.088513 0.750000
O O11 0.628023 0.330399 0.752320
O O12 0.777426 0.077407 0.790816
O O13 0.789732 0.802624 0.186897
O O14 0.850817 0.915750 0.104553
O O15 0.500000 0.000000 0.000000
#
# Coordination Sequence:
#
# PCOD9230438 Si02
#       7
#     4   4   4   4   4   4   4
#     4  10  20  38  59 104 141 188 223 251 326 404
#     4  10  22  36  58  98 146 189 212 260 315 414
#     4  11  22  39  61  93 128 181 229 280 334 392
#     4  11  21  38  62 102 149 187 218 246 324 413
#     4  11  26  48  69  93 120 164 234 309 364 392
#     4  10  20  36  63  98 151 190 218 258 311 415
#     4  11  24  42  72  97 127 172 226 287 335 417
#
# _framework density 25.160359
#
# number of rings (size 3 to 8) (size 9 to 14) (size 15 to 20)
#    0.000    1.429    5.714    0.857    2.000   10.286 
#    0.000    0.000    0.000    3.429    0.000    0.000 
#    0.000    0.000    0.000    0.000    0.000    0.000 
#
# Total GULP energy -156342.519536 kJ/mol
# GULP energy per Si atom -5583.661412 kJ/mol
# Density = 2.510309 g / cm^3
# Si number density = 25.160359 Si / 1000 Ang^3
#
#
#
# Elastic Constant Matrix: (Units=GPa)
#
#
# Indices 1 2 3 4 5 6 
#
# 1 202.0034 32.6635 84.1104 0.0000 9.0966 0.0000
# 2 32.6635 46.5541 40.7212 0.0000 -14.1620 0.0000
# 3 84.1104 40.7212 221.4157 0.0000 11.1210 0.0000
# 4 0.0000 0.0000 0.0000 17.5223 0.0000 5.5688
# 5 9.0966 -14.1620 11.1210 0.0000 55.9144 0.0000
# 6 0.0000 0.0000 0.0000 5.5688 0.0000 19.3743
#
#
#
# Elastic Compliance Matrix: (Units=1/GPa)
#
#
# Indices 1 2 3 4 5 6 
#
# 1 0.006269 -0.003401 -0.001678 0.000000 -0.001548 0.000000
# 2 -0.003401 0.030983 -0.004877 0.000000 0.009371 0.000000
# 3 -0.001678 -0.004877 0.006161 0.000000 -0.002188 0.000000
# 4 0.000000 0.000000 0.000000 0.062808 0.000000 -0.018053
# 5 -0.001548 0.009371 -0.002188 0.000000 0.020945 0.000000
# 6 0.000000 0.000000 0.000000 -0.018053 0.000000 0.056804
#
#
# Mechanical properties :
#
#
# Convention : Reuss Voigt Hill
#
# Bulk Modulus (GPa) = 42.55269 87.21815 64.88542
# Shear Modulus (GPa) = 23.61671 39.39409 31.50540
#
# Velocity S-wave (km/s) = 3.06706 3.96121 3.54246
# Velocity P-wave (km/s) = 5.43063 7.46068 6.52509
#
# Compressibility (1/GPa) = 0.02350028
#
# Stress axis : x y z
#
# Youngs Moduli (GPa) = 159.51990 32.27555 162.32085
#
# Poissons Ratio (x) = 0.10978 0.27239
# Poissons Ratio (y) = 0.54257 0.79161
# Poissons Ratio (z) = 0.26769 0.15740
#
# Static dielectric constant tensor:
#      x y z
#    x 2.076140 0.000000 0.058910 
#    y 0.000000 2.100610 0.000000 
#    z 0.058910 0.000000 2.008050 
# 
# From -- ./inp_files/78588.got.cif
#   From: 2010.05.17/outbox.cif.g08.bks.cpg/sg13_40_cif.got.tgz:78588.got - 2010.06.03 16:44:36.
