data_PCOD9230537
_publ_section_title
;
Structure prediction by ZEFSAII (Michael W. Deem and Ramdas Pophale) SiO2 
 PCOD9230537
Probable space group: P 2/C
;
_chemical_formula_sum "Si O2"
_cell_formula_units_Z 32
_cell_length_a 19.671234
_cell_length_b 14.063570
_cell_length_c 5.283574
_cell_angle_alpha 90.000000
_cell_angle_beta 102.492106
_cell_angle_gamma 90.000000
_cell_volume 1427.084707
_symmetry_space_group_name_H-M "P 2/C"
_symmetry_group_IT_number 13
_symmetry_cell_setting 'monoclinic'
loop_
_space_group_symop_operation_xyz
x,y,z
-x,y,1/2-z
-x,-y,-z
x,-y,1/2+z
loop_
_atom_site_type_symbol
_atom_site_label
_atom_site_fract_x
_atom_site_fract_y
_atom_site_fract_z
Si Si1 0.926022 0.221538 0.137828
Si Si2 0.178166 0.942311 0.820356
Si Si3 0.706738 0.397915 0.968582
Si Si4 0.656611 0.058471 0.025638
Si Si5 0.450364 0.592984 0.008567
Si Si6 0.542108 0.796122 0.547444
Si Si7 0.925641 0.656146 0.136503
Si Si8 0.231824 0.391217 0.981474
O O1 0.863436 0.152175 0.146970
O O2 0.925306 0.305244 0.348774
O O3 0.000000 0.171318 0.250000
O O4 0.925043 0.261481 0.851825
O O5 0.260657 0.925514 0.898365
O O6 0.160914 0.981685 0.527641
O O7 0.625720 0.426888 0.943033
O O8 0.726797 0.347942 0.723525
O O9 0.744138 0.499707 0.976693
O O10 0.740173 0.346502 0.235834
O O11 0.614934 0.153504 0.053163
O O12 0.639495 0.983921 0.236307
O O13 0.500000 0.641325 0.250000
O O14 0.500000 0.500000 0.000000
O O15 0.439239 0.686932 0.833467
O O16 0.500000 0.838785 0.750000
O O17 0.500000 0.814326 0.250000
O O18 0.000000 0.604960 0.250000
O O19 0.850965 0.607697 0.114612
#
# Coordination Sequence:
#
# PCOD9230537 Si02
#       8
#     4   4   4   4   4   4   4   4
#     4  10  21  37  58  87 119 153 195 242 297 363
#     4  10  21  38  59  85 116 153 192 236 298 358
#     4  10  22  38  59  87 115 155 203 247 308 359
#     4  10  22  41  63  88 123 158 196 251 305 358
#     4  11  23  42  64  89 129 167 202 258 316 371
#     4  11  25  40  61  92 117 155 208 245 301 372
#     4  10  21  37  57  83 119 159 197 246 306 355
#     4  10  20  37  57  83 114 149 201 247 289 361
#
# _framework density 22.423337
#
# number of rings (size 3 to 8) (size 9 to 14) (size 15 to 20)
#    0.000    1.750    0.000    4.125    0.000    6.000 
#    0.000    2.500    0.000    0.000    0.000    0.000 
#    0.000    0.000    0.000    0.000    0.000    0.000 
#
# Total GULP energy -178219.353755 kJ/mol
# GULP energy per Si atom -5569.354805 kJ/mol
# Density = 2.237230 g / cm^3
# Si number density = 22.423337 Si / 1000 Ang^3
#
#
#
# Elastic Constant Matrix: (Units=GPa)
#
#
# Indices 1 2 3 4 5 6 
#
# 1 124.2162 29.1907 8.1718 0.0000 -7.7952 0.0000
# 2 29.1907 26.2736 -10.0106 0.0000 -3.6220 0.0000
# 3 8.1718 -10.0106 123.7674 0.0000 -21.0203 0.0000
# 4 0.0000 0.0000 0.0000 8.2412 0.0000 -10.8912
# 5 -7.7952 -3.6220 -21.0203 0.0000 31.9442 0.0000
# 6 0.0000 0.0000 0.0000 -10.8912 0.0000 52.5093
#
#
#
# Elastic Compliance Matrix: (Units=1/GPa)
#
#
# Indices 1 2 3 4 5 6 
#
# 1 0.011276 -0.013205 -0.001801 0.000000 0.000070 0.000000
# 2 -0.013205 0.056337 0.006717 0.000000 0.007585 0.000000
# 3 -0.001801 0.006717 0.009903 0.000000 0.006839 0.000000
# 4 0.000000 0.000000 0.000000 0.167163 0.000000 0.034672
# 5 0.000070 0.007585 0.006839 0.000000 0.036682 0.000000
# 6 0.000000 0.000000 0.000000 0.034672 0.000000 0.026236
#
#
# Mechanical properties :
#
#
# Convention : Reuss Voigt Hill
#
# Bulk Modulus (GPa) = 16.40991 36.55123 26.48057
# Shear Modulus (GPa) = 14.51430 34.99930 24.75680
#
# Velocity S-wave (km/s) = 2.54694 3.95504 3.32635
# Velocity P-wave (km/s) = 3.99791 6.09855 5.15634
#
# Compressibility (1/GPa) = 0.06093879
#
# Stress axis : x y z
#
# Youngs Moduli (GPa) = 88.68013 17.75031 100.97626
#
# Poissons Ratio (x) = 0.23439 0.18184
# Poissons Ratio (y) = 1.17102 -0.67824
# Poissons Ratio (z) = 0.15969 -0.11922
#
# Static dielectric constant tensor:
#      x y z
#    x 1.851130 0.000000 -0.054750 
#    y 0.000000 1.878160 0.000000 
#    z -0.054750 0.000000 2.998740 
# 
# From -- ./inp_files/6268.got.cif
#   From: 2010.05.17/outbox.cif.g08.bks.cpg/sg13_4_cif.got.tgz:6268.got - 2010.06.03 16:44:36.
