data_PCOD9230011
_publ_section_title
;
Structure prediction by ZEFSAII (Michael W. Deem and Ramdas Pophale) SiO2 
 PCOD9230011
Probable space group: P 2/C
;
_chemical_formula_sum "Si O2"
_cell_formula_units_Z 28
_cell_length_a 19.838969
_cell_length_b 9.143344
_cell_length_c 21.490358
_cell_angle_alpha 90.000000
_cell_angle_beta 157.391858
_cell_angle_gamma 90.000000
_cell_volume 1498.584164
_symmetry_space_group_name_H-M "P 2/C"
_symmetry_group_IT_number 13
_symmetry_cell_setting 'monoclinic'
loop_
_space_group_symop_operation_xyz
x,y,z
-x,y,1/2-z
-x,-y,-z
x,-y,1/2+z
loop_
_atom_site_type_symbol
_atom_site_label
_atom_site_fract_x
_atom_site_fract_y
_atom_site_fract_z
Si Si1 0.595070 0.893407 0.130005
Si Si2 0.500000 0.238008 0.250000
Si Si3 0.019515 0.107529 0.574993
Si Si4 0.835060 0.606593 0.869996
Si Si5 0.369530 0.607530 0.925008
Si Si6 0.468904 0.483136 0.125298
Si Si7 0.281691 0.016864 0.625297
Si Si8 0.500000 0.261992 0.750000
O O1 0.777613 0.851392 0.251789
O O2 0.641855 0.957898 0.238728
O O3 0.474385 0.751543 0.034602
O O4 0.500000 0.000000 0.000000
O O5 0.430315 0.345744 0.136641
O O6 0.636002 0.128327 0.334055
O O7 0.905181 0.251543 0.465399
O O8 0.925874 0.013458 0.548583
O O9 0.000000 0.000000 0.500000
O O10 0.774034 0.648608 0.748210
O O11 0.664402 0.542102 0.761274
O O12 0.000000 0.500000 0.000000
O O13 0.500000 0.500000 0.000000
O O14 0.328709 0.513459 0.951418
O O15 0.467896 0.628328 0.165948
O O16 0.342966 0.154256 0.636640
#
# Coordination Sequence:
#
# PCOD9230011 Si02
#       8
#     4   2   4   4   4   4   4   2
#     4  11  22  37  60  91 119 151 195 255 311 351
#     4  10  20  36  60  84 120 166 208 230 284 366
#     4  10  20  35  57  89 117 150 193 247 302 347
#     4  11  22  37  60  91 119 151 195 255 311 351
#     4  10  20  35  57  89 117 150 193 247 302 347
#     4  10  20  37  60  88 115 161 203 240 291 355
#     4  10  20  37  60  88 115 161 203 240 291 355
#     4  10  20  36  60  84 120 166 208 230 284 366
#
# _framework density 18.684304000000001
#
# number of rings (size 3 to 8) (size 9 to 14) (size 15 to 20)
#    0.000    1.714    2.857    3.429    4.000    0.000 
#    0.000    0.000    0.000   10.286    0.000    0.000 
#    0.000    0.000    0.000    0.000    0.000    0.000 
#
# Total GULP energy -155925.777100 kJ/mol
# GULP energy per Si atom -5568.777754 kJ/mol
# Density = 1.864178 g / cm^3
# Si number density = 18.684304 Si / 1000 Ang^3
#
#
#
# Elastic Constant Matrix: (Units=GPa)
#
#
# Indices 1 2 3 4 5 6 
#
# 1 105.1011 39.6854 31.8887 0.0000 1.8560 0.0000
# 2 39.6854 98.1486 12.0310 0.0000 2.5538 0.0000
# 3 31.8887 12.0310 68.4783 0.0000 1.5272 0.0000
# 4 0.0000 0.0000 0.0000 19.9120 0.0000 1.8356
# 5 1.8560 2.5538 1.5272 0.0000 26.5926 0.0000
# 6 0.0000 0.0000 0.0000 1.8356 0.0000 39.7857
#
#
#
# Elastic Compliance Matrix: (Units=1/GPa)
#
#
# Indices 1 2 3 4 5 6 
#
# 1 0.012796 -0.004537 -0.005158 0.000000 -0.000161 0.000000
# 2 -0.004537 0.012043 0.000016 0.000000 -0.000841 0.000000
# 3 -0.005158 0.000016 0.017016 0.000000 -0.000619 0.000000
# 4 0.000000 0.000000 0.000000 0.050435 0.000000 -0.002327
# 5 -0.000161 -0.000841 -0.000619 0.000000 0.037732 0.000000
# 6 0.000000 0.000000 0.000000 -0.002327 0.000000 0.025242
#
#
# Mechanical properties :
#
#
# Convention : Reuss Voigt Hill
#
# Bulk Modulus (GPa) = 44.45211 48.77092 46.61151
# Shear Modulus (GPa) = 27.45409 29.79957 28.62683
#
# Velocity S-wave (km/s) = 3.83739 3.99795 3.91849
# Velocity P-wave (km/s) = 6.59370 6.88990 6.74343
#
# Compressibility (1/GPa) = 0.02249612
#
# Stress axis : x y z
#
# Youngs Moduli (GPa) = 78.15103 83.03426 58.76789
#
# Poissons Ratio (x) = 0.37676 0.30312
# Poissons Ratio (y) = 0.35460 -0.00093
# Poissons Ratio (z) = 0.40309 -0.00131
#
# Static dielectric constant tensor:
#      x y z
#    x 1.711500 0.000000 0.006170 
#    y 0.000000 1.660970 0.000000 
#    z 0.006170 0.000000 1.644650 
# 
# From -- ./inp_files/88556.got.cif
#   From: 2010.05.17/outbox.cif.g08.bks.cpg/sg13_45_cif.got.tgz:88556.got - 2010.06.03 16:44:36.
