data_PCOD9230003
_publ_section_title
;
Structure prediction by ZEFSAII (Michael W. Deem and Ramdas Pophale) SiO2 
 PCOD9230003
Probable space group: P 2/C
;
_chemical_formula_sum "Si O2"
_cell_formula_units_Z 28
_cell_length_a 20.108019
_cell_length_b 11.262197
_cell_length_c 11.796088
_cell_angle_alpha 90.000000
_cell_angle_beta 30.893430
_cell_angle_gamma 90.000000
_cell_volume 1371.584365
_symmetry_space_group_name_H-M "P 2/C"
_symmetry_group_IT_number 13
_symmetry_cell_setting 'monoclinic'
loop_
_space_group_symop_operation_xyz
x,y,z
-x,y,1/2-z
-x,-y,-z
x,-y,1/2+z
loop_
_atom_site_type_symbol
_atom_site_label
_atom_site_fract_x
_atom_site_fract_y
_atom_site_fract_z
Si Si1 0.137252 0.262777 0.208210
Si Si2 0.149944 0.979648 0.803317
Si Si3 0.355868 0.617389 0.516234
Si Si4 0.530732 0.799687 0.993925
Si Si5 0.158396 0.208877 0.913470
Si Si6 0.602945 0.984650 0.697616
Si Si7 0.395719 0.351368 0.504220
O O1 0.162944 0.159938 0.263596
O O2 0.979864 0.261966 0.426473
O O3 0.233743 0.366086 0.110523
O O4 0.173871 0.234869 0.024069
O O5 0.172225 0.065841 0.878011
O O6 0.253863 0.025062 0.560229
O O7 0.000000 0.000000 0.000000
O O8 0.500000 0.623419 0.250000
O O9 0.363755 0.726473 0.591619
O O10 0.352055 0.487647 0.577648
O O11 0.587074 0.896919 0.825605
O O12 0.458778 0.700588 0.025456
O O13 0.437067 0.880692 0.209125
O O14 0.269337 0.269976 0.676496
O O15 0.500000 0.951277 0.750000
O O16 0.500000 0.341947 0.250000
#
# Coordination Sequence:
#
# PCOD9230003 Si02
#       7
#     4   4   4   4   4   4   4
#     4  10  22  39  61  87 115 154 194 235 288 346
#     4  10  20  35  57  86 117 149 188 235 288 344
#     4  11  23  38  59  87 118 153 197 241 285 341
#     4  11  22  37  60  88 121 152 189 239 292 343
#     4  10  21  40  62  84 117 154 192 237 290 344
#     4  11  22  36  60  90 117 151 192 235 288 347
#     4  11  23  39  61  85 114 153 197 241 286 339
#
# _framework density 20.414349000000001
#
# number of rings (size 3 to 8) (size 9 to 14) (size 15 to 20)
#    0.000    1.429    0.000    6.429    0.000    5.143 
#    0.000    1.429    0.000    4.286    0.000    0.000 
#    0.000    0.000    0.000    0.000    0.000    0.000 
#
# Total GULP energy -156054.036740 kJ/mol
# GULP energy per Si atom -5573.358455 kJ/mol
# Density = 2.036789 g / cm^3
# Si number density = 20.414349 Si / 1000 Ang^3
#
#
#
# Elastic Constant Matrix: (Units=GPa)
#
#
# Indices 1 2 3 4 5 6 
#
# 1 109.4319 64.0754 42.4875 0.0000 -14.4751 0.0000
# 2 64.0754 107.8434 17.1074 0.0000 -11.3125 0.0000
# 3 42.4875 17.1074 114.9395 0.0000 -19.7969 0.0000
# 4 0.0000 0.0000 0.0000 23.7700 0.0000 10.2697
# 5 -14.4751 -11.3125 -19.7969 0.0000 22.7007 0.0000
# 6 0.0000 0.0000 0.0000 10.2697 0.0000 37.5505
#
#
#
# Elastic Compliance Matrix: (Units=1/GPa)
#
#
# Indices 1 2 3 4 5 6 
#
# 1 0.016208 -0.008712 -0.004310 0.000000 0.002235 0.000000
# 2 -0.008712 0.014519 0.001587 0.000000 0.003064 0.000000
# 3 -0.004310 0.001587 0.011438 0.000000 0.008018 0.000000
# 4 0.000000 0.000000 0.000000 0.047707 0.000000 -0.013047
# 5 0.002235 0.003064 0.008018 0.000000 0.053996 0.000000
# 6 0.000000 0.000000 0.000000 -0.013047 0.000000 0.030199
#
#
# Mechanical properties :
#
#
# Convention : Reuss Voigt Hill
#
# Bulk Modulus (GPa) = 51.82454 64.39503 58.10979
# Shear Modulus (GPa) = 24.58603 30.70721 27.64662
#
# Velocity S-wave (km/s) = 3.47414 3.88261 3.68404
# Velocity P-wave (km/s) = 6.44471 7.19110 6.82811
#
# Compressibility (1/GPa) = 0.01929588
#
# Stress axis : x y z
#
# Youngs Moduli (GPa) = 61.69742 68.87722 87.42765
#
# Poissons Ratio (x) = 0.60006 0.37679
# Poissons Ratio (y) = 0.53751 -0.13877
# Poissons Ratio (z) = 0.26590 -0.10932
#
# Static dielectric constant tensor:
#      x y z
#    x 1.755180 0.000000 -0.009210 
#    y 0.000000 1.764060 0.000000 
#    z -0.009210 0.000000 1.746210 
# 
# From -- ./inp_files/40761.got.cif
#   From: 2010.05.17/outbox.cif.g08.bks.cpg/sg13_21_cif.got.tgz:40761.got - 2010.06.03 16:44:36.
