data_PCOD9230740
_publ_section_title
;
Structure prediction by ZEFSAII (Michael W. Deem and Ramdas Pophale) SiO2 
 PCOD9230740
Probable space group: P 2/C
;
_chemical_formula_sum "Si O2"
_cell_formula_units_Z 14
_cell_length_a 5.046399
_cell_length_b 8.853645
_cell_length_c 14.279339
_cell_angle_alpha 90.000000
_cell_angle_beta 111.777820
_cell_angle_gamma 90.000000
_cell_volume 592.453513
_symmetry_space_group_name_H-M "P 2/C"
_symmetry_group_IT_number 13
_symmetry_cell_setting 'monoclinic'
loop_
_space_group_symop_operation_xyz
x,y,z
-x,y,1/2-z
-x,-y,-z
x,-y,1/2+z
loop_
_atom_site_type_symbol
_atom_site_label
_atom_site_fract_x
_atom_site_fract_y
_atom_site_fract_z
Si Si1 0.258777 0.312454 0.526659
Si Si2 0.500000 0.229210 0.250000
Si Si3 0.904162 0.502038 0.830279
Si Si4 0.684488 0.131833 0.474220
O O1 0.287470 0.397307 0.628558
O O2 0.556943 0.267066 0.520188
O O3 0.125525 0.425961 0.432695
O O4 0.024542 0.173713 0.511091
O O5 0.247942 0.348555 0.229740
O O6 0.569174 0.138041 0.352594
O O7 0.000000 0.416189 0.750000
O O8 0.500000 0.000000 0.500000
#
# Coordination Sequence:
#
# PCOD9230740 Si02
#       4
#     4   2   4   4
#     4  10  23  38  63  91 117 159 199 254 300 347
#     4  10  22  38  66  84 122 166 198 246 314 352
#     4  10  20  37  63  89 123 150 203 251 309 356
#     4  11  23  43  61  87 126 163 204 239 294 367
#
# _framework density 23.630545999999999
#
# number of rings (size 3 to 8) (size 9 to 14) (size 15 to 20)
#    0.000    1.714    2.857    0.857    4.000    3.429 
#    5.143    0.000    0.000    0.000    0.000    0.000 
#    0.000    0.000    0.000    0.000    0.000    0.000 
#
# Total GULP energy -78027.559326 kJ/mol
# GULP energy per Si atom -5573.397095 kJ/mol
# Density = 2.357676 g / cm^3
# Si number density = 23.630546 Si / 1000 Ang^3
#
#
#
# Elastic Constant Matrix: (Units=GPa)
#
#
# Indices 1 2 3 4 5 6 
#
# 1 133.2176 4.6256 31.3518 0.0000 -19.0099 0.0000
# 2 4.6256 39.1543 1.7949 0.0000 2.6312 0.0000
# 3 31.3518 1.7949 127.6765 0.0000 -34.7021 0.0000
# 4 0.0000 0.0000 0.0000 48.1286 0.0000 -19.4635
# 5 -19.0099 2.6312 -34.7021 0.0000 38.3256 0.0000
# 6 0.0000 0.0000 0.0000 -19.4635 0.0000 41.9786
#
#
#
# Elastic Compliance Matrix: (Units=1/GPa)
#
#
# Indices 1 2 3 4 5 6 
#
# 1 0.008266 -0.001133 -0.001165 0.000000 0.003123 0.000000
# 2 -0.001133 0.025934 -0.000959 0.000000 -0.003211 0.000000
# 3 -0.001165 -0.000959 0.010602 0.000000 0.009087 0.000000
# 4 0.000000 0.000000 0.000000 0.025573 0.000000 0.011857
# 5 0.003123 -0.003211 0.009087 0.000000 0.036090 0.000000
# 6 0.000000 0.000000 0.000000 0.011857 0.000000 0.029319
#
#
# Mechanical properties :
#
#
# Convention : Reuss Voigt Hill
#
# Bulk Modulus (GPa) = 26.11851 41.73256 33.92554
# Shear Modulus (GPa) = 32.24580 43.17163 37.70871
#
# Velocity S-wave (km/s) = 3.69803 4.27891 3.99903
# Velocity P-wave (km/s) = 5.41394 6.48929 5.97585
#
# Compressibility (1/GPa) = 0.03828702
#
# Stress axis : x y z
#
# Youngs Moduli (GPa) = 120.98277 38.56004 94.32376
#
# Poissons Ratio (x) = 0.04369 0.10989
# Poissons Ratio (y) = 0.13707 0.09046
# Poissons Ratio (z) = 0.14094 0.03698
#
# Static dielectric constant tensor:
#      x y z
#    x 1.957240 0.000000 0.018150 
#    y 0.000000 2.041150 0.000000 
#    z 0.018150 0.000000 1.880340 
# 
# From -- ./inp_files/43282.got.cif
#   From: 2010.05.17/outbox.cif.g08.bks.cpg/sg13_22_cif.got.tgz:43282.got - 2010.06.03 16:44:36.
