data_PCOD9230806
_publ_section_title
;
Structure prediction by ZEFSAII (Michael W. Deem and Ramdas Pophale) SiO2 
 PCOD9230806
Probable space group: P 2/C
;
_chemical_formula_sum "Si O2"
_cell_formula_units_Z 20
_cell_length_a 22.689987
_cell_length_b 8.878119
_cell_length_c 13.992246
_cell_angle_alpha 90.000000
_cell_angle_beta 18.664126
_cell_angle_gamma 90.000000
_cell_volume 902.027075
_symmetry_space_group_name_H-M "P 2/C"
_symmetry_group_IT_number 13
_symmetry_cell_setting 'monoclinic'
loop_
_space_group_symop_operation_xyz
x,y,z
-x,y,1/2-z
-x,-y,-z
x,-y,1/2+z
loop_
_atom_site_type_symbol
_atom_site_label
_atom_site_fract_x
_atom_site_fract_y
_atom_site_fract_z
Si Si1 0.837979 0.809050 0.736027
Si Si2 0.345851 0.414138 0.857561
Si Si3 0.107472 0.070632 0.983602
Si Si4 0.028080 0.426791 0.604727
Si Si5 0.629439 0.644952 0.393637
O O1 0.972055 0.687429 0.481232
O O2 0.945917 0.885173 0.657336
O O3 0.799728 0.925250 0.709026
O O4 0.671852 0.712513 0.035340
O O5 0.449699 0.571501 0.719286
O O6 0.421879 0.350686 0.640426
O O7 0.135216 0.455684 0.156999
O O8 0.000000 0.052263 0.250000
O O9 0.264584 0.200214 0.746957
O O10 0.218125 0.516765 0.319024
O O11 0.000000 0.347893 0.750000
#
# Coordination Sequence:
#
# PCOD9230806 Si02
#       5
#     4   4   4   4   4
#     4  11  22  36  66  97 130 170 226 268 338 420
#     4  10  20  37  66  99 129 174 232 269 336 409
#     4  11  21  40  65  98 137 177 214 278 347 398
#     4  10  20  39  61  91 131 171 220 280 331 391
#     4  10  20  38  67  92 135 175 214 287 334 388
#
# _framework density 22.172283
#
# number of rings (size 3 to 8) (size 9 to 14) (size 15 to 20)
#    0.000    1.600    4.000    1.800    0.000    0.800 
#    0.000    0.000   17.600    4.800    0.000    0.000 
#    0.000    0.000    0.000    0.000    0.000    0.000 
#
# Total GULP energy -111579.124239 kJ/mol
# GULP energy per Si atom -5578.956212 kJ/mol
# Density = 2.212182 g / cm^3
# Si number density = 22.172283 Si / 1000 Ang^3
#
#
#
# Elastic Constant Matrix: (Units=GPa)
#
#
# Indices 1 2 3 4 5 6 
#
# 1 115.0100 33.0456 29.9011 0.0000 30.7932 0.0000
# 2 33.0456 90.2320 21.4968 0.0000 29.0880 0.0000
# 3 29.9011 21.4968 63.1296 0.0000 2.3626 0.0000
# 4 0.0000 0.0000 0.0000 22.9826 0.0000 10.0886
# 5 30.7932 29.0880 2.3626 0.0000 39.0983 0.0000
# 6 0.0000 0.0000 0.0000 10.0886 0.0000 35.2943
#
#
#
# Elastic Compliance Matrix: (Units=1/GPa)
#
#
# Indices 1 2 3 4 5 6 
#
# 1 0.012780 -0.000276 -0.005603 0.000000 -0.009521 0.000000
# 2 -0.000276 0.016030 -0.004901 0.000000 -0.011412 0.000000
# 3 -0.005603 -0.004901 0.019906 0.000000 0.006856 0.000000
# 4 0.000000 0.000000 0.000000 0.049754 0.000000 -0.014222
# 5 -0.009521 -0.011412 0.006856 0.000000 0.041152 0.000000
# 6 0.000000 0.000000 0.000000 -0.014222 0.000000 0.032398
#
#
# Mechanical properties :
#
#
# Convention : Reuss Voigt Hill
#
# Bulk Modulus (GPa) = 36.82252 48.58431 42.70342
# Shear Modulus (GPa) = 24.67512 31.73690 28.20601
#
# Velocity S-wave (km/s) = 3.33961 3.78746 3.57056
# Velocity P-wave (km/s) = 5.61375 6.40985 6.02496
#
# Compressibility (1/GPa) = 0.02715729
#
# Stress axis : x y z
#
# Youngs Moduli (GPa) = 78.24556 62.38217 50.23501
#
# Poissons Ratio (x) = 0.01723 0.28146
# Poissons Ratio (y) = 0.02162 0.24618
# Poissons Ratio (z) = 0.43840 0.30571
#
# Static dielectric constant tensor:
#      x y z
#    x 1.863040 0.000000 0.048950 
#    y 0.000000 1.862110 0.000000 
#    z 0.048950 0.000000 1.814750 
# 
# From -- ./inp_files/58458.got.cif
#   From: 2010.05.17/outbox.cif.g08.bks.cpg/sg13_30_cif.got.tgz:58458.got - 2010.06.03 16:44:36.
