data_PCOD9230060
_publ_section_title
;
Structure prediction by ZEFSAII (Michael W. Deem and Ramdas Pophale) SiO2 
 PCOD9230060
Probable space group: P 2/C
;
_chemical_formula_sum "Si O2"
_cell_formula_units_Z 22
_cell_length_a 8.944961
_cell_length_b 22.106340
_cell_length_c 5.460985
_cell_angle_alpha 90.000000
_cell_angle_beta 107.571948
_cell_angle_gamma 90.000000
_cell_volume 1029.469431
_symmetry_space_group_name_H-M "P 2/C"
_symmetry_group_IT_number 13
_symmetry_cell_setting 'monoclinic'
loop_
_space_group_symop_operation_xyz
x,y,z
-x,y,1/2-z
-x,-y,-z
x,-y,1/2+z
loop_
_atom_site_type_symbol
_atom_site_label
_atom_site_fract_x
_atom_site_fract_y
_atom_site_fract_z
Si Si1 0.000000 0.742324 0.250000
Si Si2 0.139484 0.848336 0.990756
Si Si3 0.189094 0.471648 0.309827
Si Si4 0.170193 0.666979 0.705785
Si Si5 0.597354 0.230840 0.048326
Si Si6 0.179381 0.976676 0.133886
O O1 0.132750 0.698825 0.428135
O O2 0.923855 0.788794 0.404101
O O3 0.283689 0.825448 0.901866
O O4 0.000000 0.870650 0.750000
O O5 0.180235 0.904759 0.181328
O O6 0.248116 0.486950 0.613127
O O7 0.215832 0.402939 0.236631
O O8 0.000000 0.479666 0.250000
O O9 0.299802 0.708093 0.895977
O O10 0.000000 0.670775 0.750000
O O11 0.500000 0.229247 0.250000
O O12 0.500000 0.228564 0.750000
O O13 0.251923 0.010005 0.403233
O O14 0.000000 0.000000 0.000000
#
# Coordination Sequence:
#
# PCOD9230060 Si02
#       6
#     2   4   4   4   4   4
#     4  12  20  36  64 102 124 162 218 274 318 372
#     4  12  23  39  68  96 130 165 217 274 316 384
#     4   9  20  34  57  92 127 157 202 266 329 373
#     4  11  23  39  67  94 126 170 219 271 314 386
#     4  12  27  44  61  94 137 176 211 262 334 391
#     4  10  20  35  59  99 120 154 203 273 312 357
#
# _framework density 21.370228999999998
#
# number of rings (size 3 to 8) (size 9 to 14) (size 15 to 20)
#    0.000    1.091    5.455    2.182    6.364    0.000 
#    0.000    0.000    0.000    6.545    0.000    0.000 
#    0.000    0.000    0.000    0.000    0.000    0.000 
#
# Total GULP energy -122820.532450 kJ/mol
# GULP energy per Si atom -5582.751475 kJ/mol
# Density = 2.132159 g / cm^3
# Si number density = 21.370229 Si / 1000 Ang^3
#
#
#
# Elastic Constant Matrix: (Units=GPa)
#
#
# Indices 1 2 3 4 5 6 
#
# 1 61.8140 21.1302 21.7578 0.0000 -9.6811 0.0000
# 2 21.1302 137.5703 30.8610 0.0000 -12.1256 0.0000
# 3 21.7578 30.8610 114.3721 0.0000 -14.2468 0.0000
# 4 0.0000 0.0000 0.0000 -14.5418 0.0000 29.2250
# 5 -9.6811 -12.1256 -14.2468 0.0000 28.3894 0.0000
# 6 0.0000 0.0000 0.0000 29.2250 0.0000 -42.8966
#
#
#
# Elastic Compliance Matrix: (Units=1/GPa)
#
#
# Indices 1 2 3 4 5 6 
#
# 1 0.018350 -0.001896 -0.002454 0.000000 0.004216 0.000000
# 2 -0.001896 0.008091 -0.001571 0.000000 0.002021 0.000000
# 3 -0.002454 -0.001571 0.010076 0.000000 0.003549 0.000000
# 4 0.000000 0.000000 0.000000 0.186257 0.000000 0.126895
# 5 0.004216 0.002021 0.003549 0.000000 0.039306 0.000000
# 6 0.000000 0.000000 0.000000 0.126895 0.000000 0.063140
#
#
# Mechanical properties :
#
#
# Convention : Reuss Voigt Hill
#
# Bulk Modulus (GPa) = 40.52719 51.25049 45.88884
# Shear Modulus (GPa) = 14.48072 10.19069 12.33570
#
# Velocity S-wave (km/s) = 2.60592 2.18609 2.40518
# Velocity P-wave (km/s) = 5.29716 5.51419 5.40676
#
# Compressibility (1/GPa) = 0.02467479
#
# Stress axis : x y z
#
# Youngs Moduli (GPa) = 54.49628 123.59804 99.24487
#
# Poissons Ratio (x) = 0.23439 0.24354
# Poissons Ratio (y) = 0.10334 0.15588
# Poissons Ratio (z) = 0.13373 0.19413
#
# Static dielectric constant tensor:
#      x y z
#    x 1.939210 0.000000 -0.188100 
#    y 0.000000 1.748940 0.000000 
#    z -0.188100 0.000000 1.997650 
# 
# From -- ./inp_files/2170.got.cif
#   From: 2010.05.17/outbox.cif.g08.bks.cpg/sg13_2_cif.got.tgz:2170.got - 2010.06.03 16:44:36.
