data_PCOD9230614
_publ_section_title
;
Structure prediction by ZEFSAII (Michael W. Deem and Ramdas Pophale) SiO2 
 PCOD9230614
Probable space group: P 2/C
;
_chemical_formula_sum "Si O2"
_cell_formula_units_Z 28
_cell_length_a 13.587491
_cell_length_b 22.031497
_cell_length_c 5.400953
_cell_angle_alpha 90.000000
_cell_angle_beta 122.320547
_cell_angle_gamma 90.000000
_cell_volume 1366.301164
_symmetry_space_group_name_H-M "P 2/C"
_symmetry_group_IT_number 13
_symmetry_cell_setting 'monoclinic'
loop_
_space_group_symop_operation_xyz
x,y,z
-x,y,1/2-z
-x,-y,-z
x,-y,1/2+z
loop_
_atom_site_type_symbol
_atom_site_label
_atom_site_fract_x
_atom_site_fract_y
_atom_site_fract_z
Si Si1 0.368113 0.670540 0.960574
Si Si2 0.500000 0.728952 0.750000
Si Si3 0.660613 0.828713 0.091043
Si Si4 0.348075 0.034180 0.858914
Si Si5 0.000000 0.837897 0.250000
Si Si6 0.919730 0.059040 0.942830
Si Si7 0.219924 0.211939 0.269281
Si Si8 0.641638 0.466962 0.945226
O O1 0.400288 0.685036 0.718629
O O2 0.271627 0.721004 0.890352
O O3 0.500000 0.677361 0.250000
O O4 0.327889 0.603236 0.968725
O O5 0.437555 0.777921 0.487327
O O6 0.614126 0.896876 0.045114
O O7 0.751350 0.824055 0.440068
O O8 0.710297 0.811974 0.883908
O O9 0.206505 0.036880 0.655394
O O10 0.380751 0.005493 0.641244
O O11 0.091866 0.889265 0.277430
O O12 0.083506 0.795448 0.525177
O O13 0.000000 0.092672 0.250000
O O14 0.000000 0.000000 0.000000
O O15 0.500000 0.469094 0.750000
O O16 0.680684 0.493487 0.734057
#
# Coordination Sequence:
#
# PCOD9230614 Si02
#       8
#     4   2   4   4   2   4   4   4
#     4  10  20  37  60  85 119 153 194 224 272 334
#     4  10  22  38  60  82 112 154 192 240 266 342
#     4  11  23  40  58  81 107 145 195 230 294 339
#     4  12  23  37  54  77 103 136 180 239 291 352
#     4  12  24  38  54  82 116 142 188 240 288 350
#     4  12  21  32  51  74 103 136 174 226 297 355
#     4  11  24  38  58  85 113 155 183 237 282 338
#     4   9  19  30  52  86 121 150 177 223 275 322
#
# _framework density 20.493286000000001
#
# number of rings (size 3 to 8) (size 9 to 14) (size 15 to 20)
#    0.000    1.143    5.000    1.714    5.000    0.000 
#    0.000    0.714    0.000    0.000    0.000    1.000 
#    0.000    0.000    0.000    0.000    0.000    0.000 
#
# Total GULP energy -156046.151660 kJ/mol
# GULP energy per Si atom -5573.076845 kJ/mol
# Density = 2.044664 g / cm^3
# Si number density = 20.493286 Si / 1000 Ang^3
#
#
#
# Elastic Constant Matrix: (Units=GPa)
#
#
# Indices 1 2 3 4 5 6 
#
# 1 16.5868 -50.6441 26.7304 0.0000 90.6754 0.0000
# 2 -50.6441 15.5070 50.1962 0.0000 154.0877 0.0000
# 3 26.7304 50.1962 118.8093 0.0000 8.8526 0.0000
# 4 0.0000 0.0000 0.0000 27.3905 0.0000 1.7414
# 5 90.6754 154.0877 8.8526 0.0000 -121.9651 0.0000
# 6 0.0000 0.0000 0.0000 1.7414 0.0000 17.9140
#
#
#
# Elastic Compliance Matrix: (Units=1/GPa)
#
#
# Indices 1 2 3 4 5 6 
#
# 1 0.016012 -0.004195 -0.002310 0.000000 0.006437 0.000000
# 2 -0.004195 0.006697 -0.002271 0.000000 0.005177 0.000000
# 3 -0.002310 -0.002271 0.010183 0.000000 -0.003848 0.000000
# 4 0.000000 0.000000 0.000000 0.036736 0.000000 -0.003571
# 5 0.006437 0.005177 -0.003848 0.000000 0.002848 0.000000
# 6 0.000000 0.000000 0.000000 -0.003571 0.000000 0.056169
#
#
# Mechanical properties :
#
#
# Convention : Reuss Voigt Hill
#
# Bulk Modulus (GPa) = 65.18859 22.60756 43.89808
# Shear Modulus (GPa) = 33.04447 -7.02408 13.01019
#
# Velocity S-wave (km/s) = 4.01989 -1.85336 2.52236
# Velocity P-wave (km/s) = 7.30923 2.54474 5.47268
#
# Compressibility (1/GPa) = 0.01534011
#
# Stress axis : x y z
#
# Youngs Moduli (GPa) = 62.45145 149.32627 98.20362
#
# Poissons Ratio (x) = 0.62636 0.22685
# Poissons Ratio (y) = 0.26196 0.22306
# Poissons Ratio (z) = 0.14427 0.33917
#
# Static dielectric constant tensor:
#      x y z
#    x 1.432150 0.000000 0.386980 
#    y 0.000000 1.704510 0.000000 
#    z 0.386980 0.000000 1.423640 
# 
# From -- ./inp_files/6509.got.cif
#   From: 2010.05.17/outbox.cif.g08.bks.cpg/sg13_4_cif.got.tgz:6509.got - 2010.06.03 16:44:36.
