data_PCOD9230107
_publ_section_title
;
Structure prediction by ZEFSAII (Michael W. Deem and Ramdas Pophale) SiO2 
 PCOD9230107
Probable space group: P 2/C
;
_chemical_formula_sum "Si O2"
_cell_formula_units_Z 20
_cell_length_a 11.503290
_cell_length_b 5.000195
_cell_length_c 21.744916
_cell_angle_alpha 90.000000
_cell_angle_beta 39.330905
_cell_angle_gamma 90.000000
_cell_volume 792.716204
_symmetry_space_group_name_H-M "P 2/C"
_symmetry_group_IT_number 13
_symmetry_cell_setting 'monoclinic'
loop_
_space_group_symop_operation_xyz
x,y,z
-x,y,1/2-z
-x,-y,-z
x,-y,1/2+z
loop_
_atom_site_type_symbol
_atom_site_label
_atom_site_fract_x
_atom_site_fract_y
_atom_site_fract_z
Si Si1 0.019533 0.717724 0.937869
Si Si2 0.790709 0.444638 0.319143
Si Si3 0.724996 0.454897 0.479906
Si Si4 0.593542 0.087616 0.851446
Si Si5 0.693291 0.128383 0.103897
O O1 0.232798 0.783259 0.859639
O O2 0.938012 0.613426 0.907651
O O3 0.000000 0.500000 0.000000
O O4 0.870002 0.950501 0.011463
O O5 0.715953 0.563110 0.415076
O O6 0.743584 0.678800 0.290546
O O7 0.000000 0.385959 0.250000
O O8 0.685008 0.176197 0.342537
O O9 0.584610 0.205970 0.539340
O O10 0.674829 0.641891 0.558883
O O11 0.492322 0.034222 0.828095
#
# Coordination Sequence:
#
# PCOD9230107 Si02
#       5
#     4   4   4   4   4
#     4   8  16  30  53  93 114 141 183 251 292 337
#     4  12  26  39  55  85 122 160 195 240 303 357
#     4  10  20  35  63  87 116 150 200 245 295 352
#     4  11  22  39  60  85 113 152 202 246 288 353
#     4   9  17  32  58  89 115 140 193 248 290 339
#
# _framework density 25.229709
#
# number of rings (size 3 to 8) (size 9 to 14) (size 15 to 20)
#    0.000    2.000    2.000    1.800    5.600    0.000 
#    0.000    0.000    0.000    1.200   15.600    0.000 
#    0.000    0.000    0.000    0.000    0.000    0.000 
#
# Total GULP energy -111460.885520 kJ/mol
# GULP energy per Si atom -5573.044276 kJ/mol
# Density = 2.517229 g / cm^3
# Si number density = 25.229709 Si / 1000 Ang^3
#
#
#
# Elastic Constant Matrix: (Units=GPa)
#
#
# Indices 1 2 3 4 5 6 
#
# 1 161.1677 59.3868 79.0742 0.0000 -80.3589 0.0000
# 2 59.3868 131.7510 31.6861 0.0000 -35.3689 0.0000
# 3 79.0742 31.6861 84.5026 0.0000 -41.7983 0.0000
# 4 0.0000 0.0000 0.0000 29.2905 0.0000 -24.7848
# 5 -80.3589 -35.3689 -41.7983 0.0000 61.7492 0.0000
# 6 0.0000 0.0000 0.0000 -24.7848 0.0000 47.0668
#
#
#
# Elastic Compliance Matrix: (Units=1/GPa)
#
#
# Indices 1 2 3 4 5 6 
#
# 1 0.022293 -0.002010 -0.009511 0.000000 0.021422 0.000000
# 2 -0.002010 0.009237 -0.000390 0.000000 0.002411 0.000000
# 3 -0.009511 -0.000390 0.022020 0.000000 0.002305 0.000000
# 4 0.000000 0.000000 0.000000 0.061580 0.000000 0.032427
# 5 0.021422 0.002411 0.002305 0.000000 0.047014 0.000000
# 6 0.000000 0.000000 0.000000 0.032427 0.000000 0.038322
#
#
# Mechanical properties :
#
#
# Convention : Reuss Voigt Hill
#
# Bulk Modulus (GPa) = 33.63847 79.74615 56.69231
# Shear Modulus (GPa) = 21.34943 41.43957 31.39450
#
# Velocity S-wave (km/s) = 2.91211 4.05716 3.53136
# Velocity P-wave (km/s) = 4.96679 7.32285 6.25672
#
# Compressibility (1/GPa) = 0.02972787
#
# Stress axis : x y z
#
# Youngs Moduli (GPa) = 44.85703 108.25785 45.41274
#
# Poissons Ratio (x) = 0.21764 0.43191
# Poissons Ratio (y) = 0.09018 0.01771
# Poissons Ratio (z) = 0.42663 0.04223
#
# Static dielectric constant tensor:
#      x y z
#    x 2.003670 0.000000 -0.055540 
#    y 0.000000 2.098450 0.000000 
#    z -0.055540 0.000000 2.034940 
# 
# From -- ./inp_files/96291.got.cif
#   From: 2010.05.17/outbox.cif.g08.bks.cpg/sg13_49_cif.got.tgz:96291.got - 2010.06.03 16:44:36.
