data_PCOD9230454
_publ_section_title
;
Structure prediction by ZEFSAII (Michael W. Deem and Ramdas Pophale) SiO2 
 PCOD9230454
Probable space group: P 2/C
;
_chemical_formula_sum "Si O2"
_cell_formula_units_Z 28
_cell_length_a 14.727668
_cell_length_b 4.976921
_cell_length_c 18.269363
_cell_angle_alpha 90.000000
_cell_angle_beta 58.007840
_cell_angle_gamma 90.000000
_cell_volume 1135.731703
_symmetry_space_group_name_H-M "P 2/C"
_symmetry_group_IT_number 13
_symmetry_cell_setting 'monoclinic'
loop_
_space_group_symop_operation_xyz
x,y,z
-x,y,1/2-z
-x,-y,-z
x,-y,1/2+z
loop_
_atom_site_type_symbol
_atom_site_label
_atom_site_fract_x
_atom_site_fract_y
_atom_site_fract_z
Si Si1 0.500000 0.793739 0.250000
Si Si2 0.500976 0.524460 0.598216
Si Si3 0.743483 0.380440 0.012030
Si Si4 0.808193 0.705937 0.858996
Si Si5 0.375378 0.965286 0.103723
Si Si6 0.000000 0.940625 0.250000
Si Si7 0.820670 0.322410 0.732306
Si Si8 0.739805 0.893939 0.115927
O O1 0.509955 0.608669 0.317336
O O2 0.614364 0.943794 0.192131
O O3 0.619952 0.642948 0.540656
O O4 0.426696 0.784014 0.623755
O O5 0.465986 0.271581 0.560341
O O6 0.743258 0.654292 0.057138
O O7 0.777879 0.152361 0.054160
O O8 0.807187 0.442915 0.910367
O O9 0.700914 0.877888 0.922081
O O10 0.810094 0.622097 0.771759
O O11 0.913846 0.873191 0.827542
O O12 0.283372 0.813820 0.187339
O O13 0.930697 0.776241 0.221295
O O14 0.807481 0.224588 0.654991
#
# Coordination Sequence:
#
# PCOD9230454 Si02
#       8
#     2   4   4   4   4   2   4   4
#     4  10  20  36  64  92 150 190 234 258 326 414
#     4  11  22  37  60 105 141 194 231 276 330 412
#     4  11  28  42  67 106 155 186 223 294 360 409
#     4  11  25  49  72 102 142 182 240 302 364 421
#     4  11  22  38  67  98 135 187 242 276 323 410
#     4  10  26  46  84  98 128 178 254 300 362 430
#     4  11  24  46  76 103 132 187 247 296 344 432
#     4  11  25  42  70 104 145 191 236 283 345 416
#
# _framework density 24.653708000000002
#
# number of rings (size 3 to 8) (size 9 to 14) (size 15 to 20)
#    0.000    1.143    2.857    2.143   12.000    2.286 
#    0.000    1.429    0.000    0.000    0.000    0.000 
#    0.000    0.000    0.000    0.000    0.000    0.000 
#
# Total GULP energy -156519.194498 kJ/mol
# GULP energy per Si atom -5589.971232 kJ/mol
# Density = 2.459760 g / cm^3
# Si number density = 24.653708 Si / 1000 Ang^3
#
#
#
# Elastic Constant Matrix: (Units=GPa)
#
#
# Indices 1 2 3 4 5 6 
#
# 1 139.8259 28.5932 41.1381 0.0000 0.1998 0.0000
# 2 28.5932 123.2245 19.2407 0.0000 -6.8926 0.0000
# 3 41.1381 19.2407 63.7704 0.0000 15.1202 0.0000
# 4 0.0000 0.0000 0.0000 39.4335 0.0000 -4.1331
# 5 0.1998 -6.8926 15.1202 0.0000 46.8694 0.0000
# 6 0.0000 0.0000 0.0000 -4.1331 0.0000 39.5584
#
#
#
# Elastic Compliance Matrix: (Units=1/GPa)
#
#
# Indices 1 2 3 4 5 6 
#
# 1 0.009128 -0.001089 -0.005969 0.000000 0.001727 0.000000
# 2 -0.001089 0.008872 -0.002474 0.000000 0.002107 0.000000
# 3 -0.005969 -0.002474 0.022045 0.000000 -0.007450 0.000000
# 4 0.000000 0.000000 0.000000 0.025640 0.000000 0.002679
# 5 0.001727 0.002107 -0.007450 0.000000 0.024042 0.000000
# 6 0.000000 0.000000 0.000000 0.002679 0.000000 0.025559
#
#
# Mechanical properties :
#
#
# Convention : Reuss Voigt Hill
#
# Bulk Modulus (GPa) = 47.66386 56.08497 51.87442
# Shear Modulus (GPa) = 35.37452 41.02884 38.20168
#
# Velocity S-wave (km/s) = 3.79206 4.08389 3.94068
# Velocity P-wave (km/s) = 6.20872 6.71089 6.46469
#
# Compressibility (1/GPa) = 0.02098026
#
# Stress axis : x y z
#
# Youngs Moduli (GPa) = 109.54942 112.71131 45.36208
#
# Poissons Ratio (x) = 0.12280 0.27078
# Poissons Ratio (y) = 0.11935 0.11221
# Poissons Ratio (z) = 0.65393 0.27882
#
# Static dielectric constant tensor:
#      x y z
#    x 1.987870 0.000000 0.016330 
#    y 0.000000 1.996170 0.000000 
#    z 0.016330 0.000000 2.018680 
# 
# From -- ./inp_files/79029.got.cif
#   From: 2010.05.17/outbox.cif.g08.bks.cpg/sg13_40_cif.got.tgz:79029.got - 2010.06.03 16:44:36.
