data_PCOD9230789
_publ_section_title
;
Structure prediction by ZEFSAII (Michael W. Deem and Ramdas Pophale) SiO2 
 PCOD9230789
Probable space group: P 2/C
;
_chemical_formula_sum "Si O2"
_cell_formula_units_Z 18
_cell_length_a 17.578689
_cell_length_b 9.038907
_cell_length_c 12.153771
_cell_angle_alpha 90.000000
_cell_angle_beta 26.666227
_cell_angle_gamma 90.000000
_cell_volume 866.680188
_symmetry_space_group_name_H-M "P 2/C"
_symmetry_group_IT_number 13
_symmetry_cell_setting 'monoclinic'
loop_
_space_group_symop_operation_xyz
x,y,z
-x,y,1/2-z
-x,-y,-z
x,-y,1/2+z
loop_
_atom_site_type_symbol
_atom_site_label
_atom_site_fract_x
_atom_site_fract_y
_atom_site_fract_z
Si Si1 0.573342 0.042788 0.523457
Si Si2 0.276622 0.745873 0.425046
Si Si3 0.500000 0.501495 0.750000
Si Si4 0.078213 0.164375 0.383503
Si Si5 0.267352 0.732815 0.172690
O O1 0.406315 0.121004 0.785607
O O2 0.734514 0.154607 0.305037
O O3 0.500000 0.000000 0.500000
O O4 0.647156 0.888636 0.473360
O O5 0.371736 0.600558 0.346383
O O6 0.117686 0.786425 0.707131
O O7 0.256142 0.735211 0.320460
O O8 0.615237 0.602866 0.522618
O O9 0.926370 0.269071 0.621204
O O10 0.000000 0.000000 0.500000
#
# Coordination Sequence:
#
# PCOD9230789 Si02
#       5
#     4   4   2   4   4
#     4   9  19  38  66  89 119 163 216 268 326 391
#     4  11  21  42  63  89 128 175 217 270 336 395
#     4  12  24  38  66  88 136 182 220 262 328 414
#     4  10  20  37  65  93 120 159 216 279 326 374
#     4  10  24  38  64  93 127 169 222 274 329 394
#
# _framework density 20.768908
#
# number of rings (size 3 to 8) (size 9 to 14) (size 15 to 20)
#    0.000    1.778    2.222    1.333    6.222    0.889 
#    0.000    0.000    0.000    0.000    0.000    0.000 
#    0.000    0.000    0.000    0.000    0.000    0.000 
#
# Total GULP energy -100270.777412 kJ/mol
# GULP energy per Si atom -5570.598745 kJ/mol
# Density = 2.072164 g / cm^3
# Si number density = 20.768908 Si / 1000 Ang^3
#
#
#
# Elastic Constant Matrix: (Units=GPa)
#
#
# Indices 1 2 3 4 5 6 
#
# 1 61.8632 16.8880 32.7322 0.0000 -2.9066 0.0000
# 2 16.8880 99.7238 60.3658 0.0000 10.7796 0.0000
# 3 32.7322 60.3658 167.7685 0.0000 2.2659 0.0000
# 4 0.0000 0.0000 0.0000 37.1992 0.0000 0.7972
# 5 -2.9066 10.7796 2.2659 0.0000 29.4167 0.0000
# 6 0.0000 0.0000 0.0000 0.7972 0.0000 26.0626
#
#
#
# Elastic Compliance Matrix: (Units=1/GPa)
#
#
# Indices 1 2 3 4 5 6 
#
# 1 0.018324 -0.001534 -0.003058 0.000000 0.002608 0.000000
# 2 -0.001534 0.013529 -0.004504 0.000000 -0.004762 0.000000
# 3 -0.003058 -0.004504 0.008168 0.000000 0.000719 0.000000
# 4 0.000000 0.000000 0.000000 0.026900 0.000000 -0.000823
# 5 0.002608 -0.004762 0.000719 0.000000 0.035942 0.000000
# 6 0.000000 0.000000 0.000000 -0.000823 0.000000 0.038394
#
#
# Mechanical properties :
#
#
# Convention : Reuss Voigt Hill
#
# Bulk Modulus (GPa) = 45.81214 61.03641 53.42427
# Shear Modulus (GPa) = 29.98926 33.16033 31.57480
#
# Velocity S-wave (km/s) = 3.80406 4.00012 3.90332
# Velocity P-wave (km/s) = 6.43431 7.12649 6.78923
#
# Compressibility (1/GPa) = 0.02182828
#
# Stress axis : x y z
#
# Youngs Moduli (GPa) = 54.57267 73.91646 122.42395
#
# Poissons Ratio (x) = 0.11337 0.37443
# Poissons Ratio (y) = 0.08370 0.55144
# Poissons Ratio (z) = 0.16691 0.33294
#
# Static dielectric constant tensor:
#      x y z
#    x 1.844330 0.000000 0.035390 
#    y 0.000000 1.749950 0.000000 
#    z 0.035390 0.000000 1.833530 
# 
# From -- ./inp_files/28047.got.cif
#   From: 2010.05.17/outbox.cif.g08.bks.cpg/sg13_15_cif.got.tgz:28047.got - 2010.06.03 16:44:36.
