data_PCOD9230281
_publ_section_title
;
Structure prediction by ZEFSAII (Michael W. Deem and Ramdas Pophale) SiO2 
 PCOD9230281
Probable space group: P 2/C
;
_chemical_formula_sum "Si O2"
_cell_formula_units_Z 28
_cell_length_a 8.786682
_cell_length_b 20.670848
_cell_length_c 15.240944
_cell_angle_alpha 90.000000
_cell_angle_beta 29.134545
_cell_angle_gamma 90.000000
_cell_volume 1347.724263
_symmetry_space_group_name_H-M "P 2/C"
_symmetry_group_IT_number 13
_symmetry_cell_setting 'monoclinic'
loop_
_space_group_symop_operation_xyz
x,y,z
-x,y,1/2-z
-x,-y,-z
x,-y,1/2+z
loop_
_atom_site_type_symbol
_atom_site_label
_atom_site_fract_x
_atom_site_fract_y
_atom_site_fract_z
Si Si1 0.133464 0.302208 0.910801
Si Si2 0.768400 0.531283 0.046982
Si Si3 0.881737 0.047945 0.906087
Si Si4 0.257192 0.067129 0.292865
Si Si5 0.113001 0.346931 0.287488
Si Si6 0.856990 0.843228 0.101967
Si Si7 0.804178 0.397305 0.938421
O O1 0.500000 0.308949 0.750000
O O2 0.088160 0.230329 0.896214
O O3 0.003104 0.358212 0.912192
O O4 0.950684 0.303964 0.095238
O O5 0.701384 0.469795 0.018968
O O6 0.919351 0.587937 0.913065
O O7 0.500000 0.552672 0.250000
O O8 0.000000 0.500000 0.000000
O O9 0.000000 0.037834 0.750000
O O10 0.061489 0.106921 0.862303
O O11 0.514386 0.065426 0.087267
O O12 0.989301 0.984455 0.906290
O O13 0.500000 0.050160 0.250000
O O14 0.088809 0.132943 0.407227
O O15 0.000000 0.322886 0.250000
O O16 0.477633 0.360815 0.093989
O O17 0.500000 0.849243 0.250000
O O18 0.000000 0.399903 0.750000
#
# Coordination Sequence:
#
# PCOD9230281 Si02
#       7
#     4   4   4   4   4   4   4
#     4  11  24  45  67  88 122 165 210 264 313 369
#     4  12  23  41  68  95 127 164 205 254 317 371
#     4  11  21  35  59  92 124 155 199 251 302 350
#     4  10  20  36  59  86 120 163 199 241 298 362
#     4  12  26  42  66  94 127 163 207 260 311 375
#     4  10  22  41  63  85 117 162 204 244 303 368
#     4  12  26  42  65  95 125 166 209 255 314 373
#
# _framework density 20.775763999999999
#
# number of rings (size 3 to 8) (size 9 to 14) (size 15 to 20)
#    0.000    0.857    2.857    5.571    2.000    5.143 
#    0.000    3.571    0.000    0.000    0.000    0.000 
#    0.000    0.000    0.000    0.000    0.000    0.000 
#
# Total GULP energy -156257.365995 kJ/mol
# GULP energy per Si atom -5580.620214 kJ/mol
# Density = 2.072848 g / cm^3
# Si number density = 20.775764 Si / 1000 Ang^3
#
#
#
# Elastic Constant Matrix: (Units=GPa)
#
#
# Indices 1 2 3 4 5 6 
#
# 1 49.9072 5.1998 17.9693 0.0000 5.2397 0.0000
# 2 5.1998 94.2477 -3.3209 0.0000 -5.0450 0.0000
# 3 17.9693 -3.3209 134.2109 0.0000 0.4461 0.0000
# 4 0.0000 0.0000 0.0000 11.7807 0.0000 -8.2503
# 5 5.2397 -5.0450 0.4461 0.0000 40.2595 0.0000
# 6 0.0000 0.0000 0.0000 -8.2503 0.0000 10.3673
#
#
#
# Elastic Compliance Matrix: (Units=1/GPa)
#
#
# Indices 1 2 3 4 5 6 
#
# 1 0.021546 -0.001449 -0.002911 0.000000 -0.002954 0.000000
# 2 -0.001449 0.010789 0.000456 0.000000 0.001536 0.000000
# 3 -0.002911 0.000456 0.007851 0.000000 0.000349 0.000000
# 4 0.000000 0.000000 0.000000 0.191751 0.000000 0.152595
# 5 -0.002954 0.001536 0.000349 0.000000 0.025412 0.000000
# 6 0.000000 0.000000 0.000000 0.152595 0.000000 0.217891
#
#
# Mechanical properties :
#
#
# Convention : Reuss Voigt Hill
#
# Bulk Modulus (GPa) = 30.88614 35.34025 33.11320
# Shear Modulus (GPa) = 10.12472 29.71601 19.92037
#
# Velocity S-wave (km/s) = 2.20996 3.78606 3.09985
# Velocity P-wave (km/s) = 4.62716 6.01329 5.36517
#
# Compressibility (1/GPa) = 0.03237698
#
# Stress axis : x y z
#
# Youngs Moduli (GPa) = 46.41157 92.69070 127.37542
#
# Poissons Ratio (x) = 0.13435 0.37077
# Poissons Ratio (y) = 0.06727 -0.05807
# Poissons Ratio (z) = 0.13510 -0.04226
#
# Static dielectric constant tensor:
#      x y z
#    x 1.760910 0.000000 0.037680 
#    y 0.000000 1.756300 0.000000 
#    z 0.037680 0.000000 1.746980 
# 
# From -- ./inp_files/48208.got.cif
#   From: 2010.05.17/outbox.cif.g08.bks.cpg/sg13_25_cif.got.tgz:48208.got - 2010.06.03 16:44:36.
