data_PCOD9230300
_publ_section_title
;
Structure prediction by ZEFSAII (Michael W. Deem and Ramdas Pophale) SiO2 
 PCOD9230300
Probable space group: P 2/C
;
_chemical_formula_sum "Si O2"
_cell_formula_units_Z 28
_cell_length_a 20.389408
_cell_length_b 8.735299
_cell_length_c 20.623553
_cell_angle_alpha 90.000000
_cell_angle_beta 159.232956
_cell_angle_gamma 90.000000
_cell_volume 1302.407495
_symmetry_space_group_name_H-M "P 2/C"
_symmetry_group_IT_number 13
_symmetry_cell_setting 'monoclinic'
loop_
_space_group_symop_operation_xyz
x,y,z
-x,y,1/2-z
-x,-y,-z
x,-y,1/2+z
loop_
_atom_site_type_symbol
_atom_site_label
_atom_site_fract_x
_atom_site_fract_y
_atom_site_fract_z
Si Si1 0.862017 0.097899 0.483030
Si Si2 0.266247 0.127514 0.882246
Si Si3 0.289560 0.708166 0.539538
Si Si4 0.220798 0.394515 0.144836
Si Si5 0.572494 0.550084 0.408993
Si Si6 0.785131 0.561309 0.225835
Si Si7 0.530941 0.900122 0.202401
O O1 0.828297 0.213156 0.513255
O O2 0.787026 0.209588 0.356948
O O3 0.738874 0.949617 0.378340
O O4 0.076245 0.058397 0.679707
O O5 0.303218 0.268550 0.866647
O O6 0.232274 0.217585 0.918461
O O7 0.408955 0.999602 0.038664
O O8 0.500000 0.752149 0.750000
O O9 0.308836 0.528098 0.539350
O O10 0.388608 0.447328 0.253463
O O11 0.256211 0.485648 0.243617
O O12 0.009127 0.431155 0.927713
O O13 0.699451 0.538358 0.589621
O O14 0.512226 0.722268 0.343277
O O15 0.500000 0.936342 0.250000
#
# Coordination Sequence:
#
# PCOD9230300 Si02
#       7
#     4   4   4   4   4   4   4
#     4  11  20  36  61  82 111 155 191 230 284 344
#     4  10  20  36  60  80 112 152 192 235 279 336
#     4  11  17  35  57  81 108 142 196 235 273 333
#     4  10  20  39  65  86 110 148 199 245 284 326
#     4  11  23  36  58  85 119 150 182 241 292 333
#     4   9  21  40  62  88 109 145 203 248 276 332
#     4  12  24  37  53  86 127 154 184 226 288 356
#
# _framework density 21.498647999999999
#
# number of rings (size 3 to 8) (size 9 to 14) (size 15 to 20)
#    0.000    1.429    4.286    2.143    0.000    1.143 
#    0.000    2.857    3.143    5.143    0.000    0.000 
#    0.000    0.000    0.000    0.000    0.000    0.000 
#
# Total GULP energy -156131.385892 kJ/mol
# GULP energy per Si atom -5576.120925 kJ/mol
# Density = 2.144972 g / cm^3
# Si number density = 21.498648 Si / 1000 Ang^3
#
#
#
# Elastic Constant Matrix: (Units=GPa)
#
#
# Indices 1 2 3 4 5 6 
#
# 1 27.9187 -15.9562 2.6200 0.0000 -3.0621 0.0000
# 2 -15.9562 99.6419 25.6020 0.0000 -9.3107 0.0000
# 3 2.6200 25.6020 85.0696 0.0000 -13.7248 0.0000
# 4 0.0000 0.0000 0.0000 -17.1294 0.0000 -27.8399
# 5 -3.0621 -9.3107 -13.7248 0.0000 18.3181 0.0000
# 6 0.0000 0.0000 0.0000 -27.8399 0.0000 -10.7716
#
#
#
# Elastic Compliance Matrix: (Units=1/GPa)
#
#
# Indices 1 2 3 4 5 6 
#
# 1 0.041708 0.008129 -0.002206 0.000000 0.009451 0.000000
# 2 0.008129 0.012662 -0.003189 0.000000 0.005405 0.000000
# 3 -0.002206 -0.003189 0.014175 0.000000 0.008631 0.000000
# 4 0.000000 0.000000 0.000000 0.018240 0.000000 -0.047142
# 5 0.009451 0.005405 0.008631 0.000000 0.065385 0.000000
# 6 0.000000 0.000000 0.000000 -0.047142 0.000000 0.029006
#
#
# Mechanical properties :
#
#
# Convention : Reuss Voigt Hill
#
# Bulk Modulus (GPa) = 13.51125 26.35132 19.93129
# Shear Modulus (GPa) = 24.95269 11.44106 18.19688
#
# Velocity S-wave (km/s) = 3.41055 2.30940 2.91249
# Velocity P-wave (km/s) = 4.66984 4.40396 4.53885
#
# Compressibility (1/GPa) = 0.07401238
#
# Stress axis : x y z
#
# Youngs Moduli (GPa) = 23.97638 78.97576 70.54539
#
# Poissons Ratio (x) = -0.64198 0.15564
# Poissons Ratio (y) = -0.19490 0.22497
# Poissons Ratio (z) = 0.05290 0.25185
#
# Static dielectric constant tensor:
#      x y z
#    x 1.870930 0.000000 -0.034620 
#    y 0.000000 1.809500 0.000000 
#    z -0.034620 0.000000 1.815560 
# 
# From -- ./inp_files/88905.got.cif
#   From: 2010.05.17/outbox.cif.g08.bks.cpg/sg13_45_cif.got.tgz:88905.got - 2010.06.03 16:44:36.
