data_PCOD9230694
_publ_section_title
;
Structure prediction by ZEFSAII (Michael W. Deem and Ramdas Pophale) SiO2 
 PCOD9230694
Probable space group: P 2/C
;
_chemical_formula_sum "Si O2"
_cell_formula_units_Z 32
_cell_length_a 22.924467
_cell_length_b 8.987254
_cell_length_c 14.618390
_cell_angle_alpha 90.000000
_cell_angle_beta 31.174175
_cell_angle_gamma 90.000000
_cell_volume 1559.031265
_symmetry_space_group_name_H-M "P 2/C"
_symmetry_group_IT_number 13
_symmetry_cell_setting 'monoclinic'
loop_
_space_group_symop_operation_xyz
x,y,z
-x,y,1/2-z
-x,-y,-z
x,-y,1/2+z
loop_
_atom_site_type_symbol
_atom_site_label
_atom_site_fract_x
_atom_site_fract_y
_atom_site_fract_z
Si Si1 0.210752 0.356692 0.623441
Si Si2 0.583243 0.831279 0.999420
Si Si3 0.037320 0.353700 0.598518
Si Si4 0.247844 0.696191 0.588765
Si Si5 0.304208 0.874124 0.143019
Si Si6 0.721875 0.629213 0.675855
Si Si7 0.098872 0.096291 0.408729
Si Si8 0.345189 0.306689 0.769137
O O1 0.254404 0.519300 0.592433
O O2 0.271497 0.230157 0.601392
O O3 0.238225 0.325442 0.479594
O O4 0.073926 0.374150 0.814552
O O5 0.643748 0.768533 0.008658
O O6 0.657780 0.758673 0.816557
O O7 0.590438 0.010616 0.998018
O O8 0.460191 0.766002 0.150163
O O9 0.164301 0.418376 0.420746
O O10 0.061631 0.179428 0.550417
O O11 0.000000 0.396192 0.750000
O O12 0.142516 0.776722 0.779115
O O13 0.253472 0.717649 0.472290
O O14 0.312890 0.771510 0.219052
O O15 0.201660 0.988391 0.289067
O O16 0.646627 0.482837 0.761665
O O17 0.000000 0.000000 0.500000
#
# Coordination Sequence:
#
# PCOD9230694 Si02
#       8
#     4   4   4   4   4   4   4   4
#     4  10  22  39  63  94 125 165 205 258 310 379
#     4  11  22  42  63  87 125 166 204 267 317 363
#     4  10  20  37  62  87 122 161 200 251 311 366
#     4  10  23  41  63  89 125 161 211 260 310 376
#     4  11  23  38  63  94 124 158 212 250 311 378
#     4  10  21  40  64  92 121 163 215 256 309 378
#     4  11  22  39  60  91 124 165 199 248 321 377
#     4  11  24  41  63  89 121 167 211 262 312 365
#
# _framework density 20.525566000000001
#
# number of rings (size 3 to 8) (size 9 to 14) (size 15 to 20)
#    0.000    1.500    3.750    1.875    0.000    4.500 
#    0.000    5.625    0.000    0.000    0.000    0.000 
#    0.000    0.000    0.000    0.000    0.000    0.000 
#
# Total GULP energy -178420.849612 kJ/mol
# GULP energy per Si atom -5575.651550 kJ/mol
# Density = 2.047885 g / cm^3
# Si number density = 20.525566 Si / 1000 Ang^3
#
#
#
# Elastic Constant Matrix: (Units=GPa)
#
#
# Indices 1 2 3 4 5 6 
#
# 1 87.4980 39.4651 17.3563 0.0000 13.0042 0.0000
# 2 39.4651 90.0909 15.3709 0.0000 3.7630 0.0000
# 3 17.3563 15.3709 54.2340 0.0000 2.4020 0.0000
# 4 0.0000 0.0000 0.0000 -3.1277 0.0000 -10.6567
# 5 13.0042 3.7630 2.4020 0.0000 26.5652 0.0000
# 6 0.0000 0.0000 0.0000 -10.6567 0.0000 30.7854
#
#
#
# Elastic Compliance Matrix: (Units=1/GPa)
#
#
# Indices 1 2 3 4 5 6 
#
# 1 0.015764 -0.006115 -0.003020 0.000000 -0.006577 0.000000
# 2 -0.006115 0.014085 -0.002088 0.000000 0.001187 0.000000
# 3 -0.003020 -0.002088 0.019998 0.000000 -0.000034 0.000000
# 4 0.000000 0.000000 0.000000 -0.146700 0.000000 -0.050782
# 5 -0.006577 0.001187 -0.000034 0.000000 0.040698 0.000000
# 6 0.000000 0.000000 0.000000 -0.050782 0.000000 0.014904
#
#
# Mechanical properties :
#
#
# Convention : Reuss Voigt Hill
#
# Bulk Modulus (GPa) = 36.49501 41.80082 39.14791
# Shear Modulus (GPa) = -517.07007 21.48660 -247.79173
#
# Velocity S-wave (km/s) = -15.88905 3.23897 -10.99934
# Velocity P-wave (km/s) = 17.85489 5.86493 11.92476
#
# Compressibility (1/GPa) = 0.02740101
#
# Stress axis : x y z
#
# Youngs Moduli (GPa) = 63.43651 70.99551 50.00413
#
# Poissons Ratio (x) = 0.43417 0.15103
# Poissons Ratio (y) = 0.38794 0.10439
# Poissons Ratio (z) = 0.19160 0.14821
#
# Static dielectric constant tensor:
#      x y z
#    x 1.750910 0.000000 -0.010140 
#    y 0.000000 1.719770 0.000000 
#    z -0.010140 0.000000 1.796880 
# 
# From -- ./inp_files/58787.got.cif
#   From: 2010.05.17/outbox.cif.g08.bks.cpg/sg13_30_cif.got.tgz:58787.got - 2010.06.03 16:44:36.
