data_PCOD9230968
_publ_section_title
;
Structure prediction by ZEFSAII (Michael W. Deem and Ramdas Pophale) SiO2 
 PCOD9230968
Probable space group: P 2/C
;
_chemical_formula_sum "Si O2"
_cell_formula_units_Z 30
_cell_length_a 9.724842
_cell_length_b 15.570084
_cell_length_c 11.332486
_cell_angle_alpha 90.000000
_cell_angle_beta 69.564488
_cell_angle_gamma 90.000000
_cell_volume 1607.936049
_symmetry_space_group_name_H-M "P 2/C"
_symmetry_group_IT_number 13
_symmetry_cell_setting 'monoclinic'
loop_
_space_group_symop_operation_xyz
x,y,z
-x,y,1/2-z
-x,-y,-z
x,-y,1/2+z
loop_
_atom_site_type_symbol
_atom_site_label
_atom_site_fract_x
_atom_site_fract_y
_atom_site_fract_z
Si Si1 0.708254 0.297399 0.769308
Si Si2 0.401366 0.762888 0.440613
Si Si3 0.322834 0.162871 0.292716
Si Si4 0.590608 0.516646 0.348195
Si Si5 0.639803 0.333082 0.296280
Si Si6 0.107881 0.933684 0.032758
Si Si7 0.000000 0.200079 0.750000
Si Si8 0.650568 0.055110 0.448857
O O1 0.688530 0.287851 0.633357
O O2 0.572622 0.240768 0.857309
O O3 0.677112 0.393666 0.825000
O O4 0.858663 0.258662 0.769803
O O5 0.391256 0.712884 0.568535
O O6 0.355799 0.862855 0.461017
O O7 0.500000 0.171440 0.250000
O O8 0.263471 0.259905 0.294697
O O9 0.226026 0.116749 0.418039
O O10 0.318711 0.102322 0.181939
O O11 0.500000 0.524623 0.250000
O O12 0.500000 0.500000 0.500000
O O13 0.687570 0.430382 0.304705
O O14 0.500000 0.343611 0.250000
O O15 0.021538 0.863161 0.132920
O O16 0.213680 0.992644 0.077904
O O17 0.000000 0.000000 0.000000
O O18 0.500000 0.000000 0.500000
#
# Coordination Sequence:
#
# PCOD9230968 Si02
#       8
#     4   4   4   4   4   4   2   4
#     4  11  22  39  60  92 128 166 209 259 327 386
#     4  10  20  38  61  92 124 159 213 272 315 368
#     4  10  21  37  60  90 119 155 207 265 312 367
#     4  11  19  35  65  98 126 157 214 275 326 389
#     4   9  19  32  61  99 120 151 201 270 323 364
#     4  12  25  43  59  86 126 166 214 261 323 383
#     4  12  28  40  62  88 134 178 208 254 334 402
#     4  11  21  36  62  88 118 155 214 261 312 374
#
# _framework density 18.657457999999998
#
# number of rings (size 3 to 8) (size 9 to 14) (size 15 to 20)
#    0.000    1.333    4.000    2.400    3.733    2.133 
#    0.000    0.000    0.000   10.400    0.000    0.000 
#    0.000    0.000    0.000    0.000    0.000    0.000 
#
# Total GULP energy -167014.527815 kJ/mol
# GULP energy per Si atom -5567.150927 kJ/mol
# Density = 1.861499 g / cm^3
# Si number density = 18.657458 Si / 1000 Ang^3
#
#
#
# Elastic Constant Matrix: (Units=GPa)
#
#
# Indices 1 2 3 4 5 6 
#
# 1 72.7224 32.2759 11.7522 0.0000 2.6821 0.0000
# 2 32.2759 160.1521 38.8671 0.0000 -5.7026 0.0000
# 3 11.7522 38.8671 64.8837 0.0000 6.8057 0.0000
# 4 0.0000 0.0000 0.0000 -39.0608 0.0000 28.2625
# 5 2.6821 -5.7026 6.8057 0.0000 19.0532 0.0000
# 6 0.0000 0.0000 0.0000 28.2625 0.0000 17.4334
#
#
#
# Elastic Compliance Matrix: (Units=1/GPa)
#
#
# Indices 1 2 3 4 5 6 
#
# 1 0.015304 -0.003023 -0.000665 0.000000 -0.002822 0.000000
# 2 -0.003023 0.008193 -0.004843 0.000000 0.004608 0.000000
# 3 -0.000665 -0.004843 0.019299 0.000000 -0.008250 0.000000
# 4 0.000000 0.000000 0.000000 -0.011781 0.000000 0.019100
# 5 -0.002822 0.004608 -0.008250 0.000000 0.057208 0.000000
# 6 0.000000 0.000000 0.000000 0.019100 0.000000 0.026397
#
#
# Mechanical properties :
#
#
# Convention : Reuss Voigt Hill
#
# Bulk Modulus (GPa) = 38.86080 51.50540 45.18310
# Shear Modulus (GPa) = 35.64779 13.80936 24.72857
#
# Velocity S-wave (km/s) = 4.37584 2.72353 3.64455
# Velocity P-wave (km/s) = 6.81207 6.12828 6.47921
#
# Compressibility (1/GPa) = 0.02573287
#
# Stress axis : x y z
#
# Youngs Moduli (GPa) = 65.34102 122.05678 51.81533
#
# Poissons Ratio (x) = 0.36903 0.03445
# Poissons Ratio (y) = 0.19755 0.25097
# Poissons Ratio (z) = 0.04345 0.59118
#
# Static dielectric constant tensor:
#      x y z
#    x 1.610840 0.000000 0.069490 
#    y 0.000000 1.680370 0.000000 
#    z 0.069490 0.000000 1.667290 
# 
# From -- ./inp_files/30361.got.cif
#   From: 2010.05.17/outbox.cif.g08.bks.cpg/sg13_16_cif.got.tgz:30361.got - 2010.06.03 16:44:36.
