data_PCOD9230035
_publ_section_title
;
Structure prediction by ZEFSAII (Michael W. Deem and Ramdas Pophale) SiO2 
 PCOD9230035
Probable space group: P 2/C
;
_chemical_formula_sum "Si O2"
_cell_formula_units_Z 30
_cell_length_a 10.102755
_cell_length_b 9.236463
_cell_length_c 17.313639
_cell_angle_alpha 90.000000
_cell_angle_beta 52.574690
_cell_angle_gamma 90.000000
_cell_volume 1283.022751
_symmetry_space_group_name_H-M "P 2/C"
_symmetry_group_IT_number 13
_symmetry_cell_setting 'monoclinic'
loop_
_space_group_symop_operation_xyz
x,y,z
-x,y,1/2-z
-x,-y,-z
x,-y,1/2+z
loop_
_atom_site_type_symbol
_atom_site_label
_atom_site_fract_x
_atom_site_fract_y
_atom_site_fract_z
Si Si1 0.000000 0.086049 0.750000
Si Si2 0.118389 0.140141 0.319363
Si Si3 0.773882 0.625702 0.822765
Si Si4 0.550858 0.499035 0.650229
Si Si5 0.792387 0.679693 0.388403
Si Si6 0.486810 0.997224 0.667310
Si Si7 0.783764 0.234476 0.057334
Si Si8 0.571205 0.254639 0.522801
O O1 0.151739 0.198408 0.692030
O O2 0.003672 0.981925 0.822522
O O3 0.107101 0.291693 0.278538
O O4 0.306730 0.081409 0.233860
O O5 0.100390 0.171503 0.416271
O O6 0.612265 0.572135 0.830682
O O7 0.832751 0.479973 0.844734
O O8 0.713492 0.742103 0.908255
O O9 0.500000 0.433505 0.750000
O O10 0.690776 0.619029 0.616379
O O11 0.614337 0.377331 0.569809
O O12 0.862386 0.726068 0.446854
O O13 0.593413 0.689898 0.463342
O O14 0.500000 0.060207 0.750000
O O15 0.632890 0.879921 0.604045
O O16 0.521378 0.111872 0.587306
#
# Coordination Sequence:
#
# PCOD9230035 Si02
#       8
#     2   4   4   4   4   4   4   4
#     4  12  28  44  64  84 124 184 218 254 294 366
#     4  11  23  41  63  91 128 170 213 250 312 379
#     4  11  21  36  65  95 123 159 206 262 326 371
#     4  11  17  32  57  96 129 156 183 250 337 381
#     4  11  23  41  62  90 126 169 213 256 309 376
#     4  10  20  35  58  97 129 160 195 266 333 370
#     4  11  20  39  65  93 128 158 200 267 329 369
#     4  11  20  33  60 100 127 156 201 260 328 380
#
# _framework density 23.382280999999999
#
# number of rings (size 3 to 8) (size 9 to 14) (size 15 to 20)
#    0.000    1.067    6.667    1.600    1.867    2.133 
#    0.000    0.000    0.000    1.600    0.000    0.000 
#    0.000    0.000    0.000    0.000    0.000    0.000 
#
# Total GULP energy -167764.220632 kJ/mol
# GULP energy per Si atom -5592.140688 kJ/mol
# Density = 2.332906 g / cm^3
# Si number density = 23.382281 Si / 1000 Ang^3
#
#
#
# Elastic Constant Matrix: (Units=GPa)
#
#
# Indices 1 2 3 4 5 6 
#
# 1 44.9873 22.5380 19.0558 0.0000 15.4920 0.0000
# 2 22.5380 109.8220 28.7886 0.0000 19.8157 0.0000
# 3 19.0558 28.7886 86.3243 0.0000 28.7903 0.0000
# 4 0.0000 0.0000 0.0000 30.2479 0.0000 6.6372
# 5 15.4920 19.8157 28.7903 0.0000 38.9624 0.0000
# 6 0.0000 0.0000 0.0000 6.6372 0.0000 12.9196
#
#
#
# Elastic Compliance Matrix: (Units=1/GPa)
#
#
# Indices 1 2 3 4 5 6 
#
# 1 0.027633 -0.003717 -0.002424 0.000000 -0.007306 0.000000
# 2 -0.003717 0.010845 -0.001924 0.000000 -0.002616 0.000000
# 3 -0.002424 -0.001924 0.016074 0.000000 -0.009936 0.000000
# 4 0.000000 0.000000 0.000000 0.037260 0.000000 -0.019142
# 5 -0.007306 -0.002616 -0.009936 0.000000 0.037243 0.000000
# 6 0.000000 0.000000 0.000000 -0.019142 0.000000 0.087235
#
#
# Mechanical properties :
#
#
# Convention : Reuss Voigt Hill
#
# Bulk Modulus (GPa) = 26.02580 42.43316 34.22948
# Shear Modulus (GPa) = 20.38913 27.80940 24.09926
#
# Velocity S-wave (km/s) = 2.95615 3.45242 3.21388
# Velocity P-wave (km/s) = 4.77562 5.83774 5.33318
#
# Compressibility (1/GPa) = 0.03842341
#
# Stress axis : x y z
#
# Youngs Moduli (GPa) = 36.18808 92.20992 62.21046
#
# Poissons Ratio (x) = 0.34278 0.15077
# Poissons Ratio (y) = 0.13453 0.11967
# Poissons Ratio (z) = 0.08771 0.17737
#
# Static dielectric constant tensor:
#      x y z
#    x 1.951120 0.000000 0.015380 
#    y 0.000000 1.845210 0.000000 
#    z 0.015380 0.000000 1.857360 
# 
# From -- ./inp_files/66298.got.cif
#   From: 2010.05.17/outbox.cif.g08.bks.cpg/sg13_34_cif.got.tgz:66298.got - 2010.06.03 16:44:36.
