data_PCOD9230869
_publ_section_title
;
Structure prediction by ZEFSAII (Michael W. Deem and Ramdas Pophale) SiO2 
 PCOD9230869
Probable space group: P 2/C
;
_chemical_formula_sum "Si O2"
_cell_formula_units_Z 28
_cell_length_a 13.213990
_cell_length_b 9.370399
_cell_length_c 18.389743
_cell_angle_alpha 90.000000
_cell_angle_beta 144.971414
_cell_angle_gamma 90.000000
_cell_volume 1306.978078
_symmetry_space_group_name_H-M "P 2/C"
_symmetry_group_IT_number 13
_symmetry_cell_setting 'monoclinic'
loop_
_space_group_symop_operation_xyz
x,y,z
-x,y,1/2-z
-x,-y,-z
x,-y,1/2+z
loop_
_atom_site_type_symbol
_atom_site_label
_atom_site_fract_x
_atom_site_fract_y
_atom_site_fract_z
Si Si1 0.326112 0.387985 0.026173
Si Si2 0.671501 0.668647 0.395763
Si Si3 0.970712 0.668940 0.974236
Si Si4 0.955418 0.668460 0.321352
Si Si5 0.711038 0.399974 0.201874
Si Si6 0.344587 0.809935 0.956129
Si Si7 0.289235 0.131340 0.911821
O O1 0.333879 0.494461 0.099584
O O2 0.503133 0.430263 0.087781
O O3 0.327107 0.217237 0.009699
O O4 0.122830 0.412135 0.883810
O O5 0.500000 0.711761 0.250000
O O6 0.853835 0.716223 0.465688
O O7 0.656818 0.735061 0.466940
O O8 0.972109 0.724051 0.057639
O O9 0.000000 0.500000 0.000000
O O10 0.795549 0.679361 0.822042
O O11 0.807854 0.550040 0.249676
O O12 0.867721 0.794781 0.225109
O O13 0.742214 0.297950 0.152118
O O14 0.258408 0.965873 0.907461
O O15 0.539958 0.841407 0.038801
#
# Coordination Sequence:
#
# PCOD9230869 Si02
#       7
#     4   4   4   4   4   4   4
#     4  11  22  37  66  96 124 167 212 262 328 377
#     4  12  22  38  68  98 125 167 214 263 325 383
#     4  10  20  38  58  94 129 162 207 263 319 372
#     4  11  21  40  64  95 131 164 213 270 320 381
#     4  10  21  40  64  94 130 162 214 270 318 383
#     4  10  23  42  66  89 127 173 213 265 320 378
#     4  10  22  43  62  91 129 167 214 264 319 386
#
# _framework density 21.423466999999999
#
# number of rings (size 3 to 8) (size 9 to 14) (size 15 to 20)
#    0.000    1.429    2.857    4.714    0.000    2.857 
#    5.143    1.429    3.143    0.000    0.000    0.000 
#    0.000    0.000    0.000    0.000    0.000    0.000 
#
# Total GULP energy -156064.457587 kJ/mol
# GULP energy per Si atom -5573.730628 kJ/mol
# Density = 2.137471 g / cm^3
# Si number density = 21.423467 Si / 1000 Ang^3
#
#
#
# Elastic Constant Matrix: (Units=GPa)
#
#
# Indices 1 2 3 4 5 6 
#
# 1 103.3211 39.0837 50.1588 0.0000 -4.1130 0.0000
# 2 39.0837 83.8504 49.5021 0.0000 -10.0307 0.0000
# 3 50.1588 49.5021 125.9533 0.0000 -13.0540 0.0000
# 4 0.0000 0.0000 0.0000 14.1388 0.0000 7.5273
# 5 -4.1130 -10.0307 -13.0540 0.0000 46.5188 0.0000
# 6 0.0000 0.0000 0.0000 7.5273 0.0000 14.4256
#
#
#
# Elastic Compliance Matrix: (Units=1/GPa)
#
#
# Indices 1 2 3 4 5 6 
#
# 1 0.012924 -0.003944 -0.003673 0.000000 -0.000739 0.000000
# 2 -0.003944 0.016862 -0.004857 0.000000 0.001924 0.000000
# 3 -0.003673 -0.004857 0.011504 0.000000 0.001856 0.000000
# 4 0.000000 0.000000 0.000000 0.097933 0.000000 -0.051102
# 5 -0.000739 0.001924 0.001856 0.000000 0.022367 0.000000
# 6 0.000000 0.000000 0.000000 -0.051102 0.000000 0.095986
#
#
# Mechanical properties :
#
#
# Convention : Reuss Voigt Hill
#
# Bulk Modulus (GPa) = 61.19525 65.62380 63.40953
# Shear Modulus (GPa) = 17.36282 26.64199 22.00241
#
# Velocity S-wave (km/s) = 2.84994 3.53028 3.20820
# Velocity P-wave (km/s) = 6.28141 6.87862 6.58679
#
# Compressibility (1/GPa) = 0.01634114
#
# Stress axis : x y z
#
# Youngs Moduli (GPa) = 77.37328 59.30522 86.92927
#
# Poissons Ratio (x) = 0.23389 0.31933
# Poissons Ratio (y) = 0.30515 0.42222
# Poissons Ratio (z) = 0.28422 0.28805
#
# Static dielectric constant tensor:
#      x y z
#    x 1.875870 0.000000 -0.015890 
#    y 0.000000 1.761000 0.000000 
#    z -0.015890 0.000000 1.812750 
# 
# From -- ./inp_files/80001.got.cif
#   From: 2010.05.17/outbox.cif.g08.bks.cpg/sg13_41_cif.got.tgz:80001.got - 2010.06.03 16:44:36.
