data_PCOD9230053
_publ_section_title
;
Structure prediction by ZEFSAII (Michael W. Deem and Ramdas Pophale) SiO2 
 PCOD9230053
Probable space group: P 2/C
;
_chemical_formula_sum "Si O2"
_cell_formula_units_Z 28
_cell_length_a 10.125990
_cell_length_b 26.027425
_cell_length_c 8.999517
_cell_angle_alpha 90.000000
_cell_angle_beta 40.444322
_cell_angle_gamma 90.000000
_cell_volume 1538.642390
_symmetry_space_group_name_H-M "P 2/C"
_symmetry_group_IT_number 13
_symmetry_cell_setting 'monoclinic'
loop_
_space_group_symop_operation_xyz
x,y,z
-x,y,1/2-z
-x,-y,-z
x,-y,1/2+z
loop_
_atom_site_type_symbol
_atom_site_label
_atom_site_fract_x
_atom_site_fract_y
_atom_site_fract_z
Si Si1 0.535912 0.650495 0.544723
Si Si2 0.087268 0.660044 0.838007
Si Si3 0.830903 0.854742 0.265527
Si Si4 0.500000 0.091183 0.250000
Si Si5 0.835458 0.569646 0.158057
Si Si6 0.861154 0.739583 0.221324
Si Si7 0.000000 0.510591 0.750000
Si Si8 0.927141 0.948905 0.482049
O O1 0.500000 0.639305 0.750000
O O2 0.326799 0.662039 0.641816
O O3 0.641667 0.602694 0.371450
O O4 0.676012 0.701044 0.413017
O O5 0.000000 0.650999 0.750000
O O6 0.014748 0.612471 0.003254
O O7 0.991120 0.711996 0.983142
O O8 0.627008 0.875801 0.519918
O O9 0.799550 0.797553 0.231610
O O10 0.000000 0.847870 0.250000
O O11 0.942550 0.899101 0.072892
O O12 0.316888 0.060817 0.321394
O O13 0.877335 0.525580 0.241963
O O14 0.850585 0.544126 0.982189
O O15 0.000000 0.739975 0.250000
O O16 0.000000 0.954737 0.250000
O O17 0.000000 0.000000 0.500000
#
# Coordination Sequence:
#
# PCOD9230053 Si02
#       8
#     4   4   4   2   4   4   2   4
#     4  11  22  37  65  91 112 154 198 232 287 354
#     4  11  23  41  60  84 122 153 185 239 293 346
#     4   8  17  30  51  81 111 142 188 237 286 335
#     4   8  16  30  52  78 112 144 188 244 280 334
#     4  10  22  40  62  85 118 148 195 233 293 341
#     4  10  20  35  59  88 115 144 192 241 285 346
#     4  10  20  42  64  84 120 152 182 256 278 336
#     4   9  18  32  51  78 109 147 192 235 285 338
#
# _framework density 18.197862000000001
#
# number of rings (size 3 to 8) (size 9 to 14) (size 15 to 20)
#    0.000    2.571    2.143    0.857    3.000    5.714 
#    0.000    8.571    0.000    3.429    0.000    0.000 
#    0.000    0.000    0.000    0.000    0.000    0.000 
#
# Total GULP energy -155936.332165 kJ/mol
# GULP energy per Si atom -5569.154720 kJ/mol
# Density = 1.815644 g / cm^3
# Si number density = 18.197862 Si / 1000 Ang^3
#
#
#
# Elastic Constant Matrix: (Units=GPa)
#
#
# Indices 1 2 3 4 5 6 
#
# 1 74.4836 44.7862 55.0297 0.0000 -11.4648 0.0000
# 2 44.7862 159.9013 74.0208 0.0000 -2.0621 0.0000
# 3 55.0297 74.0208 121.8904 0.0000 -23.0819 0.0000
# 4 0.0000 0.0000 0.0000 10.5386 0.0000 8.4839
# 5 -11.4648 -2.0621 -23.0819 0.0000 31.9051 0.0000
# 6 0.0000 0.0000 0.0000 8.4839 0.0000 21.7529
#
#
#
# Elastic Compliance Matrix: (Units=1/GPa)
#
#
# Indices 1 2 3 4 5 6 
#
# 1 0.020693 -0.002229 -0.007657 0.000000 0.001752 0.000000
# 2 -0.002229 0.009351 -0.005457 0.000000 -0.004145 0.000000
# 3 -0.007657 -0.005457 0.016671 0.000000 0.008957 0.000000
# 4 0.000000 0.000000 0.000000 0.138316 0.000000 -0.053945
# 5 0.001752 -0.004145 0.008957 0.000000 0.038184 0.000000
# 6 0.000000 0.000000 0.000000 -0.053945 0.000000 0.067010
#
#
# Mechanical properties :
#
#
# Convention : Reuss Voigt Hill
#
# Bulk Modulus (GPa) = 62.38668 78.21653 70.30160
# Shear Modulus (GPa) = 15.32552 25.00189 20.16371
#
# Velocity S-wave (km/s) = 2.90515 3.71063 3.33231
# Velocity P-wave (km/s) = 6.75352 7.83791 7.31583
#
# Compressibility (1/GPa) = 0.01602906
#
# Stress axis : x y z
#
# Youngs Moduli (GPa) = 48.32663 106.94227 59.98441
#
# Poissons Ratio (x) = 0.23834 0.45929
# Poissons Ratio (y) = 0.10770 0.32735
# Poissons Ratio (z) = 0.37003 0.58360
#
# Static dielectric constant tensor:
#      x y z
#    x 1.618550 0.000000 0.005530 
#    y 0.000000 1.685610 0.000000 
#    z 0.005530 0.000000 1.633640 
# 
# From -- ./inp_files/13936.got.cif
#   From: 2010.05.17/outbox.cif.g08.bks.cpg/sg13_7_cif.got.tgz:13936.got - 2010.06.03 16:44:36.
