data_PCOD9230804
_publ_section_title
;
Structure prediction by ZEFSAII (Michael W. Deem and Ramdas Pophale) SiO2 
 PCOD9230804
Probable space group: P 2/C
;
_chemical_formula_sum "Si O2"
_cell_formula_units_Z 26
_cell_length_a 8.999755
_cell_length_b 16.865551
_cell_length_c 13.648972
_cell_angle_alpha 90.000000
_cell_angle_beta 33.650621
_cell_angle_gamma 90.000000
_cell_volume 1147.996726
_symmetry_space_group_name_H-M "P 2/C"
_symmetry_group_IT_number 13
_symmetry_cell_setting 'monoclinic'
loop_
_space_group_symop_operation_xyz
x,y,z
-x,y,1/2-z
-x,-y,-z
x,-y,1/2+z
loop_
_atom_site_type_symbol
_atom_site_label
_atom_site_fract_x
_atom_site_fract_y
_atom_site_fract_z
Si Si1 0.601567 0.345029 0.044696
Si Si2 0.000000 0.466886 0.750000
Si Si3 0.729785 0.680825 0.961012
Si Si4 0.765390 0.155304 0.542163
Si Si5 0.784730 0.815149 0.540761
Si Si6 0.077398 0.568830 0.881157
Si Si7 0.779002 0.013183 0.037443
O O1 0.508777 0.336458 0.982297
O O2 0.754508 0.265255 0.995178
O O3 0.331713 0.370934 0.253994
O O4 0.813705 0.415329 0.922484
O O5 0.161130 0.522645 0.735662
O O6 0.000000 0.678458 0.750000
O O7 0.808266 0.620081 0.004845
O O8 0.707405 0.770462 0.007018
O O9 0.500000 0.143034 0.750000
O O10 0.804118 0.070490 0.467126
O O11 0.996768 0.181518 0.491823
O O12 0.500000 0.818128 0.750000
O O13 0.819289 0.900417 0.467077
O O14 0.000000 0.500000 0.000000
O O15 0.500000 0.017744 0.250000
O O16 0.000000 0.000000 0.000000
#
# Coordination Sequence:
#
# PCOD9230804 Si02
#       7
#     4   2   4   4   4   4   4
#     4  11  25  42  64  93 132 166 213 281 334 397
#     4  12  26  44  62  92 138 164 212 274 344 386
#     4  10  22  43  59  88 132 169 209 269 338 388
#     4  10  21  37  64  95 127 167 225 271 326 394
#     4  10  20  37  66  95 125 172 226 265 329 399
#     4  11  25  45  69  93 125 178 228 275 339 405
#     4   8  16  33  57  91 127 163 212 278 318 381
#
# _framework density 22.648147999999999
#
# number of rings (size 3 to 8) (size 9 to 14) (size 15 to 20)
#    0.000    1.846    2.308    2.308    6.462    0.000 
#    0.000    0.769    1.692    0.000    0.000    0.000 
#    0.000    0.000    0.000    0.000    0.000    0.000 
#
# Total GULP energy -144891.164065 kJ/mol
# GULP energy per Si atom -5572.737079 kJ/mol
# Density = 2.259660 g / cm^3
# Si number density = 22.648148 Si / 1000 Ang^3
#
#
#
# Elastic Constant Matrix: (Units=GPa)
#
#
# Indices 1 2 3 4 5 6 
#
# 1 73.1736 38.5593 6.5986 0.0000 -15.4521 0.0000
# 2 38.5593 192.9344 0.0356 0.0000 17.6207 0.0000
# 3 6.5986 0.0356 37.6356 0.0000 -11.9704 0.0000
# 4 0.0000 0.0000 0.0000 3.8613 0.0000 -51.8687
# 5 -15.4521 17.6207 -11.9704 0.0000 29.8455 0.0000
# 6 0.0000 0.0000 0.0000 -51.8687 0.0000 -55.9388
#
#
#
# Elastic Compliance Matrix: (Units=1/GPa)
#
#
# Indices 1 2 3 4 5 6 
#
# 1 0.018992 -0.004994 0.000848 0.000000 0.013122 0.000000
# 2 -0.004994 0.006838 -0.001418 0.000000 -0.007192 0.000000
# 3 0.000848 -0.001418 0.030752 0.000000 0.013611 0.000000
# 4 0.000000 0.000000 0.000000 0.019247 0.000000 -0.017847
# 5 0.013122 -0.007192 0.013611 0.000000 0.050005 0.000000
# 6 0.000000 0.000000 0.000000 -0.017847 0.000000 -0.001329
#
#
# Mechanical properties :
#
#
# Convention : Reuss Voigt Hill
#
# Bulk Modulus (GPa) = 22.00002 43.79228 32.89615
# Shear Modulus (GPa) = 33.15951 12.79026 22.97489
#
# Velocity S-wave (km/s) = 3.83053 2.37900 3.18846
# Velocity P-wave (km/s) = 5.41284 5.18884 5.30202
#
# Compressibility (1/GPa) = 0.04545450
#
# Stress axis : x y z
#
# Youngs Moduli (GPa) = 52.65252 146.23365 32.51803
#
# Poissons Ratio (x) = 0.73034 -0.02759
# Poissons Ratio (y) = 0.26297 0.04612
# Poissons Ratio (z) = -0.04467 0.20740
#
# Static dielectric constant tensor:
#      x y z
#    x 1.849500 0.000000 0.088530 
#    y 0.000000 2.013740 0.000000 
#    z 0.088530 0.000000 1.724900 
# 
# From -- ./inp_files/47887.got.cif
#   From: 2010.05.17/outbox.cif.g08.bks.cpg/sg13_24_cif.got.tgz:47887.got - 2010.06.03 16:44:36.
