data_PCOD9230957
_publ_section_title
;
Structure prediction by ZEFSAII (Michael W. Deem and Ramdas Pophale) SiO2 
 PCOD9230957
Probable space group: P 2/C
;
_chemical_formula_sum "Si O2"
_cell_formula_units_Z 26
_cell_length_a 19.760888
_cell_length_b 7.537474
_cell_length_c 14.225670
_cell_angle_alpha 90.000000
_cell_angle_beta 145.386594
_cell_angle_gamma 90.000000
_cell_volume 1203.597075
_symmetry_space_group_name_H-M "P 2/C"
_symmetry_group_IT_number 13
_symmetry_cell_setting 'monoclinic'
loop_
_space_group_symop_operation_xyz
x,y,z
-x,y,1/2-z
-x,-y,-z
x,-y,1/2+z
loop_
_atom_site_type_symbol
_atom_site_label
_atom_site_fract_x
_atom_site_fract_y
_atom_site_fract_z
Si Si1 0.562564 0.278775 0.522856
Si Si2 0.500000 0.784932 0.250000
Si Si3 0.053350 0.118334 0.413411
Si Si4 0.632044 0.084912 0.074384
Si Si5 0.114184 0.507411 0.449183
Si Si6 0.881224 0.782558 0.888397
Si Si7 0.376432 0.499994 0.726868
O O1 0.452282 0.171019 0.443339
O O2 0.614392 0.418335 0.656714
O O3 0.494874 0.376477 0.360666
O O4 0.657888 0.123562 0.615754
O O5 0.442091 0.902398 0.104762
O O6 0.598501 0.659448 0.315314
O O7 0.129482 0.295608 0.480577
O O8 0.000000 0.069811 0.250000
O O9 0.959790 0.183238 0.386105
O O10 0.108576 0.945030 0.524988
O O11 0.746106 0.208335 0.200122
O O12 0.089742 0.607606 0.519114
O O13 0.243897 0.576352 0.561970
O O14 0.000000 0.532715 0.250000
#
# Coordination Sequence:
#
# PCOD9230957 Si02
#       7
#     4   2   4   4   4   4   4
#     4   9  19  38  62  87 116 163 209 254 324 381
#     4  10  24  36  58  92 126 158 206 270 322 380
#     4  10  24  42  62  93 130 169 219 267 323 384
#     4  10  20  38  61  88 118 162 206 259 325 381
#     4  11  23  40  67  97 128 178 218 267 323 391
#     4  11  22  43  64  93 129 171 217 271 320 395
#     4  10  20  40  60  90 129 161 212 269 316 389
#
# _framework density 21.601913
#
# number of rings (size 3 to 8) (size 9 to 14) (size 15 to 20)
#    0.000    1.846    1.538    1.846    4.308    0.615 
#    0.000    4.615    0.000    0.000    0.000    0.000 
#    0.000    0.000    0.000    0.000    0.000    0.000 
#
# Total GULP energy -145001.130351 kJ/mol
# GULP energy per Si atom -5576.966552 kJ/mol
# Density = 2.155275 g / cm^3
# Si number density = 21.601913 Si / 1000 Ang^3
#
#
#
# Elastic Constant Matrix: (Units=GPa)
#
#
# Indices 1 2 3 4 5 6 
#
# 1 39.4024 -5.2599 16.1910 0.0000 -13.5096 0.0000
# 2 -5.2599 56.1837 3.3504 0.0000 -12.0379 0.0000
# 3 16.1910 3.3504 66.4397 0.0000 1.2302 0.0000
# 4 0.0000 0.0000 0.0000 0.3618 0.0000 20.6272
# 5 -13.5096 -12.0379 1.2302 0.0000 30.6694 0.0000
# 6 0.0000 0.0000 0.0000 20.6272 0.0000 -8.7108
#
#
#
# Elastic Compliance Matrix: (Units=1/GPa)
#
#
# Indices 1 2 3 4 5 6 
#
# 1 0.037537 0.008446 -0.009948 0.000000 0.020249 0.000000
# 2 0.008446 0.021417 -0.003365 0.000000 0.012262 0.000000
# 3 -0.009948 -0.003365 0.017764 0.000000 -0.006416 0.000000
# 4 0.000000 0.000000 0.000000 0.020322 0.000000 0.048123
# 5 0.020249 0.012262 -0.006416 0.000000 0.046596 0.000000
# 6 0.000000 0.000000 0.000000 0.048123 0.000000 -0.000844
#
#
# Mechanical properties :
#
#
# Convention : Reuss Voigt Hill
#
# Bulk Modulus (GPa) = 14.92909 21.17652 18.05281
# Shear Modulus (GPa) = 28.59505 14.31372 21.45438
#
# Velocity S-wave (km/s) = 3.64225 2.57692 3.15488
# Velocity P-wave (km/s) = 4.96125 4.32185 4.65255
#
# Compressibility (1/GPa) = 0.06698330
#
# Stress axis : x y z
#
# Youngs Moduli (GPa) = 26.64026 46.69099 56.29327
#
# Poissons Ratio (x) = -0.39435 0.56003
# Poissons Ratio (y) = -0.22501 0.18944
# Poissons Ratio (z) = 0.26503 0.15713
#
# Static dielectric constant tensor:
#      x y z
#    x 1.807160 0.000000 0.004460 
#    y 0.000000 1.886750 0.000000 
#    z 0.004460 0.000000 1.812910 
# 
# From -- ./inp_files/57338.got.cif
#   From: 2010.05.17/outbox.cif.g08.bks.cpg/sg13_29_cif.got.tgz:57338.got - 2010.06.03 16:44:36.
