data_PCOD9230668
_publ_section_title
;
Structure prediction by ZEFSAII (Michael W. Deem and Ramdas Pophale) SiO2 
 PCOD9230668
Probable space group: P 2/C
;
_chemical_formula_sum "Si O2"
_cell_formula_units_Z 24
_cell_length_a 9.975339
_cell_length_b 11.767725
_cell_length_c 10.535263
_cell_angle_alpha 90.000000
_cell_angle_beta 125.170982
_cell_angle_gamma 90.000000
_cell_volume 1010.926790
_symmetry_space_group_name_H-M "P 2/C"
_symmetry_group_IT_number 13
_symmetry_cell_setting 'monoclinic'
loop_
_space_group_symop_operation_xyz
x,y,z
-x,y,1/2-z
-x,-y,-z
x,-y,1/2+z
loop_
_atom_site_type_symbol
_atom_site_label
_atom_site_fract_x
_atom_site_fract_y
_atom_site_fract_z
Si Si1 0.919926 0.878756 0.429483
Si Si2 0.196969 0.510608 0.624565
Si Si3 0.683780 0.146664 0.584714
Si Si4 0.344379 0.895224 0.006522
Si Si5 0.799111 0.614178 0.129685
Si Si6 0.138487 0.260637 0.217088
O O1 0.850238 0.874559 0.252208
O O2 0.765371 0.858979 0.436535
O O3 0.047752 0.784783 0.542526
O O4 0.000000 0.000000 0.500000
O O5 0.251126 0.524342 0.507939
O O6 0.253532 0.414294 0.753991
O O7 0.227636 0.625633 0.722127
O O8 0.000000 0.500000 0.500000
O O9 0.527855 0.148008 0.593050
O O10 0.712646 0.268938 0.541303
O O11 0.653899 0.032618 0.488448
O O12 0.250344 0.840404 0.833946
O O13 0.000000 0.620459 0.250000
O O14 0.000000 0.285202 0.250000
#
# Coordination Sequence:
#
# PCOD9230668 Si02
#       6
#     4   4   4   4   4   4
#     4  11  21  35  62  91 124 166 222 268 318 398
#     4  10  20  38  61  98 128 167 224 291 336 386
#     4  11  23  40  60  90 133 175 210 266 335 405
#     4  10  24  39  57  92 134 171 210 266 339 399
#     4  10  22  37  67  95 129 173 227 285 333 399
#     4  10  20  37  61  90 125 167 217 278 326 392
#
# _framework density 23.740593000000001
#
# number of rings (size 3 to 8) (size 9 to 14) (size 15 to 20)
#    0.000    1.667    1.667    4.000    4.667    1.333 
#    0.000    1.667    0.000    4.000    0.000    0.000 
#    0.000    0.000    0.000    0.000    0.000    0.000 
#
# Total GULP energy -134061.111373 kJ/mol
# GULP energy per Si atom -5585.879641 kJ/mol
# Density = 2.368656 g / cm^3
# Si number density = 23.740593 Si / 1000 Ang^3
#
#
#
# Elastic Constant Matrix: (Units=GPa)
#
#
# Indices 1 2 3 4 5 6 
#
# 1 82.3953 20.3768 34.1372 0.0000 -2.6017 0.0000
# 2 20.3768 71.9340 13.9165 0.0000 -5.8518 0.0000
# 3 34.1372 13.9165 71.1030 0.0000 -7.3132 0.0000
# 4 0.0000 0.0000 0.0000 20.9546 0.0000 -3.7504
# 5 -2.6017 -5.8518 -7.3132 0.0000 20.5198 0.0000
# 6 0.0000 0.0000 0.0000 -3.7504 0.0000 22.0458
#
#
#
# Elastic Compliance Matrix: (Units=1/GPa)
#
#
# Indices 1 2 3 4 5 6 
#
# 1 0.015840 -0.003227 -0.007122 0.000000 -0.001450 0.000000
# 2 -0.003227 0.015316 -0.001081 0.000000 0.003573 0.000000
# 3 -0.007122 -0.001081 0.018239 0.000000 0.005289 0.000000
# 4 0.000000 0.000000 0.000000 0.049221 0.000000 0.008373
# 5 -0.001450 0.003573 0.005289 0.000000 0.051454 0.000000
# 6 0.000000 0.000000 0.000000 0.008373 0.000000 0.046785
#
#
# Mechanical properties :
#
#
# Convention : Reuss Voigt Hill
#
# Bulk Modulus (GPa) = 37.68727 40.25479 38.97103
# Shear Modulus (GPa) = 21.87623 23.17082 22.52353
#
# Velocity S-wave (km/s) = 3.03886 3.12749 3.08350
# Velocity P-wave (km/s) = 5.31244 5.48037 5.39706
#
# Compressibility (1/GPa) = 0.02653416
#
# Stress axis : x y z
#
# Youngs Moduli (GPa) = 63.13229 65.29317 54.82705
#
# Poissons Ratio (x) = 0.21070 0.39050
# Poissons Ratio (y) = 0.20373 0.05925
# Poissons Ratio (z) = 0.44965 0.07057
#
# Static dielectric constant tensor:
#      x y z
#    x 1.911210 0.000000 -0.066330 
#    y 0.000000 1.969590 0.000000 
#    z -0.066330 0.000000 1.839510 
# 
# From -- ./inp_files/33922.got.cif
#   From: 2010.05.17/outbox.cif.g08.bks.cpg/sg13_17_cif.got.tgz:33922.got - 2010.06.03 16:44:36.
