data_PCOD9230232
_publ_section_title
;
Structure prediction by ZEFSAII (Michael W. Deem and Ramdas Pophale) SiO2 
 PCOD9230232
Probable space group: P 2/C
;
_chemical_formula_sum "Si O2"
_cell_formula_units_Z 32
_cell_length_a 26.270443
_cell_length_b 5.302450
_cell_length_c 14.120183
_cell_angle_alpha 90.000000
_cell_angle_beta 142.252707
_cell_angle_gamma 90.000000
_cell_volume 1204.102299
_symmetry_space_group_name_H-M "P 2/C"
_symmetry_group_IT_number 13
_symmetry_cell_setting 'monoclinic'
loop_
_space_group_symop_operation_xyz
x,y,z
-x,y,1/2-z
-x,-y,-z
x,-y,1/2+z
loop_
_atom_site_type_symbol
_atom_site_label
_atom_site_fract_x
_atom_site_fract_y
_atom_site_fract_z
Si Si1 0.657643 0.151859 0.365222
Si Si2 0.995496 0.731796 0.359469
Si Si3 0.794175 0.394724 0.897945
Si Si4 0.574749 0.417969 0.407438
Si Si5 0.230182 0.654394 0.951112
Si Si6 0.915147 0.230020 0.929128
Si Si7 0.263727 0.239880 0.313636
Si Si8 0.629645 0.877758 0.140862
O O1 0.590896 0.220533 0.346490
O O2 0.722383 0.386613 0.465561
O O3 0.707698 0.897014 0.461978
O O4 0.616569 0.084645 0.202744
O O5 0.035986 0.468077 0.452954
O O6 0.000000 0.739892 0.250000
O O7 0.915259 0.752942 0.314386
O O8 0.044726 0.973956 0.472269
O O9 0.835396 0.334306 0.058955
O O10 0.828431 0.249729 0.857840
O O11 0.784785 0.682691 0.853610
O O12 0.700332 0.309232 0.783030
O O13 0.500000 0.577804 0.250000
O O14 0.661303 0.563074 0.551550
O O15 0.559598 0.285810 0.486755
O O16 0.196705 0.703529 0.796586
O O17 0.320495 0.006381 0.371606
#
# Coordination Sequence:
#
# PCOD9230232 Si02
#       8
#     4   4   4   4   4   4   4   4
#     4  10  20  37  58  81 112 150 190 242 304 356
#     4  10  22  44  65  89 134 171 204 252 307 352
#     4  10  22  37  60  92 121 152 203 250 299 358
#     4  10  22  38  57  83 114 154 204 248 296 365
#     4  10  20  36  58  83 117 153 187 242 302 356
#     4  10  23  40  64  97 126 166 212 256 297 368
#     4  10  20  38  57  83 119 158 192 249 309 354
#     4  10  20  38  59  79 119 153 188 251 306 353
#
# _framework density 26.575814999999999
#
# number of rings (size 3 to 8) (size 9 to 14) (size 15 to 20)
#    0.000    2.000    2.500    0.375    1.750    2.000 
#    2.250    0.625    0.000    0.000    0.000    0.000 
#    0.000    0.000    0.000    0.000    0.000    0.000 
#
# Total GULP energy -178251.722643 kJ/mol
# GULP energy per Si atom -5570.366333 kJ/mol
# Density = 2.651533 g / cm^3
# Si number density = 26.575815 Si / 1000 Ang^3
#
#
#
# Elastic Constant Matrix: (Units=GPa)
#
#
# Indices 1 2 3 4 5 6 
#
# 1 107.9578 -1.3845 35.4825 0.0000 -36.9456 0.0000
# 2 -1.3845 111.2928 22.5184 0.0000 -4.3380 0.0000
# 3 35.4825 22.5184 71.6507 0.0000 -24.3202 0.0000
# 4 0.0000 0.0000 0.0000 25.3412 0.0000 -13.9488
# 5 -36.9456 -4.3380 -24.3202 0.0000 50.0877 0.0000
# 6 0.0000 0.0000 0.0000 -13.9488 0.0000 24.5522
#
#
#
# Elastic Compliance Matrix: (Units=1/GPa)
#
#
# Indices 1 2 3 4 5 6 
#
# 1 0.013425 0.001365 -0.004401 0.000000 0.007884 0.000000
# 2 0.001365 0.009758 -0.003729 0.000000 0.000041 0.000000
# 3 -0.004401 -0.003729 0.019273 0.000000 0.005789 0.000000
# 4 0.000000 0.000000 0.000000 0.057417 0.000000 0.032620
# 5 0.007884 0.000041 0.005789 0.000000 0.028594 0.000000
# 6 0.000000 0.000000 0.000000 0.032620 0.000000 0.059262
#
#
# Mechanical properties :
#
#
# Convention : Reuss Voigt Hill
#
# Bulk Modulus (GPa) = 34.57116 44.90382 39.73749
# Shear Modulus (GPa) = 23.70781 35.61522 29.66152
#
# Velocity S-wave (km/s) = 2.99001 3.66476 3.34445
# Velocity P-wave (km/s) = 4.99570 5.90258 5.46797
#
# Compressibility (1/GPa) = 0.02892585
#
# Stress axis : x y z
#
# Youngs Moduli (GPa) = 74.48852 102.47649 51.88660
#
# Poissons Ratio (x) = -0.13986 0.22836
# Poissons Ratio (y) = -0.10166 0.19347
# Poissons Ratio (z) = 0.32784 0.38210
#
# Static dielectric constant tensor:
#      x y z
#    x 2.305900 0.000000 -0.154220 
#    y 0.000000 2.102270 0.000000 
#    z -0.154220 0.000000 2.341480 
# 
# From -- ./inp_files/59768.got.cif
#   From: 2010.05.17/outbox.cif.g08.bks.cpg/sg13_30_cif.got.tgz:59768.got - 2010.06.03 16:44:36.
