data_PCOD9230566
_publ_section_title
;
Structure prediction by ZEFSAII (Michael W. Deem and Ramdas Pophale) SiO2 
 PCOD9230566
Probable space group: P 2/C
;
_chemical_formula_sum "Si O2"
_cell_formula_units_Z 30
_cell_length_a 17.228652
_cell_length_b 5.282820
_cell_length_c 20.699945
_cell_angle_alpha 90.000000
_cell_angle_beta 140.794249
_cell_angle_gamma 90.000000
_cell_volume 1190.904568
_symmetry_space_group_name_H-M "P 2/C"
_symmetry_group_IT_number 13
_symmetry_cell_setting 'monoclinic'
loop_
_space_group_symop_operation_xyz
x,y,z
-x,y,1/2-z
-x,-y,-z
x,-y,1/2+z
loop_
_atom_site_type_symbol
_atom_site_label
_atom_site_fract_x
_atom_site_fract_y
_atom_site_fract_z
Si Si1 0.176629 0.991924 0.920441
Si Si2 0.412401 0.253161 0.077508
Si Si3 0.848198 0.728654 0.717792
Si Si4 0.808662 0.078638 0.798843
Si Si5 0.269301 0.620538 0.079225
Si Si6 0.029666 0.353079 0.909590
Si Si7 0.500000 0.108714 0.750000
Si Si8 0.331600 0.416139 0.306164
O O1 0.080815 0.203109 0.879665
O O2 0.130697 0.774595 0.843197
O O3 0.303658 0.098117 0.973383
O O4 0.210241 0.870530 0.010937
O O5 0.338174 0.472419 0.066251
O O6 0.465900 0.069286 0.168005
O O7 0.526331 0.359149 0.111396
O O8 0.716823 0.607537 0.651264
O O9 0.945159 0.575155 0.824273
O O10 0.836364 0.006950 0.741861
O O11 0.715495 0.309717 0.745023
O O12 0.943363 0.189177 0.902099
O O13 0.744961 0.814475 0.778867
O O14 0.385154 0.713408 0.194716
O O15 0.151970 0.457278 0.023842
#
# Coordination Sequence:
#
# PCOD9230566 Si02
#       8
#     4   4   4   4   4   4   2   4
#     4  10  22  36  58  94 128 169 215 260 312 362
#     4  10  22  40  62  92 124 162 211 267 320 379
#     4   9  21  38  56  94 129 174 208 249 304 370
#     4   9  20  37  59  87 124 174 212 246 303 366
#     4  10  22  37  63  92 119 162 205 271 324 371
#     4  10  20  37  58  90 130 166 214 260 306 372
#     4  10  22  42  64  92 120 152 210 266 338 378
#     4   9  21  38  62  88 127 177 210 255 307 379
#
# _framework density 25.190933000000001
#
# number of rings (size 3 to 8) (size 9 to 14) (size 15 to 20)
#    0.800    1.600    0.000    1.200    3.733    8.000 
#    0.000    1.333    0.000    4.000    0.000    0.000 
#    0.000    0.000    0.000    0.000    0.000    0.000 
#
# Total GULP energy -167344.531122 kJ/mol
# GULP energy per Si atom -5578.151037 kJ/mol
# Density = 2.513360 g / cm^3
# Si number density = 25.190933 Si / 1000 Ang^3
#
#
#
# Elastic Constant Matrix: (Units=GPa)
#
#
# Indices 1 2 3 4 5 6 
#
# 1 38.8831 6.2960 32.5758 0.0000 11.8423 0.0000
# 2 6.2960 112.7517 30.4208 0.0000 5.0686 0.0000
# 3 32.5758 30.4208 94.8484 0.0000 27.4852 0.0000
# 4 0.0000 0.0000 0.0000 -127.4285 0.0000 -87.3084
# 5 11.8423 5.0686 27.4852 0.0000 31.8818 0.0000
# 6 0.0000 0.0000 0.0000 -87.3084 0.0000 -49.9117
#
#
#
# Elastic Compliance Matrix: (Units=1/GPa)
#
#
# Indices 1 2 3 4 5 6 
#
# 1 0.036611 0.001350 -0.012003 0.000000 -0.003466 0.000000
# 2 0.001350 0.009815 -0.004018 0.000000 0.001402 0.000000
# 3 -0.012003 -0.004018 0.019298 0.000000 -0.011540 0.000000
# 4 0.000000 0.000000 0.000000 0.039532 0.000000 -0.069151
# 5 -0.003466 0.001402 -0.011540 0.000000 0.042379 0.000000
# 6 0.000000 0.000000 0.000000 -0.069151 0.000000 0.100928
#
#
# Mechanical properties :
#
#
# Convention : Reuss Voigt Hill
#
# Bulk Modulus (GPa) = 27.48566 42.78535 35.13550
# Shear Modulus (GPa) = 17.23959 -17.27898 -0.01969
#
# Velocity S-wave (km/s) = 2.61886 -2.62185 -0.08851
# Velocity P-wave (km/s) = 4.48098 2.80283 3.73731
#
# Compressibility (1/GPa) = 0.03638261
#
# Stress axis : x y z
#
# Youngs Moduli (GPa) = 27.31437 101.88858 51.81880
#
# Poissons Ratio (x) = -0.13753 0.62196
# Poissons Ratio (y) = -0.03687 0.20819
# Poissons Ratio (z) = 0.32784 0.40936
#
# Static dielectric constant tensor:
#      x y z
#    x 2.067010 0.000000 -0.020470 
#    y 0.000000 2.070340 0.000000 
#    z -0.020470 0.000000 2.033420 
# 
# From -- ./inp_files/93425.got.cif
#   From: 2010.05.17/outbox.cif.g08.bks.cpg/sg13_47_cif.got.tgz:93425.got - 2010.06.03 16:44:36.
