data_PCOD9230528
_publ_section_title
;
Structure prediction by ZEFSAII (Michael W. Deem and Ramdas Pophale) SiO2 
 PCOD9230528
Probable space group: P 2/C
;
_chemical_formula_sum "Si O2"
_cell_formula_units_Z 26
_cell_length_a 8.995253
_cell_length_b 5.473661
_cell_length_c 28.861444
_cell_angle_alpha 90.000000
_cell_angle_beta 116.852774
_cell_angle_gamma 90.000000
_cell_volume 1267.818317
_symmetry_space_group_name_H-M "P 2/C"
_symmetry_group_IT_number 13
_symmetry_cell_setting 'monoclinic'
loop_
_space_group_symop_operation_xyz
x,y,z
-x,y,1/2-z
-x,-y,-z
x,-y,1/2+z
loop_
_atom_site_type_symbol
_atom_site_label
_atom_site_fract_x
_atom_site_fract_y
_atom_site_fract_z
Si Si1 0.438597 0.596074 0.697603
Si Si2 0.000000 0.074045 0.250000
Si Si3 0.905999 0.458463 0.887461
Si Si4 0.693493 0.749460 0.197266
Si Si5 0.866837 0.956358 0.941199
Si Si6 0.494415 0.886328 0.888170
Si Si7 0.839133 0.626296 0.649015
O O1 0.500000 0.751428 0.750000
O O2 0.251158 0.503699 0.668479
O O3 0.570564 0.375948 0.715331
O O4 0.469637 0.737274 0.654084
O O5 0.040006 0.188396 0.306555
O O6 0.173870 0.937424 0.264942
O O7 0.880218 0.196728 0.909428
O O8 0.071410 0.485292 0.879847
O O9 0.904490 0.696594 0.921238
O O10 0.802193 0.549427 0.186723
O O11 0.579922 0.861566 0.140707
O O12 0.677524 0.930440 0.934452
O O13 0.000000 0.000000 0.000000
O O14 0.337891 0.750322 0.890139
#
# Coordination Sequence:
#
# PCOD9230528 Si02
#       7
#     4   2   4   4   4   4   4
#     4  10  22  35  57  89 131 169 216 259 317 385
#     4  10  22  34  58  84 126 182 220 242 320 392
#     4  11  25  42  67 102 127 165 226 277 318 402
#     4  10  20  37  56  79 127 175 211 253 318 377
#     4  11  24  48  72  93 125 171 219 283 347 392
#     4   9  21  42  58  89 126 174 209 267 332 395
#     4  10  23  38  60  92 134 170 219 270 327 380
#
# _framework density 20.507669
#
# number of rings (size 3 to 8) (size 9 to 14) (size 15 to 20)
#    0.000    1.846    1.538    0.923   12.923    0.615 
#    0.000    1.538    0.000    0.000    0.000    0.000 
#    0.000    0.000    0.000    0.000    0.000    0.000 
#
# Total GULP energy -144839.825771 kJ/mol
# GULP energy per Si atom -5570.762530 kJ/mol
# Density = 2.046099 g / cm^3
# Si number density = 20.507669 Si / 1000 Ang^3
#
#
#
# Elastic Constant Matrix: (Units=GPa)
#
#
# Indices 1 2 3 4 5 6 
#
# 1 94.0169 1.1465 25.4427 0.0000 13.1022 0.0000
# 2 1.1465 50.2853 5.3474 0.0000 -0.6972 0.0000
# 3 25.4427 5.3474 85.3577 0.0000 33.5107 0.0000
# 4 0.0000 0.0000 0.0000 -0.3301 0.0000 -13.8552
# 5 13.1022 -0.6972 33.5107 0.0000 27.8490 0.0000
# 6 0.0000 0.0000 0.0000 -13.8552 0.0000 -15.3934
#
#
#
# Elastic Compliance Matrix: (Units=1/GPa)
#
#
# Indices 1 2 3 4 5 6 
#
# 1 0.011659 -0.000034 -0.002500 0.000000 -0.002477 0.000000
# 2 -0.000034 0.020236 -0.002772 0.000000 0.003859 0.000000
# 3 -0.002500 -0.002772 0.023123 0.000000 -0.026717 0.000000
# 4 0.000000 0.000000 0.000000 0.082369 0.000000 -0.074138
# 5 -0.002477 0.003859 -0.026717 0.000000 0.069319 0.000000
# 6 0.000000 0.000000 0.000000 -0.074138 0.000000 0.001767
#
#
# Mechanical properties :
#
#
# Convention : Reuss Voigt Hill
#
# Bulk Modulus (GPa) = 22.52076 32.61478 27.56777
# Shear Modulus (GPa) = 21.37780 15.60666 18.49223
#
# Velocity S-wave (km/s) = 3.23217 2.76164 3.00613
# Velocity P-wave (km/s) = 4.99347 5.10951 5.05182
#
# Compressibility (1/GPa) = 0.04440348
#
# Stress axis : x y z
#
# Youngs Moduli (GPa) = 85.77299 49.41773 43.24615
#
# Poissons Ratio (x) = 0.00169 0.10814
# Poissons Ratio (y) = 0.00294 0.11990
# Poissons Ratio (z) = 0.21447 0.13701
#
# Static dielectric constant tensor:
#      x y z
#    x 12.988000 0.000000 7.177470 
#    y 0.000000 1.830510 0.000000 
#    z 7.177470 0.000000 6.366650 
# 
# From -- ./inp_files/84364.got.cif
#   From: 2010.05.17/outbox.cif.g08.bks.cpg/sg13_43_cif.got.tgz:84364.got - 2010.06.03 16:44:36.
