data_PCOD9230613
_publ_section_title
;
Structure prediction by ZEFSAII (Michael W. Deem and Ramdas Pophale) SiO2 
 PCOD9230613
Probable space group: P 2/C
;
_chemical_formula_sum "Si O2"
_cell_formula_units_Z 18
_cell_length_a 16.409971
_cell_length_b 7.374382
_cell_length_c 21.065850
_cell_angle_alpha 90.000000
_cell_angle_beta 19.153802
_cell_angle_gamma 90.000000
_cell_volume 836.421889
_symmetry_space_group_name_H-M "P 2/C"
_symmetry_group_IT_number 13
_symmetry_cell_setting 'monoclinic'
loop_
_space_group_symop_operation_xyz
x,y,z
-x,y,1/2-z
-x,-y,-z
x,-y,1/2+z
loop_
_atom_site_type_symbol
_atom_site_label
_atom_site_fract_x
_atom_site_fract_y
_atom_site_fract_z
Si Si1 0.501970 0.657937 0.074228
Si Si2 0.951265 0.691348 0.502372
Si Si3 0.500000 0.799325 0.750000
Si Si4 0.712817 0.023030 0.476343
Si Si5 0.384306 0.755962 0.645909
O O1 0.495148 0.440811 0.086877
O O2 0.217802 0.729071 0.275253
O O3 0.655469 0.714525 0.898553
O O4 0.616982 0.770601 0.046813
O O5 0.724173 0.692920 0.619921
O O6 0.853356 0.804101 0.635438
O O7 0.000000 0.500000 0.500000
O O8 0.630829 0.921662 0.600286
O O9 0.576449 0.913020 0.520136
O O10 0.000000 0.017015 0.250000
#
# Coordination Sequence:
#
# PCOD9230613 Si02
#       5
#     4   4   2   4   4
#     4  10  20  37  60  85 113 155 200 244 300 357
#     4   9  19  38  61  87 120 159 200 247 303 357
#     4  10  22  38  58  88 124 158 200 254 300 356
#     4  11  23  37  56  86 120 156 198 246 297 351
#     4   9  20  37  58  82 112 150 195 246 297 352
#
# _framework density 21.520240000000001
#
# number of rings (size 3 to 8) (size 9 to 14) (size 15 to 20)
#    0.000    2.222    0.000    2.000    0.000    6.222 
#    0.000   21.111    0.000    0.000    0.000    0.000 
#    0.000    0.000    0.000    0.000    0.000    0.000 
#
# Total GULP energy -100342.781597 kJ/mol
# GULP energy per Si atom -5574.598978 kJ/mol
# Density = 2.147126 g / cm^3
# Si number density = 21.520240 Si / 1000 Ang^3
#
#
#
# Elastic Constant Matrix: (Units=GPa)
#
#
# Indices 1 2 3 4 5 6 
#
# 1 62.0307 13.3143 -3.1485 0.0000 5.4068 0.0000
# 2 13.3143 91.9016 7.5349 0.0000 -6.9460 0.0000
# 3 -3.1485 7.5349 76.9808 0.0000 -9.4345 0.0000
# 4 0.0000 0.0000 0.0000 10.9277 0.0000 -13.9076
# 5 5.4068 -6.9460 -9.4345 0.0000 20.6969 0.0000
# 6 0.0000 0.0000 0.0000 -13.9076 0.0000 25.9942
#
#
#
# Elastic Compliance Matrix: (Units=1/GPa)
#
#
# Indices 1 2 3 4 5 6 
#
# 1 0.017231 -0.002927 0.000338 0.000000 -0.005330 0.000000
# 2 -0.002927 0.011694 -0.000730 0.000000 0.004356 0.000000
# 3 0.000338 -0.000730 0.013806 0.000000 0.005960 0.000000
# 4 0.000000 0.000000 0.000000 0.286800 0.000000 0.153446
# 5 -0.005330 0.004356 0.005960 0.000000 0.053887 0.000000
# 6 0.000000 0.000000 0.000000 0.153446 0.000000 0.120568
#
#
# Mechanical properties :
#
#
# Convention : Reuss Voigt Hill
#
# Bulk Modulus (GPa) = 27.70636 29.59050 28.64843
# Shear Modulus (GPa) = 9.56652 25.73792 17.65222
#
# Velocity S-wave (km/s) = 2.11069 3.46206 2.86713
# Velocity P-wave (km/s) = 4.34080 5.45537 4.92968
#
# Compressibility (1/GPa) = 0.03609280
#
# Stress axis : x y z
#
# Youngs Moduli (GPa) = 58.03499 85.51112 72.43232
#
# Poissons Ratio (x) = 0.25028 -0.02449
# Poissons Ratio (y) = 0.16986 0.05291
# Poissons Ratio (z) = -0.01962 0.06246
#
# Static dielectric constant tensor:
#      x y z
#    x 1.802900 0.000000 0.035570 
#    y 0.000000 1.811720 0.000000 
#    z 0.035570 0.000000 1.837100 
# 
# From -- ./inp_files/75110.got.cif
#   From: 2010.05.17/outbox.cif.g08.bks.cpg/sg13_38_cif.got.tgz:75110.got - 2010.06.03 16:44:36.
