data_PCOD9230357
_publ_section_title
;
Structure prediction by ZEFSAII (Michael W. Deem and Ramdas Pophale) SiO2 
 PCOD9230357
Probable space group: P 2/C
;
_chemical_formula_sum "Si O2"
_cell_formula_units_Z 18
_cell_length_a 9.582400
_cell_length_b 8.562846
_cell_length_c 13.555100
_cell_angle_alpha 90.000000
_cell_angle_beta 47.137724
_cell_angle_gamma 90.000000
_cell_volume 815.255537
_symmetry_space_group_name_H-M "P 2/C"
_symmetry_group_IT_number 13
_symmetry_cell_setting 'monoclinic'
loop_
_space_group_symop_operation_xyz
x,y,z
-x,y,1/2-z
-x,-y,-z
x,-y,1/2+z
loop_
_atom_site_type_symbol
_atom_site_label
_atom_site_fract_x
_atom_site_fract_y
_atom_site_fract_z
Si Si1 0.819863 0.199923 0.446192
Si Si2 0.244450 0.883457 0.743020
Si Si3 0.296228 0.571939 0.827933
Si Si4 0.954054 0.440888 0.878257
Si Si5 0.500000 0.112108 0.750000
O O1 0.752129 0.120344 0.377141
O O2 0.876639 0.381440 0.399421
O O3 0.656432 0.194211 0.605711
O O4 0.019395 0.117561 0.379633
O O5 0.321270 0.716598 0.743188
O O6 0.370698 0.010308 0.736903
O O7 0.500000 0.501360 0.750000
O O8 0.146986 0.456527 0.848387
O O9 0.200182 0.633805 0.975184
O O10 0.000000 0.369995 0.750000
#
# Coordination Sequence:
#
# PCOD9230357 Si02
#       5
#     4   4   4   4   2
#     4  10  21  39  59  82 118 152 184 231 289 332
#     4  10  20  41  58  81 118 151 183 239 284 323
#     4  10  20  36  61  84 111 147 188 233 284 335
#     4  10  20  39  59  81 117 150 182 232 291 338
#     4  12  22  34  64  86 108 152 202 228 268 340
#
# _framework density 22.078968
#
# number of rings (size 3 to 8) (size 9 to 14) (size 15 to 20)
#    0.000    1.778    5.556    1.333    1.556    0.889 
#    0.000    0.000    4.889    0.000    0.000    0.000 
#    0.000    0.000    0.000    0.000    0.000    0.000 
#
# Total GULP energy -100564.634936 kJ/mol
# GULP energy per Si atom -5586.924163 kJ/mol
# Density = 2.202872 g / cm^3
# Si number density = 22.078968 Si / 1000 Ang^3
#
#
#
# Elastic Constant Matrix: (Units=GPa)
#
#
# Indices 1 2 3 4 5 6 
#
# 1 132.1153 24.8049 75.0801 0.0000 -3.4405 0.0000
# 2 24.8049 22.8290 14.2014 0.0000 -4.6766 0.0000
# 3 75.0801 14.2014 145.2080 0.0000 -10.9796 0.0000
# 4 0.0000 0.0000 0.0000 9.6175 0.0000 11.0099
# 5 -3.4405 -4.6766 -10.9796 0.0000 35.2998 0.0000
# 6 0.0000 0.0000 0.0000 11.0099 0.0000 3.7471
#
#
#
# Elastic Compliance Matrix: (Units=1/GPa)
#
#
# Indices 1 2 3 4 5 6 
#
# 1 0.012774 -0.010732 -0.005703 0.000000 -0.001951 0.000000
# 2 -0.010732 0.056492 0.000523 0.000000 0.006601 0.000000
# 3 -0.005703 0.000523 0.009982 0.000000 0.002618 0.000000
# 4 0.000000 0.000000 0.000000 -0.043991 0.000000 0.129255
# 5 -0.001951 0.006601 0.002618 0.000000 0.029828 0.000000
# 6 0.000000 0.000000 0.000000 0.129255 0.000000 -0.112909
#
#
# Mechanical properties :
#
#
# Convention : Reuss Voigt Hill
#
# Bulk Modulus (GPa) = 21.08600 58.70277 39.89438
# Shear Modulus (GPa) = -25947.59059 22.13728 -12962.72665
#
# Velocity S-wave (km/s) = -108.52506 3.16989 -76.70606
# Velocity P-wave (km/s) = 125.27575 6.32795 88.47025
#
# Compressibility (1/GPa) = 0.04742484
#
# Stress axis : x y z
#
# Youngs Moduli (GPa) = 78.28325 17.70178 100.17896
#
# Poissons Ratio (x) = 0.18997 0.57130
# Poissons Ratio (y) = 0.84012 -0.05241
# Poissons Ratio (z) = 0.44643 -0.00926
#
# Static dielectric constant tensor:
#      x y z
#    x 1.801910 0.000000 0.003620 
#    y 0.000000 1.821050 0.000000 
#    z 0.003620 0.000000 1.824050 
# 
# From -- ./inp_files/28765.got.cif
#   From: 2010.05.17/outbox.cif.g08.bks.cpg/sg13_15_cif.got.tgz:28765.got - 2010.06.03 16:44:36.
