data_PCOD9230978
_publ_section_title
;
Structure prediction by ZEFSAII (Michael W. Deem and Ramdas Pophale) SiO2 
 PCOD9230978
Probable space group: P 2/C
;
_chemical_formula_sum "Si O2"
_cell_formula_units_Z 26
_cell_length_a 8.822421
_cell_length_b 12.259494
_cell_length_c 14.040269
_cell_angle_alpha 90.000000
_cell_angle_beta 70.095832
_cell_angle_gamma 90.000000
_cell_volume 1427.858814
_symmetry_space_group_name_H-M "P 2/C"
_symmetry_group_IT_number 13
_symmetry_cell_setting 'monoclinic'
loop_
_space_group_symop_operation_xyz
x,y,z
-x,y,1/2-z
-x,-y,-z
x,-y,1/2+z
loop_
_atom_site_type_symbol
_atom_site_label
_atom_site_fract_x
_atom_site_fract_y
_atom_site_fract_z
Si Si1 0.642388 0.812929 0.091048
Si Si2 0.161445 0.390707 0.375729
Si Si3 0.000000 0.757478 0.750000
Si Si4 0.905634 0.643198 0.090903
Si Si5 0.500000 0.287106 0.250000
Si Si6 0.317377 0.107898 0.712953
Si Si7 0.000000 0.786850 0.250000
Si Si8 0.665965 0.869682 0.866634
O O1 0.757671 0.706893 0.070820
O O2 0.701984 0.887735 0.167828
O O3 0.453093 0.802784 0.157109
O O4 0.644064 0.861404 0.984811
O O5 0.060160 0.322549 0.320113
O O6 0.144815 0.520840 0.371394
O O7 0.346544 0.355478 0.320813
O O8 0.068210 0.361676 0.493255
O O9 0.850197 0.833438 0.809319
O O10 0.946677 0.711688 0.175003
O O11 0.440114 0.213343 0.174071
O O12 0.152762 0.138070 0.696560
O O13 0.369075 0.989680 0.666011
#
# Coordination Sequence:
#
# PCOD9230978 Si02
#       8
#     4   4   2   4   2   4   2   4
#     4  10  21  39  60  83 116 157 190 240 288 346
#     4  10  21  39  60  88 115 153 195 238 290 345
#     4  10  20  38  62  84 120 154 194 232 292 342
#     4  10  21  40  61  84 119 152 194 240 291 339
#     4  10  24  36  62  88 118 148 202 234 290 342
#     4  10  22  38  58  87 117 152 199 232 296 341
#     4  10  22  38  58  88 116 150 196 242 286 346
#     4  11  21  40  59  86 119 155 189 245 283 348
#
# _framework density 18.209083
#
# number of rings (size 3 to 8) (size 9 to 14) (size 15 to 20)
#    0.000    1.846    1.538    2.308    2.154    2.462 
#    2.769    3.077    0.000    0.000    0.000    0.000 
#    0.000    0.000    0.000    0.000    0.000    0.000 
#
# Total GULP energy -144898.727280 kJ/mol
# GULP energy per Si atom -5573.027972 kJ/mol
# Density = 1.816764 g / cm^3
# Si number density = 18.209083 Si / 1000 Ang^3
#
#
#
# Elastic Constant Matrix: (Units=GPa)
#
#
# Indices 1 2 3 4 5 6 
#
# 1 101.6529 25.8415 27.0502 0.0000 -18.8373 0.0000
# 2 25.8415 63.4513 28.7074 0.0000 -7.9097 0.0000
# 3 27.0502 28.7074 88.3366 0.0000 0.7458 0.0000
# 4 0.0000 0.0000 0.0000 16.7167 0.0000 -3.6080
# 5 -18.8373 -7.9097 0.7458 0.0000 32.6963 0.0000
# 6 0.0000 0.0000 0.0000 -3.6080 0.0000 8.2996
#
#
#
# Elastic Compliance Matrix: (Units=1/GPa)
#
#
# Indices 1 2 3 4 5 6 
#
# 1 0.012603 -0.002975 -0.002948 0.000000 0.006608 0.000000
# 2 -0.002975 0.019900 -0.005583 0.000000 0.003227 0.000000
# 3 -0.002948 -0.005583 0.014066 0.000000 -0.003370 0.000000
# 4 0.000000 0.000000 0.000000 0.066014 0.000000 0.028698
# 5 0.006608 0.003227 -0.003370 0.000000 0.035249 0.000000
# 6 0.000000 0.000000 0.000000 0.028698 0.000000 0.132963
#
#
# Mechanical properties :
#
#
# Convention : Reuss Voigt Hill
#
# Bulk Modulus (GPa) = 42.45221 46.29322 44.37271
# Shear Modulus (GPa) = 16.04306 22.99862 19.52084
#
# Velocity S-wave (km/s) = 2.97146 3.55777 3.27775
# Velocity P-wave (km/s) = 5.92766 6.50809 6.22465
#
# Compressibility (1/GPa) = 0.02355590
#
# Stress axis : x y z
#
# Youngs Moduli (GPa) = 79.34730 50.25082 71.09322
#
# Poissons Ratio (x) = 0.14950 0.20960
# Poissons Ratio (y) = 0.23606 0.39694
# Poissons Ratio (z) = 0.23393 0.28057
#
# Static dielectric constant tensor:
#      x y z
#    x 1.642210 0.000000 -0.021240 
#    y 0.000000 1.598780 0.000000 
#    z -0.021240 0.000000 1.649090 
# 
# From -- ./inp_files/46572.got.cif
#   From: 2010.05.17/outbox.cif.g08.bks.cpg/sg13_24_cif.got.tgz:46572.got - 2010.06.03 16:44:36.
