data_PCOD9230308
_publ_section_title
;
Structure prediction by ZEFSAII (Michael W. Deem and Ramdas Pophale) SiO2 
 PCOD9230308
Probable space group: P 2/C
;
_chemical_formula_sum "Si O2"
_cell_formula_units_Z 16
_cell_length_a 19.114778
_cell_length_b 7.680916
_cell_length_c 22.944165
_cell_angle_alpha 90.000000
_cell_angle_beta 164.789382
_cell_angle_gamma 90.000000
_cell_volume 883.823231
_symmetry_space_group_name_H-M "P 2/C"
_symmetry_group_IT_number 13
_symmetry_cell_setting 'monoclinic'
loop_
_space_group_symop_operation_xyz
x,y,z
-x,y,1/2-z
-x,-y,-z
x,-y,1/2+z
loop_
_atom_site_type_symbol
_atom_site_label
_atom_site_fract_x
_atom_site_fract_y
_atom_site_fract_z
Si Si1 0.622923 0.326894 0.196120
Si Si2 0.708547 0.158576 0.665514
Si Si3 0.306712 0.960623 0.648759
Si Si4 0.230486 0.693331 0.155419
O O1 0.620458 0.167179 0.239205
O O2 0.624309 0.508156 0.232183
O O3 0.909630 0.327146 0.393616
O O4 0.394562 0.295546 0.965155
O O5 0.720414 0.241202 0.739166
O O6 0.500000 0.000000 0.500000
O O7 0.001975 0.086106 0.887785
O O8 0.500000 0.934746 0.750000
O O9 0.319003 0.157445 0.682501
#
# Coordination Sequence:
#
# PCOD9230308 Si02
#       4
#     4   4   4   4
#     4  10  20  37  60  84 112 146 195 237 278 337
#     4  11  18  37  63  82 107 148 196 234 276 336
#     4  11  23  37  56  83 121 153 181 233 294 340
#     4  10  20  36  60  86 109 148 192 238 281 332
#
# _framework density 18.103168
#
# number of rings (size 3 to 8) (size 9 to 14) (size 15 to 20)
#    0.000    1.500    5.000    2.250    0.000    2.000 
#    0.000    0.000    5.500    0.000    0.000    0.000 
#    0.000    0.000    0.000    0.000    0.000    0.000 
#
# Total GULP energy -89335.699489 kJ/mol
# GULP energy per Si atom -5583.481218 kJ/mol
# Density = 1.806196 g / cm^3
# Si number density = 18.103168 Si / 1000 Ang^3
#
#
#
# Elastic Constant Matrix: (Units=GPa)
#
#
# Indices 1 2 3 4 5 6 
#
# 1 43.9786 0.3755 27.8732 0.0000 6.1460 0.0000
# 2 0.3755 84.0356 10.5954 0.0000 0.0019 0.0000
# 3 27.8732 10.5954 94.9595 0.0000 -13.3031 0.0000
# 4 0.0000 0.0000 0.0000 22.4664 0.0000 -7.5259
# 5 6.1460 0.0019 -13.3031 0.0000 21.6123 0.0000
# 6 0.0000 0.0000 0.0000 -7.5259 0.0000 11.7278
#
#
#
# Elastic Compliance Matrix: (Units=1/GPa)
#
#
# Indices 1 2 3 4 5 6 
#
# 1 0.032750 0.001382 -0.012117 0.000000 -0.016771 0.000000
# 2 0.001382 0.012144 -0.001987 0.000000 -0.001617 0.000000
# 3 -0.012117 -0.001987 0.016188 0.000000 0.013410 0.000000
# 4 0.000000 0.000000 0.000000 0.056699 0.000000 0.036385
# 5 -0.016771 -0.001617 0.013410 0.000000 0.059294 0.000000
# 6 0.000000 0.000000 0.000000 0.036385 0.000000 0.108617
#
#
# Mechanical properties :
#
#
# Convention : Reuss Voigt Hill
#
# Bulk Modulus (GPa) = 28.06037 33.40688 30.73362
# Shear Modulus (GPa) = 15.47917 23.43660 19.45789
#
# Velocity S-wave (km/s) = 2.92730 3.60198 3.28202
# Velocity P-wave (km/s) = 5.19224 5.98270 5.60143
#
# Compressibility (1/GPa) = 0.03563744
#
# Stress axis : x y z
#
# Youngs Moduli (GPa) = 30.53463 82.34435 61.77533
#
# Poissons Ratio (x) = -0.11378 0.74851
# Poissons Ratio (y) = -0.04219 0.12276
# Poissons Ratio (z) = 0.36998 0.16363
#
# Static dielectric constant tensor:
#      x y z
#    x 1.577590 0.000000 -0.019170 
#    y 0.000000 1.663270 0.000000 
#    z -0.019170 0.000000 1.618430 
# 
# From -- ./inp_files/43209.got.cif
#   From: 2010.05.17/outbox.cif.g08.bks.cpg/sg13_22_cif.got.tgz:43209.got - 2010.06.03 16:44:36.
