data_PCOD9230026
_publ_section_title
;
Structure prediction by ZEFSAII (Michael W. Deem and Ramdas Pophale) SiO2 
 PCOD9230026
Probable space group: P 2/C
;
_chemical_formula_sum "Si O2"
_cell_formula_units_Z 20
_cell_length_a 4.847924
_cell_length_b 12.740456
_cell_length_c 17.783907
_cell_angle_alpha 90.000000
_cell_angle_beta 59.718180
_cell_angle_gamma 90.000000
_cell_volume 948.545691
_symmetry_space_group_name_H-M "P 2/C"
_symmetry_group_IT_number 13
_symmetry_cell_setting 'monoclinic'
loop_
_space_group_symop_operation_xyz
x,y,z
-x,y,1/2-z
-x,-y,-z
x,-y,1/2+z
loop_
_atom_site_type_symbol
_atom_site_label
_atom_site_fract_x
_atom_site_fract_y
_atom_site_fract_z
Si Si1 0.368730 0.933111 0.691535
Si Si2 0.869048 0.884062 0.088277
Si Si3 0.430574 0.835313 0.521882
Si Si4 0.481778 0.604504 0.050242
Si Si5 0.787211 0.651935 0.156914
O O1 0.500000 0.878821 0.750000
O O2 0.368256 0.863915 0.616179
O O3 0.000000 0.970173 0.750000
O O4 0.625006 0.026464 0.645684
O O5 0.774927 0.776992 0.143659
O O6 0.832461 0.867052 0.003408
O O7 0.246351 0.895605 0.049278
O O8 0.480924 0.710754 0.503823
O O9 0.739945 0.603670 0.080757
O O10 0.135566 0.619486 0.136452
O O11 0.500000 0.500000 0.000000
O O12 0.500000 0.620830 0.250000
#
# Coordination Sequence:
#
# PCOD9230026 Si02
#       5
#     4   4   4   4   4
#     4  12  23  35  54  83 117 150 186 229 274 332
#     4  10  20  36  58  80 109 146 184 227 279 334
#     4  10  21  38  57  78 109 150 189 226 274 337
#     4  10  21  38  59  80 110 148 186 227 281 340
#     4  10  20  35  58  87 110 134 181 241 284 319
#
# _framework density 21.084909
#
# number of rings (size 3 to 8) (size 9 to 14) (size 15 to 20)
#    0.000    1.600    0.000    5.400    0.000    3.200 
#    0.000    3.000    0.000    0.000    0.000    0.000 
#    0.000    0.000    0.000    0.000    0.000    0.000 
#
# Total GULP energy -111819.413626 kJ/mol
# GULP energy per Si atom -5590.970681 kJ/mol
# Density = 2.103692 g / cm^3
# Si number density = 21.084909 Si / 1000 Ang^3
#
#
#
# Elastic Constant Matrix: (Units=GPa)
#
#
# Indices 1 2 3 4 5 6 
#
# 1 93.1177 0.5764 6.1525 0.0000 0.5195 0.0000
# 2 0.5764 63.6193 22.5427 0.0000 -6.8591 0.0000
# 3 6.1525 22.5427 81.0982 0.0000 3.3995 0.0000
# 4 0.0000 0.0000 0.0000 11.8094 0.0000 -0.5990
# 5 0.5195 -6.8591 3.3995 0.0000 27.8776 0.0000
# 6 0.0000 0.0000 0.0000 -0.5990 0.0000 21.0423
#
#
#
# Elastic Compliance Matrix: (Units=1/GPa)
#
#
# Indices 1 2 3 4 5 6 
#
# 1 0.010796 0.000208 -0.000875 0.000000 -0.000043 0.000000
# 2 0.000208 0.018134 -0.005270 0.000000 0.005101 0.000000
# 3 -0.000875 -0.005270 0.013987 0.000000 -0.002986 0.000000
# 4 0.000000 0.000000 0.000000 0.084801 0.000000 0.002414
# 5 -0.000043 0.005101 -0.002986 0.000000 0.037491 0.000000
# 6 0.000000 0.000000 0.000000 0.002414 0.000000 0.047592
#
#
# Mechanical properties :
#
#
# Convention : Reuss Voigt Hill
#
# Bulk Modulus (GPa) = 32.21457 32.93096 32.57277
# Shear Modulus (GPa) = 21.27446 26.05010 23.66228
#
# Velocity S-wave (km/s) = 3.17991 3.51876 3.35362
# Velocity P-wave (km/s) = 5.36601 5.67107 5.52065
#
# Compressibility (1/GPa) = 0.03104185
#
# Stress axis : x y z
#
# Youngs Moduli (GPa) = 92.62814 55.14508 71.49374
#
# Poissons Ratio (x) = -0.01144 0.06255
# Poissons Ratio (y) = -0.01922 0.37679
# Poissons Ratio (z) = 0.08104 0.29063
#
# Static dielectric constant tensor:
#      x y z
#    x 1.744760 0.000000 -0.001580 
#    y 0.000000 1.736170 0.000000 
#    z -0.001580 0.000000 1.782320 
# 
# From -- ./inp_files/43684.got.cif
#   From: 2010.05.17/outbox.cif.g08.bks.cpg/sg13_22_cif.got.tgz:43684.got - 2010.06.03 16:44:36.
