data_PCOD9230642
_publ_section_title
;
Structure prediction by ZEFSAII (Michael W. Deem and Ramdas Pophale) SiO2 
 PCOD9230642
Probable space group: P 2/C
;
_chemical_formula_sum "Si O2"
_cell_formula_units_Z 20
_cell_length_a 5.042231
_cell_length_b 8.772636
_cell_length_c 26.406295
_cell_angle_alpha 90.000000
_cell_angle_beta 113.719746
_cell_angle_gamma 90.000000
_cell_volume 1069.375079
_symmetry_space_group_name_H-M "P 2/C"
_symmetry_group_IT_number 13
_symmetry_cell_setting 'monoclinic'
loop_
_space_group_symop_operation_xyz
x,y,z
-x,y,1/2-z
-x,-y,-z
x,-y,1/2+z
loop_
_atom_site_type_symbol
_atom_site_label
_atom_site_fract_x
_atom_site_fract_y
_atom_site_fract_z
Si Si1 0.311409 0.277230 0.466292
Si Si2 0.785713 0.090091 0.445794
Si Si3 0.164259 0.152039 0.637632
Si Si4 0.224115 0.254531 0.810402
Si Si5 0.286213 0.388793 0.917883
O O1 0.490660 0.147912 0.449205
O O2 0.471572 0.293776 0.532817
O O3 0.316983 0.440947 0.439910
O O4 0.977425 0.236146 0.446636
O O5 0.766593 0.983643 0.395207
O O6 0.000000 0.000000 0.500000
O O7 0.467616 0.200068 0.685122
O O8 0.934304 0.128955 0.665382
O O9 0.011898 0.293437 0.595641
O O10 0.299019 0.382459 0.858129
O O11 0.000000 0.299297 0.750000
#
# Coordination Sequence:
#
# PCOD9230642 Si02
#       5
#     4   4   4   4   4
#     4  11  23  34  57  84 123 148 179 229 289 337
#     4  12  21  36  54  84 118 155 176 222 282 347
#     4  10  21  35  58  84 111 142 196 226 277 339
#     4  10  20  37  61  82 106 144 196 243 274 320
#     4   9  23  35  57  86 114 146 191 230 279 343
#
# _framework density 18.702511999999999
#
# number of rings (size 3 to 8) (size 9 to 14) (size 15 to 20)
#    1.200    0.400    2.000    3.600    2.800    1.600 
#    0.000    0.000    0.000    7.200    0.000    0.000 
#    0.000    0.000    0.000    0.000    0.000    0.000 
#
# Total GULP energy -111335.383843 kJ/mol
# GULP energy per Si atom -5566.769192 kJ/mol
# Density = 1.865994 g / cm^3
# Si number density = 18.702512 Si / 1000 Ang^3
#
#
#
# Elastic Constant Matrix: (Units=GPa)
#
#
# Indices 1 2 3 4 5 6 
#
# 1 63.7936 -5.4305 10.1930 0.0000 9.0883 0.0000
# 2 -5.4305 41.5072 18.8280 0.0000 -1.6250 0.0000
# 3 10.1930 18.8280 113.7317 0.0000 10.8034 0.0000
# 4 0.0000 0.0000 0.0000 12.7045 0.0000 -0.1136
# 5 9.0883 -1.6250 10.8034 0.0000 30.3011 0.0000
# 6 0.0000 0.0000 0.0000 -0.1136 0.0000 15.3084
#
#
#
# Elastic Compliance Matrix: (Units=1/GPa)
#
#
# Indices 1 2 3 4 5 6 
#
# 1 0.016771 0.002724 -0.001542 0.000000 -0.004334 0.000000
# 2 0.002724 0.026764 -0.004899 0.000000 0.002365 0.000000
# 3 -0.001542 -0.004899 0.010064 0.000000 -0.003388 0.000000
# 4 0.000000 0.000000 0.000000 0.078717 0.000000 0.000584
# 5 -0.004334 0.002365 -0.003388 0.000000 0.035637 0.000000
# 6 0.000000 0.000000 0.000000 0.000584 0.000000 0.065328
#
#
# Mechanical properties :
#
#
# Convention : Reuss Voigt Hill
#
# Bulk Modulus (GPa) = 21.66212 29.57926 25.62069
# Shear Modulus (GPa) = 19.52329 24.69226 22.10777
#
# Velocity S-wave (km/s) = 3.23443 3.63749 3.44186
# Velocity P-wave (km/s) = 5.05532 5.78720 5.43360
#
# Compressibility (1/GPa) = 0.04616354
#
# Stress axis : x y z
#
# Youngs Moduli (GPa) = 59.62537 37.36412 99.36607
#
# Poissons Ratio (x) = -0.10179 0.15326
# Poissons Ratio (y) = -0.16243 0.48684
# Poissons Ratio (z) = 0.09196 0.18306
#
# Static dielectric constant tensor:
#      x y z
#    x 1.699200 0.000000 -0.031530 
#    y 0.000000 1.666010 0.000000 
#    z -0.031530 0.000000 1.658550 
# 
# From -- ./inp_files/73076.got.cif
#   From: 2010.05.17/outbox.cif.g08.bks.cpg/sg13_37_cif.got.tgz:73076.got - 2010.06.03 16:44:36.
