data_PCOD9230251
_publ_section_title
;
Structure prediction by ZEFSAII (Michael W. Deem and Ramdas Pophale) SiO2 
 PCOD9230251
Probable space group: P 2/C
;
_chemical_formula_sum "Si O2"
_cell_formula_units_Z 26
_cell_length_a 15.581710
_cell_length_b 9.226498
_cell_length_c 21.313427
_cell_angle_alpha 90.000000
_cell_angle_beta 22.528466
_cell_angle_gamma 90.000000
_cell_volume 1173.992983
_symmetry_space_group_name_H-M "P 2/C"
_symmetry_group_IT_number 13
_symmetry_cell_setting 'monoclinic'
loop_
_space_group_symop_operation_xyz
x,y,z
-x,y,1/2-z
-x,-y,-z
x,-y,1/2+z
loop_
_atom_site_type_symbol
_atom_site_label
_atom_site_fract_x
_atom_site_fract_y
_atom_site_fract_z
Si Si1 0.788750 0.928161 0.674016
Si Si2 0.186008 0.566603 0.211907
Si Si3 0.990670 0.621460 0.559884
Si Si4 0.331925 0.570550 0.982818
Si Si5 0.322781 0.909012 0.985013
Si Si6 0.500000 0.401413 0.750000
Si Si7 0.169311 0.907609 0.228167
O O1 0.859873 0.761424 0.625057
O O2 0.760373 0.987093 0.763967
O O3 0.551508 0.972772 0.803725
O O4 0.000000 0.000000 0.500000
O O5 0.230815 0.737024 0.197604
O O6 0.161737 0.453360 0.283890
O O7 0.928664 0.568110 0.361288
O O8 0.336113 0.514956 0.051679
O O9 0.245617 0.662445 0.410996
O O10 0.000000 0.500000 0.500000
O O11 0.465607 0.491582 0.837779
O O12 0.382143 0.739886 0.951164
O O13 0.259437 0.954200 0.098857
O O14 0.100538 0.920112 0.094324
#
# Coordination Sequence:
#
# PCOD9230251 Si02
#       7
#     4   4   4   4   4   2   4
#     4  12  25  38  56  86 120 155 194 239 291 350
#     4   8  16  35  60  85 111 143 195 241 284 341
#     4  11  23  39  57  85 119 157 196 240 293 347
#     4   8  15  32  61  88 110 150 190 233 286 342
#     4   9  19  38  62  84 114 153 195 235 288 351
#     4  10  20  36  58  86 124 152 188 242 288 342
#     4   9  19  39  64  86 110 149 195 242 289 343
#
# _framework density 22.146640999999999
#
# number of rings (size 3 to 8) (size 9 to 14) (size 15 to 20)
#    0.000    2.462    0.000    4.154    0.000    4.308 
#    0.000   16.154    0.000    0.000    0.000    0.000 
#    0.000    0.000    0.000    0.000    0.000    0.000 
#
# Total GULP energy -144951.255643 kJ/mol
# GULP energy per Si atom -5575.048294 kJ/mol
# Density = 2.209623 g / cm^3
# Si number density = 22.146641 Si / 1000 Ang^3
#
#
#
# Elastic Constant Matrix: (Units=GPa)
#
#
# Indices 1 2 3 4 5 6 
#
# 1 37.9828 9.3933 18.9574 0.0000 -1.4073 0.0000
# 2 9.3933 47.8567 9.8674 0.0000 3.6278 0.0000
# 3 18.9574 9.8674 143.0523 0.0000 -24.5399 0.0000
# 4 0.0000 0.0000 0.0000 15.1049 0.0000 3.9973
# 5 -1.4073 3.6278 -24.5399 0.0000 42.2191 0.0000
# 6 0.0000 0.0000 0.0000 3.9973 0.0000 24.9756
#
#
#
# Elastic Compliance Matrix: (Units=1/GPa)
#
#
# Indices 1 2 3 4 5 6 
#
# 1 0.029359 -0.004949 -0.003675 0.000000 -0.000732 0.000000
# 2 -0.004949 0.022372 -0.001383 0.000000 -0.002891 0.000000
# 3 -0.003675 -0.001383 0.008411 0.000000 0.004885 0.000000
# 4 0.000000 0.000000 0.000000 0.069132 0.000000 -0.011064
# 5 -0.000732 -0.002891 0.004885 0.000000 0.026750 0.000000
# 6 0.000000 0.000000 0.000000 -0.011064 0.000000 0.041810
#
#
# Mechanical properties :
#
#
# Convention : Reuss Voigt Hill
#
# Bulk Modulus (GPa) = 24.92127 33.92533 29.42330
# Shear Modulus (GPa) = 21.62419 29.17151 25.39785
#
# Velocity S-wave (km/s) = 3.12815 3.63326 3.39012
# Velocity P-wave (km/s) = 4.93197 5.74043 5.35149
#
# Compressibility (1/GPa) = 0.04012636
#
# Stress axis : x y z
#
# Youngs Moduli (GPa) = 34.06146 44.69964 118.89354
#
# Poissons Ratio (x) = 0.22123 0.43691
# Poissons Ratio (y) = 0.16858 0.16446
# Poissons Ratio (z) = 0.12517 0.06183
#
# Static dielectric constant tensor:
#      x y z
#    x 1.894220 0.000000 -0.052170 
#    y 0.000000 1.799260 0.000000 
#    z -0.052170 0.000000 1.888970 
# 
# From -- ./inp_files/88009.got.cif
#   From: 2010.05.17/outbox.cif.g08.bks.cpg/sg13_45_cif.got.tgz:88009.got - 2010.06.03 16:44:36.
