data_PCOD9230344
_publ_section_title
;
Structure prediction by ZEFSAII (Michael W. Deem and Ramdas Pophale) SiO2 
 PCOD9230344
Probable space group: P 2/C
;
_chemical_formula_sum "Si O2"
_cell_formula_units_Z 26
_cell_length_a 14.111474
_cell_length_b 7.633160
_cell_length_c 12.253971
_cell_angle_alpha 90.000000
_cell_angle_beta 51.350945
_cell_angle_gamma 90.000000
_cell_volume 1030.853296
_symmetry_space_group_name_H-M "P 2/C"
_symmetry_group_IT_number 13
_symmetry_cell_setting 'monoclinic'
loop_
_space_group_symop_operation_xyz
x,y,z
-x,y,1/2-z
-x,-y,-z
x,-y,1/2+z
loop_
_atom_site_type_symbol
_atom_site_label
_atom_site_fract_x
_atom_site_fract_y
_atom_site_fract_z
Si Si1 0.437654 0.897225 0.941202
Si Si2 0.000000 0.277060 0.750000
Si Si3 0.354539 0.327965 0.175002
Si Si4 0.104590 0.261935 0.448342
Si Si5 0.870150 0.321208 0.516244
Si Si6 0.234927 0.321617 0.697751
Si Si7 0.384274 0.257198 0.902873
O O1 0.533747 0.749271 0.839377
O O2 0.396319 0.047350 0.888984
O O3 0.318608 0.796653 0.064951
O O4 0.500000 0.000000 0.000000
O O5 0.058708 0.184152 0.598853
O O6 0.115400 0.381391 0.717193
O O7 0.236461 0.224100 0.303907
O O8 0.313927 0.529055 0.199404
O O9 0.395752 0.307718 0.020281
O O10 0.111653 0.470690 0.474573
O O11 0.006836 0.247238 0.419893
O O12 0.819096 0.221660 0.660379
O O13 0.755160 0.306627 0.521007
O O14 0.500000 0.326492 0.750000
#
# Coordination Sequence:
#
# PCOD9230344 Si02
#       7
#     4   2   4   4   4   4   4
#     4  10  22  39  57  83 121 163 204 248 303 369
#     4  10  20  36  60  92 130 156 194 256 322 368
#     4  10  21  38  65  93 122 157 208 263 309 365
#     4   9  19  35  60  94 123 155 202 261 313 364
#     4   9  18  35  61  90 124 158 198 256 316 369
#     4  10  20  39  65  92 122 159 207 263 313 364
#     4  11  23  39  60  88 127 170 207 251 311 377
#
# _framework density 25.221824000000002
#
# number of rings (size 3 to 8) (size 9 to 14) (size 15 to 20)
#    0.000    2.154    0.000    4.154    0.000    3.077 
#    0.000    3.846    0.000   10.154    0.000    0.000 
#    0.000    0.000    0.000    0.000    0.000    0.000 
#
# Total GULP energy -144771.792970 kJ/mol
# GULP energy per Si atom -5568.145883 kJ/mol
# Density = 2.516442 g / cm^3
# Si number density = 25.221824 Si / 1000 Ang^3
#
#
#
# Elastic Constant Matrix: (Units=GPa)
#
#
# Indices 1 2 3 4 5 6 
#
# 1 131.7671 13.9447 13.6549 0.0000 -20.8820 0.0000
# 2 13.9447 48.1343 0.8625 0.0000 -14.8489 0.0000
# 3 13.6549 0.8625 151.3040 0.0000 -10.8857 0.0000
# 4 0.0000 0.0000 0.0000 -1.3931 0.0000 16.3377
# 5 -20.8820 -14.8489 -10.8857 0.0000 40.2222 0.0000
# 6 0.0000 0.0000 0.0000 16.3377 0.0000 17.7749
#
#
#
# Elastic Compliance Matrix: (Units=1/GPa)
#
#
# Indices 1 2 3 4 5 6 
#
# 1 0.008366 -0.001258 -0.000478 0.000000 0.003749 0.000000
# 2 -0.001258 0.023672 0.000571 0.000000 0.008240 0.000000
# 3 -0.000478 0.000571 0.006778 0.000000 0.001797 0.000000
# 4 0.000000 0.000000 0.000000 -0.060939 0.000000 0.056012
# 5 0.003749 0.008240 0.001797 0.000000 0.030337 0.000000
# 6 0.000000 0.000000 0.000000 0.056012 0.000000 0.004776
#
#
# Mechanical properties :
#
#
# Convention : Reuss Voigt Hill
#
# Bulk Modulus (GPa) = 27.40789 43.12551 35.26670
# Shear Modulus (GPa) = 181.93751 31.50367 106.72059
#
# Velocity S-wave (km/s) = 8.50244 3.53804 6.51189
# Velocity P-wave (km/s) = 10.35756 5.81601 8.39955
#
# Compressibility (1/GPa) = 0.03648585
#
# Stress axis : x y z
#
# Youngs Moduli (GPa) = 119.53046 42.24483 147.52729
#
# Poissons Ratio (x) = 0.05316 0.07053
# Poissons Ratio (y) = 0.15042 -0.08431
# Poissons Ratio (z) = 0.05715 -0.02414
#
# Static dielectric constant tensor:
#      x y z
#    x 2.138990 0.000000 0.040480 
#    y 0.000000 2.127320 0.000000 
#    z 0.040480 0.000000 2.097900 
# 
# From -- ./inp_files/53309.got.cif
#   From: 2010.05.17/outbox.cif.g08.bks.cpg/sg13_27_cif.got.tgz:53309.got - 2010.06.03 16:44:36.
