data_PCOD9230884
_publ_section_title
;
Structure prediction by ZEFSAII (Michael W. Deem and Ramdas Pophale) SiO2 
 PCOD9230884
Probable space group: P 2/C
;
_chemical_formula_sum "Si O2"
_cell_formula_units_Z 32
_cell_length_a 25.180313
_cell_length_b 7.879312
_cell_length_c 24.296083
_cell_angle_alpha 90.000000
_cell_angle_beta 162.149449
_cell_angle_gamma 90.000000
_cell_volume 1477.631301
_symmetry_space_group_name_H-M "P 2/C"
_symmetry_group_IT_number 13
_symmetry_cell_setting 'monoclinic'
loop_
_space_group_symop_operation_xyz
x,y,z
-x,y,1/2-z
-x,-y,-z
x,-y,1/2+z
loop_
_atom_site_type_symbol
_atom_site_label
_atom_site_fract_x
_atom_site_fract_y
_atom_site_fract_z
Si Si1 0.139955 0.349693 0.268761
Si Si2 0.665512 0.920500 0.281443
Si Si3 0.880554 0.185539 0.424949
Si Si4 0.850538 0.711725 0.390716
Si Si5 0.707368 0.012836 0.548481
Si Si6 0.822025 0.025591 0.545662
Si Si7 0.989848 0.697358 0.338070
Si Si8 0.677279 0.422832 0.155102
O O1 0.203171 0.172068 0.356087
O O2 0.077745 0.509851 0.243939
O O3 0.293356 0.418499 0.380808
O O4 0.987809 0.307357 0.075348
O O5 0.674263 0.760357 0.249415
O O6 0.803681 0.033084 0.384358
O O7 0.745898 0.909077 0.422085
O O8 0.476808 0.001583 0.102812
O O9 0.730347 0.244618 0.234905
O O10 0.055989 0.168731 0.562710
O O11 0.919281 0.316922 0.512926
O O12 0.815698 0.547886 0.319795
O O13 0.690765 0.043446 0.466648
O O14 0.833529 0.165577 0.691820
O O15 0.000000 0.961923 0.750000
O O16 0.880526 0.205420 0.575921
O O17 0.500000 0.500000 0.000000
#
# Coordination Sequence:
#
# PCOD9230884 Si02
#       8
#     4   4   4   4   4   4   4   4
#     4  11  21  41  66  90 127 174 211 248 318 388
#     4  11  23  37  64  93 125 168 207 269 324 369
#     4  10  20  38  59  88 126 171 213 248 309 384
#     4  11  20  39  59  92 128 166 215 255 302 394
#     4  11  24  41  63  95 129 159 214 276 321 364
#     4   9  20  42  64  86 119 159 211 265 313 375
#     4  10  20  41  67  91 119 169 215 255 313 387
#     4  11  22  36  58  93 135 161 205 269 312 363
#
# _framework density 21.656282999999998
#
# number of rings (size 3 to 8) (size 9 to 14) (size 15 to 20)
#    0.000    1.500    2.500    4.500    1.750    1.000 
#    0.000   13.125    0.000    3.000    0.000    0.000 
#    0.000    0.000    0.000    0.000    0.000    0.000 
#
# Total GULP energy -178323.221255 kJ/mol
# GULP energy per Si atom -5572.600664 kJ/mol
# Density = 2.160699 g / cm^3
# Si number density = 21.656283 Si / 1000 Ang^3
#
#
#
# Elastic Constant Matrix: (Units=GPa)
#
#
# Indices 1 2 3 4 5 6 
#
# 1 116.2148 23.8338 14.7182 0.0000 19.2301 0.0000
# 2 23.8338 81.8479 10.6108 0.0000 -2.8209 0.0000
# 3 14.7182 10.6108 52.6211 0.0000 16.0792 0.0000
# 4 0.0000 0.0000 0.0000 19.8757 0.0000 -1.3988
# 5 19.2301 -2.8209 16.0792 0.0000 36.0646 0.0000
# 6 0.0000 0.0000 0.0000 -1.3988 0.0000 32.7673
#
#
#
# Elastic Compliance Matrix: (Units=1/GPa)
#
#
# Indices 1 2 3 4 5 6 
#
# 1 0.010209 -0.003085 -0.000574 0.000000 -0.005429 0.000000
# 2 -0.003085 0.013667 -0.003152 0.000000 0.004119 0.000000
# 3 -0.000574 -0.003152 0.022902 0.000000 -0.010151 0.000000
# 4 0.000000 0.000000 0.000000 0.050464 0.000000 0.002154
# 5 -0.005429 0.004119 -0.010151 0.000000 0.035471 0.000000
# 6 0.000000 0.000000 0.000000 0.002154 0.000000 0.030610
#
#
# Mechanical properties :
#
#
# Convention : Reuss Voigt Hill
#
# Bulk Modulus (GPa) = 30.16193 38.77883 34.47038
# Shear Modulus (GPa) = 26.59628 31.17623 28.88625
#
# Velocity S-wave (km/s) = 3.50824 3.79831 3.65615
# Velocity P-wave (km/s) = 5.51073 6.09767 5.81162
#
# Compressibility (1/GPa) = 0.03315438
#
# Stress axis : x y z
#
# Youngs Moduli (GPa) = 97.95748 73.17025 43.66482
#
# Poissons Ratio (x) = 0.22575 0.02508
# Poissons Ratio (y) = 0.30223 0.13761
# Poissons Ratio (z) = 0.05627 0.23060
#
# Static dielectric constant tensor:
#      x y z
#    x 1.817560 0.000000 0.011560 
#    y 0.000000 1.958040 0.000000 
#    z 0.011560 0.000000 1.855050 
# 
# From -- ./inp_files/88970.got.cif
#   From: 2010.05.17/outbox.cif.g08.bks.cpg/sg13_45_cif.got.tgz:88970.got - 2010.06.03 16:44:36.
