data_PCOD9230792
_publ_section_title
;
Structure prediction by ZEFSAII (Michael W. Deem and Ramdas Pophale) SiO2 
 PCOD9230792
Probable space group: P 2/C
;
_chemical_formula_sum "Si O2"
_cell_formula_units_Z 20
_cell_length_a 8.912060
_cell_length_b 8.607506
_cell_length_c 9.645417
_cell_angle_alpha 90.000000
_cell_angle_beta 85.411288
_cell_angle_gamma 90.000000
_cell_volume 737.534171
_symmetry_space_group_name_H-M "P 2/C"
_symmetry_group_IT_number 13
_symmetry_cell_setting 'monoclinic'
loop_
_space_group_symop_operation_xyz
x,y,z
-x,y,1/2-z
-x,-y,-z
x,-y,1/2+z
loop_
_atom_site_type_symbol
_atom_site_label
_atom_site_fract_x
_atom_site_fract_y
_atom_site_fract_z
Si Si1 0.258298 0.291260 0.394429
Si Si2 0.500000 0.871285 0.250000
Si Si3 0.000000 0.887071 0.750000
Si Si4 0.437699 0.326545 0.026858
Si Si5 0.185521 0.847093 0.190652
Si Si6 0.143648 0.603977 0.437606
O O1 0.125618 0.204549 0.324140
O O2 0.435985 0.251233 0.381847
O O3 0.219122 0.265672 0.560443
O O4 0.241159 0.471050 0.354547
O O5 0.543060 0.766474 0.116149
O O6 0.339057 0.938519 0.221664
O O7 0.916521 0.011712 0.853587
O O8 0.255494 0.336856 0.052816
O O9 0.500000 0.500000 0.000000
O O10 0.127836 0.743034 0.326579
O O11 0.000000 0.500000 0.500000
#
# Coordination Sequence:
#
# PCOD9230792 Si02
#       6
#     4   2   2   4   4   4
#     4  10  22  40  61  89 127 173 219 267 326 394
#     4   8  16  34  60  84 118 168 212 254 326 396
#     4  12  24  38  58  90 128 174 226 272 320 388
#     4   8  16  34  59  86 117 154 200 260 322 383
#     4  10  21  40  62  90 131 173 214 273 334 387
#     4  10  20  37  65  96 120 158 215 276 334 391
#
# _framework density 27.117387000000001
#
# number of rings (size 3 to 8) (size 9 to 14) (size 15 to 20)
#    0.000    2.400    0.000    1.800    0.000    2.400 
#    0.000   13.000    0.000    7.200    0.000    1.400 
#    0.000    0.000    0.000    2.800    0.000    0.800 
#
# Total GULP energy -111503.507263 kJ/mol
# GULP energy per Si atom -5575.175363 kJ/mol
# Density = 2.705567 g / cm^3
# Si number density = 27.117387 Si / 1000 Ang^3
#
#
#
# Elastic Constant Matrix: (Units=GPa)
#
#
# Indices 1 2 3 4 5 6 
#
# 1 222.3544 56.9828 90.8954 0.0000 60.1761 0.0000
# 2 56.9828 87.2388 33.9685 0.0000 34.0678 0.0000
# 3 90.8954 33.9685 105.6553 0.0000 12.1485 0.0000
# 4 0.0000 0.0000 0.0000 18.5621 0.0000 26.1985
# 5 60.1761 34.0678 12.1485 0.0000 60.7141 0.0000
# 6 0.0000 0.0000 0.0000 26.1985 0.0000 59.1972
#
#
#
# Elastic Compliance Matrix: (Units=1/GPa)
#
#
# Indices 1 2 3 4 5 6 
#
# 1 0.009768 -0.000397 -0.007358 0.000000 -0.007987 0.000000
# 2 -0.000397 0.016415 -0.004015 0.000000 -0.008014 0.000000
# 3 -0.007358 -0.004015 0.016364 0.000000 0.006271 0.000000
# 4 0.000000 0.000000 0.000000 0.143520 0.000000 -0.063517
# 5 -0.007987 -0.008014 0.006271 0.000000 0.027629 0.000000
# 6 0.000000 0.000000 0.000000 -0.063517 0.000000 0.045003
#
#
# Mechanical properties :
#
#
# Convention : Reuss Voigt Hill
#
# Bulk Modulus (GPa) = 52.60616 86.54912 69.57764
# Shear Modulus (GPa) = 17.32660 43.25481 30.29071
#
# Velocity S-wave (km/s) = 2.53048 3.99820 3.34581
# Velocity P-wave (km/s) = 5.28955 7.30068 6.37492
#
# Compressibility (1/GPa) = 0.01900918
#
# Stress axis : x y z
#
# Youngs Moduli (GPa) = 102.37306 60.92106 61.10847
#
# Poissons Ratio (x) = 0.02416 0.44962
# Poissons Ratio (y) = 0.04059 0.24534
# Poissons Ratio (z) = 0.75324 0.24458
#
# Static dielectric constant tensor:
#      x y z
#    x 2.385350 0.000000 -0.004670 
#    y 0.000000 2.059380 0.000000 
#    z -0.004670 0.000000 2.123060 
# 
# From -- ./inp_files/28296.got.cif
#   From: 2010.05.17/outbox.cif.g08.bks.cpg/sg13_15_cif.got.tgz:28296.got - 2010.06.03 16:44:36.
