data_PCOD9230870
_publ_section_title
;
Structure prediction by ZEFSAII (Michael W. Deem and Ramdas Pophale) SiO2 
 PCOD9230870
Probable space group: P 2/C
;
_chemical_formula_sum "Si O2"
_cell_formula_units_Z 20
_cell_length_a 8.778843
_cell_length_b 13.206611
_cell_length_c 12.933148
_cell_angle_alpha 90.000000
_cell_angle_beta 50.763404
_cell_angle_gamma 90.000000
_cell_volume 1161.387442
_symmetry_space_group_name_H-M "P 2/C"
_symmetry_group_IT_number 13
_symmetry_cell_setting 'monoclinic'
loop_
_space_group_symop_operation_xyz
x,y,z
-x,y,1/2-z
-x,-y,-z
x,-y,1/2+z
loop_
_atom_site_type_symbol
_atom_site_label
_atom_site_fract_x
_atom_site_fract_y
_atom_site_fract_z
Si Si1 0.253531 0.396046 0.750875
Si Si2 0.189004 0.044540 0.615625
Si Si3 0.000000 0.769871 0.250000
Si Si4 0.550236 0.890402 0.108614
Si Si5 0.684127 0.658234 0.038113
Si Si6 0.000000 0.564945 0.750000
O O1 0.245951 0.368987 0.875499
O O2 0.479498 0.403903 0.617827
O O3 0.126023 0.492428 0.772191
O O4 0.161273 0.300742 0.731006
O O5 0.359415 0.076487 0.623621
O O6 0.000000 0.991918 0.750000
O O7 0.094587 0.152970 0.625788
O O8 0.284157 0.972516 0.491139
O O9 0.500000 0.894196 0.250000
O O10 0.624687 0.776503 0.054322
O O11 0.846560 0.628000 0.884766
#
# Coordination Sequence:
#
# PCOD9230870 Si02
#       6
#     4   4   2   4   4   2
#     4  10  20  38  59  74 110 145 180 213 276 324
#     4   9  20  35  55  81 108 138 183 217 261 317
#     4   9  16  37  56  78 104 149 174 217 266 318
#     4  11  20  36  56  80 108 147 176 217 268 323
#     4  11  20  38  56  80 106 143 180 219 271 318
#     4  11  24  33  58  84 106 137 184 233 260 312
#
# _framework density 17.220783000000001
#
# number of rings (size 3 to 8) (size 9 to 14) (size 15 to 20)
#    0.600    1.200    4.000    1.200    1.400    0.800 
#    0.000    0.000    0.000    0.000    0.000    0.000 
#    0.000    0.000    0.000    0.000    0.000    0.000 
#
# Total GULP energy -111369.008544 kJ/mol
# GULP energy per Si atom -5568.450427 kJ/mol
# Density = 1.718159 g / cm^3
# Si number density = 17.220783 Si / 1000 Ang^3
#
#
#
# Elastic Constant Matrix: (Units=GPa)
#
#
# Indices 1 2 3 4 5 6 
#
# 1 70.0968 39.4830 46.9393 0.0000 -11.2420 0.0000
# 2 39.4830 96.2668 72.4576 0.0000 -7.7324 0.0000
# 3 46.9393 72.4576 139.3080 0.0000 -24.2662 0.0000
# 4 0.0000 0.0000 0.0000 35.1954 0.0000 3.2161
# 5 -11.2420 -7.7324 -24.2662 0.0000 20.2494 0.0000
# 6 0.0000 0.0000 0.0000 3.2161 0.0000 15.9722
#
#
#
# Elastic Compliance Matrix: (Units=1/GPa)
#
#
# Indices 1 2 3 4 5 6 
#
# 1 0.020322 -0.005697 -0.002904 0.000000 0.005627 0.000000
# 2 -0.005697 0.019114 -0.009228 0.000000 -0.006922 0.000000
# 3 -0.002904 -0.009228 0.015244 0.000000 0.013132 0.000000
# 4 0.000000 0.000000 0.000000 0.028945 0.000000 -0.005828
# 5 0.005627 -0.006922 0.013132 0.000000 0.065601 0.000000
# 6 0.000000 0.000000 0.000000 -0.005828 0.000000 0.063782
#
#
# Mechanical properties :
#
#
# Convention : Reuss Voigt Hill
#
# Bulk Modulus (GPa) = 52.57122 69.27016 60.92069
# Shear Modulus (GPa) = 19.60724 24.06952 21.83838
#
# Velocity S-wave (km/s) = 3.37795 3.74264 3.56496
# Velocity P-wave (km/s) = 6.76817 7.68040 7.23867
#
# Compressibility (1/GPa) = 0.01902181
#
# Stress axis : x y z
#
# Youngs Moduli (GPa) = 49.20765 52.31775 65.59969
#
# Poissons Ratio (x) = 0.29806 0.19051
# Poissons Ratio (y) = 0.28034 0.60535
# Poissons Ratio (z) = 0.14290 0.48278
#
# Static dielectric constant tensor:
#      x y z
#    x 1.615550 0.000000 -0.026680 
#    y 0.000000 1.581310 0.000000 
#    z -0.026680 0.000000 1.569610 
# 
# From -- ./inp_files/29696.got.cif
#   From: 2010.05.17/outbox.cif.g08.bks.cpg/sg13_15_cif.got.tgz:29696.got - 2010.06.03 16:44:36.
