data_PCOD9230266
_publ_section_title
;
Structure prediction by ZEFSAII (Michael W. Deem and Ramdas Pophale) SiO2 
 PCOD9230266
Probable space group: P 2/C
;
_chemical_formula_sum "Si O2"
_cell_formula_units_Z 28
_cell_length_a 19.037979
_cell_length_b 8.396039
_cell_length_c 14.446652
_cell_angle_alpha 90.000000
_cell_angle_beta 149.579161
_cell_angle_gamma 90.000000
_cell_volume 1169.260063
_symmetry_space_group_name_H-M "P 2/C"
_symmetry_group_IT_number 13
_symmetry_cell_setting 'monoclinic'
loop_
_space_group_symop_operation_xyz
x,y,z
-x,y,1/2-z
-x,-y,-z
x,-y,1/2+z
loop_
_atom_site_type_symbol
_atom_site_label
_atom_site_fract_x
_atom_site_fract_y
_atom_site_fract_z
Si Si1 0.183711 0.686748 0.779032
Si Si2 0.921177 0.854879 0.013950
Si Si3 0.820849 0.338128 0.694225
Si Si4 0.312361 0.236019 0.121611
Si Si5 0.645282 0.074990 0.949587
Si Si6 0.709227 0.119101 0.713621
Si Si7 0.534591 0.317135 0.023088
O O1 0.087435 0.779723 0.598122
O O2 0.121513 0.515429 0.731168
O O3 0.333309 0.677077 0.895472
O O4 0.227559 0.801244 0.912149
O O5 0.828855 0.756170 0.980516
O O6 0.834422 0.020016 0.904461
O O7 0.078049 0.809972 0.219162
O O8 0.701942 0.352957 0.481188
O O9 0.762462 0.279058 0.724872
O O10 0.423915 0.259803 0.327071
O O11 0.336508 0.068597 0.100785
O O12 0.500000 0.149222 0.750000
O O13 0.657834 0.993072 0.067973
O O14 0.586506 0.189321 0.638385
O O15 0.500000 0.500000 0.000000
#
# Coordination Sequence:
#
# PCOD9230266 Si02
#       7
#     4   4   4   4   4   4   4
#     4  10  23  36  61  92 124 170 210 276 334 394
#     4  10  22  40  63  86 119 171 222 271 323 398
#     4  11  21  41  60  89 125 167 220 267 336 394
#     4  10  23  38  63  87 125 170 212 278 334 388
#     4  10  20  36  58  92 127 162 212 272 328 405
#     4  10  21  37  64  89 122 169 215 271 331 397
#     4  11  21  39  61  96 132 166 222 274 345 401
#
# _framework density 23.946769
#
# number of rings (size 3 to 8) (size 9 to 14) (size 15 to 20)
#    0.000    1.714    2.857    1.286    2.000    2.857 
#    0.000    0.000    0.000    5.143    0.000    0.000 
#    0.000    0.000    0.000    0.000    0.000    0.000 
#
# Total GULP energy -156101.074177 kJ/mol
# GULP energy per Si atom -5575.038363 kJ/mol
# Density = 2.389226 g / cm^3
# Si number density = 23.946769 Si / 1000 Ang^3
#
#
#
# Elastic Constant Matrix: (Units=GPa)
#
#
# Indices 1 2 3 4 5 6 
#
# 1 43.2380 7.0335 4.3668 0.0000 9.3153 0.0000
# 2 7.0335 96.9010 19.5621 0.0000 -3.2570 0.0000
# 3 4.3668 19.5621 72.8553 0.0000 -4.4111 0.0000
# 4 0.0000 0.0000 0.0000 26.2117 0.0000 3.3470
# 5 9.3153 -3.2570 -4.4111 0.0000 32.9052 0.0000
# 6 0.0000 0.0000 0.0000 3.3470 0.0000 24.2901
#
#
#
# Elastic Compliance Matrix: (Units=1/GPa)
#
#
# Indices 1 2 3 4 5 6 
#
# 1 0.025184 -0.001780 -0.001486 0.000000 -0.007505 0.000000
# 2 -0.001780 0.011053 -0.002787 0.000000 0.001224 0.000000
# 3 -0.001486 -0.002787 0.014691 0.000000 0.002114 0.000000
# 4 0.000000 0.000000 0.000000 0.038834 0.000000 -0.005351
# 5 -0.007505 0.001224 0.002114 0.000000 0.032920 0.000000
# 6 0.000000 0.000000 0.000000 -0.005351 0.000000 0.041906
#
#
# Mechanical properties :
#
#
# Convention : Reuss Voigt Hill
#
# Bulk Modulus (GPa) = 25.75843 30.54657 28.15250
# Shear Modulus (GPa) = 26.36638 28.81686 27.59162
#
# Velocity S-wave (km/s) = 3.32179 3.47273 3.39810
# Velocity P-wave (km/s) = 5.04899 5.37248 5.21324
#
# Compressibility (1/GPa) = 0.03882225
#
# Stress axis : x y z
#
# Youngs Moduli (GPa) = 39.70717 90.47479 68.06793
#
# Poissons Ratio (x) = 0.16107 0.10114
# Poissons Ratio (y) = 0.07069 0.18970
# Poissons Ratio (z) = 0.05900 0.25215
#
# Static dielectric constant tensor:
#      x y z
#    x 1.884060 0.000000 0.205120 
#    y 0.000000 1.951080 0.000000 
#    z 0.205120 0.000000 1.661020 
# 
# From -- ./inp_files/50093.got.cif
#   From: 2010.05.17/outbox.cif.g08.bks.cpg/sg13_26_cif.got.tgz:50093.got - 2010.06.03 16:44:36.
