data_PCOD9230137
_publ_section_title
;
Structure prediction by ZEFSAII (Michael W. Deem and Ramdas Pophale) SiO2 
 PCOD9230137
Probable space group: P 2/C
;
_chemical_formula_sum "Si O2"
_cell_formula_units_Z 20
_cell_length_a 17.662448
_cell_length_b 9.509906
_cell_length_c 13.016706
_cell_angle_alpha 90.000000
_cell_angle_beta 152.890957
_cell_angle_gamma 90.000000
_cell_volume 996.307350
_symmetry_space_group_name_H-M "P 2/C"
_symmetry_group_IT_number 13
_symmetry_cell_setting 'monoclinic'
loop_
_space_group_symop_operation_xyz
x,y,z
-x,y,1/2-z
-x,-y,-z
x,-y,1/2+z
loop_
_atom_site_type_symbol
_atom_site_label
_atom_site_fract_x
_atom_site_fract_y
_atom_site_fract_z
Si Si1 0.892137 0.145306 0.710917
Si Si2 0.376863 0.818077 0.776906
Si Si3 0.746336 0.083661 0.739627
Si Si4 0.153940 0.366872 0.123594
Si Si5 0.966514 0.667743 0.589734
O O1 0.723717 0.192621 0.450922
O O2 0.842117 0.053403 0.748529
O O3 0.000000 0.076074 0.750000
O O4 0.005979 0.275236 0.888942
O O5 0.325478 0.685556 0.783366
O O6 0.299300 0.948976 0.747902
O O7 0.570549 0.844531 0.999516
O O8 0.857472 0.195405 0.934615
O O9 0.129858 0.332332 0.214440
O O10 0.126772 0.529029 0.065083
O O11 0.000000 0.653847 0.750000
#
# Coordination Sequence:
#
# PCOD9230137 Si02
#       5
#     4   4   4   4   4
#     4   9  18  34  57  76 101 139 176 213 258 310
#     4  10  20  36  53  76 111 141 172 214 260 317
#     4  10  22  34  52  82 108 136 175 217 263 310
#     4   9  20  36  56  78 103 139 181 214 256 318
#     4  10  20  36  55  79 107 136 176 224 261 300
#
# _framework density 20.074124999999999
#
# number of rings (size 3 to 8) (size 9 to 14) (size 15 to 20)
#    0.000    2.400    0.000    2.400    0.000   12.000 
#    0.000    3.000    0.000    0.000    0.000    0.000 
#    0.000    0.000    0.000    0.000    0.000    0.000 
#
# Total GULP energy -111611.930420 kJ/mol
# GULP energy per Si atom -5580.596521 kJ/mol
# Density = 2.002844 g / cm^3
# Si number density = 20.074125 Si / 1000 Ang^3
#
#
#
# Elastic Constant Matrix: (Units=GPa)
#
#
# Indices 1 2 3 4 5 6 
#
# 1 132.6230 25.3811 24.3054 0.0000 -23.9832 0.0000
# 2 25.3811 54.0377 -6.6737 0.0000 2.4395 0.0000
# 3 24.3054 -6.6737 37.2940 0.0000 -11.8819 0.0000
# 4 0.0000 0.0000 0.0000 16.3678 0.0000 4.0218
# 5 -23.9832 2.4395 -11.8819 0.0000 30.3480 0.0000
# 6 0.0000 0.0000 0.0000 4.0218 0.0000 20.3251
#
#
#
# Elastic Compliance Matrix: (Units=1/GPa)
#
#
# Indices 1 2 3 4 5 6 
#
# 1 0.011122 -0.006298 -0.006186 0.000000 0.006874 0.000000
# 2 -0.006298 0.022492 0.006818 0.000000 -0.004116 0.000000
# 3 -0.006186 0.006818 0.034656 0.000000 0.008132 0.000000
# 4 0.000000 0.000000 0.000000 0.064218 0.000000 -0.012707
# 5 0.006874 -0.004116 0.008132 0.000000 0.041898 0.000000
# 6 0.000000 0.000000 0.000000 -0.012707 0.000000 0.051714
#
#
# Mechanical properties :
#
#
# Convention : Reuss Voigt Hill
#
# Bulk Modulus (GPa) = 17.56263 34.44227 26.00245
# Shear Modulus (GPa) = 19.49990 25.47098 22.48544
#
# Velocity S-wave (km/s) = 3.12010 3.56595 3.35045
# Velocity P-wave (km/s) = 4.66347 5.84375 5.28665
#
# Compressibility (1/GPa) = 0.05693909
#
# Stress axis : x y z
#
# Youngs Moduli (GPa) = 89.91014 44.46088 28.85473
#
# Poissons Ratio (x) = 0.28003 0.17848
# Poissons Ratio (y) = 0.56628 -0.19674
# Poissons Ratio (z) = 0.55615 -0.30315
#
# Static dielectric constant tensor:
#      x y z
#    x 1.745400 0.000000 -0.003930 
#    y 0.000000 1.707570 0.000000 
#    z -0.003930 0.000000 1.706330 
# 
# From -- ./inp_files/28279.got.cif
#   From: 2010.05.17/outbox.cif.g08.bks.cpg/sg13_15_cif.got.tgz:28279.got - 2010.06.03 16:44:36.
