data_PCOD9230510
_publ_section_title
;
Structure prediction by ZEFSAII (Michael W. Deem and Ramdas Pophale) SiO2 
 PCOD9230510
Probable space group: P 2/C
;
_chemical_formula_sum "Si O2"
_cell_formula_units_Z 20
_cell_length_a 14.919131
_cell_length_b 7.551555
_cell_length_c 14.600564
_cell_angle_alpha 90.000000
_cell_angle_beta 149.101619
_cell_angle_gamma 90.000000
_cell_volume 844.703667
_symmetry_space_group_name_H-M "P 2/C"
_symmetry_group_IT_number 13
_symmetry_cell_setting 'monoclinic'
loop_
_space_group_symop_operation_xyz
x,y,z
-x,y,1/2-z
-x,-y,-z
x,-y,1/2+z
loop_
_atom_site_type_symbol
_atom_site_label
_atom_site_fract_x
_atom_site_fract_y
_atom_site_fract_z
Si Si1 0.193252 0.692948 0.602564
Si Si2 0.000000 0.655392 0.750000
Si Si3 0.500000 0.223210 0.250000
Si Si4 0.190826 0.468386 0.773883
Si Si5 0.979837 0.991192 0.630692
Si Si6 0.639815 0.096540 0.559937
O O1 0.351172 0.663820 0.670754
O O2 0.239447 0.615895 0.742012
O O3 0.007040 0.602782 0.417345
O O4 0.147945 0.899694 0.545180
O O5 0.160083 0.549770 0.847069
O O6 0.931602 0.790018 0.611134
O O7 0.582177 0.104243 0.403094
O O8 0.681484 0.698261 0.119942
O O9 0.000000 0.080445 0.750000
O O10 0.176117 0.998857 0.768050
O O11 0.500000 0.000000 0.500000
#
# Coordination Sequence:
#
# PCOD9230510 Si02
#       6
#     4   2   2   4   4   4
#     4  10  22  43  67 100 134 193 230 302 370 439
#     4  10  20  36  72 100 126 192 242 298 350 424
#     4  12  22  40  72  98 140 184 234 306 376 424
#     4  10  23  45  68  98 143 187 245 299 365 447
#     4   9  20  43  65  94 137 185 233 288 361 442
#     4  11  25  46  67 100 146 190 243 307 370 439
#
# _framework density 23.676943999999999
#
# number of rings (size 3 to 8) (size 9 to 14) (size 15 to 20)
#    0.600    1.200    2.000    1.200    5.600    1.600 
#   21.600    0.000    0.000    0.000    0.000    0.000 
#    0.000    0.000    0.000    0.000    0.000    0.000 
#
# Total GULP energy -111730.085118 kJ/mol
# GULP energy per Si atom -5586.504256 kJ/mol
# Density = 2.362305 g / cm^3
# Si number density = 23.676944 Si / 1000 Ang^3
#
#
#
# Elastic Constant Matrix: (Units=GPa)
#
#
# Indices 1 2 3 4 5 6 
#
# 1 210.4369 85.3024 68.3062 0.0000 25.3402 0.0000
# 2 85.3024 137.1577 35.8618 0.0000 8.1700 0.0000
# 3 68.3062 35.8618 85.1683 0.0000 17.3179 0.0000
# 4 0.0000 0.0000 0.0000 16.9769 0.0000 1.7921
# 5 25.3402 8.1700 17.3179 0.0000 47.9441 0.0000
# 6 0.0000 0.0000 0.0000 1.7921 0.0000 52.5013
#
#
#
# Elastic Compliance Matrix: (Units=1/GPa)
#
#
# Indices 1 2 3 4 5 6 
#
# 1 0.007892 -0.003642 -0.004397 0.000000 -0.001962 0.000000
# 2 -0.003642 0.009874 -0.001388 0.000000 0.000744 0.000000
# 3 -0.004397 -0.001388 0.016547 0.000000 -0.003417 0.000000
# 4 0.000000 0.000000 0.000000 0.059116 0.000000 -0.002018
# 5 -0.001962 0.000744 -0.003417 0.000000 0.023002 0.000000
# 6 0.000000 0.000000 0.000000 -0.002018 0.000000 0.019116
#
#
# Mechanical properties :
#
#
# Convention : Reuss Voigt Hill
#
# Bulk Modulus (GPa) = 64.68513 90.18931 77.43722
# Shear Modulus (GPa) = 31.33725 39.70398 35.52061
#
# Velocity S-wave (km/s) = 3.64199 4.09945 3.87747
# Velocity P-wave (km/s) = 6.71302 7.78342 7.26795
#
# Compressibility (1/GPa) = 0.01545950
#
# Stress axis : x y z
#
# Youngs Moduli (GPa) = 126.71677 101.27220 60.43341
#
# Poissons Ratio (x) = 0.36878 0.26572
# Poissons Ratio (y) = 0.46144 0.08391
# Poissons Ratio (z) = 0.55716 0.14061
#
# Static dielectric constant tensor:
#      x y z
#    x 1.948500 0.000000 -0.022150 
#    y 0.000000 1.944260 0.000000 
#    z -0.022150 0.000000 1.911020 
# 
# From -- ./inp_files/67851.got.cif
#   From: 2010.05.17/outbox.cif.g08.bks.cpg/sg13_34_cif.got.tgz:67851.got - 2010.06.03 16:44:36.
