data_PCOD9230549
_publ_section_title
;
Structure prediction by ZEFSAII (Michael W. Deem and Ramdas Pophale) SiO2 
 PCOD9230549
Probable space group: P 2/C
;
_chemical_formula_sum "Si O2"
_cell_formula_units_Z 20
_cell_length_a 12.851199
_cell_length_b 5.148528
_cell_length_c 23.592883
_cell_angle_alpha 90.000000
_cell_angle_beta 147.564670
_cell_angle_gamma 90.000000
_cell_volume 837.247505
_symmetry_space_group_name_H-M "P 2/C"
_symmetry_group_IT_number 13
_symmetry_cell_setting 'monoclinic'
loop_
_space_group_symop_operation_xyz
x,y,z
-x,y,1/2-z
-x,-y,-z
x,-y,1/2+z
loop_
_atom_site_type_symbol
_atom_site_label
_atom_site_fract_x
_atom_site_fract_y
_atom_site_fract_z
Si Si1 0.629656 0.656906 0.496952
Si Si2 0.301612 0.514010 0.275685
Si Si3 0.967189 0.805969 0.590969
Si Si4 0.342093 0.032375 0.225797
Si Si5 0.840601 0.143406 0.628364
O O1 0.407203 0.631627 0.378316
O O2 0.746154 0.711050 0.490071
O O3 0.708236 0.389388 0.556769
O O4 0.702469 0.888901 0.570190
O O5 0.084693 0.406125 0.182464
O O6 0.320166 0.738596 0.237266
O O7 0.403772 0.243349 0.302385
O O8 0.120881 0.861501 0.611766
O O9 0.954414 0.063387 0.622911
O O10 0.500000 0.047569 0.250000
O O11 0.000000 0.166740 0.750000
#
# Coordination Sequence:
#
# PCOD9230549 Si02
#       5
#     4   4   4   4   4
#     4  10  20  37  59  82 112 146 183 228 275 325
#     4  10  20  37  59  82 112 146 183 228 275 325
#     4   8  22  34  60  78 116 144 182 224 284 312
#     4  10  20  37  58  81 111 148 184 226 274 325
#     4  10  20  37  58  81 111 148 184 226 274 325
#
# _framework density 23.887799999999999
#
# number of rings (size 3 to 8) (size 9 to 14) (size 15 to 20)
#    2.400    0.000    0.000    3.600    0.000    0.000 
#    0.000    4.000    0.000    0.000    0.000    0.000 
#    0.000    0.000    0.000    0.000    0.000    0.000 
#
# Total GULP energy -111349.821161 kJ/mol
# GULP energy per Si atom -5567.491058 kJ/mol
# Density = 2.383343 g / cm^3
# Si number density = 23.887800 Si / 1000 Ang^3
#
#
#
# Elastic Constant Matrix: (Units=GPa)
#
#
# Indices 1 2 3 4 5 6 
#
# 1 87.4301 -14.9385 -14.2304 0.0000 27.4349 0.0000
# 2 -14.9385 147.8580 8.2054 0.0000 -1.3998 0.0000
# 3 -14.2304 8.2054 58.3133 0.0000 12.7429 0.0000
# 4 0.0000 0.0000 0.0000 27.2153 0.0000 -0.3549
# 5 27.4349 -1.3998 12.7429 0.0000 21.3615 0.0000
# 6 0.0000 0.0000 0.0000 -0.3549 0.0000 11.3962
#
#
#
# Elastic Compliance Matrix: (Units=1/GPa)
#
#
# Indices 1 2 3 4 5 6 
#
# 1 0.030002 0.001578 0.017820 0.000000 -0.049060 0.000000
# 2 0.001578 0.006925 -0.000283 0.000000 -0.001404 0.000000
# 3 0.017820 -0.000283 0.030521 0.000000 -0.041113 0.000000
# 4 0.000000 0.000000 0.000000 0.036759 0.000000 0.001145
# 5 -0.049060 -0.001404 -0.041113 0.000000 0.134254 0.000000
# 6 0.000000 0.000000 0.000000 0.001145 0.000000 0.087784
#
#
# Mechanical properties :
#
#
# Convention : Reuss Voigt Hill
#
# Bulk Modulus (GPa) = 9.46254 27.96380 18.71317
# Shear Modulus (GPa) = 15.46829 32.96559 24.21694
#
# Velocity S-wave (km/s) = 2.54744 3.71889 3.18744
# Velocity P-wave (km/s) = 3.55281 5.49290 4.62571
#
# Compressibility (1/GPa) = 0.10567987
#
# Stress axis : x y z
#
# Youngs Moduli (GPa) = 33.33074 144.40336 32.76393
#
# Poissons Ratio (x) = -0.22784 -0.58386
# Poissons Ratio (y) = -0.05259 0.00926
# Poissons Ratio (z) = -0.59396 0.04080
#
# Static dielectric constant tensor:
#      x y z
#    x 2.042240 0.000000 0.011570 
#    y 0.000000 1.884010 0.000000 
#    z 0.011570 0.000000 1.909590 
# 
# From -- ./inp_files/57944.got.cif
#   From: 2010.05.17/outbox.cif.g08.bks.cpg/sg13_29_cif.got.tgz:57944.got - 2010.06.03 16:44:36.
