data_PCOD9230052
_publ_section_title
;
Structure prediction by ZEFSAII (Michael W. Deem and Ramdas Pophale) SiO2 
 PCOD9230052
Probable space group: P 2/C
;
_chemical_formula_sum "Si O2"
_cell_formula_units_Z 20
_cell_length_a 9.536646
_cell_length_b 7.265270
_cell_length_c 14.352602
_cell_angle_alpha 90.000000
_cell_angle_beta 118.131963
_cell_angle_gamma 90.000000
_cell_volume 876.959752
_symmetry_space_group_name_H-M "P 2/C"
_symmetry_group_IT_number 13
_symmetry_cell_setting 'monoclinic'
loop_
_space_group_symop_operation_xyz
x,y,z
-x,y,1/2-z
-x,-y,-z
x,-y,1/2+z
loop_
_atom_site_type_symbol
_atom_site_label
_atom_site_fract_x
_atom_site_fract_y
_atom_site_fract_z
Si Si1 0.813772 0.375729 0.665770
Si Si2 0.216634 0.937841 0.069291
Si Si3 0.947116 0.699632 0.018569
Si Si4 0.562462 0.069088 0.622406
Si Si5 0.175839 0.810320 0.838193
O O1 0.820127 0.332395 0.558690
O O2 0.795902 0.594193 0.668798
O O3 0.000000 0.332514 0.750000
O O4 0.663899 0.258202 0.654376
O O5 0.114751 0.794630 0.097457
O O6 0.404984 0.928132 0.134832
O O7 0.185886 0.871904 0.950681
O O8 0.140766 0.137757 0.065374
O O9 0.000000 0.500000 0.000000
O O10 0.696440 0.918380 0.682790
O O11 0.500000 0.000000 0.500000
O O12 0.000000 0.855859 0.750000
#
# Coordination Sequence:
#
# PCOD9230052 Si02
#       5
#     4   4   4   4   4
#     4  11  22  37  62  86 114 154 197 238 288 344
#     4  10  22  36  58  88 110 152 194 235 291 336
#     4  11  21  37  58  84 117 150 188 239 288 347
#     4  10  20  36  58  87 114 148 196 238 279 342
#     4  10  20  35  59  88 114 151 193 238 284 341
#
# _framework density 22.806063000000002
#
# number of rings (size 3 to 8) (size 9 to 14) (size 15 to 20)
#    0.000    1.600    6.000    0.600    0.000    4.800 
#    0.000    1.000    0.000    0.000    0.000    0.000 
#    0.000    0.000    0.000    0.000    0.000    0.000 
#
# Total GULP energy -111537.703952 kJ/mol
# GULP energy per Si atom -5576.885198 kJ/mol
# Density = 2.275416 g / cm^3
# Si number density = 22.806063 Si / 1000 Ang^3
#
#
#
# Elastic Constant Matrix: (Units=GPa)
#
#
# Indices 1 2 3 4 5 6 
#
# 1 218.7750 91.9204 13.1873 0.0000 26.3411 0.0000
# 2 91.9204 181.2761 17.1054 0.0000 24.8357 0.0000
# 3 13.1873 17.1054 69.6226 0.0000 27.7216 0.0000
# 4 0.0000 0.0000 0.0000 11.6257 0.0000 10.7033
# 5 26.3411 24.8357 27.7216 0.0000 33.0620 0.0000
# 6 0.0000 0.0000 0.0000 10.7033 0.0000 4.5402
#
#
#
# Elastic Compliance Matrix: (Units=1/GPa)
#
#
# Indices 1 2 3 4 5 6 
#
# 1 0.006073 -0.002672 0.000951 0.000000 -0.003629 0.000000
# 2 -0.002672 0.007336 0.000075 0.000000 -0.003445 0.000000
# 3 0.000951 0.000075 0.021750 0.000000 -0.019051 0.000000
# 4 0.000000 0.000000 0.000000 -0.073494 0.000000 0.173256
# 5 -0.003629 -0.003445 -0.019051 0.000000 0.051700 0.000000
# 6 0.000000 0.000000 0.000000 0.173256 0.000000 -0.188187
#
#
# Mechanical properties :
#
#
# Convention : Reuss Voigt Hill
#
# Bulk Modulus (GPa) = 31.37892 79.34442 55.36167
# Shear Modulus (GPa) = -31.07366 33.00964 0.96799
#
# Velocity S-wave (km/s) = -3.69523 3.80861 0.65220
# Velocity P-wave (km/s) = 2.10177 7.36255 4.98947
#
# Compressibility (1/GPa) = 0.03186853
#
# Stress axis : x y z
#
# Youngs Moduli (GPa) = 164.65704 136.30812 45.97670
#
# Poissons Ratio (x) = 0.36424 -0.04373
# Poissons Ratio (y) = 0.43999 -0.00347
# Poissons Ratio (z) = -0.15660 -0.01029
#
# Static dielectric constant tensor:
#      x y z
#    x 1.799050 0.000000 -0.067460 
#    y 0.000000 3.262990 0.000000 
#    z -0.067460 0.000000 1.906700 
# 
# From -- ./inp_files/74240.got.cif
#   From: 2010.05.17/outbox.cif.g08.bks.cpg/sg13_38_cif.got.tgz:74240.got - 2010.06.03 16:44:36.
