data_PCOD9230798
_publ_section_title
;
Structure prediction by ZEFSAII (Michael W. Deem and Ramdas Pophale) SiO2 
 PCOD9230798
Probable space group: P 2/C
;
_chemical_formula_sum "Si O2"
_cell_formula_units_Z 32
_cell_length_a 14.362717
_cell_length_b 8.972553
_cell_length_c 12.358315
_cell_angle_alpha 90.000000
_cell_angle_beta 52.474444
_cell_angle_gamma 90.000000
_cell_volume 1263.077045
_symmetry_space_group_name_H-M "P 2/C"
_symmetry_group_IT_number 13
_symmetry_cell_setting 'monoclinic'
loop_
_space_group_symop_operation_xyz
x,y,z
-x,y,1/2-z
-x,-y,-z
x,-y,1/2+z
loop_
_atom_site_type_symbol
_atom_site_label
_atom_site_fract_x
_atom_site_fract_y
_atom_site_fract_z
Si Si1 0.865593 0.838585 0.308293
Si Si2 0.785852 0.246895 0.095144
Si Si3 0.961218 0.826197 0.016581
Si Si4 0.319363 0.583173 0.592298
Si Si5 0.617496 0.513456 0.686224
Si Si6 0.375622 0.036292 0.782393
Si Si7 0.193344 0.168783 0.080955
Si Si8 0.570876 0.296170 0.899444
O O1 0.792048 0.764758 0.458554
O O2 0.000000 0.815610 0.250000
O O3 0.839280 0.014098 0.337904
O O4 0.868199 0.795948 0.179584
O O5 0.918070 0.255997 0.042308
O O6 0.713348 0.391339 0.182239
O O7 0.710855 0.101673 0.179683
O O8 0.906345 0.795653 0.938281
O O9 0.000000 0.000000 0.000000
O O10 0.323284 0.549310 0.460470
O O11 0.217785 0.707594 0.655048
O O12 0.335122 0.409459 0.615272
O O13 0.442110 0.668221 0.537710
O O14 0.500000 0.611092 0.750000
O O15 0.568007 0.376907 0.787018
O O16 0.500000 0.995287 0.750000
O O17 0.399185 0.128156 0.654090
O O18 0.305472 0.129574 0.924704
#
# Coordination Sequence:
#
# PCOD9230798 Si02
#       8
#     4   4   4   4   4   4   4   4
#     4   9  19  36  58  89 125 164 210 264 313 381
#     4  10  22  36  61  96 129 165 210 270 322 387
#     4  11  20  38  61  91 118 173 212 254 327 379
#     4  10  21  38  61  91 120 168 221 253 323 386
#     4  10  20  40  61  88 129 166 202 266 324 379
#     4  11  18  35  64  94 124 169 212 262 320 382
#     4  11  20  37  65  91 122 168 225 263 310 388
#     4  10  20  37  66  87 123 171 210 258 318 393
#
# _framework density 25.334955000000001
#
# number of rings (size 3 to 8) (size 9 to 14) (size 15 to 20)
#    0.000    1.750    6.250    0.750    0.000    2.000 
#    0.000    0.625    0.000    6.750    0.000    0.000 
#    0.000    0.000    0.000    0.000    0.000    0.000 
#
# Total GULP energy -178623.390171 kJ/mol
# GULP energy per Si atom -5581.980943 kJ/mol
# Density = 2.527729 g / cm^3
# Si number density = 25.334955 Si / 1000 Ang^3
#
#
#
# Elastic Constant Matrix: (Units=GPa)
#
#
# Indices 1 2 3 4 5 6 
#
# 1 128.0030 24.3479 -2.0004 0.0000 -8.5296 0.0000
# 2 24.3479 50.5970 14.3380 0.0000 -15.7910 0.0000
# 3 -2.0004 14.3380 84.9897 0.0000 -10.3960 0.0000
# 4 0.0000 0.0000 0.0000 23.1777 0.0000 2.4730
# 5 -8.5296 -15.7910 -10.3960 0.0000 37.2902 0.0000
# 6 0.0000 0.0000 0.0000 2.4730 0.0000 37.8718
#
#
#
# Elastic Compliance Matrix: (Units=1/GPa)
#
#
# Indices 1 2 3 4 5 6 
#
# 1 0.008678 -0.004321 0.000986 0.000000 0.000430 0.000000
# 2 -0.004321 0.025567 -0.003325 0.000000 0.008911 0.000000
# 3 0.000986 -0.003325 0.012637 0.000000 0.002340 0.000000
# 4 0.000000 0.000000 0.000000 0.043448 0.000000 -0.002837
# 5 0.000430 0.008911 0.002340 0.000000 0.031341 0.000000
# 6 0.000000 0.000000 0.000000 -0.002837 0.000000 0.026590
#
#
# Mechanical properties :
#
#
# Convention : Reuss Voigt Hill
#
# Bulk Modulus (GPa) = 29.79644 37.44009 33.61826
# Shear Modulus (GPa) = 28.94052 34.79488 31.86770
#
# Velocity S-wave (km/s) = 3.38348 3.70995 3.55047
# Velocity P-wave (km/s) = 5.20101 5.75863 5.48691
#
# Compressibility (1/GPa) = 0.03356105
#
# Stress axis : x y z
#
# Youngs Moduli (GPa) = 115.22933 39.11326 79.13565
#
# Poissons Ratio (x) = 0.16902 -0.07802
# Poissons Ratio (y) = 0.49794 0.26312
# Poissons Ratio (z) = -0.11360 0.13005
#
# Static dielectric constant tensor:
#      x y z
#    x 2.187270 0.000000 0.055810 
#    y 0.000000 2.065590 0.000000 
#    z 0.055810 0.000000 2.115500 
# 
# From -- ./inp_files/57254.got.cif
#   From: 2010.05.17/outbox.cif.g08.bks.cpg/sg13_29_cif.got.tgz:57254.got - 2010.06.03 16:44:36.
