data_PCOD9230700
_publ_section_title
;
Structure prediction by ZEFSAII (Michael W. Deem and Ramdas Pophale) SiO2 
 PCOD9230700
Probable space group: P 2/C
;
_chemical_formula_sum "Si O2"
_cell_formula_units_Z 28
_cell_length_a 19.110912
_cell_length_b 5.127225
_cell_length_c 24.342730
_cell_angle_alpha 90.000000
_cell_angle_beta 30.963683
_cell_angle_gamma 90.000000
_cell_volume 1227.196020
_symmetry_space_group_name_H-M "P 2/C"
_symmetry_group_IT_number 13
_symmetry_cell_setting 'monoclinic'
loop_
_space_group_symop_operation_xyz
x,y,z
-x,y,1/2-z
-x,-y,-z
x,-y,1/2+z
loop_
_atom_site_type_symbol
_atom_site_label
_atom_site_fract_x
_atom_site_fract_y
_atom_site_fract_z
Si Si1 0.889057 0.263920 0.024348
Si Si2 0.758415 0.562540 0.355006
Si Si3 0.156415 0.039995 0.335017
Si Si4 0.701150 0.668976 0.011112
Si Si5 0.349423 0.060839 0.119548
Si Si6 0.980962 0.651323 0.871046
Si Si7 0.635549 0.148640 0.122179
O O1 0.831431 0.251354 0.124851
O O2 0.772914 0.106497 0.067421
O O3 0.913098 0.510471 0.969413
O O4 0.046670 0.172860 0.927945
O O5 0.703264 0.444140 0.448686
O O6 0.681051 0.369573 0.364138
O O7 0.917099 0.522268 0.233818
O O8 0.731269 0.867678 0.367260
O O9 0.301616 0.966817 0.212318
O O10 0.076195 0.137445 0.335074
O O11 0.654716 0.429435 0.080932
O O12 0.624730 0.926793 0.082744
O O13 0.858842 0.741605 0.915908
O O14 0.500000 0.000000 0.000000
O O15 0.500000 0.144488 0.250000
#
# Coordination Sequence:
#
# PCOD9230700 Si02
#       7
#     4   4   4   4   4   4   4
#     4  10  20  37  62  89 123 163 211 260 311 371
#     4  11  23  40  65  91 125 165 208 256 317 376
#     4  10  20  37  62  90 121 165 210 258 315 367
#     4  11  23  40  65  91 125 165 209 256 316 379
#     4  11  24  43  62  92 129 165 209 263 313 377
#     4  10  20  38  60  94 126 161 209 266 312 369
#     4  11  24  43  62  92 129 166 210 264 315 375
#
# _framework density 22.816241000000002
#
# number of rings (size 3 to 8) (size 9 to 14) (size 15 to 20)
#    0.000    1.429    2.857    2.571    0.000    2.286 
#    0.000    2.857    0.000    0.000    0.000    0.000 
#    0.000    0.000    0.000    0.000    0.000    0.000 
#
# Total GULP energy -155985.261216 kJ/mol
# GULP energy per Si atom -5570.902186 kJ/mol
# Density = 2.276431 g / cm^3
# Si number density = 22.816241 Si / 1000 Ang^3
#
#
#
# Elastic Constant Matrix: (Units=GPa)
#
#
# Indices 1 2 3 4 5 6 
#
# 1 21.1276 1.1919 21.7696 0.0000 10.4991 0.0000
# 2 1.1919 68.6497 15.3602 0.0000 1.7359 0.0000
# 3 21.7696 15.3602 144.7719 0.0000 2.4184 0.0000
# 4 0.0000 0.0000 0.0000 25.4130 0.0000 0.2320
# 5 10.4991 1.7359 2.4184 0.0000 22.5295 0.0000
# 6 0.0000 0.0000 0.0000 0.2320 0.0000 15.4415
#
#
#
# Elastic Compliance Matrix: (Units=1/GPa)
#
#
# Indices 1 2 3 4 5 6 
#
# 1 0.075537 0.002014 -0.011001 0.000000 -0.034176 0.000000
# 2 0.002014 0.014996 -0.001862 0.000000 -0.001894 0.000000
# 3 -0.011001 -0.001862 0.008687 0.000000 0.004338 0.000000
# 4 0.000000 0.000000 0.000000 0.039355 0.000000 -0.000591
# 5 -0.034176 -0.001894 0.004338 0.000000 0.059993 0.000000
# 6 0.000000 0.000000 0.000000 -0.000591 0.000000 0.064770
#
#
# Mechanical properties :
#
#
# Convention : Reuss Voigt Hill
#
# Bulk Modulus (GPa) = 12.89973 34.57696 23.73835
# Shear Modulus (GPa) = 16.08351 25.75863 20.92107
#
# Velocity S-wave (km/s) = 2.65790 3.36365 3.03138
# Velocity P-wave (km/s) = 3.88398 5.50208 4.76226
#
# Compressibility (1/GPa) = 0.07752098
#
# Stress axis : x y z
#
# Youngs Moduli (GPa) = 13.23856 66.68298 115.11664
#
# Poissons Ratio (x) = -0.13431 1.26644
# Poissons Ratio (y) = -0.02666 0.21439
# Poissons Ratio (z) = 0.14564 0.12419
#
# Static dielectric constant tensor:
#      x y z
#    x 1.923010 0.000000 -0.011550 
#    y 0.000000 1.908570 0.000000 
#    z -0.011550 0.000000 1.975820 
# 
# From -- ./inp_files/88299.got.cif
#   From: 2010.05.17/outbox.cif.g08.bks.cpg/sg13_45_cif.got.tgz:88299.got - 2010.06.03 16:44:36.
