data_PCOD9230084
_publ_section_title
;
Structure prediction by ZEFSAII (Michael W. Deem and Ramdas Pophale) SiO2 
 PCOD9230084
Probable space group: P 2/C
;
_chemical_formula_sum "Si O2"
_cell_formula_units_Z 24
_cell_length_a 22.598338
_cell_length_b 10.078776
_cell_length_c 5.355947
_cell_angle_alpha 90.000000
_cell_angle_beta 123.280246
_cell_angle_gamma 90.000000
_cell_volume 1019.823640
_symmetry_space_group_name_H-M "P 2/C"
_symmetry_group_IT_number 13
_symmetry_cell_setting 'monoclinic'
loop_
_space_group_symop_operation_xyz
x,y,z
-x,y,1/2-z
-x,-y,-z
x,-y,1/2+z
loop_
_atom_site_type_symbol
_atom_site_label
_atom_site_fract_x
_atom_site_fract_y
_atom_site_fract_z
Si Si1 0.529857 0.350027 0.068741
Si Si2 0.817886 0.428408 0.383725
Si Si3 0.693190 0.329753 0.362187
Si Si4 0.676428 0.966955 0.716586
Si Si5 0.208050 0.197974 0.516485
Si Si6 0.923937 0.085449 0.028334
O O1 0.500000 0.285573 0.250000
O O2 0.613887 0.362733 0.248922
O O3 0.500000 0.283590 0.750000
O O4 0.500000 0.500000 0.000000
O O5 0.845003 0.481183 0.715338
O O6 0.733797 0.425238 0.264179
O O7 0.825295 0.278093 0.294208
O O8 0.692061 0.186789 0.221700
O O9 0.739195 0.296098 0.714557
O O10 0.637244 0.020944 0.386940
O O11 0.746547 0.061961 0.916243
O O12 0.144525 0.168546 0.559901
O O13 0.000000 0.153560 0.250000
O O14 0.922186 0.972350 0.244089
#
# Coordination Sequence:
#
# PCOD9230084 Si02
#       6
#     4   4   4   4   4   4
#     4  10  25  41  61  87 124 169 218 271 344 403
#     4  12  26  39  60  98 135 169 226 284 332 391
#     4  11  24  41  68  97 129 171 226 284 336 412
#     4  10  20  35  60  96 122 159 208 265 334 390
#     4  11  23  41  69  99 139 175 222 284 342 400
#     4  10  22  39  66 107 150 184 223 276 342 409
#
# _framework density 23.533480999999998
#
# number of rings (size 3 to 8) (size 9 to 14) (size 15 to 20)
#    0.000    1.333    3.333    2.000    9.333    0.000 
#    0.000    0.000    0.000   13.000    0.000    0.000 
#    0.000    0.000    0.000    0.000    0.000    0.000 
#
# Total GULP energy -133840.994107 kJ/mol
# GULP energy per Si atom -5576.708088 kJ/mol
# Density = 2.347992 g / cm^3
# Si number density = 23.533481 Si / 1000 Ang^3
#
#
#
# Elastic Constant Matrix: (Units=GPa)
#
#
# Indices 1 2 3 4 5 6 
#
# 1 95.3031 21.8840 28.2639 0.0000 -7.7615 0.0000
# 2 21.8840 67.9646 6.8752 0.0000 18.4863 0.0000
# 3 28.2639 6.8752 88.2551 0.0000 -28.0528 0.0000
# 4 0.0000 0.0000 0.0000 19.8820 0.0000 -9.5177
# 5 -7.7615 18.4863 -28.0528 0.0000 48.6307 0.0000
# 6 0.0000 0.0000 0.0000 -9.5177 0.0000 32.2423
#
#
#
# Elastic Compliance Matrix: (Units=1/GPa)
#
#
# Indices 1 2 3 4 5 6 
#
# 1 0.012529 -0.004211 -0.003110 0.000000 0.001806 0.000000
# 2 -0.004211 0.019062 -0.003249 0.000000 -0.009792 0.000000
# 3 -0.003110 -0.003249 0.015692 0.000000 0.009791 0.000000
# 4 0.000000 0.000000 0.000000 0.058574 0.000000 0.017291
# 5 0.001806 -0.009792 0.009791 0.000000 0.030222 0.000000
# 6 0.000000 0.000000 0.000000 0.017291 0.000000 0.036119
#
#
# Mechanical properties :
#
#
# Convention : Reuss Voigt Hill
#
# Bulk Modulus (GPa) = 38.25202 40.61876 39.43539
# Shear Modulus (GPa) = 24.74606 33.11764 28.93185
#
# Velocity S-wave (km/s) = 3.24624 3.75541 3.51007
# Velocity P-wave (km/s) = 5.50821 6.00846 5.76376
#
# Compressibility (1/GPa) = 0.02614241
#
# Stress axis : x y z
#
# Youngs Moduli (GPa) = 79.81282 52.46151 63.72652
#
# Poissons Ratio (x) = 0.22091 0.19821
# Poissons Ratio (y) = 0.33609 0.20704
# Poissons Ratio (z) = 0.24825 0.17044
#
# Static dielectric constant tensor:
#      x y z
#    x 1.884600 0.000000 -0.053160 
#    y 0.000000 1.939800 0.000000 
#    z -0.053160 0.000000 1.975220 
# 
# From -- ./inp_files/6887.got.cif
#   From: 2010.05.17/outbox.cif.g08.bks.cpg/sg13_4_cif.got.tgz:6887.got - 2010.06.03 16:44:36.
