data_PCOD9230326
_publ_section_title
;
Structure prediction by ZEFSAII (Michael W. Deem and Ramdas Pophale) SiO2 
 PCOD9230326
Probable space group: P 2/C
;
_chemical_formula_sum "Si O2"
_cell_formula_units_Z 22
_cell_length_a 26.417557
_cell_length_b 6.726256
_cell_length_c 17.191813
_cell_angle_alpha 90.000000
_cell_angle_beta 159.604199
_cell_angle_gamma 90.000000
_cell_volume 1064.620168
_symmetry_space_group_name_H-M "P 2/C"
_symmetry_group_IT_number 13
_symmetry_cell_setting 'monoclinic'
loop_
_space_group_symop_operation_xyz
x,y,z
-x,y,1/2-z
-x,-y,-z
x,-y,1/2+z
loop_
_atom_site_type_symbol
_atom_site_label
_atom_site_fract_x
_atom_site_fract_y
_atom_site_fract_z
Si Si1 0.027026 0.770752 0.539683
Si Si2 0.500000 0.662084 0.250000
Si Si3 0.408430 0.181320 0.906336
Si Si4 0.196919 0.486973 0.869498
Si Si5 0.699555 0.180333 0.171221
Si Si6 0.674405 0.430888 0.293584
O O1 0.095864 0.682436 0.717327
O O2 0.156452 0.745126 0.663956
O O3 0.883221 0.658805 0.305326
O O4 0.000000 0.000000 0.500000
O O5 0.639696 0.540313 0.421019
O O6 0.566310 0.784807 0.418821
O O7 0.337461 0.333884 0.742565
O O8 0.302048 0.053914 0.807798
O O9 0.525663 0.331735 0.113088
O O10 0.500000 0.000000 0.000000
O O11 0.204958 0.401467 0.967596
O O12 0.691384 0.314508 0.237062
#
# Coordination Sequence:
#
# PCOD9230326 Si02
#       6
#     4   2   4   4   4   4
#     4  10  24  42  58  83 122 163 200 240 296 363
#     4  10  20  38  62  88 118 156 198 242 296 354
#     4   9  18  33  56  88 119 147 188 243 294 342
#     4  10  22  40  61  86 118 154 198 248 297 353
#     4  10  22  38  58  89 122 157 201 244 294 354
#     4  10  20  36  60  89 120 152 196 249 296 344
#
# _framework density 20.664648
#
# number of rings (size 3 to 8) (size 9 to 14) (size 15 to 20)
#    0.000    2.182    0.000    3.273    0.000   12.364 
#    0.000    1.818    0.000    0.000    0.000    0.000 
#    0.000    0.000    0.000    0.000    0.000    0.000 
#
# Total GULP energy -122530.953429 kJ/mol
# GULP energy per Si atom -5569.588792 kJ/mol
# Density = 2.061761 g / cm^3
# Si number density = 20.664648 Si / 1000 Ang^3
#
#
#
# Elastic Constant Matrix: (Units=GPa)
#
#
# Indices 1 2 3 4 5 6 
#
# 1 45.0512 20.6590 27.8807 0.0000 -19.9305 0.0000
# 2 20.6590 113.2054 37.3406 0.0000 -2.5849 0.0000
# 3 27.8807 37.3406 118.6938 0.0000 -19.4465 0.0000
# 4 0.0000 0.0000 0.0000 14.7784 0.0000 7.4338
# 5 -19.9305 -2.5849 -19.4465 0.0000 27.5409 0.0000
# 6 0.0000 0.0000 0.0000 7.4338 0.0000 25.9982
#
#
#
# Elastic Compliance Matrix: (Units=1/GPa)
#
#
# Indices 1 2 3 4 5 6 
#
# 1 0.037261 -0.005211 -0.003139 0.000000 0.024259 0.000000
# 2 -0.005211 0.010635 -0.002913 0.000000 -0.004829 0.000000
# 3 -0.003139 -0.002913 0.010926 0.000000 0.005170 0.000000
# 4 0.000000 0.000000 0.000000 0.079034 0.000000 -0.022599
# 5 0.024259 -0.004829 0.005170 0.000000 0.057063 0.000000
# 6 0.000000 0.000000 0.000000 -0.022599 0.000000 0.044926
#
#
# Mechanical properties :
#
#
# Convention : Reuss Voigt Hill
#
# Bulk Modulus (GPa) = 27.55031 49.85679 38.70355
# Shear Modulus (GPa) = 18.21708 26.40150 22.30929
#
# Velocity S-wave (km/s) = 2.97232 3.57825 3.28927
# Velocity P-wave (km/s) = 5.01405 6.42268 5.76158
#
# Compressibility (1/GPa) = 0.03629723
#
# Stress axis : x y z
#
# Youngs Moduli (GPa) = 26.83771 94.02946 91.52701
#
# Poissons Ratio (x) = 0.48995 0.28727
# Poissons Ratio (y) = 0.13984 0.26662
# Poissons Ratio (z) = 0.08423 0.27391
#
# Static dielectric constant tensor:
#      x y z
#    x 1.853020 0.000000 0.028560 
#    y 0.000000 1.776950 0.000000 
#    z 0.028560 0.000000 1.750160 
# 
# From -- ./inp_files/72162.got.cif
#   From: 2010.05.17/outbox.cif.g08.bks.cpg/sg13_37_cif.got.tgz:72162.got - 2010.06.03 16:44:36.
