data_PCOD9230918
_publ_section_title
;
Structure prediction by ZEFSAII (Michael W. Deem and Ramdas Pophale) SiO2 
 PCOD9230918
Probable space group: P 2/C
;
_chemical_formula_sum "Si O2"
_cell_formula_units_Z 28
_cell_length_a 6.730744
_cell_length_b 10.904814
_cell_length_c 24.341516
_cell_angle_alpha 90.000000
_cell_angle_beta 59.152787
_cell_angle_gamma 90.000000
_cell_volume 1533.869153
_symmetry_space_group_name_H-M "P 2/C"
_symmetry_group_IT_number 13
_symmetry_cell_setting 'monoclinic'
loop_
_space_group_symop_operation_xyz
x,y,z
-x,y,1/2-z
-x,-y,-z
x,-y,1/2+z
loop_
_atom_site_type_symbol
_atom_site_label
_atom_site_fract_x
_atom_site_fract_y
_atom_site_fract_z
Si Si1 0.224442 0.382013 0.688032
Si Si2 0.000000 0.828814 0.750000
Si Si3 0.967952 0.393361 0.176131
Si Si4 0.657683 0.058217 0.382478
Si Si5 0.182022 0.247573 0.051472
Si Si6 0.668915 0.211666 0.927815
Si Si7 0.500000 0.546839 0.250000
Si Si8 0.858574 0.872688 0.514733
O O1 0.151171 0.521752 0.683241
O O2 0.256299 0.311645 0.626892
O O3 0.427829 0.381377 0.704510
O O4 0.000000 0.327227 0.750000
O O5 0.084860 0.733446 0.784622
O O6 0.797955 0.908076 0.807407
O O7 0.094533 0.356538 0.102186
O O8 0.729444 0.467503 0.204289
O O9 0.792057 0.127448 0.413012
O O10 0.396939 0.109323 0.423449
O O11 0.637921 0.915267 0.398942
O O12 0.997138 0.224117 0.030795
O O13 0.431501 0.258806 0.988512
O O14 0.830563 0.174501 0.956342
O O15 0.000000 0.000000 0.500000
#
# Coordination Sequence:
#
# PCOD9230918 Si02
#       8
#     4   2   4   4   4   4   2   4
#     4  10  23  42  60  83 119 159 194 246 302 348
#     4  10  20  38  60  88 116 150 200 246 300 350
#     4  10  21  39  60  87 114 150 204 249 295 345
#     4  10  21  36  58  89 122 153 191 247 293 350
#     4  10  21  36  61  90 117 155 197 240 295 353
#     4  11  22  38  60  86 126 158 189 247 296 352
#     4  10  20  40  62  80 112 160 198 244 296 352
#     4  11  19  38  60  86 122 161 192 233 301 351
#
# _framework density 18.254491000000002
#
# number of rings (size 3 to 8) (size 9 to 14) (size 15 to 20)
#    0.000    1.714    5.000    0.857    3.000    4.000 
#    0.000    1.429    0.000    0.000    0.000    0.000 
#    0.000    0.000    0.000    0.000    0.000    0.000 
#
# Total GULP energy -156028.195198 kJ/mol
# GULP energy per Si atom -5572.435543 kJ/mol
# Density = 1.821294 g / cm^3
# Si number density = 18.254491 Si / 1000 Ang^3
#
#
#
# Elastic Constant Matrix: (Units=GPa)
#
#
# Indices 1 2 3 4 5 6 
#
# 1 105.3375 18.7981 47.0507 0.0000 18.8387 0.0000
# 2 18.7981 33.8385 47.8835 0.0000 3.8094 0.0000
# 3 47.0507 47.8835 159.5475 0.0000 0.7847 0.0000
# 4 0.0000 0.0000 0.0000 114.3722 0.0000 49.4474
# 5 18.8387 3.8094 0.7847 0.0000 23.8590 0.0000
# 6 0.0000 0.0000 0.0000 49.4474 0.0000 32.4986
#
#
#
# Elastic Compliance Matrix: (Units=1/GPa)
#
#
# Indices 1 2 3 4 5 6 
#
# 1 0.013028 -0.001300 -0.003403 0.000000 -0.009967 0.000000
# 2 -0.001300 0.052950 -0.015474 0.000000 -0.006919 0.000000
# 3 -0.003403 -0.015474 0.011892 0.000000 0.004766 0.000000
# 4 0.000000 0.000000 0.000000 0.025551 0.000000 -0.038877
# 5 -0.009967 -0.006919 0.004766 0.000000 0.050730 0.000000
# 6 0.000000 0.000000 0.000000 -0.038877 0.000000 0.089923
#
#
# Mechanical properties :
#
#
# Convention : Reuss Voigt Hill
#
# Bulk Modulus (GPa) = 26.65548 58.46535 42.56042
# Shear Modulus (GPa) = 16.83887 46.47873 31.65880
#
# Velocity S-wave (km/s) = 3.04048 5.05142 4.16901
# Velocity P-wave (km/s) = 5.19229 8.13141 6.82201
#
# Compressibility (1/GPa) = 0.03751573
#
# Stress axis : x y z
#
# Youngs Moduli (GPa) = 76.75979 18.88587 84.09203
#
# Poissons Ratio (x) = 0.02456 0.28613
# Poissons Ratio (y) = 0.09980 1.30122
# Poissons Ratio (z) = 0.26119 0.29224
#
# Static dielectric constant tensor:
#      x y z
#    x 1.622890 0.000000 0.015960 
#    y 0.000000 1.638510 0.000000 
#    z 0.015960 0.000000 1.657350 
# 
# From -- ./inp_files/73621.got.cif
#   From: 2010.05.17/outbox.cif.g08.bks.cpg/sg13_37_cif.got.tgz:73621.got - 2010.06.03 16:44:36.
