data_PCOD9230433
_publ_section_title
;
Structure prediction by ZEFSAII (Michael W. Deem and Ramdas Pophale) SiO2 
 PCOD9230433
Probable space group: P 2/C
;
_chemical_formula_sum "Si O2"
_cell_formula_units_Z 28
_cell_length_a 11.976956
_cell_length_b 5.360837
_cell_length_c 18.815230
_cell_angle_alpha 90.000000
_cell_angle_beta 106.349629
_cell_angle_gamma 90.000000
_cell_volume 1159.208477
_symmetry_space_group_name_H-M "P 2/C"
_symmetry_group_IT_number 13
_symmetry_cell_setting 'monoclinic'
loop_
_space_group_symop_operation_xyz
x,y,z
-x,y,1/2-z
-x,-y,-z
x,-y,1/2+z
loop_
_atom_site_type_symbol
_atom_site_label
_atom_site_fract_x
_atom_site_fract_y
_atom_site_fract_z
Si Si1 0.646090 0.644485 0.577073
Si Si2 0.246633 0.464462 0.170949
Si Si3 0.992675 0.276174 0.394887
Si Si4 0.829970 0.029777 0.778571
Si Si5 0.855136 0.660200 0.147398
Si Si6 0.608474 0.315633 0.427237
Si Si7 0.800791 0.997619 0.520539
O O1 0.727211 0.458746 0.635589
O O2 0.625657 0.497907 0.498449
O O3 0.527774 0.739877 0.590876
O O4 0.725166 0.875870 0.569893
O O5 0.238395 0.736340 0.201977
O O6 0.355459 0.445437 0.138811
O O7 0.060251 0.028229 0.151036
O O8 0.238667 0.232491 0.225256
O O9 0.050248 0.440789 0.341965
O O10 0.874265 0.416745 0.395525
O O11 0.090768 0.190504 0.468727
O O12 0.868671 0.129422 0.708977
O O13 0.854035 0.758928 0.066274
O O14 0.701310 0.086247 0.448582
#
# Coordination Sequence:
#
# PCOD9230433 Si02
#       7
#     4   4   4   4   4   4   4
#     4   9  21  38  68  94 121 173 224 277 327 371
#     4  10  24  41  63  93 135 170 213 261 339 389
#     4   9  22  37  60  95 125 172 209 265 334 384
#     4  10  24  42  62  95 129 177 211 264 329 395
#     4  10  21  40  62  94 129 161 226 271 315 394
#     4  10  21  41  63  92 131 170 225 271 324 397
#     4  10  20  36  63  95 124 167 217 274 324 379
#
# _framework density 24.154413999999999
#
# number of rings (size 3 to 8) (size 9 to 14) (size 15 to 20)
#    0.857    1.429    0.000    1.286    6.000    4.000 
#    0.000    7.857    0.000    0.000    0.000    0.000 
#    0.000    0.000    0.000    0.000    0.000    0.000 
#
# Total GULP energy -156142.680626 kJ/mol
# GULP energy per Si atom -5576.524308 kJ/mol
# Density = 2.409944 g / cm^3
# Si number density = 24.154414 Si / 1000 Ang^3
#
#
#
# Elastic Constant Matrix: (Units=GPa)
#
#
# Indices 1 2 3 4 5 6 
#
# 1 13.8877 -14.5779 11.1664 0.0000 -22.0676 0.0000
# 2 -14.5779 105.2116 23.4683 0.0000 -10.5470 0.0000
# 3 11.1664 23.4683 35.6747 0.0000 -9.5160 0.0000
# 4 0.0000 0.0000 0.0000 34.2099 0.0000 -1.3861
# 5 -22.0676 -10.5470 -9.5160 0.0000 21.8522 0.0000
# 6 0.0000 0.0000 0.0000 -1.3861 0.0000 15.6199
#
#
#
# Elastic Compliance Matrix: (Units=1/GPa)
#
#
# Indices 1 2 3 4 5 6 
#
# 1 -0.061807 -0.018204 0.013949 0.000000 -0.065128 0.000000
# 2 -0.018204 0.005897 -0.002631 0.000000 -0.016683 0.000000
# 3 0.013949 -0.002631 0.032602 0.000000 0.027013 0.000000
# 4 0.000000 0.000000 0.000000 0.029337 0.000000 0.002603
# 5 -0.065128 -0.016683 0.027013 0.000000 -0.016297 0.000000
# 6 0.000000 0.000000 0.000000 0.002603 0.000000 0.064252
#
#
# Mechanical properties :
#
#
# Convention : Reuss Voigt Hill
#
# Bulk Modulus (GPa) = -26.96758 21.65418 -2.65670
# Shear Modulus (GPa) = 90.25772 23.31753 56.78763
#
# Velocity S-wave (km/s) = 6.11948 3.11038 4.85400
# Velocity P-wave (km/s) = 6.22430 4.67800 5.50570
#
# Compressibility (1/GPa) = -0.03708156
#
# Stress axis : x y z
#
# Youngs Moduli (GPa) = -16.17944 169.58050 30.67313
#
# Poissons Ratio (x) = 3.08704 -0.42785
# Poissons Ratio (y) = -0.29453 0.08071
# Poissons Ratio (z) = 0.22568 0.44624
#
# Static dielectric constant tensor:
#      x y z
#    x 1.911790 0.000000 0.041070 
#    y 0.000000 1.972810 0.000000 
#    z 0.041070 0.000000 1.975460 
# 
# From -- ./inp_files/77534.got.cif
#   From: 2010.05.17/outbox.cif.g08.bks.cpg/sg13_39_cif.got.tgz:77534.got - 2010.06.03 16:44:36.
