data_PCOD9230316
_publ_section_title
;
Structure prediction by ZEFSAII (Michael W. Deem and Ramdas Pophale) SiO2 
 PCOD9230316
Probable space group: P 2/C
;
_chemical_formula_sum "Si O2"
_cell_formula_units_Z 30
_cell_length_a 15.981358
_cell_length_b 9.664227
_cell_length_c 22.025794
_cell_angle_alpha 90.000000
_cell_angle_beta 27.449882
_cell_angle_gamma 90.000000
_cell_volume 1568.149405
_symmetry_space_group_name_H-M "P 2/C"
_symmetry_group_IT_number 13
_symmetry_cell_setting 'monoclinic'
loop_
_space_group_symop_operation_xyz
x,y,z
-x,y,1/2-z
-x,-y,-z
x,-y,1/2+z
loop_
_atom_site_type_symbol
_atom_site_label
_atom_site_fract_x
_atom_site_fract_y
_atom_site_fract_z
Si Si1 0.150391 0.028103 0.953632
Si Si2 0.140827 0.773131 0.039194
Si Si3 0.500000 0.636638 0.750000
Si Si4 0.548207 0.016582 0.834169
Si Si5 0.331962 0.243110 0.905140
Si Si6 0.260877 0.257744 0.718175
Si Si7 0.649814 0.246347 0.980636
Si Si8 0.490555 0.523954 0.371520
O O1 0.338222 0.984332 0.799762
O O2 0.172252 0.183526 0.965528
O O3 0.118952 0.928772 0.030248
O O4 0.000000 0.000000 0.000000
O O5 0.174787 0.764886 0.088874
O O6 0.951895 0.705442 0.140860
O O7 0.326915 0.716048 0.889428
O O8 0.424107 0.545357 0.743339
O O9 0.388549 0.119249 0.914610
O O10 0.682910 0.112617 0.786773
O O11 0.477342 0.880877 0.914170
O O12 0.500000 0.260399 0.750000
O O13 0.326621 0.382312 0.948433
O O14 0.311126 0.241486 0.615366
O O15 0.378927 0.372870 0.676747
O O16 0.567435 0.396618 0.049341
#
# Coordination Sequence:
#
# PCOD9230316 Si02
#       8
#     4   4   2   4   4   4   4   4
#     4  11  19  33  58  90 119 147 194 256 310 352
#     4  11  22  38  60  89 121 153 201 246 308 357
#     4  10  22  38  62  88 120 158 190 246 316 364
#     4  10  20  36  60  87 115 153 198 249 301 353
#     4   9  18  33  57  85 116 149 188 244 308 362
#     4  11  23  39  60  90 118 164 206 250 286 357
#     4  11  22  40  61  84 123 167 206 236 295 371
#     4  10  21  38  61  88 118 159 203 245 305 361
#
# _framework density 19.13083
#
# number of rings (size 3 to 8) (size 9 to 14) (size 15 to 20)
#    0.000    1.600    3.333    2.800    0.933    0.533 
#    0.000    4.000    0.000    0.000    0.000    0.000 
#    0.000    0.000    0.000    0.000    0.000    0.000 
#
# Total GULP energy -167170.794039 kJ/mol
# GULP energy per Si atom -5572.359801 kJ/mol
# Density = 1.908729 g / cm^3
# Si number density = 19.130830 Si / 1000 Ang^3
#
#
#
# Elastic Constant Matrix: (Units=GPa)
#
#
# Indices 1 2 3 4 5 6 
#
# 1 122.2435 35.6734 31.4412 0.0000 -4.9044 0.0000
# 2 35.6734 94.5126 27.1069 0.0000 -5.3186 0.0000
# 3 31.4412 27.1069 54.1762 0.0000 -0.8080 0.0000
# 4 0.0000 0.0000 0.0000 9.0847 0.0000 3.1484
# 5 -4.9044 -5.3186 -0.8080 0.0000 33.0233 0.0000
# 6 0.0000 0.0000 0.0000 3.1484 0.0000 36.3705
#
#
#
# Elastic Compliance Matrix: (Units=1/GPa)
#
#
# Indices 1 2 3 4 5 6 
#
# 1 0.010125 -0.002434 -0.004643 0.000000 0.000998 0.000000
# 2 -0.002434 0.013051 -0.005094 0.000000 0.001616 0.000000
# 3 -0.004643 -0.005094 0.023688 0.000000 -0.000930 0.000000
# 4 0.000000 0.000000 0.000000 0.113480 0.000000 -0.009824
# 5 0.000998 0.001616 -0.000930 0.000000 0.030667 0.000000
# 6 0.000000 0.000000 0.000000 -0.009824 0.000000 0.028345
#
#
# Mechanical properties :
#
#
# Convention : Reuss Voigt Hill
#
# Bulk Modulus (GPa) = 44.40029 51.04171 47.72100
# Shear Modulus (GPa) = 19.90405 27.47642 23.69023
#
# Velocity S-wave (km/s) = 3.22905 3.79388 3.52281
# Velocity P-wave (km/s) = 6.09602 6.77714 6.44559
#
# Compressibility (1/GPa) = 0.02252237
#
# Stress axis : x y z
#
# Youngs Moduli (GPa) = 98.76591 76.62262 42.21590
#
# Poissons Ratio (x) = 0.18648 0.19603
# Poissons Ratio (y) = 0.24036 0.21503
# Poissons Ratio (z) = 0.45862 0.39028
#
# Static dielectric constant tensor:
#      x y z
#    x 1.696910 0.000000 -0.023140 
#    y 0.000000 1.706730 0.000000 
#    z -0.023140 0.000000 1.670970 
# 
# From -- ./inp_files/79983.got.cif
#   From: 2010.05.17/outbox.cif.g08.bks.cpg/sg13_40_cif.got.tgz:79983.got - 2010.06.03 16:44:36.
