data_PCOD9230206
_publ_section_title
;
Structure prediction by ZEFSAII (Michael W. Deem and Ramdas Pophale) SiO2 
 PCOD9230206
Probable space group: P 2/C
;
_chemical_formula_sum "Si O2"
_cell_formula_units_Z 24
_cell_length_a 17.378627
_cell_length_b 8.289048
_cell_length_c 23.832253
_cell_angle_alpha 90.000000
_cell_angle_beta 157.977685
_cell_angle_gamma 90.000000
_cell_volume 1287.297861
_symmetry_space_group_name_H-M "P 2/C"
_symmetry_group_IT_number 13
_symmetry_cell_setting 'monoclinic'
loop_
_space_group_symop_operation_xyz
x,y,z
-x,y,1/2-z
-x,-y,-z
x,-y,1/2+z
loop_
_atom_site_type_symbol
_atom_site_label
_atom_site_fract_x
_atom_site_fract_y
_atom_site_fract_z
Si Si1 0.594659 0.327830 0.191335
Si Si2 0.605707 0.306080 0.661988
Si Si3 0.791774 0.918360 0.591570
Si Si4 0.607621 0.156180 0.546981
Si Si5 0.318569 0.118349 0.087933
Si Si6 0.025068 0.821256 0.491351
O O1 0.565873 0.513491 0.155991
O O2 0.546875 0.233202 0.101937
O O3 0.434554 0.257009 0.129619
O O4 0.822802 0.284246 0.366986
O O5 0.404846 0.196044 0.534474
O O6 0.660139 0.278685 0.632636
O O7 0.798264 0.244157 0.827976
O O8 0.000000 0.830411 0.750000
O O9 0.782812 0.073131 0.627714
O O10 0.773746 0.989481 0.517269
O O11 0.500000 0.000000 0.500000
O O12 0.500000 0.048310 0.250000
O O13 0.141942 0.174628 0.010566
O O14 0.000000 0.000000 0.500000
#
# Coordination Sequence:
#
# PCOD9230206 Si02
#       6
#     4   4   4   4   4   4
#     4  10  21  37  57  85 119 148 182 233 295 341
#     4  11  21  36  57  87 118 147 186 237 287 338
#     4  10  20  36  57  82 112 151 197 234 275 334
#     4   9  18  35  57  80 109 148 192 231 270 331
#     4   9  19  38  58  80 111 149 190 236 283 338
#     4  11  21  38  62  84 111 151 196 235 277 338
#
# _framework density 18.643705000000001
#
# number of rings (size 3 to 8) (size 9 to 14) (size 15 to 20)
#    0.000    2.000    0.000    6.000    0.000    1.333 
#    0.000   17.500    0.000    0.000    0.000    0.000 
#    0.000    0.000    0.000    0.000    0.000    0.000 
#
# Total GULP energy -133754.851772 kJ/mol
# GULP energy per Si atom -5573.118824 kJ/mol
# Density = 1.860127 g / cm^3
# Si number density = 18.643705 Si / 1000 Ang^3
#
#
#
# Elastic Constant Matrix: (Units=GPa)
#
#
# Indices 1 2 3 4 5 6 
#
# 1 65.5170 51.7016 47.0303 0.0000 -22.4692 0.0000
# 2 51.7016 96.1309 63.1756 0.0000 -11.9657 0.0000
# 3 47.0303 63.1756 147.4163 0.0000 0.5335 0.0000
# 4 0.0000 0.0000 0.0000 25.4767 0.0000 -11.0961
# 5 -22.4692 -11.9657 0.5335 0.0000 28.2036 0.0000
# 6 0.0000 0.0000 0.0000 -11.0961 0.0000 13.9713
#
#
#
# Elastic Compliance Matrix: (Units=1/GPa)
#
#
# Indices 1 2 3 4 5 6 
#
# 1 0.040133 -0.013690 -0.007032 0.000000 0.026298 0.000000
# 2 -0.013690 0.020348 -0.004345 0.000000 -0.002192 0.000000
# 3 -0.007032 -0.004345 0.010917 0.000000 -0.007652 0.000000
# 4 0.000000 0.000000 0.000000 0.060009 0.000000 0.047660
# 5 0.026298 -0.002192 -0.007652 0.000000 0.055623 0.000000
# 6 0.000000 0.000000 0.000000 0.047660 0.000000 0.109428
#
#
# Mechanical properties :
#
#
# Convention : Reuss Voigt Hill
#
# Bulk Modulus (GPa) = 47.02715 70.31992 58.67354
# Shear Modulus (GPa) = 14.13713 23.34076 18.73895
#
# Velocity S-wave (km/s) = 2.75667 3.54211 3.17378
# Velocity P-wave (km/s) = 5.95073 7.38434 6.70595
#
# Compressibility (1/GPa) = 0.02126431
#
# Stress axis : x y z
#
# Youngs Moduli (GPa) = 24.91699 49.14570 91.60399
#
# Poissons Ratio (x) = 0.67280 0.64417
# Poissons Ratio (y) = 0.34111 0.39798
# Poissons Ratio (z) = 0.17522 0.21352
#
# Static dielectric constant tensor:
#      x y z
#    x 1.798760 0.000000 0.031880 
#    y 0.000000 1.635840 0.000000 
#    z 0.031880 0.000000 1.667170 
# 
# From -- ./inp_files/88040.got.cif
#   From: 2010.05.17/outbox.cif.g08.bks.cpg/sg13_45_cif.got.tgz:88040.got - 2010.06.03 16:44:36.
