data_PCOD9230516
_publ_section_title
;
Structure prediction by ZEFSAII (Michael W. Deem and Ramdas Pophale) SiO2 
 PCOD9230516
Probable space group: P 2/C
;
_chemical_formula_sum "Si O2"
_cell_formula_units_Z 24
_cell_length_a 21.988043
_cell_length_b 11.914530
_cell_length_c 22.553183
_cell_angle_alpha 90.000000
_cell_angle_beta 12.739887
_cell_angle_gamma 90.000000
_cell_volume 1302.955898
_symmetry_space_group_name_H-M "P 2/C"
_symmetry_group_IT_number 13
_symmetry_cell_setting 'monoclinic'
loop_
_space_group_symop_operation_xyz
x,y,z
-x,y,1/2-z
-x,-y,-z
x,-y,1/2+z
loop_
_atom_site_type_symbol
_atom_site_label
_atom_site_fract_x
_atom_site_fract_y
_atom_site_fract_z
Si Si1 0.083616 0.891021 0.816188
Si Si2 0.852622 0.144759 0.762934
Si Si3 0.635398 0.112944 0.844328
Si Si4 0.207312 0.520723 0.997839
Si Si5 0.798224 0.274190 0.497095
Si Si6 0.592497 0.749761 0.730453
O O1 0.369030 0.831720 0.565702
O O2 0.900857 0.819427 0.944816
O O3 0.180473 0.010485 0.696912
O O4 0.880019 0.911318 0.065563
O O5 0.764889 0.171966 0.778868
O O6 0.170607 0.166180 0.474422
O O7 0.669598 0.221377 0.980193
O O8 0.500000 0.000000 0.000000
O O9 0.500000 0.503253 0.750000
O O10 0.262443 0.627274 0.903687
O O11 0.155500 0.398825 0.018941
O O12 0.000000 0.545639 0.250000
O O13 0.000000 0.271967 0.250000
O O14 0.500000 0.256957 0.750000
O O15 0.500000 0.762941 0.750000
#
# Coordination Sequence:
#
# PCOD9230516 Si02
#       6
#     4   4   4   4   4   4
#     4  11  21  36  56  79 108 141 179 224 270 321
#     4  11  21  34  54  79 107 141 178 220 267 319
#     4  10  20  37  55  74 103 146 191 216 252 323
#     4   9  18  35  55  76 106 146 187 216 256 330
#     4  10  21  36  57  84 111 143 180 224 278 327
#     4  11  21  34  53  80 110 140 173 218 273 322
#
# _framework density 18.419656
#
# number of rings (size 3 to 8) (size 9 to 14) (size 15 to 20)
#    0.000    1.667    0.000    8.500    0.000    2.000 
#    0.000    0.000    0.000    6.000    0.000    0.000 
#    0.000    0.000    0.000    0.000    0.000    0.000 
#
# Total GULP energy -133689.561225 kJ/mol
# GULP energy per Si atom -5570.398384 kJ/mol
# Density = 1.837773 g / cm^3
# Si number density = 18.419656 Si / 1000 Ang^3
#
#
#
# Elastic Constant Matrix: (Units=GPa)
#
#
# Indices 1 2 3 4 5 6 
#
# 1 70.9101 31.7981 8.5675 0.0000 -19.0421 0.0000
# 2 31.7981 71.1993 -3.0791 0.0000 3.4440 0.0000
# 3 8.5675 -3.0791 99.5960 0.0000 -8.2158 0.0000
# 4 0.0000 0.0000 0.0000 11.1315 0.0000 40.4758
# 5 -19.0421 3.4440 -8.2158 0.0000 34.2895 0.0000
# 6 0.0000 0.0000 0.0000 40.4758 0.0000 -114.1724
#
#
#
# Elastic Compliance Matrix: (Units=1/GPa)
#
#
# Indices 1 2 3 4 5 6 
#
# 1 0.022711 -0.010843 -0.001182 0.000000 0.013418 0.000000
# 2 -0.010843 0.019301 0.000890 0.000000 -0.007747 0.000000
# 3 -0.001182 0.000890 0.010312 0.000000 0.001725 0.000000
# 4 0.000000 0.000000 0.000000 0.039245 0.000000 0.013913
# 5 0.013418 -0.007747 0.001725 0.000000 0.037806 0.000000
# 6 0.000000 0.000000 0.000000 0.013913 0.000000 -0.003826
#
#
# Mechanical properties :
#
#
# Convention : Reuss Voigt Hill
#
# Bulk Modulus (GPa) = 33.27283 35.14206 34.20745
# Shear Modulus (GPa) = 31.67848 -0.12235 15.77807
#
# Velocity S-wave (km/s) = 4.15157 -0.25800 2.92993
# Velocity P-wave (km/s) = 6.40966 4.36248 5.48247
#
# Compressibility (1/GPa) = 0.03005455
#
# Stress axis : x y z
#
# Youngs Moduli (GPa) = 44.03219 51.81126 96.97386
#
# Poissons Ratio (x) = 0.56178 0.11462
# Poissons Ratio (y) = 0.47744 -0.08635
# Poissons Ratio (z) = 0.05205 -0.04613
#
# Static dielectric constant tensor:
#      x y z
#    x 1.639000 0.000000 -0.020050 
#    y 0.000000 1.738260 0.000000 
#    z -0.020050 0.000000 1.636850 
# 
# From -- ./inp_files/89064.got.cif
#   From: 2010.05.17/outbox.cif.g08.bks.cpg/sg13_45_cif.got.tgz:89064.got - 2010.06.03 16:44:36.
