data_PCOD9230122
_publ_section_title
;
Structure prediction by ZEFSAII (Michael W. Deem and Ramdas Pophale) SiO2 
 PCOD9230122
Probable space group: P 2/C
;
_chemical_formula_sum "Si O2"
_cell_formula_units_Z 20
_cell_length_a 20.717764
_cell_length_b 8.828002
_cell_length_c 13.039991
_cell_angle_alpha 90.000000
_cell_angle_beta 23.353601
_cell_angle_gamma 90.000000
_cell_volume 945.412251
_symmetry_space_group_name_H-M "P 2/C"
_symmetry_group_IT_number 13
_symmetry_cell_setting 'monoclinic'
loop_
_space_group_symop_operation_xyz
x,y,z
-x,y,1/2-z
-x,-y,-z
x,-y,1/2+z
loop_
_atom_site_type_symbol
_atom_site_label
_atom_site_fract_x
_atom_site_fract_y
_atom_site_fract_z
Si Si1 0.034375 0.325086 0.461729
Si Si2 0.652814 0.804319 0.101308
Si Si3 0.263826 0.095681 0.640847
Si Si4 0.501207 0.174186 0.034480
Si Si5 0.841717 0.842200 0.537667
O O1 0.099181 0.297426 0.481308
O O2 0.000000 0.500000 0.500000
O O3 0.882206 0.210411 0.669464
O O4 0.180836 0.275305 0.173305
O O5 0.500000 0.765665 0.250000
O O6 0.601448 0.759988 0.291331
O O7 0.684681 0.984460 0.028423
O O8 0.406720 0.185703 0.492204
O O9 0.209646 0.971202 0.805508
O O10 0.310980 0.213491 0.306438
O O11 0.500000 0.000000 0.000000
O O12 0.000000 0.903570 0.250000
#
# Coordination Sequence:
#
# PCOD9230122 Si02
#       5
#     4   4   4   4   4
#     4  11  25  43  59  90 133 175 204 244 317 386
#     4  11  19  40  68  89 128 159 210 266 313 355
#     4  10  23  35  67  95 121 157 215 260 310 370
#     4  10  20  35  64  99 118 150 209 268 317 354
#     4  10  21  39  65  91 124 156 209 268 312 361
#
# _framework density 21.154792
#
# number of rings (size 3 to 8) (size 9 to 14) (size 15 to 20)
#    0.000    1.600    6.000    2.400   11.200    0.000 
#    3.600    4.000    0.000    0.000    0.000    0.000 
#    0.000    0.000    0.000    0.000    0.000    0.000 
#
# Total GULP energy -111572.203225 kJ/mol
# GULP energy per Si atom -5578.610161 kJ/mol
# Density = 2.110664 g / cm^3
# Si number density = 21.154792 Si / 1000 Ang^3
#
#
#
# Elastic Constant Matrix: (Units=GPa)
#
#
# Indices 1 2 3 4 5 6 
#
# 1 97.8203 34.5574 63.1773 0.0000 -22.3790 0.0000
# 2 34.5574 73.6781 23.0969 0.0000 -23.8219 0.0000
# 3 63.1773 23.0969 137.4696 0.0000 -17.7457 0.0000
# 4 0.0000 0.0000 0.0000 9.3763 0.0000 -1.7183
# 5 -22.3790 -23.8219 -17.7457 0.0000 50.1003 0.0000
# 6 0.0000 0.0000 0.0000 -1.7183 0.0000 16.4094
#
#
#
# Elastic Compliance Matrix: (Units=1/GPa)
#
#
# Indices 1 2 3 4 5 6 
#
# 1 0.016844 -0.004922 -0.006544 0.000000 0.002865 0.000000
# 2 -0.004922 0.017909 0.000072 0.000000 0.006342 0.000000
# 3 -0.006544 0.000072 0.010371 0.000000 0.000785 0.000000
# 4 0.000000 0.000000 0.000000 0.108739 0.000000 0.011387
# 5 0.002865 0.006342 0.000785 0.000000 0.024533 0.000000
# 6 0.000000 0.000000 0.000000 0.011387 0.000000 0.062133
#
#
# Mechanical properties :
#
#
# Convention : Reuss Voigt Hill
#
# Bulk Modulus (GPa) = 44.77252 61.18123 52.97687
# Shear Modulus (GPa) = 18.46629 27.71963 23.09296
#
# Velocity S-wave (km/s) = 2.95772 3.62377 3.30755
# Velocity P-wave (km/s) = 5.73361 6.81854 6.29947
#
# Compressibility (1/GPa) = 0.02233513
#
# Stress axis : x y z
#
# Youngs Moduli (GPa) = 59.36912 55.83659 96.42278
#
# Poissons Ratio (x) = 0.27485 0.63099
# Poissons Ratio (y) = 0.29224 -0.00693
# Poissons Ratio (z) = 0.38851 -0.00401
#
# Static dielectric constant tensor:
#      x y z
#    x 1.861560 0.000000 0.021550 
#    y 0.000000 1.727020 0.000000 
#    z 0.021550 0.000000 1.904190 
# 
# From -- ./inp_files/58573.got.cif
#   From: 2010.05.17/outbox.cif.g08.bks.cpg/sg13_30_cif.got.tgz:58573.got - 2010.06.03 16:44:36.
