data_PCOD9230819
_publ_section_title
;
Structure prediction by ZEFSAII (Michael W. Deem and Ramdas Pophale) SiO2 
 PCOD9230819
Probable space group: P 2/C
;
_chemical_formula_sum "Si O2"
_cell_formula_units_Z 28
_cell_length_a 5.924269
_cell_length_b 16.133019
_cell_length_c 14.269733
_cell_angle_alpha 90.000000
_cell_angle_beta 116.031532
_cell_angle_gamma 90.000000
_cell_volume 1225.490068
_symmetry_space_group_name_H-M "P 2/C"
_symmetry_group_IT_number 13
_symmetry_cell_setting 'monoclinic'
loop_
_space_group_symop_operation_xyz
x,y,z
-x,y,1/2-z
-x,-y,-z
x,-y,1/2+z
loop_
_atom_site_type_symbol
_atom_site_label
_atom_site_fract_x
_atom_site_fract_y
_atom_site_fract_z
Si Si1 0.938408 0.133242 0.526723
Si Si2 0.802451 0.411851 0.407395
Si Si3 0.213421 0.978292 0.917990
Si Si4 0.500000 0.709515 0.750000
Si Si5 0.360570 0.180441 0.367972
Si Si6 0.779804 0.716722 0.473876
Si Si7 0.491293 0.429890 0.861343
Si Si8 0.000000 0.520104 0.750000
O O1 0.662862 0.167222 0.443624
O O2 0.064164 0.076385 0.468294
O O3 0.123099 0.210562 0.575918
O O4 0.909560 0.068890 0.607393
O O5 0.575452 0.348629 0.349250
O O6 0.691959 0.497694 0.426628
O O7 0.894504 0.428525 0.317697
O O8 0.011250 0.355863 0.492806
O O9 0.251126 0.912091 0.843058
O O10 0.500000 0.000000 0.000000
O O11 0.694658 0.771926 0.738287
O O12 0.255780 0.236274 0.434064
O O13 0.537657 0.661374 0.408183
O O14 0.500000 0.426939 0.750000
O O15 0.218122 0.464318 0.833712
#
# Coordination Sequence:
#
# PCOD9230819 Si02
#       8
#     4   4   4   2   4   4   4   2
#     4   9  17  34  57  87 116 146 189 248 286 358
#     4  11  21  37  56  81 125 161 193 250 303 352
#     4   8  16  33  56  86 112 148 192 224 303 358
#     4  12  20  38  54  86 134 154 196 240 300 356
#     4  10  21  33  55  92 120 160 189 236 302 365
#     4  11  22  35  59  92 112 156 209 242 298 364
#     4  10  23  40  57  82 111 162 208 257 303 343
#     4  10  20  38  54  74 116 168 194 256 308 342
#
# _framework density 22.848002999999999
#
# number of rings (size 3 to 8) (size 9 to 14) (size 15 to 20)
#    0.000    2.000    3.571    1.286    0.000    2.857 
#    0.000    0.000    0.000    0.000   85.429    0.000 
#    0.000    0.000    0.000    0.000    0.000    0.000 
#
# Total GULP energy -156080.131899 kJ/mol
# GULP energy per Si atom -5574.290425 kJ/mol
# Density = 2.279600 g / cm^3
# Si number density = 22.848003 Si / 1000 Ang^3
#
#
#
# Elastic Constant Matrix: (Units=GPa)
#
#
# Indices 1 2 3 4 5 6 
#
# 1 70.9259 38.0614 2.8985 0.0000 11.0992 0.0000
# 2 38.0614 192.0889 25.2503 0.0000 0.1179 0.0000
# 3 2.8985 25.2503 14.6512 0.0000 -0.7330 0.0000
# 4 0.0000 0.0000 0.0000 3.5683 0.0000 -17.1724
# 5 11.0992 0.1179 -0.7330 0.0000 23.6108 0.0000
# 6 0.0000 0.0000 0.0000 -17.1724 0.0000 21.2671
#
#
#
# Elastic Compliance Matrix: (Units=1/GPa)
#
#
# Indices 1 2 3 4 5 6 
#
# 1 0.017266 -0.003768 0.002677 0.000000 -0.008015 0.000000
# 2 -0.003768 0.007557 -0.012210 0.000000 0.001355 0.000000
# 3 0.002677 -0.012210 0.088846 0.000000 0.001561 0.000000
# 4 0.000000 0.000000 0.000000 -0.097108 0.000000 -0.078411
# 5 -0.008015 0.001355 0.001561 0.000000 0.046163 0.000000
# 6 0.000000 0.000000 0.000000 -0.078411 0.000000 -0.016293
#
#
# Mechanical properties :
#
#
# Convention : Reuss Voigt Hill
#
# Bulk Modulus (GPa) = 11.48544 45.56514 28.52529
# Shear Modulus (GPa) = 48.99324 23.78630 36.38977
#
# Velocity S-wave (km/s) = 4.63569 3.23006 3.99518
# Velocity P-wave (km/s) = 5.80437 5.82212 5.81325
#
# Compressibility (1/GPa) = 0.08706679
#
# Stress axis : x y z
#
# Youngs Moduli (GPa) = 57.91663 132.33090 11.25542
#
# Poissons Ratio (x) = 0.49865 -0.03014
# Poissons Ratio (y) = 0.21824 0.13743
# Poissons Ratio (z) = -0.15507 1.61581
#
# Static dielectric constant tensor:
#      x y z
#    x 1.945970 0.000000 0.017500 
#    y 0.000000 1.841700 0.000000 
#    z 0.017500 0.000000 1.874500 
# 
# From -- ./inp_files/61711.got.cif
#   From: 2010.05.17/outbox.cif.g08.bks.cpg/sg13_31_cif.got.tgz:61711.got - 2010.06.03 16:44:36.
