data_PCOD9230417
_publ_section_title
;
Structure prediction by ZEFSAII (Michael W. Deem and Ramdas Pophale) SiO2 
 PCOD9230417
Probable space group: P 2/C
;
_chemical_formula_sum "Si O2"
_cell_formula_units_Z 28
_cell_length_a 27.569658
_cell_length_b 9.967047
_cell_length_c 27.515297
_cell_angle_alpha 90.000000
_cell_angle_beta 169.753052
_cell_angle_gamma 90.000000
_cell_volume 1345.012680
_symmetry_space_group_name_H-M "P 2/C"
_symmetry_group_IT_number 13
_symmetry_cell_setting 'monoclinic'
loop_
_space_group_symop_operation_xyz
x,y,z
-x,y,1/2-z
-x,-y,-z
x,-y,1/2+z
loop_
_atom_site_type_symbol
_atom_site_label
_atom_site_fract_x
_atom_site_fract_y
_atom_site_fract_z
Si Si1 0.000000 0.395140 0.250000
Si Si2 0.735019 0.667566 0.584524
Si Si3 0.070436 0.288779 0.985359
Si Si4 0.381624 0.643837 0.527188
Si Si5 0.213567 0.243759 0.618578
Si Si6 0.737213 0.020169 0.273397
Si Si7 0.500000 0.410675 0.250000
Si Si8 0.685160 0.582857 0.186453
O O1 0.868411 0.310682 0.163665
O O2 0.242916 0.492562 0.507911
O O3 0.739349 0.506822 0.596015
O O4 0.426981 0.714470 0.287611
O O5 0.913308 0.738239 0.801566
O O6 0.841737 0.259899 0.718013
O O7 0.871759 0.367415 0.827371
O O8 0.326670 0.359801 0.212143
O O9 0.356249 0.420064 0.351821
O O10 0.429719 0.669118 0.631748
O O11 0.276850 0.096872 0.700764
O O12 0.253700 0.343671 0.703886
O O13 0.788567 0.160842 0.350522
O O14 0.000000 0.000000 0.500000
O O15 0.500000 0.000000 0.000000
#
# Coordination Sequence:
#
# PCOD9230417 Si02
#       8
#     2   4   4   4   4   4   2   4
#     4  10  20  36  62  94 130 164 196 248 318 398
#     4  11  22  39  62  96 127 158 201 255 322 382
#     4  12  24  40  63  89 127 170 215 263 307 380
#     4  11  22  39  64  97 128 160 207 259 329 384
#     4  12  24  40  61  88 125 165 211 258 303 374
#     4  12  26  46  64  84 122 177 233 258 303 370
#     4  10  20  36  62  94 130 164 196 250 318 400
#     4  12  24  35  56  89 125 159 194 254 325 369
#
# _framework density 20.817647999999998
#
# number of rings (size 3 to 8) (size 9 to 14) (size 15 to 20)
#    0.000    0.571    1.429   10.286    2.000    0.000 
#    0.000    0.000    0.000    3.429    0.000    2.000 
#    0.000    0.000    0.000    0.000    0.000    0.000 
#
# Total GULP energy -156251.504046 kJ/mol
# GULP energy per Si atom -5580.410859 kJ/mol
# Density = 2.077027 g / cm^3
# Si number density = 20.817648 Si / 1000 Ang^3
#
#
#
# Elastic Constant Matrix: (Units=GPa)
#
#
# Indices 1 2 3 4 5 6 
#
# 1 133.3526 31.2971 37.9946 0.0000 5.2446 0.0000
# 2 31.2971 62.5757 30.4802 0.0000 -5.7741 0.0000
# 3 37.9946 30.4802 113.6422 0.0000 -12.8605 0.0000
# 4 0.0000 0.0000 0.0000 24.8904 0.0000 -3.0065
# 5 5.2446 -5.7741 -12.8605 0.0000 40.9921 0.0000
# 6 0.0000 0.0000 0.0000 -3.0065 0.0000 18.5617
#
#
#
# Elastic Compliance Matrix: (Units=1/GPa)
#
#
# Indices 1 2 3 4 5 6 
#
# 1 0.009116 -0.003640 -0.002345 0.000000 -0.002415 0.000000
# 2 -0.003640 0.019882 -0.003884 0.000000 0.002048 0.000000
# 3 -0.002345 -0.003884 0.010987 0.000000 0.003200 0.000000
# 4 0.000000 0.000000 0.000000 0.040978 0.000000 0.006637
# 5 -0.002415 0.002048 0.003200 0.000000 0.025996 0.000000
# 6 0.000000 0.000000 0.000000 0.006637 0.000000 0.054950
#
#
# Mechanical properties :
#
#
# Convention : Reuss Voigt Hill
#
# Bulk Modulus (GPa) = 49.38756 56.56825 52.97791
# Shear Modulus (GPa) = 26.53979 30.87540 28.70759
#
# Velocity S-wave (km/s) = 3.57441 3.85533 3.71752
# Velocity P-wave (km/s) = 6.38831 6.85932 6.62800
#
# Compressibility (1/GPa) = 0.02024801
#
# Stress axis : x y z
#
# Youngs Moduli (GPa) = 109.69365 50.29671 91.01387
#
# Poissons Ratio (x) = 0.18309 0.21341
# Poissons Ratio (y) = 0.39930 0.35348
# Poissons Ratio (z) = 0.25721 0.19534
#
# Static dielectric constant tensor:
#      x y z
#    x 1.785520 0.000000 -0.035350 
#    y 0.000000 1.671620 0.000000 
#    z -0.035350 0.000000 1.758200 
# 
# From -- ./inp_files/94206.got.cif
#   From: 2010.05.17/outbox.cif.g08.bks.cpg/sg13_48_cif.got.tgz:94206.got - 2010.06.03 16:44:36.
