data_PCOD9230397
_publ_section_title
;
Structure prediction by ZEFSAII (Michael W. Deem and Ramdas Pophale) SiO2 
 PCOD9230397
Probable space group: P 2/C
;
_chemical_formula_sum "Si O2"
_cell_formula_units_Z 26
_cell_length_a 9.071790
_cell_length_b 9.460803
_cell_length_c 18.702225
_cell_angle_alpha 90.000000
_cell_angle_beta 53.756914
_cell_angle_gamma 90.000000
_cell_volume 1294.575034
_symmetry_space_group_name_H-M "P 2/C"
_symmetry_group_IT_number 13
_symmetry_cell_setting 'monoclinic'
loop_
_space_group_symop_operation_xyz
x,y,z
-x,y,1/2-z
-x,-y,-z
x,-y,1/2+z
loop_
_atom_site_type_symbol
_atom_site_label
_atom_site_fract_x
_atom_site_fract_y
_atom_site_fract_z
Si Si1 0.764724 0.230909 0.058067
Si Si2 0.868754 0.732992 0.112881
Si Si3 0.387267 0.484816 0.959264
Si Si4 0.000000 0.540495 0.250000
Si Si5 0.679093 0.719735 0.321275
Si Si6 0.970896 0.419970 0.107011
Si Si7 0.428259 0.058367 0.852595
O O1 0.646319 0.361223 0.063666
O O2 0.867891 0.289485 0.099887
O O3 0.646497 0.092669 0.103649
O O4 0.928709 0.205510 0.954824
O O5 0.779280 0.734863 0.216571
O O6 0.737834 0.829354 0.102663
O O7 0.895637 0.565010 0.091759
O O8 0.512763 0.391366 0.870827
O O9 0.500000 0.500000 0.000000
O O10 0.189493 0.417247 0.033612
O O11 0.836754 0.644833 0.322608
O O12 0.061546 0.445649 0.299222
O O13 0.583732 0.871583 0.358585
O O14 0.500000 0.048793 0.750000
#
# Coordination Sequence:
#
# PCOD9230397 Si02
#       7
#     4   4   4   2   4   4   4
#     4  11  22  37  62  94 124 154 202 259 313 359
#     4   9  19  36  61  87 113 163 202 243 295 372
#     4  11  21  38  63  93 124 152 204 261 306 363
#     4  10  20  36  62  88 120 170 210 248 306 372
#     4  10  20  37  62  82 122 161 206 244 301 372
#     4  10  20  37  61  90 120 156 204 251 310 364
#     4  10  21  37  59  90 123 157 206 254 305 363
#
# _framework density 20.08381
#
# number of rings (size 3 to 8) (size 9 to 14) (size 15 to 20)
#    0.000    1.846    1.538    4.154    0.000    3.692 
#    0.000    0.769   10.154    0.923    0.000    0.000 
#    0.000    0.000    0.000    0.000    0.000    0.000 
#
# Total GULP energy -144963.892856 kJ/mol
# GULP energy per Si atom -5575.534341 kJ/mol
# Density = 2.003810 g / cm^3
# Si number density = 20.083810 Si / 1000 Ang^3
#
#
#
# Elastic Constant Matrix: (Units=GPa)
#
#
# Indices 1 2 3 4 5 6 
#
# 1 98.4203 49.6105 35.1457 0.0000 -3.8725 0.0000
# 2 49.6105 110.2271 58.1100 0.0000 -21.6446 0.0000
# 3 35.1457 58.1100 89.4656 0.0000 -13.7641 0.0000
# 4 0.0000 0.0000 0.0000 38.8452 0.0000 -15.0124
# 5 -3.8725 -21.6446 -13.7641 0.0000 35.8820 0.0000
# 6 0.0000 0.0000 0.0000 -15.0124 0.0000 26.4803
#
#
#
# Elastic Compliance Matrix: (Units=1/GPa)
#
#
# Indices 1 2 3 4 5 6 
#
# 1 0.013608 -0.005499 -0.002187 0.000000 -0.002688 0.000000
# 2 -0.005499 0.016993 -0.007855 0.000000 0.006644 0.000000
# 3 -0.002187 -0.007855 0.017400 0.000000 0.001700 0.000000
# 4 0.000000 0.000000 0.000000 0.032966 0.000000 0.018689
# 5 -0.002688 0.006644 0.001700 0.000000 0.032239 0.000000
# 6 0.000000 0.000000 0.000000 0.018689 0.000000 0.048360
#
#
# Mechanical properties :
#
#
# Convention : Reuss Voigt Hill
#
# Bulk Modulus (GPa) = 59.10784 64.87170 61.98977
# Shear Modulus (GPa) = 25.21593 30.59127 27.90360
#
# Velocity S-wave (km/s) = 3.54720 3.90703 3.73145
# Velocity P-wave (km/s) = 6.80230 7.26111 7.03545
#
# Compressibility (1/GPa) = 0.01691823
#
# Stress axis : x y z
#
# Youngs Moduli (GPa) = 73.48733 58.84876 57.47053
#
# Poissons Ratio (x) = 0.32362 0.12571
# Poissons Ratio (y) = 0.40412 0.45142
# Poissons Ratio (z) = 0.16074 0.46224
#
# Static dielectric constant tensor:
#      x y z
#    x 1.773510 0.000000 0.004220 
#    y 0.000000 1.693900 0.000000 
#    z 0.004220 0.000000 1.750200 
# 
# From -- ./inp_files/75926.got.cif
#   From: 2010.05.17/outbox.cif.g08.bks.cpg/sg13_38_cif.got.tgz:75926.got - 2010.06.03 16:44:36.
