data_PCOD9230265
_publ_section_title
;
Structure prediction by ZEFSAII (Michael W. Deem and Ramdas Pophale) SiO2 
 PCOD9230265
Probable space group: P 2/C
;
_chemical_formula_sum "Si O2"
_cell_formula_units_Z 24
_cell_length_a 14.067664
_cell_length_b 6.104699
_cell_length_c 13.294296
_cell_angle_alpha 90.000000
_cell_angle_beta 83.799649
_cell_angle_gamma 90.000000
_cell_volume 1135.020316
_symmetry_space_group_name_H-M "P 2/C"
_symmetry_group_IT_number 13
_symmetry_cell_setting 'monoclinic'
loop_
_space_group_symop_operation_xyz
x,y,z
-x,y,1/2-z
-x,-y,-z
x,-y,1/2+z
loop_
_atom_site_type_symbol
_atom_site_label
_atom_site_fract_x
_atom_site_fract_y
_atom_site_fract_z
Si Si1 0.730238 0.260111 0.945088
Si Si2 0.000000 0.158499 0.750000
Si Si3 0.921214 0.505399 0.424160
Si Si4 0.651380 0.654033 0.859383
Si Si5 0.162295 0.879954 0.689398
Si Si6 0.595565 0.061539 0.549916
Si Si7 0.500000 0.931843 0.750000
O O1 0.816473 0.413935 0.971615
O O2 0.660208 0.396365 0.879246
O O3 0.781539 0.068683 0.876722
O O4 0.667609 0.143561 0.036324
O O5 0.959903 0.317862 0.839807
O O6 0.910791 0.003371 0.728566
O O7 0.903756 0.271062 0.374203
O O8 0.000000 0.500000 0.500000
O O9 0.750374 0.721187 0.792130
O O10 0.567404 0.769979 0.807562
O O11 0.642474 0.749595 0.975561
O O12 0.562534 0.083070 0.668191
O O13 0.500000 0.000000 0.500000
#
# Coordination Sequence:
#
# PCOD9230265 Si02
#       7
#     4   2   4   4   4   4   2
#     4   9  19  38  57  82 119 162 198 258 315 353
#     4  10  20  36  60  92 124 164 206 254 306 354
#     4  10  21  39  61  92 123 167 209 247 311 376
#     4   9  19  39  59  82 123 159 202 256 312 370
#     4   9  19  39  59  84 124 158 201 259 303 365
#     4   9  19  37  57  80 117 155 200 257 310 362
#     4  10  20  36  58  92 112 162 210 250 312 382
#
# _framework density 21.144995000000002
#
# number of rings (size 3 to 8) (size 9 to 14) (size 15 to 20)
#    0.000    2.667    0.000    0.500    0.000    5.333 
#   21.000   11.667    0.000    0.000    0.000    0.000 
#    0.000    0.000    0.000    0.000    0.000    0.000 
#
# Total GULP energy -133660.845468 kJ/mol
# GULP energy per Si atom -5569.201895 kJ/mol
# Density = 2.109687 g / cm^3
# Si number density = 21.144995 Si / 1000 Ang^3
#
#
#
# Elastic Constant Matrix: (Units=GPa)
#
#
# Indices 1 2 3 4 5 6 
#
# 1 80.7172 15.7815 38.2493 0.0000 -14.5311 0.0000
# 2 15.7815 75.3263 21.9926 0.0000 -9.2735 0.0000
# 3 38.2493 21.9926 78.4696 0.0000 -17.1986 0.0000
# 4 0.0000 0.0000 0.0000 2.5860 0.0000 0.2584
# 5 -14.5311 -9.2735 -17.1986 0.0000 38.3375 0.0000
# 6 0.0000 0.0000 0.0000 0.2584 0.0000 25.7129
#
#
#
# Elastic Compliance Matrix: (Units=1/GPa)
#
#
# Indices 1 2 3 4 5 6 
#
# 1 0.016471 -0.001025 -0.007128 0.000000 0.002797 0.000000
# 2 -0.001025 0.014643 -0.003231 0.000000 0.001704 0.000000
# 3 -0.007128 -0.003231 0.018144 0.000000 0.004657 0.000000
# 4 0.000000 0.000000 0.000000 0.387089 0.000000 -0.003890
# 5 0.002797 0.001704 0.004657 0.000000 0.029646 0.000000
# 6 0.000000 0.000000 0.000000 -0.003890 0.000000 0.038930
#
#
# Mechanical properties :
#
#
# Convention : Reuss Voigt Hill
#
# Bulk Modulus (GPa) = 37.74978 42.95109 40.35043
# Shear Modulus (GPa) = 9.31929 23.89328 16.60628
#
# Velocity S-wave (km/s) = 2.10164 3.36515 2.80546
# Velocity P-wave (km/s) = 4.87655 5.95447 5.44227
#
# Compressibility (1/GPa) = 0.02649022
#
# Stress axis : x y z
#
# Youngs Moduli (GPa) = 60.71388 68.28989 55.11346
#
# Poissons Ratio (x) = 0.07001 0.39285
# Poissons Ratio (y) = 0.06225 0.17806
# Poissons Ratio (z) = 0.43277 0.22063
#
# Static dielectric constant tensor:
#      x y z
#    x 1.808080 0.000000 -0.011520 
#    y 0.000000 1.810970 0.000000 
#    z -0.011520 0.000000 1.768580 
# 
# From -- ./inp_files/52195.got.cif
#   From: 2010.05.17/outbox.cif.g08.bks.cpg/sg13_27_cif.got.tgz:52195.got - 2010.06.03 16:44:36.
