data_PCOD9230487
_publ_section_title
;
Structure prediction by ZEFSAII (Michael W. Deem and Ramdas Pophale) SiO2 
 PCOD9230487
Probable space group: P 2/C
;
_chemical_formula_sum "Si O2"
_cell_formula_units_Z 20
_cell_length_a 6.123816
_cell_length_b 7.780344
_cell_length_c 20.596257
_cell_angle_alpha 90.000000
_cell_angle_beta 130.833631
_cell_angle_gamma 90.000000
_cell_volume 742.475465
_symmetry_space_group_name_H-M "P 2/C"
_symmetry_group_IT_number 13
_symmetry_cell_setting 'monoclinic'
loop_
_space_group_symop_operation_xyz
x,y,z
-x,y,1/2-z
-x,-y,-z
x,-y,1/2+z
loop_
_atom_site_type_symbol
_atom_site_label
_atom_site_fract_x
_atom_site_fract_y
_atom_site_fract_z
Si Si1 0.003798 0.383469 0.892664
Si Si2 0.000000 0.475245 0.750000
Si Si3 0.418994 0.767679 0.862705
Si Si4 0.500000 0.955351 0.750000
Si Si5 0.103056 0.716312 0.992887
Si Si6 0.862835 0.024420 0.590189
O O1 0.884543 0.392409 0.795310
O O2 0.135205 0.563356 0.946287
O O3 0.227957 0.223308 0.929887
O O4 0.799894 0.334403 0.915583
O O5 0.248972 0.590957 0.829620
O O6 0.378094 0.837115 0.782555
O O7 0.757084 0.734963 0.934521
O O8 0.279149 0.912001 0.881069
O O9 0.790443 0.042176 0.832731
O O10 0.188392 0.902724 0.982092
#
# Coordination Sequence:
#
# PCOD9230487 Si02
#       6
#     4   2   4   2   4   4
#     4  11  25  43  68  99 135 171 230 274 335 410
#     4  12  22  40  66 100 126 170 216 276 330 402
#     4  11  21  42  70  92 137 178 219 276 339 395
#     4  10  20  36  66  96 128 178 212 272 340 388
#     4  10  24  48  65  94 135 182 217 280 337 397
#     4  11  22  42  68  96 133 176 227 274 335 403
#
# _framework density 26.936917999999999
#
# number of rings (size 3 to 8) (size 9 to 14) (size 15 to 20)
#    0.000    1.200    4.000    1.800    2.800    3.200 
#    3.600    0.000    0.000    0.000    0.000    0.000 
#    0.000    0.000    0.000    0.000    0.000    0.000 
#
# Total GULP energy -111720.931859 kJ/mol
# GULP energy per Si atom -5586.046593 kJ/mol
# Density = 2.687561 g / cm^3
# Si number density = 26.936918 Si / 1000 Ang^3
#
#
#
# Elastic Constant Matrix: (Units=GPa)
#
#
# Indices 1 2 3 4 5 6 
#
# 1 106.7264 50.9032 61.1471 0.0000 -27.0213 0.0000
# 2 50.9032 177.5750 47.5393 0.0000 -27.3157 0.0000
# 3 61.1471 47.5393 126.7353 0.0000 -43.4972 0.0000
# 4 0.0000 0.0000 0.0000 47.6525 0.0000 -16.6604
# 5 -27.0213 -27.3157 -43.4972 0.0000 94.0379 0.0000
# 6 0.0000 0.0000 0.0000 -16.6604 0.0000 39.6045
#
#
#
# Elastic Compliance Matrix: (Units=1/GPa)
#
#
# Indices 1 2 3 4 5 6 
#
# 1 0.013867 -0.002378 -0.005549 0.000000 0.000727 0.000000
# 2 -0.002378 0.006728 -0.001118 0.000000 0.000754 0.000000
# 3 -0.005549 -0.001118 0.012277 0.000000 0.003760 0.000000
# 4 0.000000 0.000000 0.000000 0.024604 0.000000 0.010350
# 5 0.000727 0.000754 0.003760 0.000000 0.012801 0.000000
# 6 0.000000 0.000000 0.000000 0.010350 0.000000 0.029604
#
#
# Mechanical properties :
#
#
# Convention : Reuss Voigt Hill
#
# Bulk Modulus (GPa) = 67.64206 81.13508 74.38857
# Shear Modulus (GPa) = 40.68392 53.02215 46.85304
#
# Velocity S-wave (km/s) = 3.89053 4.44146 4.17509
# Velocity P-wave (km/s) = 6.73405 7.51584 7.13566
#
# Compressibility (1/GPa) = 0.01478370
#
# Stress axis : x y z
#
# Youngs Moduli (GPa) = 72.11264 148.62683 81.44994
#
# Poissons Ratio (x) = 0.35339 0.45198
# Poissons Ratio (y) = 0.17146 0.09105
# Poissons Ratio (z) = 0.40016 0.16614
#
# Static dielectric constant tensor:
#      x y z
#    x 2.066860 0.000000 -0.025230 
#    y 0.000000 2.165290 0.000000 
#    z -0.025230 0.000000 2.219020 
# 
# From -- ./inp_files/60630.got.cif
#   From: 2010.05.17/outbox.cif.g08.bks.cpg/sg13_31_cif.got.tgz:60630.got - 2010.06.03 16:44:36.
