data_PCOD9230231
_publ_section_title
;
Structure prediction by ZEFSAII (Michael W. Deem and Ramdas Pophale) SiO2 
 PCOD9230231
Probable space group: P 2/C
;
_chemical_formula_sum "Si O2"
_cell_formula_units_Z 28
_cell_length_a 28.250725
_cell_length_b 8.495343
_cell_length_c 28.626951
_cell_angle_alpha 90.000000
_cell_angle_beta 169.973324
_cell_angle_gamma 90.000000
_cell_volume 1196.192345
_symmetry_space_group_name_H-M "P 2/C"
_symmetry_group_IT_number 13
_symmetry_cell_setting 'monoclinic'
loop_
_space_group_symop_operation_xyz
x,y,z
-x,y,1/2-z
-x,-y,-z
x,-y,1/2+z
loop_
_atom_site_type_symbol
_atom_site_label
_atom_site_fract_x
_atom_site_fract_y
_atom_site_fract_z
Si Si1 0.558271 0.713000 0.750894
Si Si2 0.596361 0.330508 0.688588
Si Si3 0.911848 0.818141 0.406715
Si Si4 0.535839 0.367583 0.074960
Si Si5 0.941895 0.892084 0.249747
Si Si6 0.953395 0.212663 0.308131
Si Si7 0.726798 0.416804 0.007389
O O1 0.500000 0.718483 0.750000
O O2 0.428405 0.546569 0.613072
O O3 0.372678 0.849896 0.549874
O O4 0.872724 0.747778 0.052208
O O5 0.764397 0.246771 0.810039
O O6 0.555151 0.515765 0.637801
O O7 0.303313 0.246592 0.407836
O O8 0.782946 0.296516 0.914864
O O9 0.182982 0.720477 0.660121
O O10 0.700492 0.763387 0.160479
O O11 0.000000 0.000000 0.500000
O O12 0.500000 0.500000 0.000000
O O13 0.000000 0.919136 0.250000
O O14 0.016053 0.035076 0.355336
O O15 0.849386 0.283044 0.158275
O O16 0.000000 0.489600 0.250000
O O17 0.500000 0.361170 0.750000
#
# Coordination Sequence:
#
# PCOD9230231 Si02
#       7
#     4   4   4   4   4   4   4
#     4   9  18  35  58  80 107 148 203 260 303 355
#     4  11  23  41  61  93 130 166 202 251 321 376
#     4  11  22  41  71  99 122 158 210 258 302 376
#     4  10  20  40  68  92 121 163 200 240 303 385
#     4  10  20  36  58  83 116 164 211 250 309 369
#     4  12  24  38  60  91 129 164 205 268 312 360
#     4  11  22  39  62  90 119 163 219 265 306 367
#
# _framework density 23.407606999999999
#
# number of rings (size 3 to 8) (size 9 to 14) (size 15 to 20)
#    0.000    1.429    0.000    9.000    0.000    1.714 
#    0.000    5.714    0.000    1.714    0.000    0.000 
#    0.000    0.000    0.000    0.000    0.000    0.000 
#
# Total GULP energy -156442.957561 kJ/mol
# GULP energy per Si atom -5587.248484 kJ/mol
# Density = 2.335433 g / cm^3
# Si number density = 23.407607 Si / 1000 Ang^3
#
#
#
# Elastic Constant Matrix: (Units=GPa)
#
#
# Indices 1 2 3 4 5 6 
#
# 1 46.9935 6.6146 17.5687 0.0000 2.1131 0.0000
# 2 6.6146 66.3396 18.2200 0.0000 14.9592 0.0000
# 3 17.5687 18.2200 138.5205 0.0000 9.2518 0.0000
# 4 0.0000 0.0000 0.0000 50.0951 0.0000 -23.2938
# 5 2.1131 14.9592 9.2518 0.0000 29.5673 0.0000
# 6 0.0000 0.0000 0.0000 -23.2938 0.0000 78.9244
#
#
#
# Elastic Compliance Matrix: (Units=1/GPa)
#
#
# Indices 1 2 3 4 5 6 
#
# 1 0.022484 -0.001511 -0.002652 0.000000 -0.000013 0.000000
# 2 -0.001511 0.017517 -0.001560 0.000000 -0.008266 0.000000
# 3 -0.002652 -0.001560 0.007860 0.000000 -0.001480 0.000000
# 4 0.000000 0.000000 0.000000 0.023137 0.000000 0.006829
# 5 -0.000013 -0.008266 -0.001480 0.000000 0.038468 0.000000
# 6 0.000000 0.000000 0.000000 0.006829 0.000000 0.014686
#
#
# Mechanical properties :
#
#
# Convention : Reuss Voigt Hill
#
# Bulk Modulus (GPa) = 27.46134 37.40668 32.43401
# Shear Modulus (GPa) = 33.84407 45.68070 39.76238
#
# Velocity S-wave (km/s) = 3.80657 4.42241 4.12599
# Velocity P-wave (km/s) = 5.57470 6.48785 6.04853
#
# Compressibility (1/GPa) = 0.03641483
#
# Stress axis : x y z
#
# Youngs Moduli (GPa) = 44.47554 57.08690 127.23238
#
# Poissons Ratio (x) = 0.08623 0.33744
# Poissons Ratio (y) = 0.06718 0.19853
# Poissons Ratio (z) = 0.11796 0.08908
#
# Static dielectric constant tensor:
#      x y z
#    x 1.948800 0.000000 -0.016870 
#    y 0.000000 1.868210 0.000000 
#    z -0.016870 0.000000 1.826000 
# 
# From -- ./inp_files/98117.got.cif
#   From: 2010.05.17/outbox.cif.g08.bks.cpg/sg13_50_cif.got.tgz:98117.got - 2010.06.03 16:44:36.
