data_PCOD9230627
_publ_section_title
;
Structure prediction by ZEFSAII (Michael W. Deem and Ramdas Pophale) SiO2 
 PCOD9230627
Probable space group: P 2/C
;
_chemical_formula_sum "Si O2"
_cell_formula_units_Z 30
_cell_length_a 6.955974
_cell_length_b 8.303956
_cell_length_c 31.177250
_cell_angle_alpha 90.000000
_cell_angle_beta 116.183262
_cell_angle_gamma 90.000000
_cell_volume 1616.072048
_symmetry_space_group_name_H-M "P 2/C"
_symmetry_group_IT_number 13
_symmetry_cell_setting 'monoclinic'
loop_
_space_group_symop_operation_xyz
x,y,z
-x,y,1/2-z
-x,-y,-z
x,-y,1/2+z
loop_
_atom_site_type_symbol
_atom_site_label
_atom_site_fract_x
_atom_site_fract_y
_atom_site_fract_z
Si Si1 0.688883 0.946179 0.337782
Si Si2 0.342743 0.039795 0.522520
Si Si3 0.000000 0.559369 0.750000
Si Si4 0.094940 0.145669 0.065420
Si Si5 0.031425 0.670492 0.170054
Si Si6 0.240753 0.537456 0.615819
Si Si7 0.472308 0.730947 0.388069
Si Si8 0.555682 0.266166 0.207655
O O1 0.548614 0.828079 0.353439
O O2 0.824182 0.834540 0.318003
O O3 0.851318 0.038455 0.386841
O O4 0.526591 0.081493 0.303756
O O5 0.455136 0.170563 0.563556
O O6 0.124674 0.098042 0.478771
O O7 0.500000 0.000000 0.500000
O O8 0.279304 0.896165 0.548881
O O9 0.050267 0.441465 0.714426
O O10 0.797786 0.677735 0.722277
O O11 0.097335 0.331827 0.077915
O O12 0.780705 0.707712 0.139753
O O13 0.108011 0.570585 0.135962
O O14 0.385471 0.429656 0.599176
O O15 0.408262 0.638877 0.660205
O O16 0.500000 0.321247 0.250000
#
# Coordination Sequence:
#
# PCOD9230627 Si02
#       8
#     4   4   2   4   4   4   4   4
#     4   9  22  40  62  85 118 159 203 243 301 366
#     4  10  20  37  60  88 120 153 198 252 299 355
#     4  12  24  38  66  90 124 160 206 260 312 356
#     4   9  20  39  61  85 117 159 198 245 298 360
#     4  11  22  39  62  87 121 163 200 248 306 360
#     4  10  21  40  61  84 119 162 198 245 303 361
#     4  10  21  38  60  89 120 156 200 249 299 365
#     4  11  22  41  61  87 118 158 201 253 306 362
#
# _framework density 18.563531000000001
#
# number of rings (size 3 to 8) (size 9 to 14) (size 15 to 20)
#    0.000    1.867    2.667    0.800    0.000    4.800 
#    2.400    1.333    0.000    0.000    0.000    0.000 
#    0.000    0.000    0.000    0.000    0.000    0.000 
#
# Total GULP energy -167280.785186 kJ/mol
# GULP energy per Si atom -5576.026173 kJ/mol
# Density = 1.852128 g / cm^3
# Si number density = 18.563531 Si / 1000 Ang^3
#
#
#
# Elastic Constant Matrix: (Units=GPa)
#
#
# Indices 1 2 3 4 5 6 
#
# 1 113.1769 56.7571 34.6022 0.0000 2.5132 0.0000
# 2 56.7571 97.1227 25.2151 0.0000 -4.4358 0.0000
# 3 34.6022 25.2151 65.1914 0.0000 -4.1809 0.0000
# 4 0.0000 0.0000 0.0000 54.5261 0.0000 2.7641
# 5 2.5132 -4.4358 -4.1809 0.0000 31.8092 0.0000
# 6 0.0000 0.0000 0.0000 2.7641 0.0000 15.8282
#
#
#
# Elastic Compliance Matrix: (Units=1/GPa)
#
#
# Indices 1 2 3 4 5 6 
#
# 1 0.013873 -0.006974 -0.004839 0.000000 -0.002705 0.000000
# 2 -0.006974 0.014985 -0.001941 0.000000 0.002386 0.000000
# 3 -0.004839 -0.001941 0.018825 0.000000 0.002586 0.000000
# 4 0.000000 0.000000 0.000000 0.018504 0.000000 -0.003231
# 5 -0.002705 0.002386 0.002586 0.000000 0.032324 0.000000
# 6 0.000000 0.000000 0.000000 -0.003231 0.000000 0.063743
#
#
# Mechanical properties :
#
#
# Convention : Reuss Voigt Hill
#
# Bulk Modulus (GPa) = 49.57136 56.51555 53.04346
# Shear Modulus (GPa) = 25.44709 31.02714 28.23712
#
# Velocity S-wave (km/s) = 3.70646 4.09272 3.90437
# Velocity P-wave (km/s) = 6.71407 7.26940 6.99725
#
# Compressibility (1/GPa) = 0.02017294
#
# Stress axis : x y z
#
# Youngs Moduli (GPa) = 72.08325 66.73427 53.12165
#
# Poissons Ratio (x) = 0.46542 0.25707
# Poissons Ratio (y) = 0.50272 0.10312
# Poissons Ratio (z) = 0.34884 0.12954
#
# Static dielectric constant tensor:
#      x y z
#    x 1.623030 0.000000 -0.004590 
#    y 0.000000 1.689740 0.000000 
#    z -0.004590 0.000000 1.604130 
# 
# From -- ./inp_files/94863.got.cif
#   From: 2010.05.17/outbox.cif.g08.bks.cpg/sg13_48_cif.got.tgz:94863.got - 2010.06.03 16:44:36.
