data_PCOD9230236
_publ_section_title
;
Structure prediction by ZEFSAII (Michael W. Deem and Ramdas Pophale) SiO2 
 PCOD9230236
Probable space group: P 2/C
;
_chemical_formula_sum "Si O2"
_cell_formula_units_Z 12
_cell_length_a 9.182062
_cell_length_b 9.813067
_cell_length_c 8.186687
_cell_angle_alpha 90.000000
_cell_angle_beta 126.703363
_cell_angle_gamma 90.000000
_cell_volume 591.407774
_symmetry_space_group_name_H-M "P 2/C"
_symmetry_group_IT_number 13
_symmetry_cell_setting 'monoclinic'
loop_
_space_group_symop_operation_xyz
x,y,z
-x,y,1/2-z
-x,-y,-z
x,-y,1/2+z
loop_
_atom_site_type_symbol
_atom_site_label
_atom_site_fract_x
_atom_site_fract_y
_atom_site_fract_z
Si Si1 0.314472 0.379898 0.518819
Si Si2 0.174519 0.648642 0.254578
Si Si3 0.494160 0.155646 0.051527
O O1 0.500000 0.398176 0.750000
O O2 0.274801 0.512560 0.386223
O O3 0.154721 0.364653 0.545937
O O4 0.351411 0.248374 0.431473
O O5 0.306586 0.776127 0.369189
O O6 0.000000 0.665110 0.250000
O O7 0.500000 0.166247 0.250000
O O8 0.500000 0.000000 0.000000
#
# Coordination Sequence:
#
# PCOD9230236 Si02
#       3
#     4   4   4
#     4  10  20  36  58  84 113 151 187 221 273 336
#     4  11  21  36  58  88 115 143 185 236 277 319
#     4  11  22  40  60  80 110 152 190 225 275 341
#
# _framework density 20.290571
#
# number of rings (size 3 to 8) (size 9 to 14) (size 15 to 20)
#    0.000    1.333    0.000   11.000    0.000    0.000 
#    0.000    8.333    0.000    0.000    0.000    0.000 
#    0.000    0.000    0.000    0.000    0.000    0.000 
#
# Total GULP energy -67085.916581 kJ/mol
# GULP energy per Si atom -5590.493048 kJ/mol
# Density = 2.024439 g / cm^3
# Si number density = 20.290571 Si / 1000 Ang^3
#
#
#
# Elastic Constant Matrix: (Units=GPa)
#
#
# Indices 1 2 3 4 5 6 
#
# 1 173.0984 73.4094 26.8303 0.0000 -41.7211 0.0000
# 2 73.4094 195.8755 39.2499 0.0000 -15.6482 0.0000
# 3 26.8303 39.2499 49.2423 0.0000 -38.1933 0.0000
# 4 0.0000 0.0000 0.0000 26.6001 0.0000 -18.3587
# 5 -41.7211 -15.6482 -38.1933 0.0000 42.8860 0.0000
# 6 0.0000 0.0000 0.0000 -18.3587 0.0000 26.1777
#
#
#
# Elastic Compliance Matrix: (Units=1/GPa)
#
#
# Indices 1 2 3 4 5 6 
#
# 1 0.011472 -0.005837 0.017482 0.000000 0.024599 0.000000
# 2 -0.005837 0.009723 -0.020121 0.000000 -0.020050 0.000000
# 3 0.017482 -0.020121 0.110968 0.000000 0.108491 0.000000
# 4 0.000000 0.000000 0.000000 0.072860 0.000000 0.051097
# 5 0.024599 -0.020050 0.108491 0.000000 0.136552 0.000000
# 6 0.000000 0.000000 0.000000 0.051097 0.000000 0.074036
#
#
# Mechanical properties :
#
#
# Convention : Reuss Voigt Hill
#
# Bulk Modulus (GPa) = 8.67975 77.46617 43.07296
# Shear Modulus (GPa) = 10.61648 37.71452 24.16550
#
# Velocity S-wave (km/s) = 2.28989 4.31597 3.45479
# Velocity P-wave (km/s) = 3.35834 7.94343 6.09822
#
# Compressibility (1/GPa) = 0.11521067
#
# Stress axis : x y z
#
# Youngs Moduli (GPa) = 87.16906 102.84904 9.01164
#
# Poissons Ratio (x) = 0.60036 -0.15754
# Poissons Ratio (y) = 0.50883 0.18132
# Poissons Ratio (z) = -1.52388 2.06938
#
# Static dielectric constant tensor:
#      x y z
#    x 1.794330 0.000000 0.064570 
#    y 0.000000 1.669430 0.000000 
#    z 0.064570 0.000000 1.428420 
# 
# From -- ./inp_files/10492.got.cif
#   From: 2010.05.17/outbox.cif.g08.bks.cpg/sg13_6_cif.got.tgz:10492.got - 2010.06.03 16:44:36.
