data_PCOD9230542
_publ_section_title
;
Structure prediction by ZEFSAII (Michael W. Deem and Ramdas Pophale) SiO2 
 PCOD9230542
Probable space group: P 2/C
;
_chemical_formula_sum "Si O2"
_cell_formula_units_Z 20
_cell_length_a 14.367900
_cell_length_b 10.158405
_cell_length_c 13.126161
_cell_angle_alpha 90.000000
_cell_angle_beta 150.117416
_cell_angle_gamma 90.000000
_cell_volume 954.511958
_symmetry_space_group_name_H-M "P 2/C"
_symmetry_group_IT_number 13
_symmetry_cell_setting 'monoclinic'
loop_
_space_group_symop_operation_xyz
x,y,z
-x,y,1/2-z
-x,-y,-z
x,-y,1/2+z
loop_
_atom_site_type_symbol
_atom_site_label
_atom_site_fract_x
_atom_site_fract_y
_atom_site_fract_z
Si Si1 0.103237 0.007734 0.937089
Si Si2 0.168499 0.146160 0.181237
Si Si3 0.702187 0.761426 0.489920
Si Si4 0.981515 0.617878 0.402659
Si Si5 0.720709 0.457011 0.482562
O O1 0.187766 0.877528 0.964678
O O2 0.241956 0.082513 0.145666
O O3 0.000000 0.089626 0.750000
O O4 0.933774 0.962716 0.847923
O O5 0.299020 0.214583 0.389141
O O6 0.013083 0.249542 0.995640
O O7 0.500000 0.766419 0.250000
O O8 0.771834 0.612922 0.537012
O O9 0.154423 0.604290 0.488342
O O10 0.000000 0.500000 0.500000
O O11 0.793458 0.605242 0.157650
O O12 0.500000 0.443623 0.250000
#
# Coordination Sequence:
#
# PCOD9230542 Si02
#       5
#     4   4   4   4   4
#     4   9  20  36  60  78 112 147 192 241 285 347
#     4  10  20  37  57  86 108 151 199 233 287 356
#     4  10  20  38  58  82 117 150 188 241 296 346
#     4  11  21  37  64  84 116 159 198 238 299 353
#     4  10  23  39  57  89 123 154 194 248 294 349
#
# _framework density 20.953116000000001
#
# number of rings (size 3 to 8) (size 9 to 14) (size 15 to 20)
#    0.000    2.000    2.000    1.200    8.400    1.600 
#    3.600    1.000    0.000    0.000    0.000    0.000 
#    0.000    0.000    0.000    0.000    0.000    0.000 
#
# Total GULP energy -111434.543363 kJ/mol
# GULP energy per Si atom -5571.727168 kJ/mol
# Density = 2.090543 g / cm^3
# Si number density = 20.953116 Si / 1000 Ang^3
#
#
#
# Elastic Constant Matrix: (Units=GPa)
#
#
# Indices 1 2 3 4 5 6 
#
# 1 48.1525 9.8719 47.8167 0.0000 -27.8266 0.0000
# 2 9.8719 67.8736 30.6871 0.0000 -17.3738 0.0000
# 3 47.8167 30.6871 177.4373 0.0000 -28.6825 0.0000
# 4 0.0000 0.0000 0.0000 -24.8119 0.0000 23.7280
# 5 -27.8266 -17.3738 -28.6825 0.0000 42.2569 0.0000
# 6 0.0000 0.0000 0.0000 23.7280 0.0000 -0.7256
#
#
#
# Elastic Compliance Matrix: (Units=1/GPa)
#
#
# Indices 1 2 3 4 5 6 
#
# 1 0.041497 0.003569 -0.008026 0.000000 0.023346 0.000000
# 2 0.003569 0.017410 -0.002736 0.000000 0.007651 0.000000
# 3 -0.008026 -0.002736 0.008127 0.000000 -0.000894 0.000000
# 4 0.000000 0.000000 0.000000 0.001331 0.000000 0.043537
# 5 0.023346 0.007651 -0.000894 0.000000 0.041577 0.000000
# 6 0.000000 0.000000 0.000000 0.043537 0.000000 0.045525
#
#
# Mechanical properties :
#
#
# Convention : Reuss Voigt Hill
#
# Bulk Modulus (GPa) = 18.99404 52.24610 35.62007
# Shear Modulus (GPa) = 26.68031 17.01639 21.84835
#
# Velocity S-wave (km/s) = 3.57225 2.85286 3.23263
# Velocity P-wave (km/s) = 5.10875 5.98670 5.56507
#
# Compressibility (1/GPa) = 0.05264808
#
# Stress axis : x y z
#
# Youngs Moduli (GPa) = 24.09801 57.43949 123.03934
#
# Poissons Ratio (x) = -0.20501 0.98755
# Poissons Ratio (y) = -0.08601 0.33663
# Poissons Ratio (z) = 0.19342 0.15715
#
# Static dielectric constant tensor:
#      x y z
#    x 1.755330 0.000000 -0.035230 
#    y 0.000000 1.813030 0.000000 
#    z -0.035230 0.000000 1.810900 
# 
# From -- ./inp_files/33587.got.cif
#   From: 2010.05.17/outbox.cif.g08.bks.cpg/sg13_17_cif.got.tgz:33587.got - 2010.06.03 16:44:36.
