data_PCOD9230332
_publ_section_title
;
Structure prediction by ZEFSAII (Michael W. Deem and Ramdas Pophale) SiO2 
 PCOD9230332
Probable space group: P 2/C
;
_chemical_formula_sum "Si O2"
_cell_formula_units_Z 20
_cell_length_a 10.218738
_cell_length_b 18.105758
_cell_length_c 5.158744
_cell_angle_alpha 90.000000
_cell_angle_beta 79.024756
_cell_angle_gamma 90.000000
_cell_volume 937.002958
_symmetry_space_group_name_H-M "P 2/C"
_symmetry_group_IT_number 13
_symmetry_cell_setting 'monoclinic'
loop_
_space_group_symop_operation_xyz
x,y,z
-x,y,1/2-z
-x,-y,-z
x,-y,1/2+z
loop_
_atom_site_type_symbol
_atom_site_label
_atom_site_fract_x
_atom_site_fract_y
_atom_site_fract_z
Si Si1 0.644404 0.233827 0.137909
Si Si2 0.253649 0.302204 0.889152
Si Si3 0.359546 0.950051 0.377850
Si Si4 0.853132 0.158788 0.752561
Si Si5 0.839567 0.459564 0.780202
O O1 0.500000 0.201051 0.250000
O O2 0.688819 0.288928 0.348693
O O3 0.639892 0.277488 0.868508
O O4 0.762722 0.175569 0.040769
O O5 0.140297 0.239141 0.888210
O O6 0.202285 0.381886 0.827141
O O7 0.500000 0.911239 0.250000
O O8 0.237105 0.896007 0.378698
O O9 0.356094 0.984893 0.663494
O O10 0.000000 0.130668 0.750000
O O11 0.793108 0.520701 0.587605
O O12 0.000000 0.460227 0.750000
#
# Coordination Sequence:
#
# PCOD9230332 Si02
#       5
#     4   4   4   4   4
#     4  10  23  39  64  91 124 169 214 259 316 385
#     4  10  22  39  64  93 130 160 218 269 317 371
#     4  10  24  43  66  93 128 173 214 255 313 389
#     4  10  25  41  67 101 129 166 211 276 326 370
#     4  10  20  36  60  90 128 171 210 257 322 385
#
# _framework density 21.344647999999999
#
# number of rings (size 3 to 8) (size 9 to 14) (size 15 to 20)
#    1.200    0.800    0.000    2.400    5.600    2.400 
#    0.000    0.000    0.000   12.000    0.000    0.000 
#    0.000    0.000    0.000    0.000    0.000    0.000 
#
# Total GULP energy -111528.868554 kJ/mol
# GULP energy per Si atom -5576.443428 kJ/mol
# Density = 2.129607 g / cm^3
# Si number density = 21.344648 Si / 1000 Ang^3
#
#
#
# Elastic Constant Matrix: (Units=GPa)
#
#
# Indices 1 2 3 4 5 6 
#
# 1 118.4673 27.1219 22.0055 0.0000 -0.1515 0.0000
# 2 27.1219 64.5593 9.8900 0.0000 9.2702 0.0000
# 3 22.0055 9.8900 101.8600 0.0000 25.0597 0.0000
# 4 0.0000 0.0000 0.0000 32.8895 0.0000 17.4468
# 5 -0.1515 9.2702 25.0597 0.0000 20.2906 0.0000
# 6 0.0000 0.0000 0.0000 17.4468 0.0000 33.8484
#
#
#
# Elastic Compliance Matrix: (Units=1/GPa)
#
#
# Indices 1 2 3 4 5 6 
#
# 1 0.010120 -0.004646 -0.003269 0.000000 0.006236 0.000000
# 2 -0.004646 0.018720 0.001866 0.000000 -0.010891 0.000000
# 3 -0.003269 0.001866 0.015167 0.000000 -0.019608 0.000000
# 4 0.000000 0.000000 0.000000 0.041847 0.000000 -0.021569
# 5 0.006236 -0.010891 -0.019608 0.000000 0.078524 0.000000
# 6 0.000000 0.000000 0.000000 -0.021569 0.000000 0.040661
#
#
# Mechanical properties :
#
#
# Convention : Reuss Voigt Hill
#
# Bulk Modulus (GPa) = 31.34149 44.76905 38.05527
# Shear Modulus (GPa) = 21.95165 32.46364 27.20765
#
# Velocity S-wave (km/s) = 3.21041 3.90414 3.57414
# Velocity P-wave (km/s) = 5.33458 6.42985 5.90765
#
# Compressibility (1/GPa) = 0.03190659
#
# Stress axis : x y z
#
# Youngs Moduli (GPa) = 98.81311 53.41981 65.93429
#
# Poissons Ratio (x) = 0.24820 0.21557
# Poissons Ratio (y) = 0.45910 -0.12301
# Poissons Ratio (z) = 0.32306 -0.09967
#
# Static dielectric constant tensor:
#      x y z
#    x 1.755050 0.000000 -0.000910 
#    y 0.000000 1.787220 0.000000 
#    z -0.000910 0.000000 1.795680 
# 
# From -- ./inp_files/2036.got.cif
#   From: 2010.05.17/outbox.cif.g08.bks.cpg/sg13_2_cif.got.tgz:2036.got - 2010.06.03 16:44:36.
