data_PCOD9230950
_publ_section_title
;
Structure prediction by ZEFSAII (Michael W. Deem and Ramdas Pophale) SiO2 
 PCOD9230950
Probable space group: P 2/C
;
_chemical_formula_sum "Si O2"
_cell_formula_units_Z 22
_cell_length_a 8.835524
_cell_length_b 10.363858
_cell_length_c 12.037077
_cell_angle_alpha 90.000000
_cell_angle_beta 132.223974
_cell_angle_gamma 90.000000
_cell_volume 816.232022
_symmetry_space_group_name_H-M "P 2/C"
_symmetry_group_IT_number 13
_symmetry_cell_setting 'monoclinic'
loop_
_space_group_symop_operation_xyz
x,y,z
-x,y,1/2-z
-x,-y,-z
x,-y,1/2+z
loop_
_atom_site_type_symbol
_atom_site_label
_atom_site_fract_x
_atom_site_fract_y
_atom_site_fract_z
Si Si1 0.735532 0.987877 0.908961
Si Si2 0.641981 0.187783 0.036161
Si Si3 0.274690 0.710887 0.672102
Si Si4 0.823410 0.840649 0.247240
Si Si5 0.000000 0.604392 0.250000
Si Si6 0.118556 0.417382 0.430546
O O1 0.500000 0.996640 0.750000
O O2 0.842253 0.070700 0.864509
O O3 0.771249 0.835131 0.926427
O O4 0.754830 0.069820 0.031088
O O5 0.701398 0.223621 0.190976
O O6 0.709894 0.310732 0.993667
O O7 0.406263 0.152099 0.911137
O O8 0.500000 0.658796 0.750000
O O9 0.076803 0.619423 0.592879
O O10 0.000000 0.877693 0.250000
O O11 0.862010 0.686190 0.269444
O O12 0.815794 0.562313 0.063943
O O13 0.000000 0.428029 0.250000
#
# Coordination Sequence:
#
# PCOD9230950 Si02
#       6
#     4   4   4   4   2   4
#     4   9  20  36  56  87 118 151 194 234 292 349
#     4  10  20  38  61  84 120 161 184 237 305 344
#     4  10  21  37  59  89 118 150 196 240 286 352
#     4   9  20  36  59  86 118 149 203 242 279 341
#     4   8  18  40  58  84 120 144 202 252 270 342
#     4   8  18  37  58  81 119 149 191 239 287 339
#
# _framework density 26.953122
#
# number of rings (size 3 to 8) (size 9 to 14) (size 15 to 20)
#    1.091    1.818    0.000    0.000    0.000   11.636 
#    0.000    3.636    0.000    3.273    0.000    0.000 
#    0.000    0.000    0.000    0.000    0.000    0.000 
#
# Total GULP energy -122599.395393 kJ/mol
# GULP energy per Si atom -5572.699791 kJ/mol
# Density = 2.689178 g / cm^3
# Si number density = 26.953122 Si / 1000 Ang^3
#
#
#
# Elastic Constant Matrix: (Units=GPa)
#
#
# Indices 1 2 3 4 5 6 
#
# 1 166.2926 42.2788 27.3205 0.0000 7.4797 0.0000
# 2 42.2788 125.7369 16.7458 0.0000 5.8361 0.0000
# 3 27.3205 16.7458 83.5908 0.0000 0.8638 0.0000
# 4 0.0000 0.0000 0.0000 13.9712 0.0000 38.0127
# 5 7.4797 5.8361 0.8638 0.0000 36.9641 0.0000
# 6 0.0000 0.0000 0.0000 38.0127 0.0000 -8.2532
#
#
#
# Elastic Compliance Matrix: (Units=1/GPa)
#
#
# Indices 1 2 3 4 5 6 
#
# 1 0.006874 -0.002020 -0.001831 0.000000 -0.001029 0.000000
# 2 -0.002020 0.008823 -0.001097 0.000000 -0.000959 0.000000
# 3 -0.001831 -0.001097 0.012779 0.000000 0.000245 0.000000
# 4 0.000000 0.000000 0.000000 0.005290 0.000000 0.024363
# 5 -0.001029 -0.000959 0.000245 0.000000 0.027407 0.000000
# 6 0.000000 0.000000 0.000000 0.024363 0.000000 -0.008954
#
#
# Mechanical properties :
#
#
# Convention : Reuss Voigt Hill
#
# Bulk Modulus (GPa) = 53.82516 60.92339 57.37428
# Shear Modulus (GPa) = 73.19694 27.82141 50.50917
#
# Velocity S-wave (km/s) = 5.21690 3.21630 4.33363
# Velocity P-wave (km/s) = 7.50342 6.03699 6.80980
#
# Compressibility (1/GPa) = 0.01857867
#
# Stress axis : x y z
#
# Youngs Moduli (GPa) = 145.47151 113.34135 78.25360
#
# Poissons Ratio (x) = 0.22892 0.14332
# Poissons Ratio (y) = 0.29381 0.08588
# Poissons Ratio (z) = 0.26643 0.12439
#
# Static dielectric constant tensor:
#      x y z
#    x 2.104100 0.000000 -0.067450 
#    y 0.000000 2.240180 0.000000 
#    z -0.067450 0.000000 2.292460 
# 
# From -- ./inp_files/46728.got.cif
#   From: 2010.05.17/outbox.cif.g08.bks.cpg/sg13_24_cif.got.tgz:46728.got - 2010.06.03 16:44:36.
