data_PCOD9230611
_publ_section_title
;
Structure prediction by ZEFSAII (Michael W. Deem and Ramdas Pophale) SiO2 
 PCOD9230611
Probable space group: P 2/C
;
_chemical_formula_sum "Si O2"
_cell_formula_units_Z 20
_cell_length_a 4.983568
_cell_length_b 11.813662
_cell_length_c 13.993623
_cell_angle_alpha 90.000000
_cell_angle_beta 74.497184
_cell_angle_gamma 90.000000
_cell_volume 793.888837
_symmetry_space_group_name_H-M "P 2/C"
_symmetry_group_IT_number 13
_symmetry_cell_setting 'monoclinic'
loop_
_space_group_symop_operation_xyz
x,y,z
-x,y,1/2-z
-x,-y,-z
x,-y,1/2+z
loop_
_atom_site_type_symbol
_atom_site_label
_atom_site_fract_x
_atom_site_fract_y
_atom_site_fract_z
Si Si1 0.480547 0.927340 0.854449
Si Si2 0.697125 0.487989 0.573574
Si Si3 0.708707 0.239337 0.561249
Si Si4 0.869151 0.707911 0.655571
Si Si5 0.824862 0.919350 0.430109
O O1 0.500000 0.984364 0.750000
O O2 0.364391 0.802317 0.844821
O O3 0.772473 0.968835 0.871713
O O4 0.254269 0.960867 0.955533
O O5 0.500000 0.500000 0.500000
O O6 0.652421 0.360736 0.614266
O O7 0.712657 0.589665 0.647773
O O8 0.000000 0.500000 0.500000
O O9 0.429929 0.169648 0.566530
O O10 0.883528 0.268520 0.446498
O O11 0.910656 0.160317 0.603893
O O12 0.000000 0.713338 0.750000
#
# Coordination Sequence:
#
# PCOD9230611 Si02
#       5
#     4   4   4   4   4
#     4  10  21  37  58  87 121 155 201 254 306 365
#     4  10  20  37  60  84 116 156 196 243 305 371
#     4  10  20  39  60  83 116 156 199 243 299 368
#     4  10  21  35  60  92 121 155 203 262 316 365
#     4  10  22  38  61  85 115 160 201 244 306 369
#
# _framework density 25.192446
#
# number of rings (size 3 to 8) (size 9 to 14) (size 15 to 20)
#    0.000    2.000    0.000    4.800    0.000   10.400 
#    0.000    2.000    0.000    0.000    0.000    0.000 
#    0.000    0.000    0.000    0.000    0.000    0.000 
#
# Total GULP energy -111681.751715 kJ/mol
# GULP energy per Si atom -5584.087586 kJ/mol
# Density = 2.513511 g / cm^3
# Si number density = 25.192446 Si / 1000 Ang^3
#
#
#
# Elastic Constant Matrix: (Units=GPa)
#
#
# Indices 1 2 3 4 5 6 
#
# 1 139.7796 64.3990 26.9779 0.0000 28.9951 0.0000
# 2 64.3990 230.3533 44.3357 0.0000 37.2555 0.0000
# 3 26.9779 44.3357 105.6751 0.0000 28.5235 0.0000
# 4 0.0000 0.0000 0.0000 23.2720 0.0000 13.4074
# 5 28.9951 37.2555 28.5235 0.0000 48.1745 0.0000
# 6 0.0000 0.0000 0.0000 13.4074 0.0000 43.3977
#
#
#
# Elastic Compliance Matrix: (Units=1/GPa)
#
#
# Indices 1 2 3 4 5 6 
#
# 1 0.008828 -0.001780 -0.000529 0.000000 -0.003624 0.000000
# 2 -0.001780 0.005462 -0.001174 0.000000 -0.002458 0.000000
# 3 -0.000529 -0.001174 0.011616 0.000000 -0.005652 0.000000
# 4 0.000000 0.000000 0.000000 0.052274 0.000000 -0.016150
# 5 -0.003624 -0.002458 -0.005652 0.000000 0.028186 0.000000
# 6 0.000000 0.000000 0.000000 -0.016150 0.000000 0.028032
#
#
# Mechanical properties :
#
#
# Convention : Reuss Voigt Hill
#
# Bulk Modulus (GPa) = 52.79657 83.02589 67.91123
# Shear Modulus (GPa) = 33.85765 45.64187 39.74976
#
# Velocity S-wave (km/s) = 3.66998 4.26106 3.97652
# Velocity P-wave (km/s) = 6.24189 7.56552 6.93535
#
# Compressibility (1/GPa) = 0.01894062
#
# Stress axis : x y z
#
# Youngs Moduli (GPa) = 113.27593 183.07449 86.08889
#
# Poissons Ratio (x) = 0.32591 0.04552
# Poissons Ratio (y) = 0.20165 0.10105
# Poissons Ratio (z) = 0.05990 0.21490
#
# Static dielectric constant tensor:
#      x y z
#    x 2.093510 0.000000 0.033030 
#    y 0.000000 2.085670 0.000000 
#    z 0.033030 0.000000 2.174540 
# 
# From -- ./inp_files/43680.got.cif
#   From: 2010.05.17/outbox.cif.g08.bks.cpg/sg13_22_cif.got.tgz:43680.got - 2010.06.03 16:44:36.
