data_PCOD9230800
_publ_section_title
;
Structure prediction by ZEFSAII (Michael W. Deem and Ramdas Pophale) SiO2 
 PCOD9230800
Probable space group: P 2/C
;
_chemical_formula_sum "Si O2"
_cell_formula_units_Z 28
_cell_length_a 12.358215
_cell_length_b 5.298408
_cell_length_c 19.687568
_cell_angle_alpha 90.000000
_cell_angle_beta 114.726670
_cell_angle_gamma 90.000000
_cell_volume 1170.924837
_symmetry_space_group_name_H-M "P 2/C"
_symmetry_group_IT_number 13
_symmetry_cell_setting 'monoclinic'
loop_
_space_group_symop_operation_xyz
x,y,z
-x,y,1/2-z
-x,-y,-z
x,-y,1/2+z
loop_
_atom_site_type_symbol
_atom_site_label
_atom_site_fract_x
_atom_site_fract_y
_atom_site_fract_z
Si Si1 0.516652 0.125283 0.145862
Si Si2 0.327330 0.976432 0.944678
Si Si3 0.343400 0.517863 0.537826
Si Si4 0.141953 0.863020 0.792140
Si Si5 0.111206 0.632594 0.227642
Si Si6 0.194062 0.460634 0.125033
Si Si7 0.317872 0.039849 0.688224
O O1 0.583712 0.029582 0.096373
O O2 0.458392 0.398729 0.113492
O O3 0.607221 0.089097 0.231805
O O4 0.403072 0.972716 0.143786
O O5 0.196139 0.933136 0.878245
O O6 0.356621 0.732867 0.997576
O O7 0.331292 0.239047 0.985245
O O8 0.225523 0.497019 0.554693
O O9 0.188997 0.592910 0.780127
O O10 0.000000 0.833972 0.750000
O O11 0.170704 0.094981 0.750255
O O12 0.082103 0.546220 0.142849
O O13 0.000000 0.659001 0.250000
O O14 0.216234 0.165547 0.142612
O O15 0.284852 0.664536 0.183575
#
# Coordination Sequence:
#
# PCOD9230800 Si02
#       7
#     4   4   4   4   4   4   4
#     4  10  22  39  58  90 127 162 211 251 293 356
#     4  12  23  39  62  87 123 171 208 245 303 369
#     4  11  25  38  57  89 131 172 201 238 300 381
#     4  10  22  40  65  93 115 146 207 272 312 353
#     4  10  20  37  66  92 112 145 197 264 316 353
#     4  11  21  40  58  87 124 159 201 248 307 362
#     4  10  23  36  60  87 120 162 203 257 301 343
#
# _framework density 23.912721000000001
#
# number of rings (size 3 to 8) (size 9 to 14) (size 15 to 20)
#    0.000    1.429    0.000    6.000    0.000    9.143 
#    0.000    0.000    0.000   20.571    0.000    0.000 
#    0.000    0.000    0.000    0.000    0.000    0.000 
#
# Total GULP energy -156143.195472 kJ/mol
# GULP energy per Si atom -5576.542695 kJ/mol
# Density = 2.385829 g / cm^3
# Si number density = 23.912721 Si / 1000 Ang^3
#
#
#
# Elastic Constant Matrix: (Units=GPa)
#
#
# Indices 1 2 3 4 5 6 
#
# 1 79.0957 13.7200 29.1643 0.0000 -23.5816 0.0000
# 2 13.7200 158.2034 46.8103 0.0000 -8.5082 0.0000
# 3 29.1643 46.8103 111.8430 0.0000 -27.2211 0.0000
# 4 0.0000 0.0000 0.0000 48.8906 0.0000 -30.3380
# 5 -23.5816 -8.5082 -27.2211 0.0000 53.0456 0.0000
# 6 0.0000 0.0000 0.0000 -30.3380 0.0000 46.7395
#
#
#
# Elastic Compliance Matrix: (Units=1/GPa)
#
#
# Indices 1 2 3 4 5 6 
#
# 1 0.015246 -0.000280 -0.002537 0.000000 0.005431 0.000000
# 2 -0.000280 0.007229 -0.003086 0.000000 -0.000548 0.000000
# 3 -0.002537 -0.003086 0.011998 0.000000 0.004534 0.000000
# 4 0.000000 0.000000 0.000000 0.034248 0.000000 0.022230
# 5 0.005431 -0.000548 0.004534 0.000000 0.023505 0.000000
# 6 0.000000 0.000000 0.000000 0.022230 0.000000 0.035824
#
#
# Mechanical properties :
#
#
# Convention : Reuss Voigt Hill
#
# Bulk Modulus (GPa) = 44.11538 58.72569 51.42053
# Shear Modulus (GPa) = 33.91877 47.03162 40.47520
#
# Velocity S-wave (km/s) = 3.77030 4.43968 4.11861
# Velocity P-wave (km/s) = 6.11900 7.13391 6.64586
#
# Compressibility (1/GPa) = 0.02266783
#
# Stress axis : x y z
#
# Youngs Moduli (GPa) = 65.59118 138.33412 83.34861
#
# Poissons Ratio (x) = 0.03867 0.21143
# Poissons Ratio (y) = 0.01833 0.25723
# Poissons Ratio (z) = 0.16639 0.42692
#
# Static dielectric constant tensor:
#      x y z
#    x -1.651540 0.000000 1.020300 
#    y 0.000000 1.924690 0.000000 
#    z 1.020300 0.000000 1.662760 
# 
# From -- ./inp_files/67399.got.cif
#   From: 2010.05.17/outbox.cif.g08.bks.cpg/sg13_34_cif.got.tgz:67399.got - 2010.06.03 16:44:36.
