data_PCOD9230713
_publ_section_title
;
Structure prediction by ZEFSAII (Michael W. Deem and Ramdas Pophale) SiO2 
 PCOD9230713
Probable space group: P 2/C
;
_chemical_formula_sum "Si O2"
_cell_formula_units_Z 26
_cell_length_a 19.457719
_cell_length_b 8.326486
_cell_length_c 8.188499
_cell_angle_alpha 90.000000
_cell_angle_beta 124.699412
_cell_angle_gamma 90.000000
_cell_volume 1090.709217
_symmetry_space_group_name_H-M "P 2/C"
_symmetry_group_IT_number 13
_symmetry_cell_setting 'monoclinic'
loop_
_space_group_symop_operation_xyz
x,y,z
-x,y,1/2-z
-x,-y,-z
x,-y,1/2+z
loop_
_atom_site_type_symbol
_atom_site_label
_atom_site_fract_x
_atom_site_fract_y
_atom_site_fract_z
Si Si1 0.943275 0.176742 0.514600
Si Si2 0.351963 0.104615 0.657961
Si Si3 0.237510 0.089832 0.210284
Si Si4 0.749785 0.640462 0.035259
Si Si5 0.586441 0.222515 0.441985
Si Si6 0.857109 0.526992 0.457289
Si Si7 0.000000 0.750792 0.750000
O O1 0.858760 0.073210 0.377155
O O2 0.905051 0.359261 0.486648
O O3 0.994776 0.164573 0.417104
O O4 0.000000 0.147156 0.750000
O O5 0.295441 0.167152 0.430390
O O6 0.282862 0.067971 0.706247
O O7 0.394828 0.946037 0.633954
O O8 0.417059 0.193977 0.865743
O O9 0.240169 0.197767 0.053077
O O10 0.660645 0.654184 0.998011
O O11 0.769190 0.503789 0.929248
O O12 0.829214 0.617336 0.257872
O O13 0.500000 0.281833 0.250000
O O14 0.918696 0.639215 0.638326
#
# Coordination Sequence:
#
# PCOD9230713 Si02
#       7
#     4   4   4   4   4   4   2
#     4  11  22  36  55  85 119 152 205 254 290 342
#     4   9  19  38  63  83 115 150 185 243 297 351
#     4   9  20  38  56  85 112 151 197 236 298 354
#     4  10  22  34  58  83 120 153 191 238 295 350
#     4  10  20  37  62  93 114 145 193 241 293 352
#     4  11  20  37  53  82 116 154 196 240 286 343
#     4  12  20  32  58  82 110 156 202 248 290 322
#
# _framework density 23.837700000000002
#
# number of rings (size 3 to 8) (size 9 to 14) (size 15 to 20)
#    0.000    1.846    2.308    2.769    2.154    0.000 
#    2.769    1.538    0.000    0.000    0.000    0.000 
#    0.000    0.000    0.000    0.000    0.000    0.000 
#
# Total GULP energy -145118.514002 kJ/mol
# GULP energy per Si atom -5581.481308 kJ/mol
# Density = 2.378344 g / cm^3
# Si number density = 23.837700 Si / 1000 Ang^3
#
#
#
# Elastic Constant Matrix: (Units=GPa)
#
#
# Indices 1 2 3 4 5 6 
#
# 1 63.8890 12.3185 27.5840 0.0000 -6.9449 0.0000
# 2 12.3185 33.6925 32.1569 0.0000 -0.0334 0.0000
# 3 27.5840 32.1569 166.9583 0.0000 -8.3438 0.0000
# 4 0.0000 0.0000 0.0000 23.6460 0.0000 7.7883
# 5 -6.9449 -0.0334 -8.3438 0.0000 41.2381 0.0000
# 6 0.0000 0.0000 0.0000 7.7883 0.0000 20.1771
#
#
#
# Elastic Compliance Matrix: (Units=1/GPa)
#
#
# Indices 1 2 3 4 5 6 
#
# 1 0.017645 -0.004643 -0.001892 0.000000 0.002585 0.000000
# 2 -0.004643 0.037667 -0.006592 0.000000 -0.002085 0.000000
# 3 -0.001892 -0.006592 0.007633 0.000000 0.001220 0.000000
# 4 0.000000 0.000000 0.000000 0.048450 0.000000 -0.018702
# 5 0.002585 -0.002085 0.001220 0.000000 0.024930 0.000000
# 6 0.000000 0.000000 0.000000 -0.018702 0.000000 0.056780
#
#
# Mechanical properties :
#
#
# Convention : Reuss Voigt Hill
#
# Bulk Modulus (GPa) = 27.25446 45.40651 36.33049
# Shear Modulus (GPa) = 21.58991 29.84428 25.71710
#
# Velocity S-wave (km/s) = 3.01276 3.54217 3.28814
# Velocity P-wave (km/s) = 4.85391 5.98488 5.44882
#
# Compressibility (1/GPa) = 0.03669124
#
# Stress axis : x y z
#
# Youngs Moduli (GPa) = 56.67274 26.54824 131.01531
#
# Poissons Ratio (x) = 0.12327 0.24785
# Poissons Ratio (y) = 0.26315 0.86365
# Poissons Ratio (z) = 0.10721 0.17501
#
# Static dielectric constant tensor:
#      x y z
#    x 1.966580 0.000000 -0.035890 
#    y 0.000000 2.033530 0.000000 
#    z -0.035890 0.000000 1.960850 
# 
# From -- ./inp_files/22742.got.cif
#   From: 2010.05.17/outbox.cif.g08.bks.cpg/sg13_12_cif.got.tgz:22742.got - 2010.06.03 16:44:36.
