data_PCOD9230836
_publ_section_title
;
Structure prediction by ZEFSAII (Michael W. Deem and Ramdas Pophale) SiO2 
 PCOD9230836
Probable space group: P 2/C
;
_chemical_formula_sum "Si O2"
_cell_formula_units_Z 18
_cell_length_a 11.190829
_cell_length_b 8.836408
_cell_length_c 8.023473
_cell_angle_alpha 90.000000
_cell_angle_beta 111.185360
_cell_angle_gamma 90.000000
_cell_volume 739.792991
_symmetry_space_group_name_H-M "P 2/C"
_symmetry_group_IT_number 13
_symmetry_cell_setting 'monoclinic'
loop_
_space_group_symop_operation_xyz
x,y,z
-x,y,1/2-z
-x,-y,-z
x,-y,1/2+z
loop_
_atom_site_type_symbol
_atom_site_label
_atom_site_fract_x
_atom_site_fract_y
_atom_site_fract_z
Si Si1 0.000000 0.055166 0.250000
Si Si2 0.853402 0.451843 0.459038
Si Si3 0.212555 0.172799 0.860368
Si Si4 0.775001 0.731464 0.590848
Si Si5 0.640579 0.955564 0.748355
O O1 0.901784 0.170049 0.113373
O O2 0.899684 0.933561 0.270316
O O3 0.836147 0.336834 0.607974
O O4 0.767224 0.600232 0.450390
O O5 0.808804 0.362200 0.274706
O O6 0.000000 0.500000 0.500000
O O7 0.326892 0.126813 0.792603
O O8 0.261483 0.103395 0.061357
O O9 0.665170 0.846022 0.599776
O O10 0.500000 0.939248 0.750000
#
# Coordination Sequence:
#
# PCOD9230836 Si02
#       5
#     2   4   4   4   4
#     4  10  20  38  56  94 124 150 202 254 302 364
#     4  11  21  37  56  89 127 158 192 243 312 372
#     4  10  24  37  65  92 121 160 208 248 311 358
#     4  10  22  38  58  89 124 161 199 245 309 363
#     4  10  22  45  63  85 122 164 212 259 288 352
#
# _framework density 24.331132
#
# number of rings (size 3 to 8) (size 9 to 14) (size 15 to 20)
#    0.000    1.778    2.222    0.667    3.111   11.556 
#    0.000    5.556    0.000    0.000    0.000    0.000 
#    0.000    0.000    0.000    0.000    0.000    0.000 
#
# Total GULP energy -100396.981325 kJ/mol
# GULP energy per Si atom -5577.610074 kJ/mol
# Density = 2.427575 g / cm^3
# Si number density = 24.331132 Si / 1000 Ang^3
#
#
#
# Elastic Constant Matrix: (Units=GPa)
#
#
# Indices 1 2 3 4 5 6 
#
# 1 127.0204 66.2823 41.2238 0.0000 -15.4909 0.0000
# 2 66.2823 185.7265 44.6497 0.0000 -13.4859 0.0000
# 3 41.2238 44.6497 85.2804 0.0000 -34.9512 0.0000
# 4 0.0000 0.0000 0.0000 38.7106 0.0000 -9.4818
# 5 -15.4909 -13.4859 -34.9512 0.0000 19.9807 0.0000
# 6 0.0000 0.0000 0.0000 -9.4818 0.0000 23.5145
#
#
#
# Elastic Compliance Matrix: (Units=1/GPa)
#
#
# Indices 1 2 3 4 5 6 
#
# 1 0.010550 -0.002900 -0.003643 0.000000 -0.000151 0.000000
# 2 -0.002900 0.007116 -0.004511 0.000000 -0.005336 0.000000
# 3 -0.003643 -0.004511 0.047488 0.000000 0.077199 0.000000
# 4 0.000000 0.000000 0.000000 0.028664 0.000000 0.011558
# 5 -0.000151 -0.005336 0.077199 0.000000 0.181370 0.000000
# 6 0.000000 0.000000 0.000000 0.011558 0.000000 0.047188
#
#
# Mechanical properties :
#
#
# Convention : Reuss Voigt Hill
#
# Bulk Modulus (GPa) = 23.23102 78.03766 50.63434
# Shear Modulus (GPa) = 13.93409 32.83260 23.38335
#
# Velocity S-wave (km/s) = 2.39568 3.67741 3.10344
# Velocity P-wave (km/s) = 4.14982 7.08336 5.80495
#
# Compressibility (1/GPa) = 0.04304590
#
# Stress axis : x y z
#
# Youngs Moduli (GPa) = 94.78530 140.52333 21.05805
#
# Poissons Ratio (x) = 0.40755 0.07672
# Poissons Ratio (y) = 0.27490 0.09498
# Poissons Ratio (z) = 0.34533 0.63384
#
# Static dielectric constant tensor:
#      x y z
#    x 1.984400 0.000000 -0.068820 
#    y 0.000000 1.987230 0.000000 
#    z -0.068820 0.000000 2.145130 
# 
# From -- ./inp_files/14562.got.cif
#   From: 2010.05.17/outbox.cif.g08.bks.cpg/sg13_8_cif.got.tgz:14562.got - 2010.06.03 16:44:36.
