data_PCOD9230929
_publ_section_title
;
Structure prediction by ZEFSAII (Michael W. Deem and Ramdas Pophale) SiO2 
 PCOD9230929
Probable space group: P 2/C
;
_chemical_formula_sum "Si O2"
_cell_formula_units_Z 30
_cell_length_a 19.476662
_cell_length_b 8.968337
_cell_length_c 17.015526
_cell_angle_alpha 90.000000
_cell_angle_beta 28.017420
_cell_angle_gamma 90.000000
_cell_volume 1396.141251
_symmetry_space_group_name_H-M "P 2/C"
_symmetry_group_IT_number 13
_symmetry_cell_setting 'monoclinic'
loop_
_space_group_symop_operation_xyz
x,y,z
-x,y,1/2-z
-x,-y,-z
x,-y,1/2+z
loop_
_atom_site_type_symbol
_atom_site_label
_atom_site_fract_x
_atom_site_fract_y
_atom_site_fract_z
Si Si1 0.470904 0.597572 0.950812
Si Si2 0.951344 0.940002 0.933460
Si Si3 0.410071 0.330259 0.918474
Si Si4 0.000000 0.837416 0.250000
Si Si5 0.834527 0.709327 0.945121
Si Si6 0.791450 0.380325 0.057059
Si Si7 0.509120 0.167641 0.518194
Si Si8 0.150945 0.794657 0.855789
O O1 0.375891 0.488030 0.994226
O O2 0.618481 0.638062 0.752885
O O3 0.412564 0.745347 0.051002
O O4 0.500000 0.500000 0.000000
O O5 0.831820 0.846334 0.007336
O O6 0.047643 0.822250 0.885686
O O7 0.034727 0.049292 0.787331
O O8 0.872485 0.053326 0.071818
O O9 0.500000 0.366296 0.750000
O O10 0.265545 0.259773 0.029055
O O11 0.509759 0.226999 0.874132
O O12 0.868188 0.730823 0.415713
O O13 0.000000 0.702158 0.750000
O O14 0.803425 0.550064 0.016641
O O15 0.872741 0.338945 0.057552
O O16 0.680021 0.214793 0.337937
O O17 0.500000 0.000000 0.500000
#
# Coordination Sequence:
#
# PCOD9230929 Si02
#       8
#     4   4   4   2   4   4   4   4
#     4   9  20  42  64  87 128 173 207 269 319 382
#     4  10  21  38  62  87 128 169 205 264 323 381
#     4  11  23  41  65  91 130 167 214 271 330 379
#     4  10  20  38  60  90 134 166 206 276 330 374
#     4  12  23  38  65  98 125 162 214 265 326 384
#     4  10  20  38  63  90 127 167 216 265 319 389
#     4  10  22  40  62  91 123 166 218 263 315 390
#     4   9  21  41  58  85 124 169 210 254 322 387
#
# _framework density 21.487795999999999
#
# number of rings (size 3 to 8) (size 9 to 14) (size 15 to 20)
#    0.000    1.867    2.667    0.800    1.867    0.533 
#    2.400    0.667    0.000    0.000    0.000    0.000 
#    0.000    0.000    0.000    0.000    0.000    0.000 
#
# Total GULP energy -167084.500455 kJ/mol
# GULP energy per Si atom -5569.483349 kJ/mol
# Density = 2.143889 g / cm^3
# Si number density = 21.487796 Si / 1000 Ang^3
#
#
#
# Elastic Constant Matrix: (Units=GPa)
#
#
# Indices 1 2 3 4 5 6 
#
# 1 110.0844 45.2095 26.7233 0.0000 12.9813 0.0000
# 2 45.2095 113.0247 -5.6679 0.0000 14.2352 0.0000
# 3 26.7233 -5.6679 46.0044 0.0000 5.1798 0.0000
# 4 0.0000 0.0000 0.0000 16.3134 0.0000 -1.0631
# 5 12.9813 14.2352 5.1798 0.0000 27.8679 0.0000
# 6 0.0000 0.0000 0.0000 -1.0631 0.0000 35.9676
#
#
#
# Elastic Compliance Matrix: (Units=1/GPa)
#
#
# Indices 1 2 3 4 5 6 
#
# 1 0.013676 -0.005651 -0.008425 0.000000 -0.001918 0.000000
# 2 -0.005651 0.011930 0.005252 0.000000 -0.004438 0.000000
# 3 -0.008425 0.005252 0.027718 0.000000 -0.003911 0.000000
# 4 0.000000 0.000000 0.000000 0.061418 0.000000 0.001815
# 5 -0.001918 -0.004438 -0.003911 0.000000 0.039771 0.000000
# 6 0.000000 0.000000 0.000000 0.001815 0.000000 0.027856
#
#
# Mechanical properties :
#
#
# Convention : Reuss Voigt Hill
#
# Bulk Modulus (GPa) = 28.02870 44.62703 36.32786
# Shear Modulus (GPa) = 23.59500 29.55302 26.57401
#
# Velocity S-wave (km/s) = 3.31730 3.71258 3.52049
# Velocity P-wave (km/s) = 5.26735 6.26030 5.78517
#
# Compressibility (1/GPa) = 0.03567771
#
# Stress axis : x y z
#
# Youngs Moduli (GPa) = 73.12049 83.81901 36.07737
#
# Poissons Ratio (x) = 0.47369 0.30394
# Poissons Ratio (y) = 0.41322 -0.18949
# Poissons Ratio (z) = 0.61601 -0.44025
#
# Static dielectric constant tensor:
#      x y z
#    x 1.846680 0.000000 0.030250 
#    y 0.000000 1.786880 0.000000 
#    z 0.030250 0.000000 2.010310 
# 
# From -- ./inp_files/70557.got.cif
#   From: 2010.05.17/outbox.cif.g08.bks.cpg/sg13_36_cif.got.tgz:70557.got - 2010.06.03 16:44:36.
