data_PCOD9230952
_publ_section_title
;
Structure prediction by ZEFSAII (Michael W. Deem and Ramdas Pophale) SiO2 
 PCOD9230952
Probable space group: P 2/C
;
_chemical_formula_sum "Si O2"
_cell_formula_units_Z 20
_cell_length_a 8.500793
_cell_length_b 14.741693
_cell_length_c 7.379888
_cell_angle_alpha 90.000000
_cell_angle_beta 82.133123
_cell_angle_gamma 90.000000
_cell_volume 916.114945
_symmetry_space_group_name_H-M "P 2/C"
_symmetry_group_IT_number 13
_symmetry_cell_setting 'monoclinic'
loop_
_space_group_symop_operation_xyz
x,y,z
-x,y,1/2-z
-x,-y,-z
x,-y,1/2+z
loop_
_atom_site_type_symbol
_atom_site_label
_atom_site_fract_x
_atom_site_fract_y
_atom_site_fract_z
Si Si1 0.713728 0.906318 0.374729
Si Si2 0.160037 0.784737 0.844723
Si Si3 0.617194 0.433207 0.590636
Si Si4 0.181753 0.592149 0.767475
Si Si5 0.342965 0.111714 0.026560
O O1 0.831183 0.851798 0.486680
O O2 0.725855 0.876329 0.164473
O O3 0.532770 0.889759 0.471607
O O4 0.723895 0.015162 0.389776
O O5 0.186684 0.679943 0.895445
O O6 0.294470 0.816659 0.683846
O O7 0.000000 0.789213 0.750000
O O8 0.500000 0.383184 0.750000
O O9 0.500000 0.500000 0.500000
O O10 0.737806 0.501817 0.670409
O O11 0.720458 0.380313 0.428463
O O12 0.000000 0.573374 0.750000
#
# Coordination Sequence:
#
# PCOD9230952 Si02
#       5
#     4   4   4   4   4
#     4  10  20  38  62  84 116 156 207 250 298 353
#     4  11  24  39  58  88 124 158 197 246 297 359
#     4   9  19  37  62  89 113 145 195 246 293 350
#     4  10  21  40  61  86 122 161 193 237 307 371
#     4  10  20  38  61  85 112 160 205 249 299 350
#
# _framework density 21.831322
#
# number of rings (size 3 to 8) (size 9 to 14) (size 15 to 20)
#    0.000    2.000    2.000    1.200    0.000    6.400 
#   10.800    0.000    0.000    0.000    0.000    0.000 
#    0.000    0.000    0.000    0.000    0.000    0.000 
#
# Total GULP energy -111676.959591 kJ/mol
# GULP energy per Si atom -5583.847980 kJ/mol
# Density = 2.178163 g / cm^3
# Si number density = 21.831322 Si / 1000 Ang^3
#
#
#
# Elastic Constant Matrix: (Units=GPa)
#
#
# Indices 1 2 3 4 5 6 
#
# 1 64.1478 13.9003 11.5077 0.0000 1.9550 0.0000
# 2 13.9003 59.3771 -8.0045 0.0000 13.5509 0.0000
# 3 11.5077 -8.0045 47.1551 0.0000 10.9533 0.0000
# 4 0.0000 0.0000 0.0000 105.8314 0.0000 106.8010
# 5 1.9550 13.5509 10.9533 0.0000 26.2622 0.0000
# 6 0.0000 0.0000 0.0000 106.8010 0.0000 133.5923
#
#
#
# Elastic Compliance Matrix: (Units=1/GPa)
#
#
# Indices 1 2 3 4 5 6 
#
# 1 0.017931 -0.006096 -0.006457 0.000000 0.004504 0.000000
# 2 -0.006096 0.022903 0.008875 0.000000 -0.015065 0.000000
# 3 -0.006457 0.008875 0.027948 0.000000 -0.015755 0.000000
# 4 0.000000 0.000000 0.000000 0.048903 0.000000 -0.039095
# 5 0.004504 -0.015065 -0.015755 0.000000 0.052087 0.000000
# 6 0.000000 0.000000 0.000000 -0.039095 0.000000 0.038740
#
#
# Mechanical properties :
#
#
# Convention : Reuss Voigt Hill
#
# Bulk Modulus (GPa) = 16.27949 22.83189 19.55569
# Shear Modulus (GPa) = 21.15563 63.35561 42.25562
#
# Velocity S-wave (km/s) = 3.11633 5.39291 4.40426
# Velocity P-wave (km/s) = 4.51905 7.01848 5.90258
#
# Compressibility (1/GPa) = 0.06142697
#
# Stress axis : x y z
#
# Youngs Moduli (GPa) = 55.76940 43.66216 35.78018
#
# Poissons Ratio (x) = 0.26616 0.23102
# Poissons Ratio (y) = 0.33996 -0.31754
# Poissons Ratio (z) = 0.36009 -0.38749
#
# Static dielectric constant tensor:
#      x y z
#    x 1.830680 0.000000 0.043390 
#    y 0.000000 1.782520 0.000000 
#    z 0.043390 0.000000 1.899570 
# 
# From -- ./inp_files/12235.got.cif
#   From: 2010.05.17/outbox.cif.g08.bks.cpg/sg13_7_cif.got.tgz:12235.got - 2010.06.03 16:44:36.
