data_PCOD9230557
_publ_section_title
;
Structure prediction by ZEFSAII (Michael W. Deem and Ramdas Pophale) SiO2 
 PCOD9230557
Probable space group: P 2/C
;
_chemical_formula_sum "Si O2"
_cell_formula_units_Z 28
_cell_length_a 14.320721
_cell_length_b 19.981232
_cell_length_c 5.014305
_cell_angle_alpha 90.000000
_cell_angle_beta 110.987599
_cell_angle_gamma 90.000000
_cell_volume 1339.632581
_symmetry_space_group_name_H-M "P 2/C"
_symmetry_group_IT_number 13
_symmetry_cell_setting 'monoclinic'
loop_
_space_group_symop_operation_xyz
x,y,z
-x,y,1/2-z
-x,-y,-z
x,-y,1/2+z
loop_
_atom_site_type_symbol
_atom_site_label
_atom_site_fract_x
_atom_site_fract_y
_atom_site_fract_z
Si Si1 0.297123 0.692012 0.032505
Si Si2 0.781887 0.549271 0.547427
Si Si3 0.500000 0.757673 0.250000
Si Si4 0.403829 0.132029 0.022944
Si Si5 0.000000 0.549006 0.750000
Si Si6 0.932872 0.135513 0.926518
Si Si7 0.765983 0.772153 0.012388
Si Si8 0.751795 0.956750 0.435229
O O1 0.289418 0.612504 0.023794
O O2 0.225860 0.730236 0.749390
O O3 0.408208 0.713327 0.060590
O O4 0.273081 0.722265 0.297682
O O5 0.772377 0.498283 0.292930
O O6 0.892868 0.583414 0.646577
O O7 0.456994 0.806649 0.428468
O O8 0.500000 0.095473 0.250000
O O9 0.316489 0.168055 0.107914
O O10 0.343193 0.087039 0.751662
O O11 0.000000 0.500000 0.500000
O O12 0.867054 0.194201 0.724057
O O13 0.851851 0.083310 0.960035
O O14 0.000000 0.107766 0.750000
O O15 0.000000 0.155851 0.250000
O O16 0.749503 0.978502 0.739341
#
# Coordination Sequence:
#
# PCOD9230557 Si02
#       8
#     4   4   2   4   2   4   4   4
#     4  11  21  38  62  89 122 157 205 253 299 364
#     4  10  20  37  58  85 120 160 199 246 305 355
#     4  10  22  38  64  90 116 164 208 242 310 380
#     4  10  21  39  64  84 121 158 198 247 312 356
#     4   8  16  32  54  74 106 150 192 224 276 354
#     4  11  23  42  66  86 123 165 198 251 312 360
#     4  10  22  39  60  91 119 154 204 255 298 360
#     4  11  26  41  60  93 124 156 206 251 294 366
#
# _framework density 20.901254000000002
#
# number of rings (size 3 to 8) (size 9 to 14) (size 15 to 20)
#    0.000    1.714    1.429    2.571    2.000    4.571 
#    3.857    0.714    0.000    0.000    0.000    0.000 
#    0.000    0.000    0.000    0.000    0.000    0.000 
#
# Total GULP energy -156365.273889 kJ/mol
# GULP energy per Si atom -5584.474067 kJ/mol
# Density = 2.085368 g / cm^3
# Si number density = 20.901254 Si / 1000 Ang^3
#
#
#
# Elastic Constant Matrix: (Units=GPa)
#
#
# Indices 1 2 3 4 5 6 
#
# 1 72.8153 30.6833 29.8231 0.0000 16.8549 0.0000
# 2 30.6833 88.1316 23.5650 0.0000 9.6622 0.0000
# 3 29.8231 23.5650 100.0970 0.0000 0.4070 0.0000
# 4 0.0000 0.0000 0.0000 28.3001 0.0000 -0.6255
# 5 16.8549 9.6622 0.4070 0.0000 43.6717 0.0000
# 6 0.0000 0.0000 0.0000 -0.6255 0.0000 27.1420
#
#
#
# Elastic Compliance Matrix: (Units=1/GPa)
#
#
# Indices 1 2 3 4 5 6 
#
# 1 0.019030 -0.004728 -0.004531 0.000000 -0.006256 0.000000
# 2 -0.004728 0.013599 -0.001788 0.000000 -0.001167 0.000000
# 3 -0.004531 -0.001788 0.011753 0.000000 0.002035 0.000000
# 4 0.000000 0.000000 0.000000 0.035354 0.000000 0.000815
# 5 -0.006256 -0.001167 0.002035 0.000000 0.025552 0.000000
# 6 0.000000 0.000000 0.000000 0.000815 0.000000 0.036862
#
#
# Mechanical properties :
#
#
# Convention : Reuss Voigt Hill
#
# Bulk Modulus (GPa) = 44.86886 47.68743 46.27814
# Shear Modulus (GPa) = 29.12526 31.62092 30.37309
#
# Velocity S-wave (km/s) = 3.73697 3.89379 3.81618
# Velocity P-wave (km/s) = 6.33511 6.56358 6.45035
#
# Compressibility (1/GPa) = 0.02228717
#
# Stress axis : x y z
#
# Youngs Moduli (GPa) = 52.54963 73.53625 85.08427
#
# Poissons Ratio (x) = 0.34766 0.38554
# Poissons Ratio (y) = 0.24844 0.15214
# Poissons Ratio (z) = 0.23812 0.13149
#
# Static dielectric constant tensor:
#      x y z
#    x 1.793620 0.000000 0.035530 
#    y 0.000000 1.718110 0.000000 
#    z 0.035530 0.000000 1.793690 
# 
# From -- ./inp_files/5402.got.cif
#   From: 2010.05.17/outbox.cif.g08.bks.cpg/sg13_3_cif.got.tgz:5402.got - 2010.06.03 16:44:36.
