data_PCOD9230135
_publ_section_title
;
Structure prediction by ZEFSAII (Michael W. Deem and Ramdas Pophale) SiO2 
 PCOD9230135
Probable space group: P 2/C
;
_chemical_formula_sum "Si O2"
_cell_formula_units_Z 30
_cell_length_a 14.639566
_cell_length_b 5.251257
_cell_length_c 21.566685
_cell_angle_alpha 90.000000
_cell_angle_beta 68.414475
_cell_angle_gamma 90.000000
_cell_volume 1541.689284
_symmetry_space_group_name_H-M "P 2/C"
_symmetry_group_IT_number 13
_symmetry_cell_setting 'monoclinic'
loop_
_space_group_symop_operation_xyz
x,y,z
-x,y,1/2-z
-x,-y,-z
x,-y,1/2+z
loop_
_atom_site_type_symbol
_atom_site_label
_atom_site_fract_x
_atom_site_fract_y
_atom_site_fract_z
Si Si1 0.111771 0.558542 0.743711
Si Si2 0.681584 0.045571 0.626145
Si Si3 0.807688 0.049985 0.712306
Si Si4 0.722551 0.519778 0.899993
Si Si5 0.613408 0.175393 0.829198
Si Si6 0.530897 0.186749 0.438101
Si Si7 0.500000 0.777376 0.250000
Si Si8 0.662739 0.549047 0.547072
O O1 0.142692 0.308105 0.774796
O O2 0.181554 0.573581 0.664915
O O3 0.000000 0.544056 0.750000
O O4 0.131362 0.805003 0.781483
O O5 0.775942 0.062067 0.648418
O O6 0.587316 0.068180 0.695271
O O7 0.675399 0.285663 0.580802
O O8 0.682716 0.783748 0.587997
O O9 0.704268 0.034630 0.774748
O O10 0.659786 0.322269 0.874789
O O11 0.643864 0.746152 0.922816
O O12 0.732118 0.436798 0.968885
O O13 0.558828 0.354245 0.791980
O O14 0.536008 0.974633 0.874020
O O15 0.449576 0.407236 0.449865
O O16 0.500000 0.000000 0.500000
#
# Coordination Sequence:
#
# PCOD9230135 Si02
#       8
#     4   4   4   4   4   4   2   4
#     4  11  23  43  72  96 117 154 209 268 326 372
#     4  11  24  39  58  87 124 172 205 246 300 366
#     4  10  22  42  64  91 126 158 199 265 315 367
#     4  11  24  38  60  89 128 159 208 264 313 358
#     4  10  20  36  54  83 123 164 204 248 299 350
#     4  12  21  35  55  86 128 169 205 247 298 362
#     4  10  20  36  52  82 120 166 216 242 280 364
#     4  12  24  37  59  88 128 169 210 240 297 377
#
# _framework density 19.459175999999999
#
# number of rings (size 3 to 8) (size 9 to 14) (size 15 to 20)
#    0.000    1.067    4.000    3.200    0.000    0.533 
#    0.000    0.000    0.000    4.800    0.000    0.000 
#    0.000    0.000    0.000    0.000    0.000    0.000 
#
# Total GULP energy -167417.661333 kJ/mol
# GULP energy per Si atom -5580.588711 kJ/mol
# Density = 1.941489 g / cm^3
# Si number density = 19.459176 Si / 1000 Ang^3
#
#
#
# Elastic Constant Matrix: (Units=GPa)
#
#
# Indices 1 2 3 4 5 6 
#
# 1 116.1425 33.9728 51.8571 0.0000 7.9054 0.0000
# 2 33.9728 93.9037 39.7839 0.0000 8.7930 0.0000
# 3 51.8571 39.7839 95.1326 0.0000 17.7531 0.0000
# 4 0.0000 0.0000 0.0000 20.6300 0.0000 10.5796
# 5 7.9054 8.7930 17.7531 0.0000 29.2822 0.0000
# 6 0.0000 0.0000 0.0000 10.5796 0.0000 20.6579
#
#
#
# Elastic Compliance Matrix: (Units=1/GPa)
#
#
# Indices 1 2 3 4 5 6 
#
# 1 0.011659 -0.001870 -0.005740 0.000000 0.000894 0.000000
# 2 -0.001870 0.013254 -0.004369 0.000000 -0.000826 0.000000
# 3 -0.005740 -0.004369 0.016839 0.000000 -0.007347 0.000000
# 4 0.000000 0.000000 0.000000 0.065738 0.000000 -0.033666
# 5 0.000894 -0.000826 -0.007347 0.000000 0.038612 0.000000
# 6 0.000000 0.000000 0.000000 -0.033666 0.000000 0.065649
#
#
# Mechanical properties :
#
#
# Convention : Reuss Voigt Hill
#
# Bulk Modulus (GPa) = 56.20081 61.82293 59.01187
# Shear Modulus (GPa) = 20.69178 26.08503 23.38841
#
# Velocity S-wave (km/s) = 3.26443 3.66526 3.47064
# Velocity P-wave (km/s) = 6.56908 7.05349 6.81559
#
# Compressibility (1/GPa) = 0.01779334
#
# Stress axis : x y z
#
# Youngs Moduli (GPa) = 85.76880 75.44763 59.38549
#
# Poissons Ratio (x) = 0.14107 0.34090
# Poissons Ratio (y) = 0.16037 0.25948
# Poissons Ratio (z) = 0.49235 0.32966
#
# Static dielectric constant tensor:
#      x y z
#    x 1.686430 0.000000 0.052620 
#    y 0.000000 1.746170 0.000000 
#    z 0.052620 0.000000 1.750140 
# 
# From -- ./inp_files/67541.got.cif
#   From: 2010.05.17/outbox.cif.g08.bks.cpg/sg13_34_cif.got.tgz:67541.got - 2010.06.03 16:44:36.
