data_PCOD9230832
_publ_section_title
;
Structure prediction by ZEFSAII (Michael W. Deem and Ramdas Pophale) SiO2 
 PCOD9230832
Probable space group: P 2/C
;
_chemical_formula_sum "Si O2"
_cell_formula_units_Z 32
_cell_length_a 14.628792
_cell_length_b 9.303667
_cell_length_c 22.852397
_cell_angle_alpha 90.000000
_cell_angle_beta 28.956444
_cell_angle_gamma 90.000000
_cell_volume 1505.807560
_symmetry_space_group_name_H-M "P 2/C"
_symmetry_group_IT_number 13
_symmetry_cell_setting 'monoclinic'
loop_
_space_group_symop_operation_xyz
x,y,z
-x,y,1/2-z
-x,-y,-z
x,-y,1/2+z
loop_
_atom_site_type_symbol
_atom_site_label
_atom_site_fract_x
_atom_site_fract_y
_atom_site_fract_z
Si Si1 0.277101 0.627061 0.237523
Si Si2 0.959761 0.658521 0.604452
Si Si3 0.410986 0.033543 0.456882
Si Si4 0.598888 0.581368 0.135942
Si Si5 0.736334 0.141033 0.839764
Si Si6 0.576301 0.753848 0.646427
Si Si7 0.962935 0.952873 0.893465
Si Si8 0.029931 0.192898 0.526812
O O1 0.493078 0.636796 0.137621
O O2 0.250809 0.694322 0.188104
O O3 0.178810 0.472292 0.302280
O O4 0.162655 0.734830 0.344223
O O5 0.177398 0.602702 0.484095
O O6 0.954703 0.793388 0.650935
O O7 0.921981 0.730165 0.561657
O O8 0.308763 0.114515 0.567690
O O9 0.498650 0.153704 0.365103
O O10 0.566007 0.930710 0.397995
O O11 0.253292 0.952251 0.506675
O O12 0.500000 0.642238 0.250000
O O13 0.539512 0.414032 0.166408
O O14 0.919300 0.053918 0.715904
O O15 0.500000 0.817093 0.750000
O O16 0.802503 0.762270 0.522775
O O17 0.978529 0.024416 0.949863
#
# Coordination Sequence:
#
# PCOD9230832 Si02
#       8
#     4   4   4   4   4   4   4   4
#     4  11  22  38  60  92 125 164 215 247 315 378
#     4  12  21  37  61  93 133 161 205 262 310 373
#     4  10  22  45  66  86 125 161 217 256 308 378
#     4  11  21  35  59  89 131 169 194 250 320 369
#     4  10  23  43  68  86 119 173 208 257 315 367
#     4  10  21  36  62  94 123 159 199 254 312 371
#     4  10  23  38  64  93 121 163 216 260 307 366
#     4  10  20  38  56  90 129 167 204 248 311 377
#
# _framework density 21.251055000000001
#
# number of rings (size 3 to 8) (size 9 to 14) (size 15 to 20)
#    0.000    1.500    2.500    3.375    3.500    0.000 
#    2.250    1.250    5.500    0.000    0.000    0.000 
#    0.000    0.000    0.000    0.000    0.000    0.000 
#
# Total GULP energy -178568.670393 kJ/mol
# GULP energy per Si atom -5580.270950 kJ/mol
# Density = 2.120269 g / cm^3
# Si number density = 21.251055 Si / 1000 Ang^3
#
#
#
# Elastic Constant Matrix: (Units=GPa)
#
#
# Indices 1 2 3 4 5 6 
#
# 1 81.6185 41.7448 25.5881 0.0000 -4.0499 0.0000
# 2 41.7448 98.6824 13.6868 0.0000 0.6618 0.0000
# 3 25.5881 13.6868 57.4276 0.0000 -4.0979 0.0000
# 4 0.0000 0.0000 0.0000 16.5532 0.0000 8.3867
# 5 -4.0499 0.6618 -4.0979 0.0000 42.8053 0.0000
# 6 0.0000 0.0000 0.0000 8.3867 0.0000 19.2642
#
#
#
# Elastic Compliance Matrix: (Units=1/GPa)
#
#
# Indices 1 2 3 4 5 6 
#
# 1 0.017633 -0.006607 -0.006198 0.000000 0.001177 0.000000
# 2 -0.006607 0.012963 -0.000206 0.000000 -0.000845 0.000000
# 3 -0.006198 -0.000206 0.020321 0.000000 0.001362 0.000000
# 4 0.000000 0.000000 0.000000 0.077507 0.000000 -0.033743
# 5 0.001177 -0.000845 0.001362 0.000000 0.023616 0.000000
# 6 0.000000 0.000000 0.000000 -0.033743 0.000000 0.066600
#
#
# Mechanical properties :
#
#
# Convention : Reuss Voigt Hill
#
# Bulk Modulus (GPa) = 40.16916 44.41864 42.29390
# Shear Modulus (GPa) = 19.76591 26.17180 22.96885
#
# Velocity S-wave (km/s) = 3.05309 3.51316 3.29117
# Velocity P-wave (km/s) = 5.60104 6.11585 5.86410
#
# Compressibility (1/GPa) = 0.02489472
#
# Stress axis : x y z
#
# Youngs Moduli (GPa) = 56.71138 77.14379 49.20988
#
# Poissons Ratio (x) = 0.50972 0.30501
# Poissons Ratio (y) = 0.37472 0.01012
# Poissons Ratio (z) = 0.35150 0.01587
#
# Static dielectric constant tensor:
#      x y z
#    x 1.785170 0.000000 -0.008870 
#    y 0.000000 1.815470 0.000000 
#    z -0.008870 0.000000 1.790770 
# 
# From -- ./inp_files/87406.got.cif
#   From: 2010.05.17/outbox.cif.g08.bks.cpg/sg13_44_cif.got.tgz:87406.got - 2010.06.03 16:44:36.
