data_PCOD9230802
_publ_section_title
;
Structure prediction by ZEFSAII (Michael W. Deem and Ramdas Pophale) SiO2 
 PCOD9230802
Probable space group: P 2/C
;
_chemical_formula_sum "Si O2"
_cell_formula_units_Z 22
_cell_length_a 23.846480
_cell_length_b 9.691278
_cell_length_c 14.248396
_cell_angle_alpha 90.000000
_cell_angle_beta 160.829182
_cell_angle_gamma 90.000000
_cell_volume 1081.322976
_symmetry_space_group_name_H-M "P 2/C"
_symmetry_group_IT_number 13
_symmetry_cell_setting 'monoclinic'
loop_
_space_group_symop_operation_xyz
x,y,z
-x,y,1/2-z
-x,-y,-z
x,-y,1/2+z
loop_
_atom_site_type_symbol
_atom_site_label
_atom_site_fract_x
_atom_site_fract_y
_atom_site_fract_z
Si Si1 0.388479 0.958885 0.188881
Si Si2 0.867554 0.310220 0.828221
Si Si3 0.500000 0.212488 0.250000
Si Si4 0.020224 0.935086 0.681980
Si Si5 0.956116 0.411246 0.571522
Si Si6 0.271456 0.840235 0.802199
O O1 0.557951 0.875833 0.487788
O O2 0.456120 0.109205 0.266155
O O3 0.322290 0.886335 0.987942
O O4 0.219012 0.968026 0.982388
O O5 0.668126 0.298529 0.532841
O O6 0.907586 0.338678 0.782602
O O7 0.953788 0.166739 0.995919
O O8 0.938602 0.436032 0.001881
O O9 0.000000 0.861168 0.750000
O O10 0.892132 0.065593 0.482933
O O11 0.786693 0.317460 0.292405
O O12 0.000000 0.412216 0.750000
#
# Coordination Sequence:
#
# PCOD9230802 Si02
#       6
#     4   4   2   4   4   4
#     4  10  20  37  66  94 125 166 208 259 314 371
#     4  11  23  44  65  89 131 166 211 261 315 371
#     4  10  20  40  68  90 126 170 204 264 320 366
#     4  12  22  38  65  94 130 169 209 262 315 370
#     4  11  24  43  66  93 125 169 211 257 316 379
#     4  10  20  39  63  91 126 163 212 260 310 375
#
# _framework density 20.345448000000001
#
# number of rings (size 3 to 8) (size 9 to 14) (size 15 to 20)
#    0.000    1.455    5.455    2.727    0.000    2.182 
#    3.273    0.909    0.000    0.000    0.000    0.000 
#    0.000    0.000    0.000    0.000    0.000    0.000 
#
# Total GULP energy -122843.260520 kJ/mol
# GULP energy per Si atom -5583.784569 kJ/mol
# Density = 2.029914 g / cm^3
# Si number density = 20.345448 Si / 1000 Ang^3
#
#
#
# Elastic Constant Matrix: (Units=GPa)
#
#
# Indices 1 2 3 4 5 6 
#
# 1 122.1516 11.4913 49.4318 0.0000 12.4219 0.0000
# 2 11.4913 45.1829 11.7100 0.0000 5.0176 0.0000
# 3 49.4318 11.7100 114.0907 0.0000 42.7348 0.0000
# 4 0.0000 0.0000 0.0000 28.6594 0.0000 6.0938
# 5 12.4219 5.0176 42.7348 0.0000 42.4899 0.0000
# 6 0.0000 0.0000 0.0000 6.0938 0.0000 20.4082
#
#
#
# Elastic Compliance Matrix: (Units=1/GPa)
#
#
# Indices 1 2 3 4 5 6 
#
# 1 0.010168 -0.001518 -0.005139 0.000000 0.002376 0.000000
# 2 -0.001518 0.022971 -0.001364 0.000000 -0.000897 0.000000
# 3 -0.005139 -0.001364 0.016860 0.000000 -0.015294 0.000000
# 4 0.000000 0.000000 0.000000 0.037258 0.000000 -0.011125
# 5 0.002376 -0.000897 -0.015294 0.000000 0.038328 0.000000
# 6 0.000000 0.000000 0.000000 -0.011125 0.000000 0.052322
#
#
# Mechanical properties :
#
#
# Convention : Reuss Voigt Hill
#
# Bulk Modulus (GPa) = 29.44927 47.41016 38.42971
# Shear Modulus (GPa) = 24.35827 32.23097 28.29462
#
# Velocity S-wave (km/s) = 3.46386 3.98450 3.73327
# Velocity P-wave (km/s) = 5.52303 6.67244 6.12476
#
# Compressibility (1/GPa) = 0.03395670
#
# Stress axis : x y z
#
# Youngs Moduli (GPa) = 98.35254 43.53229 59.31100
#
# Poissons Ratio (x) = 0.06607 0.30482
# Poissons Ratio (y) = 0.14927 0.08091
# Poissons Ratio (z) = 0.50547 0.05939
#
# Static dielectric constant tensor:
#      x y z
#    x 1.817780 0.000000 0.007800 
#    y 0.000000 1.715470 0.000000 
#    z 0.007800 0.000000 1.734710 
# 
# From -- ./inp_files/58737.got.cif
#   From: 2010.05.17/outbox.cif.g08.bks.cpg/sg13_30_cif.got.tgz:58737.got - 2010.06.03 16:44:36.
