data_PCOD9230890
_publ_section_title
;
Structure prediction by ZEFSAII (Michael W. Deem and Ramdas Pophale) SiO2 
 PCOD9230890
Probable space group: P 2/C
;
_chemical_formula_sum "Si O2"
_cell_formula_units_Z 24
_cell_length_a 20.270954
_cell_length_b 6.300366
_cell_length_c 19.688533
_cell_angle_alpha 90.000000
_cell_angle_beta 26.273799
_cell_angle_gamma 90.000000
_cell_volume 1113.075874
_symmetry_space_group_name_H-M "P 2/C"
_symmetry_group_IT_number 13
_symmetry_cell_setting 'monoclinic'
loop_
_space_group_symop_operation_xyz
x,y,z
-x,y,1/2-z
-x,-y,-z
x,-y,1/2+z
loop_
_atom_site_type_symbol
_atom_site_label
_atom_site_fract_x
_atom_site_fract_y
_atom_site_fract_z
Si Si1 0.852429 0.620983 0.217360
Si Si2 0.705877 0.459554 0.490446
Si Si3 0.000000 0.279761 0.250000
Si Si4 0.819581 0.592339 0.095844
Si Si5 0.500000 0.884525 0.250000
Si Si6 0.694874 0.750222 0.613100
Si Si7 0.971595 0.998578 0.897762
O O1 0.757121 0.525176 0.367767
O O2 0.777378 0.583850 0.213992
O O3 0.902648 0.867142 0.179962
O O4 0.014720 0.508891 0.064976
O O5 0.856027 0.416496 0.395829
O O6 0.599584 0.264761 0.608564
O O7 0.646260 0.664114 0.584424
O O8 0.046790 0.140056 0.270204
O O9 0.704068 0.446175 0.158826
O O10 0.861762 0.836772 0.038773
O O11 0.401282 0.034974 0.292443
O O12 0.863028 0.839550 0.459524
#
# Coordination Sequence:
#
# PCOD9230890 Si02
#       7
#     4   4   2   4   2   4   4
#     4  10  22  35  62  95 133 172 206 264 330 384
#     4  12  23  42  62  95 129 163 220 274 321 389
#     4  12  18  36  64  96 122 158 210 274 316 374
#     4  10  20  38  59  97 136 165 211 262 322 400
#     4  12  26  42  64  90 128 174 224 276 324 380
#     4  11  22  40  63  90 125 172 213 265 328 381
#     4  11  19  35  62  97 130 163 209 263 327 384
#
# _framework density 21.561871
#
# number of rings (size 3 to 8) (size 9 to 14) (size 15 to 20)
#    0.000    1.000    5.000    3.000    0.000    0.000 
#    0.000    0.833    0.000    7.000    0.000    0.000 
#    0.000    0.000    0.000    0.000    0.000    0.000 
#
# Total GULP energy -133686.443031 kJ/mol
# GULP energy per Si atom -5570.268460 kJ/mol
# Density = 2.151280 g / cm^3
# Si number density = 21.561871 Si / 1000 Ang^3
#
#
#
# Elastic Constant Matrix: (Units=GPa)
#
#
# Indices 1 2 3 4 5 6 
#
# 1 104.7601 52.3308 42.0829 0.0000 35.7723 0.0000
# 2 52.3308 123.1626 46.6972 0.0000 19.0706 0.0000
# 3 42.0829 46.6972 90.1468 0.0000 19.6378 0.0000
# 4 0.0000 0.0000 0.0000 29.1091 0.0000 -7.5852
# 5 35.7723 19.0706 19.6378 0.0000 31.9062 0.0000
# 6 0.0000 0.0000 0.0000 -7.5852 0.0000 29.4704
#
#
#
# Elastic Compliance Matrix: (Units=1/GPa)
#
#
# Indices 1 2 3 4 5 6 
#
# 1 0.018357 -0.004195 -0.002840 0.000000 -0.016326 0.000000
# 2 -0.004195 0.011364 -0.004011 0.000000 0.000380 0.000000
# 3 -0.002840 -0.004011 0.015337 0.000000 -0.003858 0.000000
# 4 0.000000 0.000000 0.000000 0.036823 0.000000 0.009478
# 5 -0.016326 0.000380 -0.003858 0.000000 0.051793 0.000000
# 6 0.000000 0.000000 0.000000 0.009478 0.000000 0.036372
#
#
# Mechanical properties :
#
#
# Convention : Reuss Voigt Hill
#
# Bulk Modulus (GPa) = 43.54320 66.69902 55.12111
# Shear Modulus (GPa) = 25.02595 29.89439 27.46017
#
# Velocity S-wave (km/s) = 3.41054 3.72754 3.57256
# Velocity P-wave (km/s) = 5.97891 7.03754 6.52972
#
# Compressibility (1/GPa) = 0.02296570
#
# Stress axis : x y z
#
# Youngs Moduli (GPa) = 54.47614 87.99939 65.20183
#
# Poissons Ratio (x) = 0.36916 0.18517
# Poissons Ratio (y) = 0.22853 0.26152
# Poissons Ratio (z) = 0.15471 0.35296
#
# Static dielectric constant tensor:
#      x y z
#    x 1.799330 0.000000 -0.001990 
#    y 0.000000 1.899490 0.000000 
#    z -0.001990 0.000000 1.793480 
# 
# From -- ./inp_files/81369.got.cif
#   From: 2010.05.17/outbox.cif.g08.bks.cpg/sg13_41_cif.got.tgz:81369.got - 2010.06.03 16:44:36.
