data_PCOD9230224
_publ_section_title
;
Structure prediction by ZEFSAII (Michael W. Deem and Ramdas Pophale) SiO2 
 PCOD9230224
Probable space group: P 2/C
;
_chemical_formula_sum "Si O2"
_cell_formula_units_Z 20
_cell_length_a 10.379503
_cell_length_b 13.137703
_cell_length_c 10.196762
_cell_angle_alpha 90.000000
_cell_angle_beta 123.779017
_cell_angle_gamma 90.000000
_cell_volume 1155.733281
_symmetry_space_group_name_H-M "P 2/C"
_symmetry_group_IT_number 13
_symmetry_cell_setting 'monoclinic'
loop_
_space_group_symop_operation_xyz
x,y,z
-x,y,1/2-z
-x,-y,-z
x,-y,1/2+z
loop_
_atom_site_type_symbol
_atom_site_label
_atom_site_fract_x
_atom_site_fract_y
_atom_site_fract_z
Si Si1 0.685616 0.689898 0.377339
Si Si2 0.816746 0.690860 0.161684
Si Si3 0.816505 0.073381 0.667259
Si Si4 0.316347 0.918832 0.117488
Si Si5 0.388941 0.514716 0.561416
O O1 0.500000 0.693220 0.250000
O O2 0.767621 0.674085 0.284603
O O3 0.727106 0.802936 0.449187
O O4 0.708925 0.589654 0.477143
O O5 0.778766 0.808986 0.111018
O O6 0.000000 0.676765 0.250000
O O7 0.720191 0.611422 0.021472
O O8 0.769441 0.058947 0.792841
O O9 0.000000 0.059339 0.750000
O O10 0.728818 0.997098 0.521078
O O11 0.500000 0.922745 0.250000
O O12 0.500000 0.527645 0.750000
O O13 0.500000 0.500000 0.500000
#
# Coordination Sequence:
#
# PCOD9230224 Si02
#       5
#     4   4   4   4   4
#     4   9  18  36  57  76 114 148 178 219 288 316
#     4  10  21  37  57  83 113 146 182 229 276 323
#     4  10  21  38  57  80 115 149 179 224 283 327
#     4  10  20  36  58  82 110 145 186 228 269 326
#     4  11  20  38  61  82 108 149 186 222 276 334
#
# _framework density 17.305031
#
# number of rings (size 3 to 8) (size 9 to 14) (size 15 to 20)
#    0.000    2.000    4.000    1.200    0.000    1.600 
#    3.600    1.000    0.000    0.000    0.000    0.000 
#    0.000    0.000    0.000    0.000    0.000    0.000 
#
# Total GULP energy -111508.698622 kJ/mol
# GULP energy per Si atom -5575.434931 kJ/mol
# Density = 1.726564 g / cm^3
# Si number density = 17.305031 Si / 1000 Ang^3
#
#
#
# Elastic Constant Matrix: (Units=GPa)
#
#
# Indices 1 2 3 4 5 6 
#
# 1 107.6517 23.9234 9.8092 0.0000 -7.7806 0.0000
# 2 23.9234 137.4116 54.2940 0.0000 -16.1064 0.0000
# 3 9.8092 54.2940 47.3924 0.0000 -13.2145 0.0000
# 4 0.0000 0.0000 0.0000 20.2367 0.0000 -4.1680
# 5 -7.7806 -16.1064 -13.2145 0.0000 17.7473 0.0000
# 6 0.0000 0.0000 0.0000 -4.1680 0.0000 26.4872
#
#
#
# Elastic Compliance Matrix: (Units=1/GPa)
#
#
# Indices 1 2 3 4 5 6 
#
# 1 0.009825 -0.001613 0.000767 0.000000 0.003414 0.000000
# 2 -0.001613 0.013573 -0.015116 0.000000 0.000355 0.000000
# 3 0.000767 -0.015116 0.043575 0.000000 0.019063 0.000000
# 4 0.000000 0.000000 0.000000 0.051070 0.000000 0.008036
# 5 0.003414 0.000355 0.019063 0.000000 0.072360 0.000000
# 6 0.000000 0.000000 0.000000 0.008036 0.000000 0.039019
#
#
# Mechanical properties :
#
#
# Convention : Reuss Voigt Hill
#
# Bulk Modulus (GPa) = 28.53384 52.05654 40.29519
# Shear Modulus (GPa) = 18.31312 26.52285 22.41798
#
# Velocity S-wave (km/s) = 3.25661 3.91918 3.60316
# Velocity P-wave (km/s) = 5.53762 7.11526 6.37543
#
# Compressibility (1/GPa) = 0.03504610
#
# Stress axis : x y z
#
# Youngs Moduli (GPa) = 101.78522 73.67784 22.94912
#
# Poissons Ratio (x) = 0.11886 -0.01759
# Poissons Ratio (y) = 0.16420 0.34690
# Poissons Ratio (z) = -0.07802 1.11373
#
# Static dielectric constant tensor:
#      x y z
#    x 1.579940 0.000000 0.002130 
#    y 0.000000 1.624300 0.000000 
#    z 0.002130 0.000000 1.544870 
# 
# From -- ./inp_files/34026.got.cif
#   From: 2010.05.17/outbox.cif.g08.bks.cpg/sg13_18_cif.got.tgz:34026.got - 2010.06.03 16:44:36.
