data_PCOD9230517
_publ_section_title
;
Structure prediction by ZEFSAII (Michael W. Deem and Ramdas Pophale) SiO2 
 PCOD9230517
Probable space group: P 2/C
;
_chemical_formula_sum "Si O2"
_cell_formula_units_Z 26
_cell_length_a 15.514323
_cell_length_b 5.623337
_cell_length_c 17.723490
_cell_angle_alpha 90.000000
_cell_angle_beta 119.357752
_cell_angle_gamma 90.000000
_cell_volume 1347.662747
_symmetry_space_group_name_H-M "P 2/C"
_symmetry_group_IT_number 13
_symmetry_cell_setting 'monoclinic'
loop_
_space_group_symop_operation_xyz
x,y,z
-x,y,1/2-z
-x,-y,-z
x,-y,1/2+z
loop_
_atom_site_type_symbol
_atom_site_label
_atom_site_fract_x
_atom_site_fract_y
_atom_site_fract_z
Si Si1 0.108005 0.004859 0.510248
Si Si2 0.139533 0.297359 0.382115
Si Si3 0.385117 0.305856 0.182867
Si Si4 0.000000 0.341242 0.750000
Si Si5 0.256630 0.680081 0.494613
Si Si6 0.283487 0.808568 0.187434
Si Si7 0.198042 0.086795 0.810858
O O1 0.095682 0.110650 0.421174
O O2 0.182383 0.155051 0.595487
O O3 0.171371 0.767970 0.517050
O O4 0.000000 0.000000 0.500000
O O5 0.056696 0.492912 0.333092
O O6 0.233163 0.411070 0.463346
O O7 0.176861 0.189311 0.319454
O O8 0.500000 0.329845 0.250000
O O9 0.330974 0.549418 0.189530
O O10 0.347489 0.047372 0.196425
O O11 0.358085 0.294251 0.082314
O O12 0.911988 0.189970 0.746606
O O13 0.244524 0.817901 0.409897
O O14 0.259280 0.836245 0.265427
#
# Coordination Sequence:
#
# PCOD9230517 Si02
#       7
#     4   4   4   2   4   4   4
#     4  10  22  35  57  89 130 170 216 257 313 384
#     4  10  20  37  55  79 127 172 215 249 318 367
#     4  11  24  48  72  94 124 169 218 280 342 384
#     4  10  22  32  56  84 126 184 212 240 306 386
#     4   9  21  41  60  88 124 175 207 262 322 389
#     4  11  25  42  67 101 129 165 224 275 317 393
#     4  10  23  38  58  92 134 170 215 266 320 377
#
# _framework density 19.292660000000001
#
# number of rings (size 3 to 8) (size 9 to 14) (size 15 to 20)
#    0.000    1.846    1.538    0.923   12.923    1.846 
#    0.000    1.538    0.000    0.000    0.000    0.000 
#    0.000    0.000    0.000    0.000    0.000    0.000 
#
# Total GULP energy -144793.337655 kJ/mol
# GULP energy per Si atom -5568.974525 kJ/mol
# Density = 1.924875 g / cm^3
# Si number density = 19.292660 Si / 1000 Ang^3
#
#
#
# Elastic Constant Matrix: (Units=GPa)
#
#
# Indices 1 2 3 4 5 6 
#
# 1 56.8356 21.9011 45.8614 0.0000 12.6506 0.0000
# 2 21.9011 79.4178 18.3457 0.0000 5.7608 0.0000
# 3 45.8614 18.3457 111.1980 0.0000 11.1476 0.0000
# 4 0.0000 0.0000 0.0000 25.0593 0.0000 8.9808
# 5 12.6506 5.7608 11.1476 0.0000 38.1502 0.0000
# 6 0.0000 0.0000 0.0000 8.9808 0.0000 12.2475
#
#
#
# Elastic Compliance Matrix: (Units=1/GPa)
#
#
# Indices 1 2 3 4 5 6 
#
# 1 0.029606 -0.005254 -0.010754 0.000000 -0.005882 0.000000
# 2 -0.005254 0.014094 -0.000123 0.000000 -0.000350 0.000000
# 3 -0.010754 -0.000123 0.013484 0.000000 -0.000355 0.000000
# 4 0.000000 0.000000 0.000000 0.054130 0.000000 -0.039693
# 5 -0.005882 -0.000350 -0.000355 0.000000 0.028319 0.000000
# 6 0.000000 0.000000 0.000000 -0.039693 0.000000 0.110755
#
#
# Mechanical properties :
#
#
# Convention : Reuss Voigt Hill
#
# Bulk Modulus (GPa) = 40.12470 46.62974 43.37722
# Shear Modulus (GPa) = 17.18460 25.84761 21.51611
#
# Velocity S-wave (km/s) = 2.98775 3.66425 3.34316
# Velocity P-wave (km/s) = 5.72235 6.49034 6.11840
#
# Compressibility (1/GPa) = 0.02492230
#
# Stress axis : x y z
#
# Youngs Moduli (GPa) = 33.77739 70.95046 74.16086
#
# Poissons Ratio (x) = 0.37274 0.79752
# Poissons Ratio (y) = 0.17745 0.00916
# Poissons Ratio (z) = 0.36324 0.00876
#
# Static dielectric constant tensor:
#      x y z
#    x 1.664180 0.000000 0.008570 
#    y 0.000000 1.787820 0.000000 
#    z 0.008570 0.000000 1.710590 
# 
# From -- ./inp_files/67433.got.cif
#   From: 2010.05.17/outbox.cif.g08.bks.cpg/sg13_34_cif.got.tgz:67433.got - 2010.06.03 16:44:36.
