data_PCOD9230507
_publ_section_title
;
Structure prediction by ZEFSAII (Michael W. Deem and Ramdas Pophale) SiO2 
 PCOD9230507
Probable space group: P 2/C
;
_chemical_formula_sum "Si O2"
_cell_formula_units_Z 26
_cell_length_a 13.253789
_cell_length_b 16.054030
_cell_length_c 8.721139
_cell_angle_alpha 90.000000
_cell_angle_beta 45.549381
_cell_angle_gamma 90.000000
_cell_volume 1324.667536
_symmetry_space_group_name_H-M "P 2/C"
_symmetry_group_IT_number 13
_symmetry_cell_setting 'monoclinic'
loop_
_space_group_symop_operation_xyz
x,y,z
-x,y,1/2-z
-x,-y,-z
x,-y,1/2+z
loop_
_atom_site_type_symbol
_atom_site_label
_atom_site_fract_x
_atom_site_fract_y
_atom_site_fract_z
Si Si1 0.000000 0.495415 0.750000
Si Si2 0.672717 0.789505 0.929117
Si Si3 0.366760 0.265394 0.679838
Si Si4 0.973103 0.221609 0.961030
Si Si5 0.787583 0.107418 0.741219
Si Si6 0.858293 0.387216 0.648354
Si Si7 0.339683 0.970830 0.429838
O O1 0.103452 0.437289 0.739172
O O2 0.092343 0.553497 0.541146
O O3 0.811089 0.776801 0.681784
O O4 0.686502 0.754257 0.088753
O O5 0.534299 0.745943 0.007437
O O6 0.648889 0.888796 0.974519
O O7 0.302189 0.192260 0.643218
O O8 0.300154 0.352573 0.699889
O O9 0.052988 0.140349 0.943183
O O10 0.046395 0.303789 0.951927
O O11 0.000000 0.221091 0.750000
O O12 0.721872 0.063189 0.663076
O O13 0.762721 0.042308 0.901632
O O14 0.500000 0.003901 0.250000
#
# Coordination Sequence:
#
# PCOD9230507 Si02
#       7
#     2   4   4   4   4   4   4
#     4  10  20  36  70  98 132 162 196 256 314 386
#     4  10  20  38  62  88 121 166 216 257 316 358
#     4   9  19  39  64  90 117 165 209 258 304 385
#     4  11  24  40  59  91 125 162 213 265 307 379
#     4  10  23  37  58  83 121 164 212 261 316 361
#     4  10  20  39  64  97 125 163 206 245 315 377
#     4  11  21  38  60  88 122 167 217 267 316 370
#
# _framework density 19.627565000000001
#
# number of rings (size 3 to 8) (size 9 to 14) (size 15 to 20)
#    0.000    1.846    3.846    1.385    2.154    5.538 
#    0.000    2.308    0.000   16.615    0.000    0.000 
#    0.000    0.000    0.000    0.000    0.000    0.000 
#
# Total GULP energy -145197.638902 kJ/mol
# GULP energy per Si atom -5584.524573 kJ/mol
# Density = 1.958289 g / cm^3
# Si number density = 19.627565 Si / 1000 Ang^3
#
#
#
# Elastic Constant Matrix: (Units=GPa)
#
#
# Indices 1 2 3 4 5 6 
#
# 1 54.7570 27.5640 30.1186 0.0000 -10.6245 0.0000
# 2 27.5640 92.4483 23.5707 0.0000 0.2265 0.0000
# 3 30.1186 23.5707 91.9118 0.0000 -21.9207 0.0000
# 4 0.0000 0.0000 0.0000 13.8881 0.0000 -5.3193
# 5 -10.6245 0.2265 -21.9207 0.0000 21.0495 0.0000
# 6 0.0000 0.0000 0.0000 -5.3193 0.0000 0.8500
#
#
#
# Elastic Compliance Matrix: (Units=1/GPa)
#
#
# Indices 1 2 3 4 5 6 
#
# 1 0.025741 -0.006451 -0.004877 0.000000 0.007984 0.000000
# 2 -0.006451 0.013487 -0.002868 0.000000 -0.006388 0.000000
# 3 -0.004877 -0.002868 0.016809 0.000000 0.015074 0.000000
# 4 0.000000 0.000000 0.000000 -0.051547 0.000000 -0.322578
# 5 0.007984 -0.006388 0.015074 0.000000 0.067303 0.000000
# 6 0.000000 0.000000 0.000000 -0.322578 0.000000 -0.842213
#
#
# Mechanical properties :
#
#
# Convention : Reuss Voigt Hill
#
# Bulk Modulus (GPa) = 36.17329 44.62486 40.39907
# Shear Modulus (GPa) = -6.82303 17.68178 5.42937
#
# Velocity S-wave (km/s) = -1.86649 3.00470 1.66499
# Velocity P-wave (km/s) = 3.71817 5.90108 4.93191
#
# Compressibility (1/GPa) = 0.02764471
#
# Stress axis : x y z
#
# Youngs Moduli (GPa) = 38.84790 74.14396 59.49300
#
# Poissons Ratio (x) = 0.47831 0.29014
# Poissons Ratio (y) = 0.25061 0.17065
# Poissons Ratio (z) = 0.18945 0.21268
#
# Static dielectric constant tensor:
#      x y z
#    x 1.724540 0.000000 0.010480 
#    y 0.000000 1.676990 0.000000 
#    z 0.010480 0.000000 1.690960 
# 
# From -- ./inp_files/19834.got.cif
#   From: 2010.05.17/outbox.cif.g08.bks.cpg/sg13_10_cif.got.tgz:19834.got - 2010.06.03 16:44:36.
