data_PCOD9230248
_publ_section_title
;
Structure prediction by ZEFSAII (Michael W. Deem and Ramdas Pophale) SiO2 
 PCOD9230248
Probable space group: P 2/C
;
_chemical_formula_sum "Si O2"
_cell_formula_units_Z 32
_cell_length_a 15.972021
_cell_length_b 6.006493
_cell_length_c 13.884339
_cell_angle_alpha 90.000000
_cell_angle_beta 105.021695
_cell_angle_gamma 90.000000
_cell_volume 1286.487997
_symmetry_space_group_name_H-M "P 2/C"
_symmetry_group_IT_number 13
_symmetry_cell_setting 'monoclinic'
loop_
_space_group_symop_operation_xyz
x,y,z
-x,y,1/2-z
-x,-y,-z
x,-y,1/2+z
loop_
_atom_site_type_symbol
_atom_site_label
_atom_site_fract_x
_atom_site_fract_y
_atom_site_fract_z
Si Si1 0.512719 0.965467 0.654024
Si Si2 0.693628 0.794486 0.732168
Si Si3 0.761012 0.838625 0.110309
Si Si4 0.184950 0.979937 0.076072
Si Si5 0.424201 0.312392 0.984788
Si Si6 0.809977 0.592367 0.309903
Si Si7 0.999342 0.038971 0.632262
Si Si8 0.998974 0.451943 0.364432
O O1 0.500000 0.088951 0.750000
O O2 0.591353 0.799060 0.698678
O O3 0.435793 0.820429 0.588298
O O4 0.544680 0.140386 0.586746
O O5 0.729508 0.551215 0.754161
O O6 0.724726 0.933687 0.647974
O O7 0.740363 0.913421 0.835459
O O8 0.679750 0.674359 0.061705
O O9 0.820397 0.738915 0.214333
O O10 0.808706 0.912922 0.026884
O O11 0.208635 0.720766 0.096839
O O12 0.092884 0.984141 0.106160
O O13 0.500000 0.500000 0.000000
O O14 0.896297 0.453814 0.355734
O O15 0.960063 0.789327 0.595464
O O16 0.000000 0.037621 0.750000
O O17 0.972072 0.296520 0.596239
O O18 0.000000 0.453302 0.250000
#
# Coordination Sequence:
#
# PCOD9230248 Si02
#       8
#     4   4   4   4   4   4   4   4
#     4  10  21  37  58  83 115 149 197 250 297 367
#     4  10  20  37  57  84 116 154 198 250 311 365
#     4  10  22  37  57  88 122 156 203 258 307 371
#     4  10  20  36  58  86 120 157 207 255 308 370
#     4  10  21  39  59  82 118 158 195 245 311 365
#     4  10  20  36  59  85 118 161 201 254 309 369
#     4   9  17  32  58  87 117 162 210 250 308 374
#     4   9  17  32  59  88 116 163 210 248 309 378
#
# _framework density 24.873919999999998
#
# number of rings (size 3 to 8) (size 9 to 14) (size 15 to 20)
#    0.000    2.250    1.250    1.500    0.000    1.500 
#    0.000    7.500    0.000   21.750    0.000    0.000 
#    0.000    0.000    0.000    0.000    0.000    0.000 
#
# Total GULP energy -178298.097034 kJ/mol
# GULP energy per Si atom -5571.815532 kJ/mol
# Density = 2.481731 g / cm^3
# Si number density = 24.873920 Si / 1000 Ang^3
#
#
#
# Elastic Constant Matrix: (Units=GPa)
#
#
# Indices 1 2 3 4 5 6 
#
# 1 79.6892 36.2977 27.9774 0.0000 9.1533 0.0000
# 2 36.2977 139.6257 27.9996 0.0000 13.3816 0.0000
# 3 27.9774 27.9996 112.3589 0.0000 -0.5682 0.0000
# 4 0.0000 0.0000 0.0000 6.7247 0.0000 16.6428
# 5 9.1533 13.3816 -0.5682 0.0000 29.8620 0.0000
# 6 0.0000 0.0000 0.0000 16.6428 0.0000 34.1534
#
#
#
# Elastic Compliance Matrix: (Units=1/GPa)
#
#
# Indices 1 2 3 4 5 6 
#
# 1 0.015422 -0.003061 -0.003094 0.000000 -0.003414 0.000000
# 2 -0.003061 0.008511 -0.001373 0.000000 -0.002902 0.000000
# 3 -0.003094 -0.001373 0.010022 0.000000 0.001755 0.000000
# 4 0.000000 0.000000 0.000000 -0.721847 0.000000 0.351754
# 5 -0.003414 -0.002902 0.001755 0.000000 0.035868 0.000000
# 6 0.000000 0.000000 0.000000 0.351754 0.000000 -0.142129
#
#
# Mechanical properties :
#
#
# Convention : Reuss Voigt Hill
#
# Bulk Modulus (GPa) = 52.92003 57.35813 55.13908
# Shear Modulus (GPa) = -6.47001 30.10796 11.81898
#
# Velocity S-wave (km/s) = -1.61455 3.48289 2.18217
# Velocity P-wave (km/s) = 4.22443 6.26766 5.34460
#
# Compressibility (1/GPa) = 0.01889644
#
# Stress axis : x y z
#
# Youngs Moduli (GPa) = 64.84366 117.48986 99.78365
#
# Poissons Ratio (x) = 0.35968 0.30877
# Poissons Ratio (y) = 0.19851 0.13704
# Poissons Ratio (z) = 0.20065 0.16136
#
# Static dielectric constant tensor:
#      x y z
#    x 2.015300 0.000000 -0.032670 
#    y 0.000000 2.098890 0.000000 
#    z -0.032670 0.000000 1.997690 
# 
# From -- ./inp_files/54667.got.cif
#   From: 2010.05.17/outbox.cif.g08.bks.cpg/sg13_28_cif.got.tgz:54667.got - 2010.06.03 16:44:36.
