data_PCOD9230715
_publ_section_title
;
Structure prediction by ZEFSAII (Michael W. Deem and Ramdas Pophale) SiO2 
 PCOD9230715
Probable space group: P 2/C
;
_chemical_formula_sum "Si O2"
_cell_formula_units_Z 18
_cell_length_a 9.175083
_cell_length_b 5.457796
_cell_length_c 15.630519
_cell_angle_alpha 90.000000
_cell_angle_beta 53.623116
_cell_angle_gamma 90.000000
_cell_volume 630.185499
_symmetry_space_group_name_H-M "P 2/C"
_symmetry_group_IT_number 13
_symmetry_cell_setting 'monoclinic'
loop_
_space_group_symop_operation_xyz
x,y,z
-x,y,1/2-z
-x,-y,-z
x,-y,1/2+z
loop_
_atom_site_type_symbol
_atom_site_label
_atom_site_fract_x
_atom_site_fract_y
_atom_site_fract_z
Si Si1 0.384956 0.549113 0.125943
Si Si2 0.992042 0.923253 0.403809
Si Si3 0.664884 0.896750 0.066650
Si Si4 0.939851 0.582330 0.873363
Si Si5 0.500000 0.219706 0.250000
O O1 0.458860 0.820173 0.122276
O O2 0.182289 0.492653 0.164935
O O3 0.441040 0.386528 0.189595
O O4 0.500000 0.500000 0.000000
O O5 0.769944 0.915380 0.467974
O O6 0.042195 0.158057 0.331284
O O7 0.053516 0.650872 0.365074
O O8 0.000000 0.000000 0.500000
O O9 0.653351 0.034310 0.161034
O O10 0.791157 0.658741 0.000991
#
# Coordination Sequence:
#
# PCOD9230715 Si02
#       5
#     4   4   4   4   2
#     4  10  21  38  59  95 131 160 213 259 336 389
#     4  10  20  37  62  93 120 164 219 259 312 386
#     4   9  21  33  59  88 125 159 203 255 325 376
#     4   9  21  35  61  89 124 162 210 260 316 383
#     4  12  22  36  60  98 134 168 206 274 332 396
#
# _framework density 28.563019000000001
#
# number of rings (size 3 to 8) (size 9 to 14) (size 15 to 20)
#    1.333    0.889    0.000    4.000    3.111    2.667 
#    0.000    0.000    0.000    1.333    0.000    0.000 
#    0.000    0.000    0.000    0.000    0.000    0.000 
#
# Total GULP energy -100338.574987 kJ/mol
# GULP energy per Si atom -5574.365277 kJ/mol
# Density = 2.849801 g / cm^3
# Si number density = 28.563019 Si / 1000 Ang^3
#
#
#
# Elastic Constant Matrix: (Units=GPa)
#
#
# Indices 1 2 3 4 5 6 
#
# 1 89.7301 25.1490 33.6913 0.0000 26.8812 0.0000
# 2 25.1490 153.9311 56.3853 0.0000 22.2994 0.0000
# 3 33.6913 56.3853 162.4702 0.0000 31.4039 0.0000
# 4 0.0000 0.0000 0.0000 55.7099 0.0000 7.2541
# 5 26.8812 22.2994 31.4039 0.0000 59.8913 0.0000
# 6 0.0000 0.0000 0.0000 7.2541 0.0000 50.2150
#
#
#
# Elastic Compliance Matrix: (Units=1/GPa)
#
#
# Indices 1 2 3 4 5 6 
#
# 1 0.013441 -0.000931 -0.001519 0.000000 -0.004889 0.000000
# 2 -0.000931 0.007643 -0.002215 0.000000 -0.001267 0.000000
# 3 -0.001519 -0.002215 0.007731 0.000000 -0.002547 0.000000
# 4 0.000000 0.000000 0.000000 0.018294 0.000000 -0.002643
# 5 -0.004889 -0.001267 -0.002547 0.000000 0.020699 0.000000
# 6 0.000000 0.000000 0.000000 -0.002643 0.000000 0.020296
#
#
# Mechanical properties :
#
#
# Convention : Reuss Voigt Hill
#
# Bulk Modulus (GPa) = 51.32092 70.73142 61.02617
# Shear Modulus (GPa) = 48.10991 52.55694 50.33343
#
# Velocity S-wave (km/s) = 4.10853 4.29422 4.20240
# Velocity P-wave (km/s) = 6.36500 7.02880 6.70512
#
# Compressibility (1/GPa) = 0.01948523
#
# Stress axis : x y z
#
# Youngs Moduli (GPa) = 74.40143 130.83386 129.35046
#
# Poissons Ratio (x) = 0.12183 0.19647
# Poissons Ratio (y) = 0.06928 0.28647
# Poissons Ratio (z) = 0.11301 0.28975
#
# Static dielectric constant tensor:
#      x y z
#    x 2.750150 0.000000 0.074920 
#    y 0.000000 2.216790 0.000000 
#    z 0.074920 0.000000 2.294540 
# 
# From -- ./inp_files/48447.got.cif
#   From: 2010.05.17/outbox.cif.g08.bks.cpg/sg13_25_cif.got.tgz:48447.got - 2010.06.03 16:44:36.
