data_PCOD9230430
_publ_section_title
;
Structure prediction by ZEFSAII (Michael W. Deem and Ramdas Pophale) SiO2 
 PCOD9230430
Probable space group: P 2/C
;
_chemical_formula_sum "Si O2"
_cell_formula_units_Z 22
_cell_length_a 12.698574
_cell_length_b 12.019631
_cell_length_c 14.570292
_cell_angle_alpha 90.000000
_cell_angle_beta 151.268623
_cell_angle_gamma 90.000000
_cell_volume 1069.034893
_symmetry_space_group_name_H-M "P 2/C"
_symmetry_group_IT_number 13
_symmetry_cell_setting 'monoclinic'
loop_
_space_group_symop_operation_xyz
x,y,z
-x,y,1/2-z
-x,-y,-z
x,-y,1/2+z
loop_
_atom_site_type_symbol
_atom_site_label
_atom_site_fract_x
_atom_site_fract_y
_atom_site_fract_z
Si Si1 0.722500 0.595008 0.365661
Si Si2 0.548610 0.649857 0.031134
Si Si3 0.329753 0.100602 0.861111
Si Si4 0.247418 0.849051 0.087837
Si Si5 0.124813 0.521395 0.754953
Si Si6 0.000000 0.000128 0.750000
O O1 0.500000 0.568810 0.250000
O O2 0.648111 0.613146 0.205199
O O3 0.808857 0.718061 0.460245
O O4 0.914515 0.506942 0.528938
O O5 0.556675 0.781409 0.031664
O O6 0.723379 0.584470 0.101259
O O7 0.301899 0.604428 0.845016
O O8 0.234744 0.109992 0.684316
O O9 0.154969 0.076615 0.806472
O O10 0.500000 0.000000 0.000000
O O11 0.500000 0.856233 0.250000
O O12 0.116525 0.921454 0.914335
O O13 0.000000 0.564533 0.750000
#
# Coordination Sequence:
#
# PCOD9230430 Si02
#       6
#     4   4   4   4   4   2
#     4  10  20  36  63  92 123 158 217 268 309 377
#     4  10  24  42  58  95 126 164 211 263 320 385
#     4  11  24  43  66  94 133 170 218 267 322 392
#     4  10  22  39  63  97 126 167 224 266 317 389
#     4  11  22  38  68  88 124 167 209 260 323 383
#     4  12  24  40  68  88 136 174 206 280 334 366
#
# _framework density 20.57931
#
# number of rings (size 3 to 8) (size 9 to 14) (size 15 to 20)
#    0.000    1.455    3.636    1.091    5.091    0.000 
#    0.000    0.000    0.000    3.273    0.000    0.000 
#    0.000    0.000    0.000    0.000    0.000    0.000 
#
# Total GULP energy -122726.241371 kJ/mol
# GULP energy per Si atom -5578.465517 kJ/mol
# Density = 2.053247 g / cm^3
# Si number density = 20.579310 Si / 1000 Ang^3
#
#
#
# Elastic Constant Matrix: (Units=GPa)
#
#
# Indices 1 2 3 4 5 6 
#
# 1 128.1856 33.4587 32.1270 0.0000 11.3884 0.0000
# 2 33.4587 117.6612 44.5939 0.0000 12.3524 0.0000
# 3 32.1270 44.5939 83.7273 0.0000 18.0228 0.0000
# 4 0.0000 0.0000 0.0000 17.0386 0.0000 -10.0963
# 5 11.3884 12.3524 18.0228 0.0000 35.0113 0.0000
# 6 0.0000 0.0000 0.0000 -10.0963 0.0000 17.5384
#
#
#
# Elastic Compliance Matrix: (Units=1/GPa)
#
#
# Indices 1 2 3 4 5 6 
#
# 1 0.008889 -0.001514 -0.002358 0.000000 -0.001143 0.000000
# 2 -0.001514 0.010934 -0.005081 0.000000 -0.000749 0.000000
# 3 -0.002358 -0.005081 0.016874 0.000000 -0.006126 0.000000
# 4 0.000000 0.000000 0.000000 0.089075 0.000000 0.051278
# 5 -0.001143 -0.000749 -0.006126 0.000000 0.032352 0.000000
# 6 0.000000 0.000000 0.000000 0.051278 0.000000 0.086537
#
#
# Mechanical properties :
#
#
# Convention : Reuss Voigt Hill
#
# Bulk Modulus (GPa) = 53.22172 61.10370 57.16271
# Shear Modulus (GPa) = 18.59903 28.54395 23.57149
#
# Velocity S-wave (km/s) = 3.00954 3.72831 3.38804
# Velocity P-wave (km/s) = 6.16396 6.94910 6.56827
#
# Compressibility (1/GPa) = 0.01878932
#
# Stress axis : x y z
#
# Youngs Moduli (GPa) = 112.49880 91.45792 59.26438
#
# Poissons Ratio (x) = 0.13845 0.13977
# Poissons Ratio (y) = 0.17031 0.30114
# Poissons Ratio (z) = 0.26532 0.46473
#
# Static dielectric constant tensor:
#      x y z
#    x 1.835550 0.000000 -0.014690 
#    y 0.000000 1.781020 0.000000 
#    z -0.014690 0.000000 1.774960 
# 
# From -- ./inp_files/51261.got.cif
#   From: 2010.05.17/outbox.cif.g08.bks.cpg/sg13_26_cif.got.tgz:51261.got - 2010.06.03 16:44:36.
