data_PCOD9230866
_publ_section_title
;
Structure prediction by ZEFSAII (Michael W. Deem and Ramdas Pophale) SiO2 
 PCOD9230866
Probable space group: P 2/C
;
_chemical_formula_sum "Si O2"
_cell_formula_units_Z 18
_cell_length_a 5.544950
_cell_length_b 18.394485
_cell_length_c 9.103340
_cell_angle_alpha 90.000000
_cell_angle_beta 122.935831
_cell_angle_gamma 90.000000
_cell_volume 779.278893
_symmetry_space_group_name_H-M "P 2/C"
_symmetry_group_IT_number 13
_symmetry_cell_setting 'monoclinic'
loop_
_space_group_symop_operation_xyz
x,y,z
-x,y,1/2-z
-x,-y,-z
x,-y,1/2+z
loop_
_atom_site_type_symbol
_atom_site_label
_atom_site_fract_x
_atom_site_fract_y
_atom_site_fract_z
Si Si1 0.670388 0.359034 0.160503
Si Si2 0.347640 0.746955 0.356936
Si Si3 0.294558 0.899487 0.431508
Si Si4 0.500000 0.989259 0.750000
Si Si5 0.205200 0.521267 0.203968
O O1 0.500000 0.335805 0.250000
O O2 0.690912 0.446707 0.180739
O O3 0.000000 0.334708 0.250000
O O4 0.491599 0.323851 0.972693
O O5 0.500000 0.758719 0.250000
O O6 0.433615 0.819706 0.478435
O O7 0.000000 0.738632 0.250000
O O8 0.283324 0.935057 0.590102
O O9 0.000000 0.885434 0.250000
O O10 0.422860 0.956946 0.357305
O O11 0.500000 0.556809 0.250000
O O12 0.000000 0.561571 0.250000
O O13 0.000000 0.500000 0.000000
#
# Coordination Sequence:
#
# PCOD9230866 Si02
#       5
#     4   4   4   2   4
#     4  10  22  42  64  94 128 166 217 258 319 388
#     4  11  23  42  64  92 127 172 215 272 324 387
#     4  10  21  37  59  87 126 162 225 266 335 384
#     4  10  20  38  58  90 120 170 212 276 328 390
#     4  10  21  41  65  96 130 165 208 262 313 384
#
# _framework density 23.098275000000001
#
# number of rings (size 3 to 8) (size 9 to 14) (size 15 to 20)
#    0.000    1.778    1.111    2.667    1.556    0.000 
#    0.000   27.778    0.000    0.000    0.000    0.000 
#    0.000    0.000    0.000    0.000    0.000    0.000 
#
# Total GULP energy -100337.550117 kJ/mol
# GULP energy per Si atom -5574.308340 kJ/mol
# Density = 2.304570 g / cm^3
# Si number density = 23.098275 Si / 1000 Ang^3
#
#
#
# Elastic Constant Matrix: (Units=GPa)
#
#
# Indices 1 2 3 4 5 6 
#
# 1 191.3591 23.7870 36.3696 0.0000 5.4239 0.0000
# 2 23.7870 128.1623 60.8724 0.0000 5.6086 0.0000
# 3 36.3696 60.8724 75.5158 0.0000 9.0812 0.0000
# 4 0.0000 0.0000 0.0000 28.8501 0.0000 9.0675
# 5 5.4239 5.6086 9.0812 0.0000 34.2541 0.0000
# 6 0.0000 0.0000 0.0000 9.0675 0.0000 13.4367
#
#
#
# Elastic Compliance Matrix: (Units=1/GPa)
#
#
# Indices 1 2 3 4 5 6 
#
# 1 0.005766 0.000400 -0.003080 0.000000 -0.000162 0.000000
# 2 0.000400 0.012685 -0.010495 0.000000 0.000642 0.000000
# 3 -0.003080 -0.010495 0.023675 0.000000 -0.004070 0.000000
# 4 0.000000 0.000000 0.000000 0.043993 0.000000 -0.029688
# 5 -0.000162 0.000642 -0.004070 0.000000 0.030193 0.000000
# 6 0.000000 0.000000 0.000000 -0.029688 0.000000 0.094457
#
#
# Mechanical properties :
#
#
# Convention : Reuss Voigt Hill
#
# Bulk Modulus (GPa) = 63.38769 70.78834 67.08801
# Shear Modulus (GPa) = 20.62898 33.57539 27.10219
#
# Velocity S-wave (km/s) = 2.99171 3.81673 3.42912
# Velocity P-wave (km/s) = 6.27981 7.08070 6.69225
#
# Compressibility (1/GPa) = 0.01577593
#
# Stress axis : x y z
#
# Youngs Moduli (GPa) = 173.43011 78.83301 42.23897
#
# Poissons Ratio (x) = -0.03151 0.13008
# Poissons Ratio (y) = -0.06931 0.44330
# Poissons Ratio (z) = 0.53411 0.82735
#
# Static dielectric constant tensor:
#      x y z
#    x 1.811330 0.000000 -0.064830 
#    y 0.000000 1.921020 0.000000 
#    z -0.064830 0.000000 1.912850 
# 
# From -- ./inp_files/9353.got.cif
#   From: 2010.05.17/outbox.cif.g08.bks.cpg/sg13_5_cif.got.tgz:9353.got - 2010.06.03 16:44:36.
