data_PCOD9230896
_publ_section_title
;
Structure prediction by ZEFSAII (Michael W. Deem and Ramdas Pophale) SiO2 
 PCOD9230896
Probable space group: P 2/C
;
_chemical_formula_sum "Si O2"
_cell_formula_units_Z 24
_cell_length_a 11.406146
_cell_length_b 11.464371
_cell_length_c 9.847627
_cell_angle_alpha 90.000000
_cell_angle_beta 90.341076
_cell_angle_gamma 90.000000
_cell_volume 1287.695131
_symmetry_space_group_name_H-M "P 2/C"
_symmetry_group_IT_number 13
_symmetry_cell_setting 'monoclinic'
loop_
_space_group_symop_operation_xyz
x,y,z
-x,y,1/2-z
-x,-y,-z
x,-y,1/2+z
loop_
_atom_site_type_symbol
_atom_site_label
_atom_site_fract_x
_atom_site_fract_y
_atom_site_fract_z
Si Si1 0.135510 0.753653 0.302767
Si Si2 0.751505 0.136293 0.954079
Si Si3 0.911650 0.500191 0.624979
Si Si4 0.129896 0.248558 0.311958
Si Si5 0.747104 0.140062 0.442272
Si Si6 0.507393 0.120522 0.084405
O O1 0.218691 0.788958 0.178404
O O2 0.154328 0.621903 0.358101
O O3 0.170044 0.834749 0.429316
O O4 0.000000 0.764560 0.250000
O O5 0.746571 0.999431 0.916746
O O6 0.853816 0.161034 0.063166
O O7 0.631290 0.170206 0.032493
O O8 0.842354 0.621503 0.632446
O O9 0.000000 0.502872 0.750000
O O10 0.000000 0.500000 0.500000
O O11 0.209166 0.207255 0.189138
O O12 0.000000 0.247500 0.250000
O O13 0.612980 0.181200 0.463159
O O14 0.500000 0.106991 0.250000
O O15 0.500000 0.000000 0.000000
#
# Coordination Sequence:
#
# PCOD9230896 Si02
#       6
#     4   4   4   4   4   4
#     4  11  23  38  58  90 123 154 198 244 295 355
#     4  11  23  37  59  87 123 155 193 246 296 353
#     4  10  20  38  60  81 114 159 208 238 275 354
#     4  11  21  36  60  86 117 158 194 241 304 351
#     4  11  23  37  59  87 121 157 195 241 301 354
#     4  10  22  40  62  85 115 161 211 241 279 354
#
# _framework density 18.637953
#
# number of rings (size 3 to 8) (size 9 to 14) (size 15 to 20)
#    0.000    1.333    1.667    6.000    7.000    4.000 
#    0.000    0.000    0.000    6.000    0.000    0.000 
#    0.000    0.000    0.000    0.000    0.000    0.000 
#
# Total GULP energy -133757.529075 kJ/mol
# GULP energy per Si atom -5573.230378 kJ/mol
# Density = 1.859553 g / cm^3
# Si number density = 18.637953 Si / 1000 Ang^3
#
#
#
# Elastic Constant Matrix: (Units=GPa)
#
#
# Indices 1 2 3 4 5 6 
#
# 1 75.5043 54.5865 33.4054 0.0000 -16.1526 0.0000
# 2 54.5865 88.7955 40.4671 0.0000 -24.4443 0.0000
# 3 33.4054 40.4671 138.1072 0.0000 -26.9458 0.0000
# 4 0.0000 0.0000 0.0000 28.1405 0.0000 -13.8470
# 5 -16.1526 -24.4443 -26.9458 0.0000 39.7549 0.0000
# 6 0.0000 0.0000 0.0000 -13.8470 0.0000 -5.2721
#
#
#
# Elastic Compliance Matrix: (Units=1/GPa)
#
#
# Indices 1 2 3 4 5 6 
#
# 1 0.024190 -0.014085 -0.001724 0.000000 -0.000001 0.000000
# 2 -0.014085 0.022694 -0.001886 0.000000 0.006953 0.000000
# 3 -0.001724 -0.001886 0.009043 0.000000 0.004269 0.000000
# 4 0.000000 0.000000 0.000000 0.015502 0.000000 -0.040715
# 5 -0.000001 0.006953 0.004269 0.000000 0.032323 0.000000
# 6 0.000000 0.000000 0.000000 -0.040715 0.000000 -0.082742
#
#
# Mechanical properties :
#
#
# Convention : Reuss Voigt Hill
#
# Bulk Modulus (GPa) = 48.69319 62.14721 55.42020
# Shear Modulus (GPa) = 79.05691 24.12120 51.58906
#
# Velocity S-wave (km/s) = 6.51991 3.60140 5.26685
# Velocity P-wave (km/s) = 9.10283 7.12111 8.17226
#
# Compressibility (1/GPa) = 0.02053675
#
# Stress axis : x y z
#
# Youngs Moduli (GPa) = 41.33979 44.06435 110.57727
#
# Poissons Ratio (x) = 0.62064 0.19065
# Poissons Ratio (y) = 0.58227 0.20857
# Poissons Ratio (z) = 0.07127 0.08312
#
# Static dielectric constant tensor:
#      x y z
#    x 1.601090 0.000000 0.047640 
#    y 0.000000 1.741420 0.000000 
#    z 0.047640 0.000000 1.626320 
# 
# From -- ./inp_files/15882.got.cif
#   From: 2010.05.17/outbox.cif.g08.bks.cpg/sg13_8_cif.got.tgz:15882.got - 2010.06.03 16:44:36.
