data_PCOD9230152
_publ_section_title
;
Structure prediction by ZEFSAII (Michael W. Deem and Ramdas Pophale) SiO2 
 PCOD9230152
Probable space group: P 2/C
;
_chemical_formula_sum "Si O2"
_cell_formula_units_Z 30
_cell_length_a 7.594283
_cell_length_b 16.118218
_cell_length_c 10.682574
_cell_angle_alpha 90.000000
_cell_angle_beta 75.421141
_cell_angle_gamma 90.000000
_cell_volume 1265.512031
_symmetry_space_group_name_H-M "P 2/C"
_symmetry_group_IT_number 13
_symmetry_cell_setting 'monoclinic'
loop_
_space_group_symop_operation_xyz
x,y,z
-x,y,1/2-z
-x,-y,-z
x,-y,1/2+z
loop_
_atom_site_type_symbol
_atom_site_label
_atom_site_fract_x
_atom_site_fract_y
_atom_site_fract_z
Si Si1 0.720709 0.011371 0.957644
Si Si2 0.500000 0.729255 0.750000
Si Si3 0.710515 0.603783 0.845772
Si Si4 0.689773 0.742029 0.286052
Si Si5 0.184075 0.433063 0.662191
Si Si6 0.722978 0.916278 0.197452
Si Si7 0.220591 0.194328 0.464468
Si Si8 0.040433 0.354194 0.439381
O O1 0.775727 0.021085 0.801629
O O2 0.787703 0.097859 0.005948
O O3 0.500000 0.000000 0.000000
O O4 0.780661 0.943441 0.048666
O O5 0.545404 0.666433 0.855758
O O6 0.660858 0.789131 0.680013
O O7 0.669026 0.505943 0.852041
O O8 0.834632 0.629734 0.704382
O O9 0.835005 0.621198 0.943901
O O10 0.500000 0.733424 0.250000
O O11 0.780871 0.652011 0.270442
O O12 0.789827 0.822932 0.212234
O O13 0.673116 0.769428 0.433472
O O14 0.133072 0.407756 0.531261
O O15 0.000000 0.472037 0.750000
O O16 0.500000 0.912602 0.250000
O O17 0.053793 0.257522 0.475093
#
# Coordination Sequence:
#
# PCOD9230152 Si02
#       8
#     4   2   4   4   4   4   4   4
#     4   9  16  27  50  76 106 142 176 218 262 324
#     4  10  22  34  52  84 106 132 176 232 266 310
#     4  10  20  36  55  75 107 135 177 226 268 312
#     4   9  19  35  48  76 111 140 170 222 273 309
#     4  11  21  33  57  77  98 144 187 212 260 331
#     4   8  15  28  47  72 105 140 174 214 270 316
#     4   9  19  34  51  78 109 140 179 215 265 317
#     4   9  19  38  53  72 107 143 176 217 266 318
#
# _framework density 23.705819999999999
#
# number of rings (size 3 to 8) (size 9 to 14) (size 15 to 20)
#    0.000    2.667    1.333    1.200    3.733    1.067 
#    0.000    2.000    0.000    0.000    6.933    3.733 
#    0.000    0.000    0.000    0.000    0.000    0.000 
#
# Total GULP energy -167380.430544 kJ/mol
# GULP energy per Si atom -5579.347685 kJ/mol
# Density = 2.365186 g / cm^3
# Si number density = 23.705820 Si / 1000 Ang^3
#
#
#
# Elastic Constant Matrix: (Units=GPa)
#
#
# Indices 1 2 3 4 5 6 
#
# 1 41.3612 24.1325 15.3093 0.0000 10.6418 0.0000
# 2 24.1325 100.7341 26.4045 0.0000 23.0228 0.0000
# 3 15.3093 26.4045 82.7157 0.0000 18.4483 0.0000
# 4 0.0000 0.0000 0.0000 146.6516 0.0000 -0.7669
# 5 10.6418 23.0228 18.4483 0.0000 26.2395 0.0000
# 6 0.0000 0.0000 0.0000 -0.7669 0.0000 20.1842
#
#
#
# Elastic Compliance Matrix: (Units=1/GPa)
#
#
# Indices 1 2 3 4 5 6 
#
# 1 0.029577 -0.005108 -0.002571 0.000000 -0.005706 0.000000
# 2 -0.005108 0.013534 -0.001410 0.000000 -0.008813 0.000000
# 3 -0.002571 -0.001410 0.014833 0.000000 -0.008149 0.000000
# 4 0.000000 0.000000 0.000000 0.006820 0.000000 0.000259
# 5 -0.005706 -0.008813 -0.008149 0.000000 0.053887 0.000000
# 6 0.000000 0.000000 0.000000 0.000259 0.000000 0.049553
#
#
# Mechanical properties :
#
#
# Convention : Reuss Voigt Hill
#
# Bulk Modulus (GPa) = 25.14585 39.61150 32.37867
# Shear Modulus (GPa) = 25.04540 49.21270 37.12905
#
# Velocity S-wave (km/s) = 3.25392 4.56123 3.96187
# Velocity P-wave (km/s) = 4.97472 6.66976 5.88360
#
# Compressibility (1/GPa) = 0.03976800
#
# Stress axis : x y z
#
# Youngs Moduli (GPa) = 33.80985 73.88603 67.41739
#
# Poissons Ratio (x) = 0.37738 0.17334
# Poissons Ratio (y) = 0.17269 0.09503
# Poissons Ratio (z) = 0.08693 0.10415
#
# Static dielectric constant tensor:
#      x y z
#    x 1.567750 0.000000 0.101820 
#    y 0.000000 1.914750 0.000000 
#    z 0.101820 0.000000 1.874360 
# 
# From -- ./inp_files/30131.got.cif
#   From: 2010.05.17/outbox.cif.g08.bks.cpg/sg13_16_cif.got.tgz:30131.got - 2010.06.03 16:44:36.
