data_PCOD9230211
_publ_section_title
;
Structure prediction by ZEFSAII (Michael W. Deem and Ramdas Pophale) SiO2 
 PCOD9230211
Probable space group: P 2/C
;
_chemical_formula_sum "Si O2"
_cell_formula_units_Z 32
_cell_length_a 6.761108
_cell_length_b 10.675661
_cell_length_c 19.564502
_cell_angle_alpha 90.000000
_cell_angle_beta 119.792082
_cell_angle_gamma 90.000000
_cell_volume 1225.513695
_symmetry_space_group_name_H-M "P 2/C"
_symmetry_group_IT_number 13
_symmetry_cell_setting 'monoclinic'
loop_
_space_group_symop_operation_xyz
x,y,z
-x,y,1/2-z
-x,-y,-z
x,-y,1/2+z
loop_
_atom_site_type_symbol
_atom_site_label
_atom_site_fract_x
_atom_site_fract_y
_atom_site_fract_z
Si Si1 0.832254 0.204410 0.560232
Si Si2 0.184217 0.839088 0.724821
Si Si3 0.546100 0.225718 0.392498
Si Si4 0.902678 0.481506 0.559547
Si Si5 0.396876 0.500818 0.158518
Si Si6 0.829882 0.756358 0.562963
Si Si7 0.525247 0.774847 0.388455
Si Si8 0.815294 0.135221 0.775107
O O1 0.759500 0.165929 0.471108
O O2 0.780270 0.352780 0.548519
O O3 0.654175 0.164089 0.587765
O O4 0.082946 0.185837 0.635437
O O5 0.430055 0.820244 0.802493
O O6 0.000000 0.791068 0.750000
O O7 0.083469 0.780375 0.636891
O O8 0.158570 0.987069 0.713134
O O9 0.577488 0.374988 0.382336
O O10 0.347685 0.190244 0.413312
O O11 0.783035 0.607873 0.558417
O O12 0.000000 0.500000 0.500000
O O13 0.139696 0.472526 0.638696
O O14 0.500000 0.476877 0.250000
O O15 0.481661 0.625329 0.132782
O O16 0.756456 0.791395 0.473290
O O17 0.428076 0.835410 0.301954
O O18 0.000000 0.182950 0.750000
#
# Coordination Sequence:
#
# PCOD9230211 Si02
#       8
#     4   4   4   4   4   4   4   4
#     4  10  20  36  59  82 113 147 181 229 277 327
#     4   9  19  35  56  84 112 141 185 233 273 321
#     4  10  20  36  57  84 113 146 184 224 277 331
#     4  12  21  35  55  83 113 144 179 227 275 331
#     4  12  23  35  55  85 115 149 181 226 279 335
#     4  10  20  36  59  82 113 147 181 229 277 327
#     4  10  20  36  57  84 113 146 184 224 277 331
#     4   9  19  35  56  84 112 141 185 233 273 321
#
# _framework density 26.111499999999999
#
# number of rings (size 3 to 8) (size 9 to 14) (size 15 to 20)
#    0.000    1.750    2.500    2.250    0.000    3.000 
#    0.000   10.000    0.000    7.500    0.000    0.000 
#    0.000    0.000    0.000    0.000    0.000    0.000 
#
# Total GULP energy -178402.205321 kJ/mol
# GULP energy per Si atom -5575.068916 kJ/mol
# Density = 2.605207 g / cm^3
# Si number density = 26.111500 Si / 1000 Ang^3
#
#
#
# Elastic Constant Matrix: (Units=GPa)
#
#
# Indices 1 2 3 4 5 6 
#
# 1 49.4430 -5.4045 37.3465 0.0000 -1.9110 0.0000
# 2 -5.4045 55.1397 35.5754 0.0000 -1.2846 0.0000
# 3 37.3465 35.5754 253.7626 0.0000 -5.9506 0.0000
# 4 0.0000 0.0000 0.0000 71.0208 0.0000 -6.3311
# 5 -1.9110 -1.2846 -5.9506 0.0000 61.1366 0.0000
# 6 0.0000 0.0000 0.0000 -6.3311 0.0000 8.4924
#
#
#
# Elastic Compliance Matrix: (Units=1/GPa)
#
#
# Indices 1 2 3 4 5 6 
#
# 1 0.023999 0.005096 -0.004236 0.000000 0.000445 0.000000
# 2 0.005096 0.021022 -0.003691 0.000000 0.000242 0.000000
# 3 -0.004236 -0.003691 0.005088 0.000000 0.000285 0.000000
# 4 0.000000 0.000000 0.000000 0.015083 0.000000 0.011244
# 5 0.000445 0.000242 0.000285 0.000000 0.016404 0.000000
# 6 0.000000 0.000000 0.000000 0.011244 0.000000 0.126134
#
#
# Mechanical properties :
#
#
# Convention : Reuss Voigt Hill
#
# Bulk Modulus (GPa) = 22.49903 54.82000 38.65952
# Shear Modulus (GPa) = 21.90971 47.51848 34.71410
#
# Velocity S-wave (km/s) = 2.89984 4.27057 3.65013
# Velocity P-wave (km/s) = 4.45503 6.73478 5.70984
#
# Compressibility (1/GPa) = 0.04444636
#
# Stress axis : x y z
#
# Youngs Moduli (GPa) = 41.66828 47.56811 196.52965
#
# Poissons Ratio (x) = -0.24239 0.83248
# Poissons Ratio (y) = -0.21232 0.72548
# Poissons Ratio (z) = 0.17650 0.17559
#
# Static dielectric constant tensor:
#      x y z
#    x -1.234370 0.000000 -5.042010 
#    y 0.000000 1.984660 0.000000 
#    z -5.042010 0.000000 -5.557640 
# 
# From -- ./inp_files/76465.got.cif
#   From: 2010.05.17/outbox.cif.g08.bks.cpg/sg13_39_cif.got.tgz:76465.got - 2010.06.03 16:44:36.
