data_PCOD9230360
_publ_section_title
;
Structure prediction by ZEFSAII (Michael W. Deem and Ramdas Pophale) SiO2 
 PCOD9230360
Probable space group: P 2/C
;
_chemical_formula_sum "Si O2"
_cell_formula_units_Z 18
_cell_length_a 12.903870
_cell_length_b 7.546602
_cell_length_c 18.273798
_cell_angle_alpha 90.000000
_cell_angle_beta 153.500505
_cell_angle_gamma 90.000000
_cell_volume 793.999091
_symmetry_space_group_name_H-M "P 2/C"
_symmetry_group_IT_number 13
_symmetry_cell_setting 'monoclinic'
loop_
_space_group_symop_operation_xyz
x,y,z
-x,y,1/2-z
-x,-y,-z
x,-y,1/2+z
loop_
_atom_site_type_symbol
_atom_site_label
_atom_site_fract_x
_atom_site_fract_y
_atom_site_fract_z
Si Si1 0.994283 0.144863 0.559817
Si Si2 0.782975 0.085983 0.648814
Si Si3 0.343843 0.715870 0.914214
Si Si4 0.500000 0.709623 0.750000
Si Si5 0.302022 0.487301 0.760842
O O1 0.147567 0.071016 0.722815
O O2 0.121977 0.332989 0.623953
O O3 0.727637 0.176992 0.415363
O O4 0.000000 0.000000 0.500000
O O5 0.549017 0.194311 0.495337
O O6 0.000000 0.181729 0.750000
O O7 0.757079 0.884514 0.606946
O O8 0.196853 0.607993 0.761099
O O9 0.475630 0.596541 0.056574
O O10 0.399637 0.593826 0.753614
#
# Coordination Sequence:
#
# PCOD9230360 Si02
#       5
#     4   4   4   2   4
#     4  11  25  41  60  89 127 162 201 252 306 368
#     4  10  20  36  61  88 115 155 200 245 303 362
#     4   9  20  39  60  86 119 151 196 256 303 351
#     4  12  24  40  64  88 120 164 204 246 304 370
#     4  10  22  40  61  87 120 157 202 254 305 361
#
# _framework density 22.670051000000001
#
# number of rings (size 3 to 8) (size 9 to 14) (size 15 to 20)
#    0.000    1.778    0.000    3.333    0.000    8.000 
#    0.000    2.222    0.000    0.000    0.000    0.000 
#    0.000    0.000    0.000    0.000    0.000    0.000 
#
# Total GULP energy -100453.150229 kJ/mol
# GULP energy per Si atom -5580.730568 kJ/mol
# Density = 2.261845 g / cm^3
# Si number density = 22.670051 Si / 1000 Ang^3
#
#
#
# Elastic Constant Matrix: (Units=GPa)
#
#
# Indices 1 2 3 4 5 6 
#
# 1 26.9515 -8.1296 20.4336 0.0000 -2.3569 0.0000
# 2 -8.1296 79.9441 32.9420 0.0000 -9.1613 0.0000
# 3 20.4336 32.9420 88.5455 0.0000 10.5703 0.0000
# 4 0.0000 0.0000 0.0000 39.5024 0.0000 -12.3634
# 5 -2.3569 -9.1613 10.5703 0.0000 42.6951 0.0000
# 6 0.0000 0.0000 0.0000 -12.3634 0.0000 22.4918
#
#
#
# Elastic Compliance Matrix: (Units=1/GPa)
#
#
# Indices 1 2 3 4 5 6 
#
# 1 0.058823 0.015964 -0.020929 0.000000 0.011854 0.000000
# 2 0.015964 0.020068 -0.012128 0.000000 0.008190 0.000000
# 3 -0.020929 -0.012128 0.021726 0.000000 -0.009137 0.000000
# 4 0.000000 0.000000 0.000000 0.030575 0.000000 0.016807
# 5 0.011854 0.008190 -0.009137 0.000000 0.028096 0.000000
# 6 0.000000 0.000000 0.000000 0.016807 0.000000 0.053699
#
#
# Mechanical properties :
#
#
# Convention : Reuss Voigt Hill
#
# Bulk Modulus (GPa) = 15.05286 31.77035 23.41160
# Shear Modulus (GPa) = 18.56551 30.95088 24.75819
#
# Velocity S-wave (km/s) = 2.86482 3.69897 3.30829
# Velocity P-wave (km/s) = 4.19492 5.68224 4.99426
#
# Compressibility (1/GPa) = 0.06643256
#
# Stress axis : x y z
#
# Youngs Moduli (GPa) = 17.00002 49.83022 46.02755
#
# Poissons Ratio (x) = -0.79551 0.96332
# Poissons Ratio (y) = -0.27140 0.55821
# Poissons Ratio (z) = 0.35580 0.60433
#
# Static dielectric constant tensor:
#      x y z
#    x 1.884890 0.000000 0.042100 
#    y 0.000000 1.913300 0.000000 
#    z 0.042100 0.000000 1.859490 
# 
# From -- ./inp_files/28104.got.cif
#   From: 2010.05.17/outbox.cif.g08.bks.cpg/sg13_15_cif.got.tgz:28104.got - 2010.06.03 16:44:36.
