data_PCOD9230222
_publ_section_title
;
Structure prediction by ZEFSAII (Michael W. Deem and Ramdas Pophale) SiO2 
 PCOD9230222
Probable space group: P 2/C
;
_chemical_formula_sum "Si O2"
_cell_formula_units_Z 28
_cell_length_a 10.888961
_cell_length_b 9.931485
_cell_length_c 14.014962
_cell_angle_alpha 90.000000
_cell_angle_beta 59.534824
_cell_angle_gamma 90.000000
_cell_volume 1306.376392
_symmetry_space_group_name_H-M "P 2/C"
_symmetry_group_IT_number 13
_symmetry_cell_setting 'monoclinic'
loop_
_space_group_symop_operation_xyz
x,y,z
-x,y,1/2-z
-x,-y,-z
x,-y,1/2+z
loop_
_atom_site_type_symbol
_atom_site_label
_atom_site_fract_x
_atom_site_fract_y
_atom_site_fract_z
Si Si1 0.443621 0.483874 0.874952
Si Si2 0.625094 0.928448 0.059365
Si Si3 0.920054 0.987022 0.875656
Si Si4 0.222921 0.695372 0.382179
Si Si5 0.649083 0.232130 0.079404
Si Si6 0.635348 0.269385 0.875281
Si Si7 0.931702 0.797032 0.544150
O O1 0.500000 0.434959 0.750000
O O2 0.285339 0.423978 0.924709
O O3 0.534959 0.401133 0.914099
O O4 0.457652 0.643350 0.872877
O O5 0.703362 0.832264 0.105371
O O6 0.478966 0.853105 0.090474
O O7 0.753368 0.944786 0.930796
O O8 0.594183 0.079671 0.107732
O O9 0.000000 0.037089 0.750000
O O10 0.922802 0.090232 0.963534
O O11 0.013650 0.863249 0.879806
O O12 0.262340 0.706235 0.254839
O O13 0.054938 0.698172 0.462536
O O14 0.709356 0.250239 0.947532
O O15 0.771994 0.256366 0.108282
#
# Coordination Sequence:
#
# PCOD9230222 Si02
#       7
#     4   4   4   4   4   4   4
#     4   9  20  38  54  75 106 154 185 223 284 325
#     4   9  19  35  53  87 108 142 189 224 275 324
#     4   9  18  35  56  77 119 147 175 227 282 330
#     4   9  19  37  60  75 111 150 186 223 272 339
#     4  11  21  34  53  85 117 135 186 239 269 325
#     4  10  20  36  58  80 110 152 188 220 274 335
#     4   9  20  34  53  87 107 145 189 221 281 328
#
# _framework density 21.433332
#
# number of rings (size 3 to 8) (size 9 to 14) (size 15 to 20)
#    0.000    2.571    0.000    3.000    4.000    1.714 
#    2.571    0.000    3.143    0.000    0.000    0.000 
#    0.000    0.000    0.000    0.000    0.000    0.000 
#
# Total GULP energy -155923.157687 kJ/mol
# GULP energy per Si atom -5568.684203 kJ/mol
# Density = 2.138455 g / cm^3
# Si number density = 21.433332 Si / 1000 Ang^3
#
#
#
# Elastic Constant Matrix: (Units=GPa)
#
#
# Indices 1 2 3 4 5 6 
#
# 1 57.8313 12.0462 -20.7914 0.0000 -4.7835 0.0000
# 2 12.0462 110.0236 -13.9117 0.0000 -5.1233 0.0000
# 3 -20.7914 -13.9117 31.3784 0.0000 7.7744 0.0000
# 4 0.0000 0.0000 0.0000 13.0842 0.0000 -1.8206
# 5 -4.7835 -5.1233 7.7744 0.0000 20.6980 0.0000
# 6 0.0000 0.0000 0.0000 -1.8206 0.0000 11.8980
#
#
#
# Elastic Compliance Matrix: (Units=1/GPa)
#
#
# Indices 1 2 3 4 5 6 
#
# 1 0.022743 -0.000627 0.014916 0.000000 -0.000502 0.000000
# 2 -0.000627 0.009660 0.003650 0.000000 0.000875 0.000000
# 3 0.014916 0.003650 0.046633 0.000000 -0.013165 0.000000
# 4 0.000000 0.000000 0.000000 0.078091 0.000000 0.011949
# 5 -0.000502 0.000875 -0.013165 0.000000 0.053360 0.000000
# 6 0.000000 0.000000 0.000000 0.011949 0.000000 0.085876
#
#
# Mechanical properties :
#
#
# Convention : Reuss Voigt Hill
#
# Bulk Modulus (GPa) = 8.70218 17.10215 12.90217
# Shear Modulus (GPa) = 16.73417 23.92870 20.33144
#
# Velocity S-wave (km/s) = 2.79723 3.34492 3.08326
# Velocity P-wave (km/s) = 3.80810 4.78691 4.32528
#
# Compressibility (1/GPa) = 0.11491367
#
# Stress axis : x y z
#
# Youngs Moduli (GPa) = 43.96866 103.52019 21.44419
#
# Poissons Ratio (x) = 0.06495 -0.31986
# Poissons Ratio (y) = 0.02759 -0.07828
# Poissons Ratio (z) = -0.65584 -0.37787
#
# Static dielectric constant tensor:
#      x y z
#    x 1.846150 0.000000 -0.014470 
#    y 0.000000 1.813230 0.000000 
#    z -0.014470 0.000000 1.802240 
# 
# From -- ./inp_files/50221.got.cif
#   From: 2010.05.17/outbox.cif.g08.bks.cpg/sg13_26_cif.got.tgz:50221.got - 2010.06.03 16:44:36.
