data_PCOD9230293
_publ_section_title
;
Structure prediction by ZEFSAII (Michael W. Deem and Ramdas Pophale) SiO2 
 PCOD9230293
Probable space group: P 2/C
;
_chemical_formula_sum "Si O2"
_cell_formula_units_Z 28
_cell_length_a 22.510431
_cell_length_b 11.218456
_cell_length_c 18.815073
_cell_angle_alpha 90.000000
_cell_angle_beta 16.856368
_cell_angle_gamma 90.000000
_cell_volume 1377.783818
_symmetry_space_group_name_H-M "P 2/C"
_symmetry_group_IT_number 13
_symmetry_cell_setting 'monoclinic'
loop_
_space_group_symop_operation_xyz
x,y,z
-x,y,1/2-z
-x,-y,-z
x,-y,1/2+z
loop_
_atom_site_type_symbol
_atom_site_label
_atom_site_fract_x
_atom_site_fract_y
_atom_site_fract_z
Si Si1 0.491502 0.117394 0.924129
Si Si2 0.038305 0.152751 0.122669
Si Si3 0.947108 0.629059 0.626250
Si Si4 0.698377 0.477534 0.223837
Si Si5 0.853282 0.032071 0.735982
Si Si6 0.494268 0.371959 0.840904
Si Si7 0.850139 0.234822 0.093345
O O1 0.733578 0.106739 0.658734
O O2 0.487234 0.235358 0.877651
O O3 0.349413 0.158751 0.153000
O O4 0.377727 0.998659 0.025271
O O5 0.000000 0.161103 0.250000
O O6 0.993012 0.277249 0.136629
O O7 0.883702 0.062136 0.263570
O O8 0.935345 0.703124 0.567588
O O9 0.121552 0.534236 0.435952
O O10 0.725265 0.572478 0.889229
O O11 0.500000 0.500000 0.500000
O O12 0.659760 0.551051 0.195261
O O13 0.762334 0.339163 0.143572
O O14 0.956331 0.152507 0.648300
O O15 0.000000 0.000000 0.500000
O O16 0.500000 0.370995 0.750000
#
# Coordination Sequence:
#
# PCOD9230293 Si02
#       7
#     4   4   4   4   4   4   4
#     4  10  20  36  59  91 121 150 196 251 308 360
#     4  12  22  35  61  92 121 152 196 253 311 359
#     4  11  21  36  61  90 119 152 195 254 311 353
#     4  12  22  38  59  91 123 155 202 249 303 368
#     4  10  21  39  56  84 120 154 198 241 295 360
#     4  11  22  36  59  91 123 154 199 254 317 361
#     4  10  21  40  58  87 122 159 201 248 294 372
#
# _framework density 20.322493000000001
#
# number of rings (size 3 to 8) (size 9 to 14) (size 15 to 20)
#    0.000    1.143    8.571    1.286    0.000    2.286 
#    2.571    0.000    3.143    0.000    0.000    0.000 
#    0.000    0.000    0.000    0.000    0.000    0.000 
#
# Total GULP energy -156080.730580 kJ/mol
# GULP energy per Si atom -5574.311806 kJ/mol
# Density = 2.027624 g / cm^3
# Si number density = 20.322493 Si / 1000 Ang^3
#
#
#
# Elastic Constant Matrix: (Units=GPa)
#
#
# Indices 1 2 3 4 5 6 
#
# 1 71.5249 12.0936 -1.6069 0.0000 1.9339 0.0000
# 2 12.0936 76.2002 14.1524 0.0000 0.7250 0.0000
# 3 -1.6069 14.1524 54.3184 0.0000 -31.2820 0.0000
# 4 0.0000 0.0000 0.0000 31.1579 0.0000 -17.8130
# 5 1.9339 0.7250 -31.2820 0.0000 32.3561 0.0000
# 6 0.0000 0.0000 0.0000 -17.8130 0.0000 27.0005
#
#
#
# Elastic Compliance Matrix: (Units=1/GPa)
#
#
# Indices 1 2 3 4 5 6 
#
# 1 0.014430 -0.002560 0.001422 0.000000 0.000569 0.000000
# 2 -0.002560 0.015375 -0.009458 0.000000 -0.009335 0.000000
# 3 0.001422 -0.009458 0.047357 0.000000 0.045912 0.000000
# 4 0.000000 0.000000 0.000000 0.051530 0.000000 0.033996
# 5 0.000569 -0.009335 0.045912 0.000000 0.075469 0.000000
# 6 0.000000 0.000000 0.000000 0.033996 0.000000 0.059464
#
#
# Mechanical properties :
#
#
# Convention : Reuss Voigt Hill
#
# Bulk Modulus (GPa) = 17.86650 27.92463 22.89556
# Shear Modulus (GPa) = 16.47587 29.92987 23.20287
#
# Velocity S-wave (km/s) = 2.85040 3.84180 3.38262
# Velocity P-wave (km/s) = 4.43212 5.78358 5.15235
#
# Compressibility (1/GPa) = 0.05597068
#
# Stress axis : x y z
#
# Youngs Moduli (GPa) = 69.29771 65.04083 21.11624
#
# Poissons Ratio (x) = 0.16649 -0.03002
# Poissons Ratio (y) = 0.17738 0.19971
# Poissons Ratio (z) = -0.09852 0.61515
#
# Static dielectric constant tensor:
#      x y z
#    x 1.650150 0.000000 0.030730 
#    y 0.000000 1.813770 0.000000 
#    z 0.030730 0.000000 1.737350 
# 
# From -- ./inp_files/70666.got.cif
#   From: 2010.05.17/outbox.cif.g08.bks.cpg/sg13_36_cif.got.tgz:70666.got - 2010.06.03 16:44:36.
