data_PCOD9230040
_publ_section_title
;
Structure prediction by ZEFSAII (Michael W. Deem and Ramdas Pophale) SiO2 
 PCOD9230040
Probable space group: P 2/C
;
_chemical_formula_sum "Si O2"
_cell_formula_units_Z 18
_cell_length_a 8.622049
_cell_length_b 4.790693
_cell_length_c 24.059253
_cell_angle_alpha 90.000000
_cell_angle_beta 50.104816
_cell_angle_gamma 90.000000
_cell_volume 762.448218
_symmetry_space_group_name_H-M "P 2/C"
_symmetry_group_IT_number 13
_symmetry_cell_setting 'monoclinic'
loop_
_space_group_symop_operation_xyz
x,y,z
-x,y,1/2-z
-x,-y,-z
x,-y,1/2+z
loop_
_atom_site_type_symbol
_atom_site_label
_atom_site_fract_x
_atom_site_fract_y
_atom_site_fract_z
Si Si1 0.488559 0.496562 0.177483
Si Si2 0.775758 0.280585 0.432284
Si Si3 0.500000 0.013365 0.250000
Si Si4 0.621624 0.788968 0.406184
Si Si5 0.907232 0.249441 0.055134
O O1 0.580852 0.771032 0.188761
O O2 0.366479 0.644920 0.156326
O O3 0.671498 0.312826 0.111153
O O4 0.383861 0.252786 0.239494
O O5 0.739656 0.597661 0.423394
O O6 0.610376 0.209530 0.518458
O O7 0.996056 0.234373 0.405991
O O8 0.714344 0.092557 0.393773
O O9 0.000000 0.500000 0.000000
O O10 0.000000 0.000000 0.000000
#
# Coordination Sequence:
#
# PCOD9230040 Si02
#       5
#     4   4   2   4   4
#     4  11  22  41  63  87 121 165 215 260 301 362
#     4  10  21  34  54  94 128 158 185 236 323 383
#     4  10  24  40  62  86 114 168 228 260 282 352
#     4  10  20  35  59  84 128 162 193 238 301 384
#     4  12  23  36  60  95 130 157 189 260 327 371
#
# _framework density 23.608163000000001
#
# number of rings (size 3 to 8) (size 9 to 14) (size 15 to 20)
#    0.000    1.333    2.222    4.000    6.222    0.000 
#    0.000    0.000    0.000   20.000    0.000    0.000 
#    0.000    0.000    0.000    0.000    0.000    0.000 
#
# Total GULP energy -100290.790653 kJ/mol
# GULP energy per Si atom -5571.710592 kJ/mol
# Density = 2.355443 g / cm^3
# Si number density = 23.608163 Si / 1000 Ang^3
#
#
#
# Elastic Constant Matrix: (Units=GPa)
#
#
# Indices 1 2 3 4 5 6 
#
# 1 60.9667 1.1353 9.5736 0.0000 13.2859 0.0000
# 2 1.1353 172.1834 29.5732 0.0000 8.4788 0.0000
# 3 9.5736 29.5732 64.2481 0.0000 11.4178 0.0000
# 4 0.0000 0.0000 0.0000 48.8936 0.0000 20.8367
# 5 13.2859 8.4788 11.4178 0.0000 18.0555 0.0000
# 6 0.0000 0.0000 0.0000 20.8367 0.0000 27.7166
#
#
#
# Elastic Compliance Matrix: (Units=1/GPa)
#
#
# Indices 1 2 3 4 5 6 
#
# 1 0.019620 0.000696 -0.000699 0.000000 -0.014322 0.000000
# 2 0.000696 0.006357 -0.002713 0.000000 -0.001782 0.000000
# 3 -0.000699 -0.002713 0.018702 0.000000 -0.010038 0.000000
# 4 0.000000 0.000000 0.000000 0.030094 0.000000 -0.022624
# 5 -0.014322 -0.001782 -0.010038 0.000000 0.073108 0.000000
# 6 0.000000 0.000000 0.000000 -0.022624 0.000000 0.053088
#
#
# Mechanical properties :
#
#
# Convention : Reuss Voigt Hill
#
# Bulk Modulus (GPa) = 25.47970 41.99583 33.73777
# Shear Modulus (GPa) = 22.78084 36.07423 29.42754
#
# Velocity S-wave (km/s) = 3.10974 3.91326 3.53441
# Velocity P-wave (km/s) = 4.86931 6.18429 5.56577
#
# Compressibility (1/GPa) = 0.03924693
#
# Stress axis : x y z
#
# Youngs Moduli (GPa) = 50.96770 157.30946 53.47150
#
# Poissons Ratio (x) = -0.10947 0.03736
# Poissons Ratio (y) = -0.03547 0.14508
# Poissons Ratio (z) = 0.03561 0.42680
#
# Static dielectric constant tensor:
#      x y z
#    x 1.928740 0.000000 0.076050 
#    y 0.000000 1.851480 0.000000 
#    z 0.076050 0.000000 2.002990 
# 
# From -- ./inp_files/83982.got.cif
#   From: 2010.05.17/outbox.cif.g08.bks.cpg/sg13_42_cif.got.tgz:83982.got - 2010.06.03 16:44:36.
