data_PCOD9230544
_publ_section_title
;
Structure prediction by ZEFSAII (Michael W. Deem and Ramdas Pophale) SiO2 
 PCOD9230544
Probable space group: P 2/C
;
_chemical_formula_sum "Si O2"
_cell_formula_units_Z 26
_cell_length_a 10.874204
_cell_length_b 11.174764
_cell_length_c 10.832329
_cell_angle_alpha 90.000000
_cell_angle_beta 108.766086
_cell_angle_gamma 90.000000
_cell_volume 1246.333317
_symmetry_space_group_name_H-M "P 2/C"
_symmetry_group_IT_number 13
_symmetry_cell_setting 'monoclinic'
loop_
_space_group_symop_operation_xyz
x,y,z
-x,y,1/2-z
-x,-y,-z
x,-y,1/2+z
loop_
_atom_site_type_symbol
_atom_site_label
_atom_site_fract_x
_atom_site_fract_y
_atom_site_fract_z
Si Si1 0.846471 0.385032 0.720470
Si Si2 0.151007 0.347702 0.253066
Si Si3 0.814432 0.218371 0.494154
Si Si4 0.500000 0.828268 0.250000
Si Si5 0.696408 0.037721 0.633228
Si Si6 0.298196 0.198317 0.490742
Si Si7 0.889414 0.856722 0.369602
O O1 0.809586 0.514304 0.758822
O O2 0.793393 0.336357 0.573079
O O3 0.833167 0.271630 0.805223
O O4 0.000000 0.396042 0.750000
O O5 0.237463 0.303984 0.394166
O O6 0.000000 0.340262 0.250000
O O7 0.178248 0.263580 0.143680
O O8 0.714796 0.120914 0.517308
O O9 0.957291 0.161787 0.570134
O O10 0.405290 0.906571 0.304269
O O11 0.592350 0.762401 0.377316
O O12 0.832699 0.047014 0.754850
O O13 0.652228 0.906078 0.582916
O O14 0.179687 0.129700 0.522168
#
# Coordination Sequence:
#
# PCOD9230544 Si02
#       7
#     4   4   4   2   4   4   4
#     4   8  18  33  56  84 123 165 193 225 278 352
#     4  11  22  33  58  97 126 152 193 238 287 354
#     4  10  20  37  57  91 129 155 188 232 301 357
#     4  10  24  46  62  76 112 160 212 248 282 346
#     4  10  22  39  62  85 109 158 201 245 293 345
#     4  11  23  38  60  86 115 156 201 243 293 344
#     4   9  19  37  58  87 127 159 185 231 299 357
#
# _framework density 20.861191999999999
#
# number of rings (size 3 to 8) (size 9 to 14) (size 15 to 20)
#    0.000    2.154    1.538    1.846    6.462    3.692 
#    0.000    0.000    0.000    8.308    0.000    0.000 
#    0.000    0.000    0.000    0.000    0.000    0.000 
#
# Total GULP energy -144944.793592 kJ/mol
# GULP energy per Si atom -5574.799754 kJ/mol
# Density = 2.081371 g / cm^3
# Si number density = 20.861192 Si / 1000 Ang^3
#
#
#
# Elastic Constant Matrix: (Units=GPa)
#
#
# Indices 1 2 3 4 5 6 
#
# 1 61.3371 3.1289 20.1981 0.0000 -2.3564 0.0000
# 2 3.1289 65.9841 23.7707 0.0000 10.4360 0.0000
# 3 20.1981 23.7707 78.8602 0.0000 14.6394 0.0000
# 4 0.0000 0.0000 0.0000 -0.1093 0.0000 -0.4387
# 5 -2.3564 10.4360 14.6394 0.0000 35.0456 0.0000
# 6 0.0000 0.0000 0.0000 -0.4387 0.0000 11.2275
#
#
#
# Elastic Compliance Matrix: (Units=1/GPa)
#
#
# Indices 1 2 3 4 5 6 
#
# 1 0.018197 0.000575 -0.005452 0.000000 0.003330 0.000000
# 2 0.000575 0.017350 -0.004797 0.000000 -0.003124 0.000000
# 3 -0.005452 -0.004797 0.016614 0.000000 -0.005878 0.000000
# 4 0.000000 0.000000 0.000000 -7.906466 0.000000 -0.308944
# 5 0.003330 -0.003124 -0.005878 0.000000 0.032144 0.000000
# 6 0.000000 0.000000 0.000000 -0.308944 0.000000 0.076995
#
#
# Mechanical properties :
#
#
# Convention : Reuss Voigt Hill
#
# Bulk Modulus (GPa) = 30.47614 33.37519 31.92567
# Shear Modulus (GPa) = -0.64810 19.83833 9.59512
#
# Velocity S-wave (km/s) = -0.55798 3.08712 2.14697
# Velocity P-wave (km/s) = 3.77168 5.36102 4.63498
#
# Compressibility (1/GPa) = 0.03281255
#
# Stress axis : x y z
#
# Youngs Moduli (GPa) = 54.95316 57.63635 60.18911
#
# Poissons Ratio (x) = -0.03312 0.32816
# Poissons Ratio (y) = -0.03158 0.28873
# Poissons Ratio (z) = 0.29961 0.27648
#
# Static dielectric constant tensor:
#      x y z
#    x 1.807690 0.000000 -0.009270 
#    y 0.000000 1.755680 0.000000 
#    z -0.009270 0.000000 1.807880 
# 
# From -- ./inp_files/33324.got.cif
#   From: 2010.05.17/outbox.cif.g08.bks.cpg/sg13_17_cif.got.tgz:33324.got - 2010.06.03 16:44:36.
