data_PCOD9230399
_publ_section_title
;
Structure prediction by ZEFSAII (Michael W. Deem and Ramdas Pophale) SiO2 
 PCOD9230399
Probable space group: P 2/C
;
_chemical_formula_sum "Si O2"
_cell_formula_units_Z 18
_cell_length_a 6.522754
_cell_length_b 10.802015
_cell_length_c 13.764374
_cell_angle_alpha 90.000000
_cell_angle_beta 84.943456
_cell_angle_gamma 90.000000
_cell_volume 966.048112
_symmetry_space_group_name_H-M "P 2/C"
_symmetry_group_IT_number 13
_symmetry_cell_setting 'monoclinic'
loop_
_space_group_symop_operation_xyz
x,y,z
-x,y,1/2-z
-x,-y,-z
x,-y,1/2+z
loop_
_atom_site_type_symbol
_atom_site_label
_atom_site_fract_x
_atom_site_fract_y
_atom_site_fract_z
Si Si1 0.500000 0.687113 0.750000
Si Si2 0.400180 0.141001 0.086764
Si Si3 0.818087 0.085435 0.965800
Si Si4 0.878182 0.457301 0.153406
Si Si5 0.100652 0.697241 0.473742
O O1 0.620915 0.775726 0.818160
O O2 0.340416 0.604719 0.815818
O O3 0.295737 0.006677 0.103629
O O4 0.638444 0.118853 0.049955
O O5 0.287665 0.217052 0.004618
O O6 0.929362 0.212433 0.933788
O O7 0.000000 0.000000 0.000000
O O8 0.845152 0.589204 0.103139
O O9 0.000000 0.468401 0.250000
O O10 0.002658 0.370444 0.072435
#
# Coordination Sequence:
#
# PCOD9230399 Si02
#       5
#     2   4   4   4   4
#     4  12  22  36  60  96 120 158 214 252 300 368
#     4  10  20  36  62  89 118 155 205 251 299 365
#     4   9  19  38  60  85 114 157 198 246 310 361
#     4  11  23  38  59  90 122 160 204 254 302 367
#     4  10  21  39  62  85 123 162 198 250 311 360
#
# _framework density 18.632612000000002
#
# number of rings (size 3 to 8) (size 9 to 14) (size 15 to 20)
#    0.000    1.778    4.444    0.000    0.000    2.667 
#    0.000    6.667    0.000    0.000    0.000    0.000 
#    0.000    0.000    0.000    0.000    0.000    0.000 
#
# Total GULP energy -100339.255652 kJ/mol
# GULP energy per Si atom -5574.403092 kJ/mol
# Density = 1.859020 g / cm^3
# Si number density = 18.632612 Si / 1000 Ang^3
#
#
#
# Elastic Constant Matrix: (Units=GPa)
#
#
# Indices 1 2 3 4 5 6 
#
# 1 68.0122 34.5360 18.5148 0.0000 -8.0577 0.0000
# 2 34.5360 136.5193 51.2005 0.0000 -4.5403 0.0000
# 3 18.5148 51.2005 65.5255 0.0000 -2.5582 0.0000
# 4 0.0000 0.0000 0.0000 -10.7313 0.0000 5.7044
# 5 -8.0577 -4.5403 -2.5582 0.0000 21.0712 0.0000
# 6 0.0000 0.0000 0.0000 5.7044 0.0000 33.3145
#
#
#
# Elastic Compliance Matrix: (Units=1/GPa)
#
#
# Indices 1 2 3 4 5 6 
#
# 1 0.017733 -0.003535 -0.002023 0.000000 0.005774 0.000000
# 2 -0.003535 0.011099 -0.007670 0.000000 0.000109 0.000000
# 3 -0.002023 -0.007670 0.021835 0.000000 0.000225 0.000000
# 4 0.000000 0.000000 0.000000 -0.085411 0.000000 0.014625
# 5 0.005774 0.000109 0.000225 0.000000 0.049717 0.000000
# 6 0.000000 0.000000 0.000000 0.014625 0.000000 0.027513
#
#
# Mechanical properties :
#
#
# Convention : Reuss Voigt Hill
#
# Bulk Modulus (GPa) = 41.30280 53.17329 47.23804
# Shear Modulus (GPa) = 64.92528 19.78459 42.35493
#
# Velocity S-wave (km/s) = 5.90937 3.26210 4.77294
# Velocity P-wave (km/s) = 8.29312 6.54126 7.46873
#
# Compressibility (1/GPa) = 0.02421143
#
# Stress axis : x y z
#
# Youngs Moduli (GPa) = 56.39137 90.09488 45.79904
#
# Poissons Ratio (x) = 0.31852 0.09264
# Poissons Ratio (y) = 0.19937 0.35126
# Poissons Ratio (z) = 0.11407 0.69100
#
# Static dielectric constant tensor:
#      x y z
#    x 1.659890 0.000000 0.019540 
#    y 0.000000 1.652180 0.000000 
#    z 0.019540 0.000000 1.621830 
# 
# From -- ./inp_files/25692.got.cif
#   From: 2010.05.17/outbox.cif.g08.bks.cpg/sg13_13_cif.got.tgz:25692.got - 2010.06.03 16:44:36.
