data_PCOD9230303
_publ_section_title
;
Structure prediction by ZEFSAII (Michael W. Deem and Ramdas Pophale) SiO2 
 PCOD9230303
Probable space group: P 2/C
;
_chemical_formula_sum "Si O2"
_cell_formula_units_Z 20
_cell_length_a 8.223589
_cell_length_b 8.250642
_cell_length_c 12.593322
_cell_angle_alpha 90.000000
_cell_angle_beta 111.698383
_cell_angle_gamma 90.000000
_cell_volume 793.911349
_symmetry_space_group_name_H-M "P 2/C"
_symmetry_group_IT_number 13
_symmetry_cell_setting 'monoclinic'
loop_
_space_group_symop_operation_xyz
x,y,z
-x,y,1/2-z
-x,-y,-z
x,-y,1/2+z
loop_
_atom_site_type_symbol
_atom_site_label
_atom_site_fract_x
_atom_site_fract_y
_atom_site_fract_z
Si Si1 0.333414 0.003596 0.117941
Si Si2 0.500000 0.280984 0.750000
Si Si3 0.929516 0.245643 0.524031
Si Si4 0.665640 0.168282 0.113044
Si Si5 0.273830 0.429390 0.517016
Si Si6 0.000000 0.964381 0.250000
O O1 0.498216 0.123844 0.142153
O O2 0.349288 0.860711 0.210148
O O3 0.158695 0.109030 0.071248
O O4 0.348661 0.908527 0.008810
O O5 0.432351 0.391416 0.637283
O O6 0.784467 0.385444 0.503522
O O7 0.100044 0.331948 0.516290
O O8 0.970536 0.156489 0.643662
O O9 0.835371 0.086627 0.203482
O O10 0.684631 0.356128 0.088536
#
# Coordination Sequence:
#
# PCOD9230303 Si02
#       6
#     4   2   4   4   4   2
#     4   9  19  35  56  82 110 145 190 235 281 336
#     4  10  20  36  60  84 114 154 194 238 284 334
#     4  10  22  39  59  86 118 151 190 236 286 341
#     4   9  19  35  56  82 110 145 190 235 281 336
#     4  10  22  39  59  86 118 151 190 236 286 341
#     4  10  20  36  60  84 114 154 194 238 284 334
#
# _framework density 25.191731000000001
#
# number of rings (size 3 to 8) (size 9 to 14) (size 15 to 20)
#    0.000    2.400    0.000    1.200    0.000   12.800 
#    0.000    4.000    0.000    0.000    0.000    0.000 
#    0.000    0.000    0.000    0.000    0.000    0.000 
#
# Total GULP energy -111674.129654 kJ/mol
# GULP energy per Si atom -5583.706483 kJ/mol
# Density = 2.513439 g / cm^3
# Si number density = 25.191731 Si / 1000 Ang^3
#
#
#
# Elastic Constant Matrix: (Units=GPa)
#
#
# Indices 1 2 3 4 5 6 
#
# 1 77.3369 52.9991 65.0980 0.0000 12.8569 0.0000
# 2 52.9991 152.4808 82.0763 0.0000 14.1883 0.0000
# 3 65.0980 82.0763 167.1399 0.0000 17.6867 0.0000
# 4 0.0000 0.0000 0.0000 20.5109 0.0000 13.0288
# 5 12.8569 14.1883 17.6867 0.0000 39.7563 0.0000
# 6 0.0000 0.0000 0.0000 13.0288 0.0000 49.6595
#
#
#
# Elastic Compliance Matrix: (Units=1/GPa)
#
#
# Indices 1 2 3 4 5 6 
#
# 1 0.021101 -0.003820 -0.006049 0.000000 -0.002769 0.000000
# 2 -0.003820 0.009670 -0.003176 0.000000 -0.000803 0.000000
# 3 -0.006049 -0.003176 0.010045 0.000000 -0.001379 0.000000
# 4 0.000000 0.000000 0.000000 0.058505 0.000000 -0.015349
# 5 -0.002769 -0.000803 -0.001379 0.000000 0.026949 0.000000
# 6 0.000000 0.000000 0.000000 -0.015349 0.000000 0.024164
#
#
# Mechanical properties :
#
#
# Convention : Reuss Voigt Hill
#
# Bulk Modulus (GPa) = 67.91300 88.58939 78.25119
# Shear Modulus (GPa) = 27.55842 35.10428 31.33135
#
# Velocity S-wave (km/s) = 3.31108 3.73699 3.53046
# Velocity P-wave (km/s) = 6.45249 7.33911 6.91003
#
# Compressibility (1/GPa) = 0.01472472
#
# Stress axis : x y z
#
# Youngs Moduli (GPa) = 47.39123 103.41032 99.55639
#
# Poissons Ratio (x) = 0.39506 0.60225
# Poissons Ratio (y) = 0.18105 0.31617
# Poissons Ratio (z) = 0.28669 0.32841
#
# Static dielectric constant tensor:
#      x y z
#    x 2.115700 0.000000 0.012760 
#    y 0.000000 2.003800 0.000000 
#    z 0.012760 0.000000 2.088830 
# 
# From -- ./inp_files/63971.got.cif
#   From: 2010.05.17/outbox.cif.g08.bks.cpg/sg13_32_cif.got.tgz:63971.got - 2010.06.03 16:44:36.
