data_PCOD9230059
_publ_section_title
;
Structure prediction by ZEFSAII (Michael W. Deem and Ramdas Pophale) SiO2 
 PCOD9230059
Probable space group: P 2/C
;
_chemical_formula_sum "Si O2"
_cell_formula_units_Z 18
_cell_length_a 11.181200
_cell_length_b 15.638656
_cell_length_c 5.329476
_cell_angle_alpha 90.000000
_cell_angle_beta 99.708005
_cell_angle_gamma 90.000000
_cell_volume 918.561550
_symmetry_space_group_name_H-M "P 2/C"
_symmetry_group_IT_number 13
_symmetry_cell_setting 'monoclinic'
loop_
_space_group_symop_operation_xyz
x,y,z
-x,y,1/2-z
-x,-y,-z
x,-y,1/2+z
loop_
_atom_site_type_symbol
_atom_site_label
_atom_site_fract_x
_atom_site_fract_y
_atom_site_fract_z
Si Si1 0.000000 0.675181 0.750000
Si Si2 0.054168 0.096401 0.017433
Si Si3 0.643939 0.290714 0.824081
Si Si4 0.236584 0.221362 0.144495
Si Si5 0.177971 0.444151 0.583611
O O1 0.886301 0.724081 0.840771
O O2 0.936110 0.616836 0.516154
O O3 0.193698 0.122854 0.082172
O O4 0.000000 0.132855 0.250000
O O5 0.000000 0.137636 0.750000
O O6 0.000000 0.000000 0.000000
O O7 0.500000 0.295024 0.750000
O O8 0.700551 0.255068 0.584892
O O9 0.704378 0.383187 0.890923
O O10 0.683318 0.233676 0.078320
O O11 0.177234 0.511093 0.353223
#
# Coordination Sequence:
#
# PCOD9230059 Si02
#       5
#     2   4   4   4   4
#     4  10  22  36  60  88 126 146 202 244 334 372
#     4  10  20  35  59  97 133 153 181 233 308 364
#     4  11  25  42  60  86 118 168 217 251 292 348
#     4  11  22  38  63  91 127 156 197 255 297 366
#     4  11  23  38  57  83 117 159 198 258 316 365
#
# _framework density 19.595858
#
# number of rings (size 3 to 8) (size 9 to 14) (size 15 to 20)
#    0.000    1.333    1.111    5.333    3.111    4.444 
#    0.000    0.000    0.000    0.000    0.000   62.222 
#    0.000    0.000    0.000    0.000    0.000    0.000 
#
# Total GULP energy -100345.569795 kJ/mol
# GULP energy per Si atom -5574.753878 kJ/mol
# Density = 1.955126 g / cm^3
# Si number density = 19.595858 Si / 1000 Ang^3
#
#
#
# Elastic Constant Matrix: (Units=GPa)
#
#
# Indices 1 2 3 4 5 6 
#
# 1 141.8481 57.3232 62.4472 0.0000 21.1707 0.0000
# 2 57.3232 74.9875 31.6026 0.0000 8.0753 0.0000
# 3 62.4472 31.6026 166.3491 0.0000 -3.0018 0.0000
# 4 0.0000 0.0000 0.0000 83.7047 0.0000 18.5728
# 5 21.1707 8.0753 -3.0018 0.0000 40.0535 0.0000
# 6 0.0000 0.0000 0.0000 18.5728 0.0000 13.8270
#
#
#
# Elastic Compliance Matrix: (Units=1/GPa)
#
#
# Indices 1 2 3 4 5 6 
#
# 1 0.012290 -0.007442 -0.003294 0.000000 -0.005243 0.000000
# 2 -0.007442 0.019406 -0.000894 0.000000 -0.000046 0.000000
# 3 -0.003294 -0.000894 0.007463 0.000000 0.002481 0.000000
# 4 0.000000 0.000000 0.000000 0.017019 0.000000 -0.022861
# 5 -0.005243 -0.000046 0.002481 0.000000 0.027933 0.000000
# 6 0.000000 0.000000 0.000000 -0.022861 0.000000 0.103030
#
#
# Mechanical properties :
#
#
# Convention : Reuss Voigt Hill
#
# Bulk Modulus (GPa) = 62.89958 76.21452 69.55705
# Shear Modulus (GPa) = 23.18030 42.97115 33.07573
#
# Velocity S-wave (km/s) = 3.44309 4.68789 4.11286
# Velocity P-wave (km/s) = 6.92637 8.26313 7.62410
#
# Compressibility (1/GPa) = 0.01589836
#
# Stress axis : x y z
#
# Youngs Moduli (GPa) = 81.36694 51.53020 133.99860
#
# Poissons Ratio (x) = 0.38349 0.44145
# Poissons Ratio (y) = 0.60553 0.11977
# Poissons Ratio (z) = 0.26806 0.04606
#
# Static dielectric constant tensor:
#      x y z
#    x 1.674350 0.000000 -0.000300 
#    y 0.000000 1.441620 0.000000 
#    z -0.000300 0.000000 1.714700 
# 
# From -- ./inp_files/1643.got.cif
#   From: 2010.05.17/outbox.cif.g08.bks.cpg/sg13_1_cif.got.tgz:1643.got - 2010.06.03 16:44:36.
