data_PCOD9230000
_publ_section_title
;
Structure prediction by ZEFSAII (Michael W. Deem and Ramdas Pophale) SiO2 
 PCOD9230000
Probable space group: P 2/C
;
_chemical_formula_sum "Si O2"
_cell_formula_units_Z 12
_cell_length_a 17.233627
_cell_length_b 5.793569
_cell_length_c 13.039330
_cell_angle_alpha 90.000000
_cell_angle_beta 156.525114
_cell_angle_gamma 90.000000
_cell_volume 518.608665
_symmetry_space_group_name_H-M "P 2/C"
_symmetry_group_IT_number 13
_symmetry_cell_setting 'monoclinic'
loop_
_space_group_symop_operation_xyz
x,y,z
-x,y,1/2-z
-x,-y,-z
x,-y,1/2+z
loop_
_atom_site_type_symbol
_atom_site_label
_atom_site_fract_x
_atom_site_fract_y
_atom_site_fract_z
Si Si1 0.943838 0.307633 0.348415
Si Si2 0.278752 0.428212 0.623462
Si Si3 0.348673 0.184163 0.358029
O O1 0.741561 0.322592 0.347517
O O2 0.814552 0.124647 0.255322
O O3 0.000000 0.500000 0.500000
O O4 0.807075 0.412063 0.093401
O O5 0.143244 0.256664 0.528822
O O6 0.504086 0.362013 0.905346
O O7 0.500000 0.000000 0.500000
#
# Coordination Sequence:
#
# PCOD9230000 Si02
#       3
#     4   4   4
#     4   9  18  36  58  79 111 150 186 230 284 339
#     4   9  19  37  57  80 113 149 185 232 288 342
#     4  10  20  35  57  85 112 145 190 236 284 339
#
# _framework density 23.138836000000001
#
# number of rings (size 3 to 8) (size 9 to 14) (size 15 to 20)
#    0.000    2.667    0.000    1.000    0.000    1.333 
#    0.000   33.333    0.000    0.000    0.000    0.000 
#    0.000    0.000    0.000    0.000    0.000    0.000 
#
# Total GULP energy -66902.656938 kJ/mol
# GULP energy per Si atom -5575.221411 kJ/mol
# Density = 2.308617 g / cm^3
# Si number density = 23.138836 Si / 1000 Ang^3
#
#
#
# Elastic Constant Matrix: (Units=GPa)
#
#
# Indices 1 2 3 4 5 6 
#
# 1 192.6354 42.1420 59.6863 0.0000 7.2808 0.0000
# 2 42.1420 38.1299 9.8866 0.0000 -1.5561 0.0000
# 3 59.6863 9.8866 117.7544 0.0000 -20.1771 0.0000
# 4 0.0000 0.0000 0.0000 25.0538 0.0000 15.0738
# 5 7.2808 -1.5561 -20.1771 0.0000 49.3399 0.0000
# 6 0.0000 0.0000 0.0000 15.0738 0.0000 31.8155
#
#
#
# Elastic Compliance Matrix: (Units=1/GPa)
#
#
# Indices 1 2 3 4 5 6 
#
# 1 0.008414 -0.008365 -0.004109 0.000000 -0.003186 0.000000
# 2 -0.008365 0.035125 0.001819 0.000000 0.003086 0.000000
# 3 -0.004109 0.001819 0.011330 0.000000 0.005297 0.000000
# 4 0.000000 0.000000 0.000000 0.055828 0.000000 -0.026451
# 5 -0.003186 0.003086 0.005297 0.000000 0.023001 0.000000
# 6 0.000000 0.000000 0.000000 -0.026451 0.000000 0.043963
#
#
# Mechanical properties :
#
#
# Convention : Reuss Voigt Hill
#
# Bulk Modulus (GPa) = 29.79592 63.54996 46.67294
# Shear Modulus (GPa) = 23.79183 37.02885 30.41034
#
# Velocity S-wave (km/s) = 3.21007 4.00470 3.62920
# Velocity P-wave (km/s) = 5.16182 6.99341 6.14622
#
# Compressibility (1/GPa) = 0.03356164
#
# Stress axis : x y z
#
# Youngs Moduli (GPa) = 118.84336 28.46983 88.26416
#
# Poissons Ratio (x) = 0.23814 0.36264
# Poissons Ratio (y) = 0.99407 -0.16059
# Poissons Ratio (z) = 0.48828 -0.05180
#
# Static dielectric constant tensor:
#      x y z
#    x 1.911190 0.000000 0.051630 
#    y 0.000000 1.992040 0.000000 
#    z 0.051630 0.000000 1.837750 
# 
# From -- ./inp_files/10564.got.cif
#   From: 2010.05.17/outbox.cif.g08.bks.cpg/sg13_6_cif.got.tgz:10564.got - 2010.06.03 16:44:36.
