data_PCOD9230370
_publ_section_title
;
Structure prediction by ZEFSAII (Michael W. Deem and Ramdas Pophale) SiO2 
 PCOD9230370
Probable space group: P 2/C
;
_chemical_formula_sum "Si O2"
_cell_formula_units_Z 32
_cell_length_a 14.464041
_cell_length_b 19.079919
_cell_length_c 5.172750
_cell_angle_alpha 90.000000
_cell_angle_beta 73.049412
_cell_angle_gamma 90.000000
_cell_volume 1365.520758
_symmetry_space_group_name_H-M "P 2/C"
_symmetry_group_IT_number 13
_symmetry_cell_setting 'monoclinic'
loop_
_space_group_symop_operation_xyz
x,y,z
-x,y,1/2-z
-x,-y,-z
x,-y,1/2+z
loop_
_atom_site_type_symbol
_atom_site_label
_atom_site_fract_x
_atom_site_fract_y
_atom_site_fract_z
Si Si1 0.096926 0.757802 0.775556
Si Si2 0.742762 0.334716 0.301587
Si Si3 0.766805 0.540449 0.121753
Si Si4 0.242762 0.834717 0.301587
Si Si5 0.903470 0.093520 0.963909
Si Si6 0.596926 0.742198 0.275556
Si Si7 0.266805 0.040449 0.121754
Si Si8 0.403470 0.593520 0.963909
O O1 0.167314 0.708320 0.884513
O O2 0.163972 0.782177 0.482887
O O3 0.000000 0.723441 0.750000
O O4 0.069965 0.830686 0.935938
O O5 0.785354 0.381483 0.502609
O O6 0.663972 0.282177 0.482888
O O7 0.682691 0.386043 0.165255
O O8 0.802441 0.509124 0.361374
O O9 0.649971 0.546486 0.275576
O O10 0.182691 0.886043 0.165255
O O11 0.332686 0.791681 0.115486
O O12 0.285353 0.881484 0.502609
O O13 0.000000 0.066642 0.750000
O O14 0.850029 0.046485 0.224424
O O15 0.500000 0.776559 0.250000
O O16 0.569964 0.669315 0.435939
O O17 0.302441 0.009124 0.361375
O O18 0.500000 0.566642 0.750000
#
# Coordination Sequence:
#
# PCOD9230370 Si02
#       8
#     4   4   4   4   4   4   4   4
#     4  10  20  36  61  91 122 155 197 249 305 363
#     4  10  21  38  59  89 121 161 196 248 302 357
#     4  11  23  41  60  86 122 165 207 246 294 355
#     4  10  21  38  59  89 121 161 196 248 302 357
#     4  11  21  36  59  89 128 157 196 246 304 365
#     4  10  20  36  61  91 122 155 197 249 305 363
#     4  11  23  41  60  86 122 165 207 246 294 355
#     4  11  21  36  59  89 128 157 196 246 304 365
#
# _framework density 23.434284999999999
#
# number of rings (size 3 to 8) (size 9 to 14) (size 15 to 20)
#    0.000    1.500    5.000    0.750    0.000    1.000 
#    0.000    0.000    0.000    1.500    0.000    0.000 
#    0.000    0.000    0.000    0.000    0.000    0.000 
#
# Total GULP energy -178536.005663 kJ/mol
# GULP energy per Si atom -5579.250177 kJ/mol
# Density = 2.338095 g / cm^3
# Si number density = 23.434285 Si / 1000 Ang^3
#
#
#
# Elastic Constant Matrix: (Units=GPa)
#
#
# Indices 1 2 3 4 5 6 
#
# 1 79.5495 15.9607 11.4585 0.0000 6.4283 0.0000
# 2 15.9607 53.1201 14.2092 0.0000 6.4909 0.0000
# 3 11.4585 14.2092 87.4156 0.0000 20.4294 0.0000
# 4 0.0000 0.0000 0.0000 26.6116 0.0000 4.0085
# 5 6.4283 6.4909 20.4294 0.0000 22.2208 0.0000
# 6 0.0000 0.0000 0.0000 4.0085 0.0000 23.9508
#
#
#
# Elastic Compliance Matrix: (Units=1/GPa)
#
#
# Indices 1 2 3 4 5 6 
#
# 1 0.013576 -0.003626 -0.000662 0.000000 -0.002260 0.000000
# 2 -0.003626 0.020875 -0.002214 0.000000 -0.003014 0.000000
# 3 -0.000662 -0.002214 0.014890 0.000000 -0.012851 0.000000
# 4 0.000000 0.000000 0.000000 0.038549 0.000000 -0.006452
# 5 -0.002260 -0.003014 -0.012851 0.000000 0.058352 0.000000
# 6 0.000000 0.000000 0.000000 -0.006452 0.000000 0.042832
#
#
# Mechanical properties :
#
#
# Convention : Reuss Voigt Hill
#
# Bulk Modulus (GPa) = 27.51970 33.70466 30.61218
# Shear Modulus (GPa) = 23.34374 26.45376 24.89875
#
# Velocity S-wave (km/s) = 3.15959 3.36348 3.26313
# Velocity P-wave (km/s) = 5.00794 5.43119 5.22386
#
# Compressibility (1/GPa) = 0.03633760
#
# Stress axis : x y z
#
# Youngs Moduli (GPa) = 73.65798 47.90391 67.16112
#
# Poissons Ratio (x) = 0.17370 0.04447
# Poissons Ratio (y) = 0.26708 0.14867
# Poissons Ratio (z) = 0.04877 0.10604
#
# Static dielectric constant tensor:
#      x y z
#    x 1.909740 0.000000 0.096860 
#    y 0.000000 1.973950 0.000000 
#    z 0.096860 0.000000 1.946080 
# 
# From -- ./inp_files/5555.got.cif
#   From: 2010.05.17/outbox.cif.g08.bks.cpg/sg13_3_cif.got.tgz:5555.got - 2010.06.03 16:44:36.
