data_PCOD9230345
_publ_section_title
;
Structure prediction by ZEFSAII (Michael W. Deem and Ramdas Pophale) SiO2 
 PCOD9230345
Probable space group: P 2/C
;
_chemical_formula_sum "Si O2"
_cell_formula_units_Z 30
_cell_length_a 9.679536
_cell_length_b 9.014481
_cell_length_c 25.263808
_cell_angle_alpha 90.000000
_cell_angle_beta 38.544553
_cell_angle_gamma 90.000000
_cell_volume 1373.623975
_symmetry_space_group_name_H-M "P 2/C"
_symmetry_group_IT_number 13
_symmetry_cell_setting 'monoclinic'
loop_
_space_group_symop_operation_xyz
x,y,z
-x,y,1/2-z
-x,-y,-z
x,-y,1/2+z
loop_
_atom_site_type_symbol
_atom_site_label
_atom_site_fract_x
_atom_site_fract_y
_atom_site_fract_z
Si Si1 0.343449 0.615358 0.664264
Si Si2 0.336066 0.826207 0.994260
Si Si3 0.500000 0.006779 0.750000
Si Si4 0.162278 0.768051 0.814271
Si Si5 0.129947 0.197717 0.923909
Si Si6 0.679380 0.511150 0.654036
Si Si7 0.262715 0.854096 0.501947
Si Si8 0.612590 0.378812 0.928119
O O1 0.460547 0.736001 0.591814
O O2 0.166830 0.685213 0.757054
O O3 0.542382 0.566010 0.644504
O O4 0.265879 0.475855 0.652671
O O5 0.273945 0.741109 0.067359
O O6 0.113615 0.826606 0.025955
O O7 0.396814 0.998576 0.975766
O O8 0.354093 0.893071 0.758131
O O9 0.321320 0.107236 0.834804
O O10 0.209806 0.647762 0.847099
O O11 0.929141 0.839470 0.897353
O O12 0.168651 0.374405 0.907375
O O13 0.848145 0.854103 0.022367
O O14 0.500000 0.451061 0.750000
O O15 0.420176 0.712629 0.457030
O O16 0.500000 0.500000 0.000000
#
# Coordination Sequence:
#
# PCOD9230345 Si02
#       8
#     4   4   2   4   4   4   4   4
#     4  10  20  43  64  92 131 179 219 270 332 394
#     4  11  24  41  66 100 133 173 221 274 336 400
#     4  12  22  40  60 104 146 162 214 286 344 396
#     4  11  23  38  66  98 134 171 219 280 337 398
#     4  12  24  37  68 101 134 172 223 275 340 399
#     4  10  20  36  60  93 128 168 211 271 329 382
#     4  12  24  41  69  99 131 178 223 273 342 399
#     4  10  24  44  67  91 131 178 223 275 323 394
#
# _framework density 21.840039000000001
#
# number of rings (size 3 to 8) (size 9 to 14) (size 15 to 20)
#    0.000    1.067    5.333    2.400    3.733    1.067 
#    0.000    2.667    2.933    0.000    0.000    0.000 
#    0.000    0.000    0.000    0.000    0.000    0.000 
#
# Total GULP energy -167687.449448 kJ/mol
# GULP energy per Si atom -5589.581648 kJ/mol
# Density = 2.179033 g / cm^3
# Si number density = 21.840039 Si / 1000 Ang^3
#
#
#
# Elastic Constant Matrix: (Units=GPa)
#
#
# Indices 1 2 3 4 5 6 
#
# 1 82.6127 15.7210 16.2810 0.0000 19.4381 0.0000
# 2 15.7210 102.6987 27.1902 0.0000 9.6844 0.0000
# 3 16.2810 27.1902 69.3164 0.0000 14.3090 0.0000
# 4 0.0000 0.0000 0.0000 26.6198 0.0000 10.9141
# 5 19.4381 9.6844 14.3090 0.0000 30.1564 0.0000
# 6 0.0000 0.0000 0.0000 10.9141 0.0000 11.8950
#
#
#
# Elastic Compliance Matrix: (Units=1/GPa)
#
#
# Indices 1 2 3 4 5 6 
#
# 1 0.014543 -0.001102 -0.001243 0.000000 -0.008430 0.000000
# 2 -0.001102 0.011022 -0.003858 0.000000 -0.000998 0.000000
# 3 -0.001243 -0.003858 0.017528 0.000000 -0.006276 0.000000
# 4 0.000000 0.000000 0.000000 0.060220 0.000000 -0.055254
# 5 -0.008430 -0.000998 -0.006276 0.000000 0.041893 0.000000
# 6 0.000000 0.000000 0.000000 -0.055254 0.000000 0.134766
#
#
# Mechanical properties :
#
#
# Convention : Reuss Voigt Hill
#
# Bulk Modulus (GPa) = 32.58949 41.44581 37.01765
# Shear Modulus (GPa) = 16.52303 26.76328 21.64316
#
# Velocity S-wave (km/s) = 2.75353 3.50440 3.15141
# Velocity P-wave (km/s) = 5.00635 5.94917 5.49801
#
# Compressibility (1/GPa) = 0.03068474
#
# Stress axis : x y z
#
# Youngs Moduli (GPa) = 68.76162 90.73085 57.05237
#
# Poissons Ratio (x) = 0.09999 0.07093
# Poissons Ratio (y) = 0.07578 0.22013
# Poissons Ratio (z) = 0.08549 0.35008
#
# Static dielectric constant tensor:
#      x y z
#    x 1.801970 0.000000 0.021260 
#    y 0.000000 1.755110 0.000000 
#    z 0.021260 0.000000 1.739770 
# 
# From -- ./inp_files/96509.got.cif
#   From: 2010.05.17/outbox.cif.g08.bks.cpg/sg13_49_cif.got.tgz:96509.got - 2010.06.03 16:44:36.
