data_PCOD9230434
_publ_section_title
;
Structure prediction by ZEFSAII (Michael W. Deem and Ramdas Pophale) SiO2 
 PCOD9230434
Probable space group: P 2/C
;
_chemical_formula_sum "Si O2"
_cell_formula_units_Z 32
_cell_length_a 17.226546
_cell_length_b 11.323364
_cell_length_c 17.444802
_cell_angle_alpha 90.000000
_cell_angle_beta 155.408444
_cell_angle_gamma 90.000000
_cell_volume 1416.075042
_symmetry_space_group_name_H-M "P 2/C"
_symmetry_group_IT_number 13
_symmetry_cell_setting 'monoclinic'
loop_
_space_group_symop_operation_xyz
x,y,z
-x,y,1/2-z
-x,-y,-z
x,-y,1/2+z
loop_
_atom_site_type_symbol
_atom_site_label
_atom_site_fract_x
_atom_site_fract_y
_atom_site_fract_z
Si Si1 0.073324 0.754371 0.114372
Si Si2 0.728210 0.586570 0.605509
Si Si3 0.059630 0.982376 0.182422
Si Si4 0.702305 0.604898 0.760995
Si Si5 0.671660 0.348158 0.790861
Si Si6 0.959501 0.224729 0.129829
Si Si7 0.704997 0.095402 0.463868
Si Si8 0.303419 0.332292 0.963510
O O1 0.212666 0.707866 0.175054
O O2 0.150787 0.707569 0.265007
O O3 0.081911 0.894760 0.131770
O O4 0.873272 0.694310 0.922097
O O5 0.699775 0.558053 0.670547
O O6 0.547330 0.660069 0.418595
O O7 0.733914 0.470548 0.557898
O O8 0.912901 0.661555 0.765849
O O9 0.229335 0.959344 0.395223
O O10 0.029924 0.119977 0.138800
O O11 0.867859 0.940774 0.051860
O O12 0.717739 0.488441 0.828412
O O13 0.509045 0.668306 0.609559
O O14 0.751627 0.272779 0.932842
O O15 0.000000 0.175687 0.250000
O O16 0.500000 0.060093 0.250000
O O17 0.704451 0.237696 0.475816
#
# Coordination Sequence:
#
# PCOD9230434 Si02
#       8
#     4   4   4   4   4   4   4   4
#     4  11  19  36  68  94 118 161 206 260 316 353
#     4  11  22  41  63  94 129 161 198 253 313 385
#     4  10  24  43  63  87 123 163 221 266 294 363
#     4  11  19  38  66  98 129 158 193 256 325 377
#     4  11  22  39  68  93 128 165 201 254 324 374
#     4  12  26  47  59  84 126 176 213 247 307 373
#     4  10  20  41  65  87 117 164 203 258 317 355
#     4  10  20  36  63  96 126 151 204 253 310 378
#
# _framework density 22.597670999999998
#
# number of rings (size 3 to 8) (size 9 to 14) (size 15 to 20)
#    0.000    1.250    5.000    2.625    0.000    2.000 
#   11.250    0.625    0.000    0.000    0.000    0.000 
#    0.000    0.000    0.000    0.000    0.000    0.000 
#
# Total GULP energy -178909.719017 kJ/mol
# GULP energy per Si atom -5590.928719 kJ/mol
# Density = 2.254624 g / cm^3
# Si number density = 22.597671 Si / 1000 Ang^3
#
#
#
# Elastic Constant Matrix: (Units=GPa)
#
#
# Indices 1 2 3 4 5 6 
#
# 1 25.2081 -3.0128 7.7333 0.0000 -3.1211 0.0000
# 2 -3.0128 60.7442 31.2805 0.0000 -4.3251 0.0000
# 3 7.7333 31.2805 141.0071 0.0000 -12.7894 0.0000
# 4 0.0000 0.0000 0.0000 22.3881 0.0000 1.4698
# 5 -3.1211 -4.3251 -12.7894 0.0000 22.9437 0.0000
# 6 0.0000 0.0000 0.0000 1.4698 0.0000 20.1085
#
#
#
# Elastic Compliance Matrix: (Units=1/GPa)
#
#
# Indices 1 2 3 4 5 6 
#
# 1 0.041547 0.003786 -0.002676 0.000000 0.004873 0.000000
# 2 0.003786 0.018966 -0.004259 0.000000 0.001716 0.000000
# 3 -0.002676 -0.004259 0.008508 0.000000 0.003575 0.000000
# 4 0.000000 0.000000 0.000000 0.044882 0.000000 -0.003281
# 5 0.004873 0.001716 0.003575 0.000000 0.046564 0.000000
# 6 0.000000 0.000000 0.000000 -0.003281 0.000000 0.049970
#
#
# Mechanical properties :
#
#
# Convention : Reuss Voigt Hill
#
# Bulk Modulus (GPa) = 15.94371 33.21793 24.58082
# Shear Modulus (GPa) = 21.03995 25.81862 23.42928
#
# Velocity S-wave (km/s) = 3.05465 3.38381 3.22343
# Velocity P-wave (km/s) = 4.41723 5.47709 4.97546
#
# Compressibility (1/GPa) = 0.06272064
#
# Stress axis : x y z
#
# Youngs Moduli (GPa) = 24.06929 52.72655 117.53957
#
# Poissons Ratio (x) = -0.19961 0.31458
# Poissons Ratio (y) = -0.09112 0.50063
# Poissons Ratio (z) = 0.06442 0.22458
#
# Static dielectric constant tensor:
#      x y z
#    x 1.863950 0.000000 -0.073000 
#    y 0.000000 1.864810 0.000000 
#    z -0.073000 0.000000 1.828560 
# 
# From -- ./inp_files/81819.got.cif
#   From: 2010.05.17/outbox.cif.g08.bks.cpg/sg13_41_cif.got.tgz:81819.got - 2010.06.03 16:44:36.
