data_PCOD9230910
_publ_section_title
;
Structure prediction by ZEFSAII (Michael W. Deem and Ramdas Pophale) SiO2 
 PCOD9230910
Probable space group: P 2/C
;
_chemical_formula_sum "Si O2"
_cell_formula_units_Z 20
_cell_length_a 12.647005
_cell_length_b 6.060188
_cell_length_c 28.531179
_cell_angle_alpha 90.000000
_cell_angle_beta 27.558727
_cell_angle_gamma 90.000000
_cell_volume 1011.703258
_symmetry_space_group_name_H-M "P 2/C"
_symmetry_group_IT_number 13
_symmetry_cell_setting 'monoclinic'
loop_
_space_group_symop_operation_xyz
x,y,z
-x,y,1/2-z
-x,-y,-z
x,-y,1/2+z
loop_
_atom_site_type_symbol
_atom_site_label
_atom_site_fract_x
_atom_site_fract_y
_atom_site_fract_z
Si Si1 0.307200 0.187135 0.076821
Si Si2 0.500000 0.105727 0.750000
Si Si3 0.664091 0.431985 0.603603
Si Si4 0.000000 0.894272 0.250000
Si Si5 0.885515 0.812865 0.576822
Si Si6 0.578504 0.568015 0.396396
O O1 0.349850 0.349136 0.103862
O O2 0.359246 0.331629 0.010511
O O3 0.076250 0.053765 0.177388
O O4 0.500000 0.000000 0.000000
O O5 0.564254 0.260183 0.680887
O O6 0.714195 0.946233 0.677389
O O7 0.734706 0.650862 0.603861
O O8 0.490764 0.471714 0.629618
O O9 0.901289 0.331628 0.489488
O O10 0.787804 0.739815 0.319112
O O11 0.000000 0.000000 0.500000
#
# Coordination Sequence:
#
# PCOD9230910 Si02
#       6
#     4   2   4   2   4   4
#     4   9  20  38  57  83 118 148 185 236 283 337
#     4  10  20  38  60  86 118 148 188 242 288 336
#     4  10  21  38  60  85 115 153 194 235 283 339
#     4  10  20  38  60  86 118 148 188 242 288 336
#     4   9  20  38  57  83 118 148 185 236 283 337
#     4  10  21  38  60  85 115 153 194 235 283 339
#
# _framework density 19.768640999999999
#
# number of rings (size 3 to 8) (size 9 to 14) (size 15 to 20)
#    0.000    2.400    0.000    1.200    0.000    8.000 
#    0.000   28.000    0.000    0.000    0.000    0.000 
#    0.000    0.000    0.000    0.000    0.000    0.000 
#
# Total GULP energy -111474.339980 kJ/mol
# GULP energy per Si atom -5573.716999 kJ/mol
# Density = 1.972365 g / cm^3
# Si number density = 19.768641 Si / 1000 Ang^3
#
#
#
# Elastic Constant Matrix: (Units=GPa)
#
#
# Indices 1 2 3 4 5 6 
#
# 1 102.2941 37.2634 29.1068 0.0000 1.1452 0.0000
# 2 37.2634 125.6094 51.7830 0.0000 -0.3452 0.0000
# 3 29.1068 51.7830 112.2432 0.0000 -1.3831 0.0000
# 4 0.0000 0.0000 0.0000 48.1536 0.0000 -1.1572
# 5 1.1452 -0.3452 -1.3831 0.0000 12.5075 0.0000
# 6 0.0000 0.0000 0.0000 -1.1572 0.0000 -0.6075
#
#
#
# Elastic Compliance Matrix: (Units=1/GPa)
#
#
# Indices 1 2 3 4 5 6 
#
# 1 0.011236 -0.002629 -0.001717 0.000000 -0.001291 0.000000
# 2 -0.002629 0.010447 -0.004137 0.000000 0.000072 0.000000
# 3 -0.001717 -0.004137 0.011279 0.000000 0.001290 0.000000
# 4 0.000000 0.000000 0.000000 0.019858 0.000000 -0.037828
# 5 -0.001291 0.000072 0.001290 0.000000 0.080215 0.000000
# 6 0.000000 0.000000 0.000000 -0.037828 0.000000 -1.574163
#
#
# Mechanical properties :
#
#
# Convention : Reuss Voigt Hill
#
# Bulk Modulus (GPa) = 62.51427 64.05036 63.28231
# Shear Modulus (GPa) = -3.52403 26.81029 11.64313
#
# Velocity S-wave (km/s) = -1.33660 3.68666 2.42950
# Velocity P-wave (km/s) = 5.41383 7.11283 6.32068
#
# Compressibility (1/GPa) = 0.01599635
#
# Stress axis : x y z
#
# Youngs Moduli (GPa) = 88.99614 95.72277 88.66141
#
# Poissons Ratio (x) = 0.25168 0.15221
# Poissons Ratio (y) = 0.23399 0.36679
# Poissons Ratio (z) = 0.15278 0.39600
#
# Static dielectric constant tensor:
#      x y z
#    x 1.656240 0.000000 -0.002500 
#    y 0.000000 1.693770 0.000000 
#    z -0.002500 0.000000 1.761750 
# 
# From -- ./inp_files/35158.got.cif
#   From: 2010.05.17/outbox.cif.g08.bks.cpg/sg13_18_cif.got.tgz:35158.got - 2010.06.03 16:44:36.
