data_PCOD9230065
_publ_section_title
;
Structure prediction by ZEFSAII (Michael W. Deem and Ramdas Pophale) SiO2 
 PCOD9230065
Probable space group: P 2/C
;
_chemical_formula_sum "Si O2"
_cell_formula_units_Z 32
_cell_length_a 22.380814
_cell_length_b 13.942273
_cell_length_c 15.200601
_cell_angle_alpha 90.000000
_cell_angle_beta 159.797919
_cell_angle_gamma 90.000000
_cell_volume 1637.975502
_symmetry_space_group_name_H-M "P 2/C"
_symmetry_group_IT_number 13
_symmetry_cell_setting 'monoclinic'
loop_
_space_group_symop_operation_xyz
x,y,z
-x,y,1/2-z
-x,-y,-z
x,-y,1/2+z
loop_
_atom_site_type_symbol
_atom_site_label
_atom_site_fract_x
_atom_site_fract_y
_atom_site_fract_z
Si Si1 0.598581 0.777864 0.741363
Si Si2 0.541225 0.293127 0.907453
Si Si3 0.080076 0.174224 0.694469
Si Si4 0.967671 0.539409 0.600002
Si Si5 0.583828 0.604094 0.101094
Si Si6 0.306583 0.112483 0.301665
Si Si7 0.637685 0.933008 0.010575
Si Si8 0.083833 0.361581 0.094365
O O1 0.536511 0.673043 0.625251
O O2 0.627366 0.849613 0.699750
O O3 0.442610 0.829551 0.576659
O O4 0.778739 0.783269 0.042519
O O5 0.500000 0.311473 0.750000
O O6 0.411202 0.337631 0.799344
O O7 0.586291 0.181648 0.984347
O O8 0.724964 0.343299 0.177757
O O9 0.898505 0.134996 0.480207
O O10 0.023382 0.263714 0.556736
O O11 0.179966 0.089381 0.782694
O O12 0.773623 0.583260 0.324842
O O13 0.985767 0.438776 0.572518
O O14 0.000000 0.532582 0.750000
O O15 0.084742 0.604174 0.696863
O O16 0.500000 0.500000 0.000000
O O17 0.340266 0.004391 0.377752
O O18 0.500000 0.974328 0.750000
#
# Coordination Sequence:
#
# PCOD9230065 Si02
#       8
#     4   4   4   4   4   4   4   4
#     4  10  22  37  59  85 121 151 195 247 289 350
#     4  10  20  37  56  81 114 150 192 245 291 359
#     4  10  21  37  60  85 118 152 194 242 297 345
#     4  11  23  38  58  81 115 155 197 247 294 354
#     4  11  22  38  56  86 114 154 201 240 299 349
#     4  10  20  35  60  85 116 150 195 239 296 356
#     4  10  20  37  57  86 116 154 191 240 299 355
#     4  10  22  38  56  84 113 153 198 243 300 346
#
# _framework density 19.536311000000001
#
# number of rings (size 3 to 8) (size 9 to 14) (size 15 to 20)
#    0.000    1.750    1.250    3.000    1.750    0.000 
#    0.000    0.625    0.000   10.500    0.000    0.000 
#    0.000    0.000    0.000    0.000    0.000    0.000 
#
# Total GULP energy -178304.274255 kJ/mol
# GULP energy per Si atom -5572.008570 kJ/mol
# Density = 1.949185 g / cm^3
# Si number density = 19.536311 Si / 1000 Ang^3
#
#
#
# Elastic Constant Matrix: (Units=GPa)
#
#
# Indices 1 2 3 4 5 6 
#
# 1 60.4849 16.5519 1.7296 0.0000 5.3923 0.0000
# 2 16.5519 67.3529 18.5480 0.0000 -2.7485 0.0000
# 3 1.7296 18.5480 45.1743 0.0000 5.2514 0.0000
# 4 0.0000 0.0000 0.0000 10.7977 0.0000 -1.0877
# 5 5.3923 -2.7485 5.2514 0.0000 39.2353 0.0000
# 6 0.0000 0.0000 0.0000 -1.0877 0.0000 22.2877
#
#
#
# Elastic Compliance Matrix: (Units=1/GPa)
#
#
# Indices 1 2 3 4 5 6 
#
# 1 0.018144 -0.005065 0.001743 0.000000 -0.003082 0.000000
# 2 -0.005065 0.018330 -0.007682 0.000000 0.003008 0.000000
# 3 0.001743 -0.007682 0.025714 0.000000 -0.004219 0.000000
# 4 0.000000 0.000000 0.000000 0.093070 0.000000 0.004542
# 5 -0.003082 0.003008 -0.004219 0.000000 0.026686 0.000000
# 6 0.000000 0.000000 0.000000 0.004542 0.000000 0.045090
#
#
# Mechanical properties :
#
#
# Convention : Reuss Voigt Hill
#
# Bulk Modulus (GPa) = 24.88717 27.40788 26.14752
# Shear Modulus (GPa) = 19.05237 23.54298 21.29767
#
# Velocity S-wave (km/s) = 3.12625 3.47520 3.30534
# Velocity P-wave (km/s) = 5.07916 5.49203 5.28962
#
# Compressibility (1/GPa) = 0.04018135
#
# Stress axis : x y z
#
# Youngs Moduli (GPa) = 55.11497 54.55532 38.88883
#
# Poissons Ratio (x) = 0.27630 -0.06778
# Poissons Ratio (y) = 0.27913 0.29874
# Poissons Ratio (z) = -0.09607 0.41909
#
# Static dielectric constant tensor:
#      x y z
#    x 1.722240 0.000000 -0.005780 
#    y 0.000000 1.680050 0.000000 
#    z -0.005780 0.000000 1.682290 
# 
# From -- ./inp_files/57891.got.cif
#   From: 2010.05.17/outbox.cif.g08.bks.cpg/sg13_29_cif.got.tgz:57891.got - 2010.06.03 16:44:36.
