data_PCOD9230803
_publ_section_title
;
Structure prediction by ZEFSAII (Michael W. Deem and Ramdas Pophale) SiO2 
 PCOD9230803
Probable space group: P 2/C
;
_chemical_formula_sum "Si O2"
_cell_formula_units_Z 32
_cell_length_a 14.787622
_cell_length_b 9.918287
_cell_length_c 13.473868
_cell_angle_alpha 90.000000
_cell_angle_beta 134.489043
_cell_angle_gamma 90.000000
_cell_volume 1409.778730
_symmetry_space_group_name_H-M "P 2/C"
_symmetry_group_IT_number 13
_symmetry_cell_setting 'monoclinic'
loop_
_space_group_symop_operation_xyz
x,y,z
-x,y,1/2-z
-x,-y,-z
x,-y,1/2+z
loop_
_atom_site_type_symbol
_atom_site_label
_atom_site_fract_x
_atom_site_fract_y
_atom_site_fract_z
Si Si1 0.801538 0.270247 0.072426
Si Si2 0.463004 0.410329 0.378720
Si Si3 0.103354 0.866523 0.157270
Si Si4 0.951106 0.183311 0.362803
Si Si5 0.782045 0.171121 0.549047
Si Si6 0.294488 0.550616 0.577029
Si Si7 0.501639 0.101045 0.093268
Si Si8 0.288249 0.939943 0.128781
O O1 0.833942 0.249522 0.213259
O O2 0.926265 0.222404 0.108221
O O3 0.773733 0.422050 0.020728
O O4 0.692939 0.173156 0.941967
O O5 0.500000 0.500000 0.500000
O O6 0.581736 0.423359 0.395505
O O7 0.342711 0.467200 0.226265
O O8 0.446415 0.251616 0.388630
O O9 0.133990 0.810698 0.288704
O O10 0.075497 0.024001 0.155897
O O11 0.225218 0.871419 0.177077
O O12 0.996463 0.790669 0.010407
O O13 0.779477 0.310253 0.489202
O O14 0.641444 0.128486 0.480108
O O15 0.808876 0.047189 0.496155
O O16 0.593984 0.027543 0.242601
O O17 0.500000 0.000000 0.000000
#
# Coordination Sequence:
#
# PCOD9230803 Si02
#       8
#     4   4   4   4   4   4   4   4
#     4  10  21  39  65  85 120 165 210 261 313 371
#     4  10  23  40  59  88 132 170 202 253 300 375
#     4  10  20  37  66  95 119 158 205 263 333 367
#     4   9  20  39  63  87 119 148 209 276 310 362
#     4  11  21  40  61  91 131 167 199 258 311 379
#     4  10  23  41  60  87 128 171 207 241 317 378
#     4  11  22  37  61  96 133 163 208 253 303 376
#     4  11  21  36  63  95 124 164 206 254 311 375
#
# _framework density 22.698595000000001
#
# number of rings (size 3 to 8) (size 9 to 14) (size 15 to 20)
#    0.000    1.750    3.750    0.375    1.750    3.000 
#    2.250    0.625   16.500    0.000    0.000    0.000 
#    0.000    0.000    0.000    0.000    0.000    0.000 
#
# Total GULP energy -178725.094458 kJ/mol
# GULP energy per Si atom -5585.159202 kJ/mol
# Density = 2.264693 g / cm^3
# Si number density = 22.698595 Si / 1000 Ang^3
#
#
#
# Elastic Constant Matrix: (Units=GPa)
#
#
# Indices 1 2 3 4 5 6 
#
# 1 51.3010 9.3717 22.2221 0.0000 -0.1566 0.0000
# 2 9.3717 106.5439 50.9468 0.0000 -0.5540 0.0000
# 3 22.2221 50.9468 196.2602 0.0000 -27.1494 0.0000
# 4 0.0000 0.0000 0.0000 33.6041 0.0000 1.6972
# 5 -0.1566 -0.5540 -27.1494 0.0000 22.6701 0.0000
# 6 0.0000 0.0000 0.0000 1.6972 0.0000 5.9622
#
#
#
# Elastic Compliance Matrix: (Units=1/GPa)
#
#
# Indices 1 2 3 4 5 6 
#
# 1 0.020721 -0.000592 -0.002607 0.000000 -0.002993 0.000000
# 2 -0.000592 0.010995 -0.003297 0.000000 -0.003684 0.000000
# 3 -0.002607 -0.003297 0.007470 0.000000 0.008848 0.000000
# 4 0.000000 0.000000 0.000000 0.030192 0.000000 -0.008594
# 5 -0.002993 -0.003684 0.008848 0.000000 0.054596 0.000000
# 6 0.000000 0.000000 0.000000 -0.008594 0.000000 0.170169
#
#
# Mechanical properties :
#
#
# Convention : Reuss Voigt Hill
#
# Bulk Modulus (GPa) = 38.17395 57.68739 47.93067
# Shear Modulus (GPa) = 15.82948 30.55157 23.19053
#
# Velocity S-wave (km/s) = 2.64365 3.67272 3.19983
# Velocity P-wave (km/s) = 5.11594 6.59203 5.90033
#
# Compressibility (1/GPa) = 0.02619587
#
# Stress axis : x y z
#
# Youngs Moduli (GPa) = 48.26050 90.94933 133.86643
#
# Poissons Ratio (x) = 0.05382 0.34894
# Poissons Ratio (y) = 0.02856 0.44133
# Poissons Ratio (z) = 0.12580 0.29984
#
# Static dielectric constant tensor:
#      x y z
#    x 1.915430 0.000000 0.025480 
#    y 0.000000 1.791730 0.000000 
#    z 0.025480 0.000000 2.069410 
# 
# From -- ./inp_files/57278.got.cif
#   From: 2010.05.17/outbox.cif.g08.bks.cpg/sg13_29_cif.got.tgz:57278.got - 2010.06.03 16:44:36.
