data_PCOD9230213
_publ_section_title
;
Structure prediction by ZEFSAII (Michael W. Deem and Ramdas Pophale) SiO2 
 PCOD9230213
Probable space group: P 2/C
;
_chemical_formula_sum "Si O2"
_cell_formula_units_Z 28
_cell_length_a 9.290378
_cell_length_b 21.196668
_cell_length_c 15.466643
_cell_angle_alpha 90.000000
_cell_angle_beta 153.069734
_cell_angle_gamma 90.000000
_cell_volume 1379.446492
_symmetry_space_group_name_H-M "P 2/C"
_symmetry_group_IT_number 13
_symmetry_cell_setting 'monoclinic'
loop_
_space_group_symop_operation_xyz
x,y,z
-x,y,1/2-z
-x,-y,-z
x,-y,1/2+z
loop_
_atom_site_type_symbol
_atom_site_label
_atom_site_fract_x
_atom_site_fract_y
_atom_site_fract_z
Si Si1 0.382345 0.344249 0.460128
Si Si2 0.411949 0.854628 0.795929
Si Si3 0.288515 0.896953 0.052765
Si Si4 0.642443 0.554498 0.230825
Si Si5 0.255521 0.436476 0.963604
Si Si6 0.722659 0.027156 0.544284
Si Si7 0.613710 0.200716 0.037414
O O1 0.488766 0.388865 0.594653
O O2 0.561171 0.373918 0.471756
O O3 0.478933 0.272292 0.531195
O O4 0.000000 0.346854 0.250000
O O5 0.500000 0.828571 0.750000
O O6 0.507788 0.816133 0.932271
O O7 0.033563 0.862045 0.594241
O O8 0.567674 0.923163 0.896701
O O9 0.500000 0.907239 0.250000
O O10 0.461751 0.853023 0.073786
O O11 0.183870 0.963987 0.956906
O O12 0.500000 0.555485 0.250000
O O13 0.022378 0.563683 0.422258
O O14 0.517559 0.489984 0.119646
O O15 0.000000 0.451605 0.750000
O O16 0.000000 0.057327 0.750000
O O17 0.500000 0.000000 0.500000
O O18 0.000000 0.198603 0.250000
#
# Coordination Sequence:
#
# PCOD9230213 Si02
#       7
#     4   4   4   4   4   4   4
#     4  10  20  38  62  80 111 159 198 233 290 350
#     4  11  24  40  61  88 118 150 199 246 296 355
#     4  11  23  40  61  87 119 156 194 242 298 357
#     4  11  21  35  57  88 120 147 189 243 292 341
#     4  10  20  36  57  84 116 153 193 231 287 352
#     4  12  22  39  64  88 119 156 194 243 301 356
#     4   9  20  42  61  80 115 158 196 239 290 351
#
# _framework density 20.297996999999999
#
# number of rings (size 3 to 8) (size 9 to 14) (size 15 to 20)
#    0.000    1.429    2.857    4.286    2.000    1.714 
#    0.000   11.429    0.000    0.000    0.000    0.000 
#    0.000    0.000    0.000    0.000    0.000    0.000 
#
# Total GULP energy -156240.840187 kJ/mol
# GULP energy per Si atom -5580.030007 kJ/mol
# Density = 2.025180 g / cm^3
# Si number density = 20.297997 Si / 1000 Ang^3
#
#
#
# Elastic Constant Matrix: (Units=GPa)
#
#
# Indices 1 2 3 4 5 6 
#
# 1 115.7183 14.6194 14.2918 0.0000 -0.6118 0.0000
# 2 14.6194 88.2286 5.1825 0.0000 -8.0467 0.0000
# 3 14.2918 5.1825 55.2956 0.0000 -0.9258 0.0000
# 4 0.0000 0.0000 0.0000 16.9581 0.0000 4.4847
# 5 -0.6118 -8.0467 -0.9258 0.0000 31.4146 0.0000
# 6 0.0000 0.0000 0.0000 4.4847 0.0000 6.5383
#
#
#
# Elastic Compliance Matrix: (Units=1/GPa)
#
#
# Indices 1 2 3 4 5 6 
#
# 1 0.009092 -0.001398 -0.002223 0.000000 -0.000247 0.000000
# 2 -0.001398 0.011880 -0.000702 0.000000 0.002995 0.000000
# 3 -0.002223 -0.000702 0.018730 0.000000 0.000329 0.000000
# 4 0.000000 0.000000 0.000000 0.072036 0.000000 -0.049411
# 5 -0.000247 0.002995 0.000329 0.000000 0.032604 0.000000
# 6 0.000000 0.000000 0.000000 -0.049411 0.000000 0.186836
#
#
# Mechanical properties :
#
#
# Convention : Reuss Voigt Hill
#
# Bulk Modulus (GPa) = 32.19989 36.38109 34.29049
# Shear Modulus (GPa) = 14.27850 25.99213 20.13531
#
# Velocity S-wave (km/s) = 2.65513 3.58233 3.15300
# Velocity P-wave (km/s) = 5.02967 5.92226 5.49412
#
# Compressibility (1/GPa) = 0.03105601
#
# Stress axis : x y z
#
# Youngs Moduli (GPa) = 109.99189 84.17292 53.38899
#
# Poissons Ratio (x) = 0.11771 0.11868
# Poissons Ratio (y) = 0.15381 0.03747
# Poissons Ratio (z) = 0.24450 0.05908
#
# Static dielectric constant tensor:
#      x y z
#    x 1.780360 0.000000 0.068520 
#    y 0.000000 1.709760 0.000000 
#    z 0.068520 0.000000 2.165070 
# 
# From -- ./inp_files/48262.got.cif
#   From: 2010.05.17/outbox.cif.g08.bks.cpg/sg13_25_cif.got.tgz:48262.got - 2010.06.03 16:44:36.
