data_PCOD9230450
_publ_section_title
;
Structure prediction by ZEFSAII (Michael W. Deem and Ramdas Pophale) SiO2 
 PCOD9230450
Probable space group: P 2/C
;
_chemical_formula_sum "Si O2"
_cell_formula_units_Z 22
_cell_length_a 16.188147
_cell_length_b 7.598922
_cell_length_c 24.765564
_cell_angle_alpha 90.000000
_cell_angle_beta 16.310648
_cell_angle_gamma 90.000000
_cell_volume 855.586974
_symmetry_space_group_name_H-M "P 2/C"
_symmetry_group_IT_number 13
_symmetry_cell_setting 'monoclinic'
loop_
_space_group_symop_operation_xyz
x,y,z
-x,y,1/2-z
-x,-y,-z
x,-y,1/2+z
loop_
_atom_site_type_symbol
_atom_site_label
_atom_site_fract_x
_atom_site_fract_y
_atom_site_fract_z
Si Si1 0.000000 0.584569 0.250000
Si Si2 0.640163 0.863043 0.838157
Si Si3 0.346046 0.525366 0.793346
Si Si4 0.582301 0.538388 0.364972
Si Si5 0.655791 0.945736 0.708949
Si Si6 0.131009 0.836174 0.249050
O O1 0.718947 0.470902 0.411854
O O2 0.094048 0.714123 0.142624
O O3 0.722243 0.657460 0.779759
O O4 0.551285 0.962713 0.837957
O O5 0.901262 0.978872 0.701393
O O6 0.381347 0.863133 0.045792
O O7 0.500000 0.453993 0.750000
O O8 0.497169 0.435563 0.647293
O O9 0.375417 0.735254 0.776710
O O10 0.000000 0.500000 0.000000
O O11 0.770744 0.698324 0.267264
O O12 0.500000 0.013018 0.750000
O O13 0.000000 0.000000 0.500000
#
# Coordination Sequence:
#
# PCOD9230450 Si02
#       6
#     2   4   4   4   4   4
#     4  10  20  36  64  90 124 168 208 274 334 384
#     4   9  20  40  60  90 123 164 215 266 323 398
#     4  10  24  43  66  96 134 176 225 276 333 398
#     4  10  22  41  62  91 132 164 220 271 331 396
#     4  10  23  42  65  94 131 170 217 276 331 394
#     4  10  21  39  63  88 125 167 208 266 334 380
#
# _framework density 25.713341
#
# number of rings (size 3 to 8) (size 9 to 14) (size 15 to 20)
#    0.000    2.182    0.000    2.182    5.091    5.091 
#    0.000   14.545    0.000    0.000    0.000    0.000 
#    0.000    0.000    0.000    0.000    0.000    0.000 
#
# Total GULP energy -122620.688424 kJ/mol
# GULP energy per Si atom -5573.667656 kJ/mol
# Density = 2.565482 g / cm^3
# Si number density = 25.713341 Si / 1000 Ang^3
#
#
#
# Elastic Constant Matrix: (Units=GPa)
#
#
# Indices 1 2 3 4 5 6 
#
# 1 205.5975 44.5943 21.2389 0.0000 -3.3903 0.0000
# 2 44.5943 74.0550 -6.0616 0.0000 -0.3397 0.0000
# 3 21.2389 -6.0616 53.0380 0.0000 3.9344 0.0000
# 4 0.0000 0.0000 0.0000 20.0873 0.0000 -8.5982
# 5 -3.3903 -0.3397 3.9344 0.0000 36.2275 0.0000
# 6 0.0000 0.0000 0.0000 -8.5982 0.0000 34.0907
#
#
#
# Elastic Compliance Matrix: (Units=1/GPa)
#
#
# Indices 1 2 3 4 5 6 
#
# 1 0.006015 -0.003857 -0.002912 0.000000 0.000843 0.000000
# 2 -0.003857 0.016104 0.003428 0.000000 -0.000582 0.000000
# 3 -0.002912 0.003428 0.020596 0.000000 -0.002477 0.000000
# 4 0.000000 0.000000 0.000000 0.055808 0.000000 0.014076
# 5 0.000843 -0.000582 -0.002477 0.000000 0.027946 0.000000
# 6 0.000000 0.000000 0.000000 0.014076 0.000000 0.032884
#
#
# Mechanical properties :
#
#
# Convention : Reuss Voigt Hill
#
# Bulk Modulus (GPa) = 27.75183 50.24818 39.00001
# Shear Modulus (GPa) = 28.08288 36.27570 32.17929
#
# Velocity S-wave (km/s) = 3.30836 3.76010 3.54144
# Velocity P-wave (km/s) = 5.04082 6.19962 5.65000
#
# Compressibility (1/GPa) = 0.03603366
#
# Stress axis : x y z
#
# Youngs Moduli (GPa) = 166.24806 62.09718 48.55300
#
# Poissons Ratio (x) = 0.23949 0.14139
# Poissons Ratio (y) = 0.64116 -0.16644
# Poissons Ratio (z) = 0.48412 -0.21287
#
# Static dielectric constant tensor:
#      x y z
#    x 2.214140 0.000000 -0.204190 
#    y 0.000000 2.117050 0.000000 
#    z -0.204190 0.000000 2.451030 
# 
# From -- ./inp_files/87250.got.cif
#   From: 2010.05.17/outbox.cif.g08.bks.cpg/sg13_44_cif.got.tgz:87250.got - 2010.06.03 16:44:36.
