data_PCOD9230201
_publ_section_title
;
Structure prediction by ZEFSAII (Michael W. Deem and Ramdas Pophale) SiO2 
 PCOD9230201
Probable space group: P 2/C
;
_chemical_formula_sum "Si O2"
_cell_formula_units_Z 30
_cell_length_a 11.322398
_cell_length_b 14.891742
_cell_length_c 14.923217
_cell_angle_alpha 90.000000
_cell_angle_beta 144.421789
_cell_angle_gamma 90.000000
_cell_volume 1463.963768
_symmetry_space_group_name_H-M "P 2/C"
_symmetry_group_IT_number 13
_symmetry_cell_setting 'monoclinic'
loop_
_space_group_symop_operation_xyz
x,y,z
-x,y,1/2-z
-x,-y,-z
x,-y,1/2+z
loop_
_atom_site_type_symbol
_atom_site_label
_atom_site_fract_x
_atom_site_fract_y
_atom_site_fract_z
Si Si1 0.711329 0.640275 0.282115
Si Si2 0.522795 0.654649 0.665619
Si Si3 0.694378 0.468692 0.006090
Si Si4 0.537302 0.955207 0.171886
Si Si5 0.788804 0.966664 0.165777
Si Si6 0.222242 0.247418 0.851300
Si Si7 0.127582 0.539453 0.686039
Si Si8 0.500000 0.777418 0.250000
O O1 0.486627 0.600730 0.122899
O O2 0.771221 0.704457 0.239062
O O3 0.687288 0.709228 0.349937
O O4 0.848420 0.550987 0.358796
O O5 0.500000 0.694923 0.750000
O O6 0.391566 0.562685 0.583109
O O7 0.411984 0.716908 0.525705
O O8 0.751258 0.622236 0.783917
O O9 0.746027 0.477921 0.143082
O O10 0.901029 0.445862 0.081766
O O11 0.500000 0.993483 0.250000
O O12 0.742523 0.981585 0.243698
O O13 0.507878 0.848229 0.172687
O O14 0.372142 0.986371 0.998577
O O15 0.767851 0.859440 0.144877
O O16 0.000000 0.992617 0.250000
O O17 0.000000 0.273813 0.750000
#
# Coordination Sequence:
#
# PCOD9230201 Si02
#       8
#     4   4   4   4   4   4   4   2
#     4  11  19  36  59  82 117 154 205 248 294 348
#     4  11  22  35  50  81 120 149 193 250 292 342
#     4  10  20  36  57  79 110 163 203 244 295 352
#     4   9  20  41  63  90 129 153 195 256 311 377
#     4  10  21  38  68  95 117 161 204 249 310 384
#     4  11  20  37  61  85 112 154 204 242 296 361
#     4  10  20  36  58  79 110 164 204 241 295 351
#     4  10  22  38  62  90 112 160 198 258 300 364
#
# _framework density 20.492311000000001
#
# number of rings (size 3 to 8) (size 9 to 14) (size 15 to 20)
#    0.400    1.333    4.000    1.600    3.733    1.600 
#    2.400    0.000    8.800    0.000    0.000    0.000 
#    0.000    0.000    0.000    0.000    0.000    0.000 
#
# Total GULP energy -167183.652242 kJ/mol
# GULP energy per Si atom -5572.788408 kJ/mol
# Density = 2.044567 g / cm^3
# Si number density = 20.492311 Si / 1000 Ang^3
#
#
#
# Elastic Constant Matrix: (Units=GPa)
#
#
# Indices 1 2 3 4 5 6 
#
# 1 157.4855 16.2201 28.4421 0.0000 1.0027 0.0000
# 2 16.2201 26.3292 15.1318 0.0000 2.6898 0.0000
# 3 28.4421 15.1318 27.1303 0.0000 10.0550 0.0000
# 4 0.0000 0.0000 0.0000 34.1204 0.0000 2.9237
# 5 1.0027 2.6898 10.0550 0.0000 46.0127 0.0000
# 6 0.0000 0.0000 0.0000 2.9237 0.0000 5.0294
#
#
#
# Elastic Compliance Matrix: (Units=1/GPa)
#
#
# Indices 1 2 3 4 5 6 
#
# 1 0.007967 0.000136 -0.009098 0.000000 0.001807 0.000000
# 2 0.000136 0.056538 -0.033133 0.000000 0.003933 0.000000
# 3 -0.009098 -0.033133 0.069733 0.000000 -0.013103 0.000000
# 4 0.000000 0.000000 0.000000 0.030844 0.000000 -0.017931
# 5 0.001807 0.003933 -0.013103 0.000000 0.024327 0.000000
# 6 0.000000 0.000000 0.000000 -0.017931 0.000000 0.209254
#
#
# Mechanical properties :
#
#
# Convention : Reuss Voigt Hill
#
# Bulk Modulus (GPa) = 19.98113 36.72590 28.35351
# Shear Modulus (GPa) = 10.00926 27.10923 18.55925
#
# Velocity S-wave (km/s) = 2.21246 3.64111 3.01270
# Velocity P-wave (km/s) = 4.03713 5.96973 5.09588
#
# Compressibility (1/GPa) = 0.05004722
#
# Stress axis : x y z
#
# Youngs Moduli (GPa) = 125.51146 17.68736 14.34032
#
# Poissons Ratio (x) = -0.00240 0.13047
# Poissons Ratio (y) = -0.01705 0.47514
# Poissons Ratio (z) = 1.14190 0.58604
#
# Static dielectric constant tensor:
#      x y z
#    x 1.857460 0.000000 0.023910 
#    y 0.000000 1.705270 0.000000 
#    z 0.023910 0.000000 1.768250 
# 
# From -- ./inp_files/51620.got.cif
#   From: 2010.05.17/outbox.cif.g08.bks.cpg/sg13_26_cif.got.tgz:51620.got - 2010.06.03 16:44:36.
