data_PCOD9230650
_publ_section_title
;
Structure prediction by ZEFSAII (Michael W. Deem and Ramdas Pophale) SiO2 
 PCOD9230650
Probable space group: P 2/C
;
_chemical_formula_sum "Si O2"
_cell_formula_units_Z 28
_cell_length_a 19.690425
_cell_length_b 11.934566
_cell_length_c 23.812641
_cell_angle_alpha 90.000000
_cell_angle_beta 164.306266
_cell_angle_gamma 90.000000
_cell_volume 1513.661578
_symmetry_space_group_name_H-M "P 2/C"
_symmetry_group_IT_number 13
_symmetry_cell_setting 'monoclinic'
loop_
_space_group_symop_operation_xyz
x,y,z
-x,y,1/2-z
-x,-y,-z
x,-y,1/2+z
loop_
_atom_site_type_symbol
_atom_site_label
_atom_site_fract_x
_atom_site_fract_y
_atom_site_fract_z
Si Si1 0.894552 0.556368 0.823194
Si Si2 0.516301 0.461979 0.921293
Si Si3 0.594865 0.799327 0.164215
Si Si4 0.812192 0.824018 0.884288
Si Si5 0.674743 0.947958 0.334889
Si Si6 0.614461 0.595187 0.780608
Si Si7 0.815317 0.181023 0.258456
O O1 0.727764 0.516751 0.743283
O O2 0.736351 0.527305 0.641709
O O3 0.913294 0.690431 0.838750
O O4 0.152575 0.490229 0.028496
O O5 0.455650 0.331621 0.863035
O O6 0.572534 0.529881 0.909910
O O7 0.563833 0.873564 0.195338
O O8 0.884060 0.815989 0.375669
O O9 0.404160 0.829213 0.962018
O O10 0.705133 0.709007 0.823586
O O11 0.729175 0.843430 0.753584
O O12 0.720967 0.927720 0.848504
O O13 0.500000 0.945623 0.250000
O O14 0.947432 0.896233 0.565917
O O15 0.500000 0.617957 0.750000
#
# Coordination Sequence:
#
# PCOD9230650 Si02
#       7
#     4   4   4   4   4   4   4
#     4  10  20  37  61  87 116 150 191 237 282 339
#     4  10  20  37  61  87 116 150 191 237 282 339
#     4  10  21  39  66  88 109 150 201 244 284 338
#     4  11  22  39  60  84 116 155 199 239 282 342
#     4  11  25  41  56  84 122 153 190 244 297 343
#     4  12  23  35  57  89 124 157 186 229 295 353
#     4  10  21  39  66  88 109 150 201 244 284 338
#
# _framework density 18.498190000000001
#
# number of rings (size 3 to 8) (size 9 to 14) (size 15 to 20)
#    0.000    1.429    2.857    4.286    0.000    5.714 
#    0.000    2.857    0.000    5.143    0.000    0.000 
#    0.000    0.000    0.000    0.000    0.000    0.000 
#
# Total GULP energy -156474.423607 kJ/mol
# GULP energy per Si atom -5588.372272 kJ/mol
# Density = 1.845609 g / cm^3
# Si number density = 18.498190 Si / 1000 Ang^3
#
#
#
# Elastic Constant Matrix: (Units=GPa)
#
#
# Indices 1 2 3 4 5 6 
#
# 1 134.5538 34.8975 38.8523 0.0000 -16.4173 0.0000
# 2 34.8975 73.1620 25.4581 0.0000 -18.2990 0.0000
# 3 38.8523 25.4581 62.0317 0.0000 -30.4140 0.0000
# 4 0.0000 0.0000 0.0000 15.5740 0.0000 -8.0921
# 5 -16.4173 -18.2990 -30.4140 0.0000 18.0078 0.0000
# 6 0.0000 0.0000 0.0000 -8.0921 0.0000 17.9767
#
#
#
# Elastic Compliance Matrix: (Units=1/GPa)
#
#
# Indices 1 2 3 4 5 6 
#
# 1 0.010314 -0.004760 -0.013191 0.000000 -0.017711 0.000000
# 2 -0.004760 0.021507 0.015951 0.000000 0.044456 0.000000
# 3 -0.013191 0.015951 0.115677 0.000000 0.199554 0.000000
# 4 0.000000 0.000000 0.000000 0.083813 0.000000 0.037728
# 5 -0.017711 0.044456 0.199554 0.000000 0.421592 0.000000
# 6 0.000000 0.000000 0.000000 0.037728 0.000000 0.072611
#
#
# Mechanical properties :
#
#
# Convention : Reuss Voigt Hill
#
# Bulk Modulus (GPa) = 6.96864 52.01814 29.49339
# Shear Modulus (GPa) = 6.43216 21.68101 14.05658
#
# Velocity S-wave (km/s) = 1.86674 3.42725 2.75960
# Velocity P-wave (km/s) = 2.90201 6.62141 5.11199
#
# Compressibility (1/GPa) = 0.14350012
#
# Stress axis : x y z
#
# Youngs Moduli (GPa) = 96.95393 46.49583 8.64479
#
# Poissons Ratio (x) = 0.22131 0.11403
# Poissons Ratio (y) = 0.46148 -0.13790
# Poissons Ratio (z) = 1.27887 -0.74167
#
# Static dielectric constant tensor:
#      x y z
#    x 1.624860 0.000000 -0.026100 
#    y 0.000000 1.629360 0.000000 
#    z -0.026100 0.000000 1.632030 
# 
# From -- ./inp_files/81085.got.cif
#   From: 2010.05.17/outbox.cif.g08.bks.cpg/sg13_41_cif.got.tgz:81085.got - 2010.06.03 16:44:36.
