data_PCOD9230579
_publ_section_title
;
Structure prediction by ZEFSAII (Michael W. Deem and Ramdas Pophale) SiO2 
 PCOD9230579
Probable space group: P 2/C
;
_chemical_formula_sum "Si O2"
_cell_formula_units_Z 26
_cell_length_a 6.744683
_cell_length_b 8.084533
_cell_length_c 18.504555
_cell_angle_alpha 90.000000
_cell_angle_beta 90.590397
_cell_angle_gamma 90.000000
_cell_volume 1008.955633
_symmetry_space_group_name_H-M "P 2/C"
_symmetry_group_IT_number 13
_symmetry_cell_setting 'monoclinic'
loop_
_space_group_symop_operation_xyz
x,y,z
-x,y,1/2-z
-x,-y,-z
x,-y,1/2+z
loop_
_atom_site_type_symbol
_atom_site_label
_atom_site_fract_x
_atom_site_fract_y
_atom_site_fract_z
Si Si1 0.918549 0.782215 0.479073
Si Si2 0.585789 0.102414 0.066689
Si Si3 0.500000 0.320136 0.750000
Si Si4 0.731625 0.066458 0.839250
Si Si5 0.205488 0.278139 0.223644
Si Si6 0.880467 0.431788 0.419318
Si Si7 0.662636 0.581158 0.636453
O O1 0.815383 0.887575 0.542877
O O2 0.875901 0.877881 0.404600
O O3 0.115445 0.713343 0.519850
O O4 0.822313 0.604555 0.454545
O O5 0.555848 0.301401 0.076346
O O6 0.480015 0.002175 0.130413
O O7 0.500000 0.000000 0.000000
O O8 0.676681 0.210128 0.783563
O O9 0.585354 0.422436 0.680919
O O10 0.821217 0.907679 0.801193
O O11 0.332842 0.289913 0.295925
O O12 0.000000 0.350875 0.250000
O O13 0.241742 0.385218 0.152340
O O14 0.113244 0.448779 0.393429
#
# Coordination Sequence:
#
# PCOD9230579 Si02
#       7
#     4   4   2   4   4   4   4
#     4   9  19  37  58  83 112 144 190 235 287 344
#     4   9  19  38  59  82 116 151 188 236 286 342
#     4  12  24  36  58  86 118 156 194 238 286 346
#     4  11  22  36  54  82 117 151 190 234 284 345
#     4  10  21  37  60  83 112 150 190 239 291 340
#     4   9  19  38  58  81 110 145 190 240 288 341
#     4  10  20  37  59  83 112 149 192 238 289 341
#
# _framework density 25.769220000000001
#
# number of rings (size 3 to 8) (size 9 to 14) (size 15 to 20)
#    0.000    2.154    0.000    2.769    0.000    1.846 
#    0.000   21.538    0.000    0.000    0.000    0.000 
#    0.000    0.000    0.000    0.000    0.000    0.000 
#
# Total GULP energy -144773.601706 kJ/mol
# GULP energy per Si atom -5568.215450 kJ/mol
# Density = 2.571057 g / cm^3
# Si number density = 25.769220 Si / 1000 Ang^3
#
#
#
# Elastic Constant Matrix: (Units=GPa)
#
#
# Indices 1 2 3 4 5 6 
#
# 1 54.6269 25.0344 40.5814 0.0000 4.8469 0.0000
# 2 25.0344 118.8380 56.8572 0.0000 11.4897 0.0000
# 3 40.5814 56.8572 131.6795 0.0000 2.6219 0.0000
# 4 0.0000 0.0000 0.0000 28.4904 0.0000 14.6180
# 5 4.8469 11.4897 2.6219 0.0000 26.1912 0.0000
# 6 0.0000 0.0000 0.0000 14.6180 0.0000 27.8430
#
#
#
# Elastic Compliance Matrix: (Units=1/GPa)
#
#
# Indices 1 2 3 4 5 6 
#
# 1 0.024326 -0.001595 -0.006746 0.000000 -0.003127 0.000000
# 2 -0.001595 0.011193 -0.004258 0.000000 -0.004189 0.000000
# 3 -0.006746 -0.004258 0.011473 0.000000 0.001968 0.000000
# 4 0.000000 0.000000 0.000000 0.048041 0.000000 -0.025222
# 5 -0.003127 -0.004189 0.001968 0.000000 0.040400 0.000000
# 6 0.000000 0.000000 0.000000 -0.025222 0.000000 0.049158
#
#
# Mechanical properties :
#
#
# Convention : Reuss Voigt Hill
#
# Bulk Modulus (GPa) = 45.88439 61.12116 53.50277
# Shear Modulus (GPa) = 23.03596 28.68300 25.85948
#
# Velocity S-wave (km/s) = 2.99312 3.33989 3.17125
# Velocity P-wave (km/s) = 5.45798 6.21638 5.84948
#
# Compressibility (1/GPa) = 0.02179391
#
# Stress axis : x y z
#
# Youngs Moduli (GPa) = 41.10875 89.34157 87.16403
#
# Poissons Ratio (x) = 0.14246 0.58801
# Poissons Ratio (y) = 0.06555 0.37116
# Poissons Ratio (z) = 0.27732 0.38043
#
# Static dielectric constant tensor:
#      x y z
#    x 2.261910 0.000000 -0.112370 
#    y 0.000000 2.052890 0.000000 
#    z -0.112370 0.000000 2.159930 
# 
# From -- ./inp_files/63822.got.cif
#   From: 2010.05.17/outbox.cif.g08.bks.cpg/sg13_32_cif.got.tgz:63822.got - 2010.06.03 16:44:36.
