data_PCOD9230428
_publ_section_title
;
Structure prediction by ZEFSAII (Michael W. Deem and Ramdas Pophale) SiO2 
 PCOD9230428
Probable space group: P 2/C
;
_chemical_formula_sum "Si O2"
_cell_formula_units_Z 28
_cell_length_a 9.685812
_cell_length_b 28.737757
_cell_length_c 9.959032
_cell_angle_alpha 90.000000
_cell_angle_beta 30.467244
_cell_angle_gamma 90.000000
_cell_volume 1405.572086
_symmetry_space_group_name_H-M "P 2/C"
_symmetry_group_IT_number 13
_symmetry_cell_setting 'monoclinic'
loop_
_space_group_symop_operation_xyz
x,y,z
-x,y,1/2-z
-x,-y,-z
x,-y,1/2+z
loop_
_atom_site_type_symbol
_atom_site_label
_atom_site_fract_x
_atom_site_fract_y
_atom_site_fract_z
Si Si1 0.850123 0.295538 0.248447
Si Si2 0.416933 0.574781 0.964808
Si Si3 0.148245 0.522016 0.748411
Si Si4 0.341856 0.358377 0.754159
Si Si5 0.303492 0.021567 0.277033
Si Si6 0.187221 0.775246 0.964652
Si Si7 0.192249 0.879327 0.961760
O O1 0.556457 0.318122 0.528262
O O2 0.839708 0.260829 0.133049
O O3 0.000000 0.271907 0.250000
O O4 0.061065 0.336629 0.038108
O O5 0.500000 0.592805 0.750000
O O6 0.674954 0.561946 0.836423
O O7 0.286080 0.523278 0.062731
O O8 0.266415 0.609721 0.189470
O O9 0.000000 0.545022 0.750000
O O10 0.000000 0.500000 0.000000
O O11 0.500000 0.381022 0.750000
O O12 0.500000 0.016468 0.250000
O O13 0.226102 0.076472 0.337106
O O14 0.000000 0.000000 0.500000
O O15 0.500000 0.000000 0.000000
O O16 0.500000 0.774205 0.750000
O O17 0.103300 0.827876 0.989669
O O18 0.000000 0.763570 0.250000
O O19 0.500000 0.871666 0.750000
O O20 0.000000 0.892318 0.250000
#
# Coordination Sequence:
#
# PCOD9230428 Si02
#       7
#     4   4   4   4   4   4   4
#     4  10  22  42  60  88 120 154 188 235 301 355
#     4  11  25  40  59  90 112 146 195 237 280 337
#     4  11  24  41  62  85 117 149 184 237 287 339
#     4  10  24  40  63  86 118 157 191 227 287 358
#     4  11  21  36  57  83 120 164 208 260 313 373
#     4  10  20  36  63  90 114 151 202 249 295 355
#     4   9  18  34  56  84 116 156 202 249 305 365
#
# _framework density 19.920715000000001
#
# number of rings (size 3 to 8) (size 9 to 14) (size 15 to 20)
#    0.000    1.714    1.429    3.000    4.000    2.286 
#    0.000    1.429    0.000    1.714    0.000    0.000 
#    0.000    0.000    0.000    0.000    0.000    0.000 
#
# Total GULP energy -155905.826931 kJ/mol
# GULP energy per Si atom -5568.065248 kJ/mol
# Density = 1.987537 g / cm^3
# Si number density = 19.920715 Si / 1000 Ang^3
#
#
#
# Elastic Constant Matrix: (Units=GPa)
#
#
# Indices 1 2 3 4 5 6 
#
# 1 105.3444 25.5851 26.0226 0.0000 5.3413 0.0000
# 2 25.5851 53.7692 13.9363 0.0000 10.6164 0.0000
# 3 26.0226 13.9363 118.1661 0.0000 1.6871 0.0000
# 4 0.0000 0.0000 0.0000 32.4242 0.0000 12.9144
# 5 5.3413 10.6164 1.6871 0.0000 33.5265 0.0000
# 6 0.0000 0.0000 0.0000 12.9144 0.0000 36.7597
#
#
#
# Elastic Compliance Matrix: (Units=1/GPa)
#
#
# Indices 1 2 3 4 5 6 
#
# 1 0.011126 -0.004773 -0.001885 0.000000 -0.000166 0.000000
# 2 -0.004773 0.022503 -0.001513 0.000000 -0.006289 0.000000
# 3 -0.001885 -0.001513 0.009052 0.000000 0.000324 0.000000
# 4 0.000000 0.000000 0.000000 0.035859 0.000000 -0.012598
# 5 -0.000166 -0.006289 0.000324 0.000000 0.031829 0.000000
# 6 0.000000 0.000000 0.000000 -0.012598 0.000000 0.031630
#
#
# Mechanical properties :
#
#
# Convention : Reuss Voigt Hill
#
# Bulk Modulus (GPa) = 37.96645 45.37420 41.67033
# Shear Modulus (GPa) = 29.91884 34.65779 32.28832
#
# Velocity S-wave (km/s) = 3.87963 4.17560 4.03034
# Velocity P-wave (km/s) = 6.25851 6.78781 6.52852
#
# Compressibility (1/GPa) = 0.02633904
#
# Stress axis : x y z
#
# Youngs Moduli (GPa) = 89.88064 44.43864 110.47785
#
# Poissons Ratio (x) = 0.21209 0.20824
# Poissons Ratio (y) = 0.42897 0.16717
# Poissons Ratio (z) = 0.16942 0.06724
#
# Static dielectric constant tensor:
#      x y z
#    x 1.715820 0.000000 -0.036630 
#    y 0.000000 1.829480 0.000000 
#    z -0.036630 0.000000 1.722120 
# 
# From -- ./inp_files/13931.got.cif
#   From: 2010.05.17/outbox.cif.g08.bks.cpg/sg13_7_cif.got.tgz:13931.got - 2010.06.03 16:44:36.
