data_PCOD9230388
_publ_section_title
;
Structure prediction by ZEFSAII (Michael W. Deem and Ramdas Pophale) SiO2 
 PCOD9230388
Probable space group: P 2/C
;
_chemical_formula_sum "Si O2"
_cell_formula_units_Z 28
_cell_length_a 7.701931
_cell_length_b 9.495908
_cell_length_c 21.081509
_cell_angle_alpha 90.000000
_cell_angle_beta 81.381720
_cell_angle_gamma 90.000000
_cell_volume 1524.425264
_symmetry_space_group_name_H-M "P 2/C"
_symmetry_group_IT_number 13
_symmetry_cell_setting 'monoclinic'
loop_
_space_group_symop_operation_xyz
x,y,z
-x,y,1/2-z
-x,-y,-z
x,-y,1/2+z
loop_
_atom_site_type_symbol
_atom_site_label
_atom_site_fract_x
_atom_site_fract_y
_atom_site_fract_z
Si Si1 0.568296 0.145359 0.027487
Si Si2 0.262224 0.206008 0.609051
Si Si3 0.170126 0.115817 0.369776
Si Si4 0.089132 0.841948 0.309207
Si Si5 0.321177 0.618921 0.227354
Si Si6 0.207560 0.697669 0.749702
Si Si7 0.749459 0.878395 0.874399
O O1 0.720817 0.123282 0.071442
O O2 0.390928 0.197566 0.071887
O O3 0.655452 0.229115 0.964337
O O4 0.500000 0.000000 0.000000
O O5 0.323071 0.320024 0.656522
O O6 0.051654 0.204286 0.630082
O O7 0.303569 0.043490 0.626338
O O8 0.232231 0.236957 0.317920
O O9 0.954852 0.127312 0.385922
O O10 0.202580 0.964742 0.334348
O O11 0.178047 0.704599 0.275621
O O12 0.000000 0.908069 0.250000
O O13 0.500000 0.659076 0.250000
O O14 0.292920 0.453188 0.233830
O O15 0.265747 0.808093 0.693200
O O16 0.000000 0.678626 0.750000
#
# Coordination Sequence:
#
# PCOD9230388 Si02
#       7
#     4   4   4   4   4   4   4
#     4  10  22  35  56  87 121 150 187 228 279 339
#     4   9  19  39  55  80 116 146 182 230 278 337
#     4  10  20  36  62  86 113 150 189 230 290 337
#     4   9  18  36  58  83 113 144 186 240 286 333
#     4  11  23  34  56  86 110 145 191 234 288 334
#     4  10  20  38  61  82 112 148 188 241 286 330
#     4   9  20  37  60  88 115 146 190 238 284 331
#
# _framework density 18.367577000000001
#
# number of rings (size 3 to 8) (size 9 to 14) (size 15 to 20)
#    0.000    2.286    0.000    4.286    6.000    5.143 
#    0.000    0.714    0.000    2.571    0.000    0.000 
#    0.000    0.000    0.000    0.000    0.000    0.000 
#
# Total GULP energy -155967.456168 kJ/mol
# GULP energy per Si atom -5570.266292 kJ/mol
# Density = 1.832577 g / cm^3
# Si number density = 18.367577 Si / 1000 Ang^3
#
#
#
# Elastic Constant Matrix: (Units=GPa)
#
#
# Indices 1 2 3 4 5 6 
#
# 1 61.0010 25.4854 53.2501 0.0000 1.1445 0.0000
# 2 25.4854 61.9848 34.2455 0.0000 14.9113 0.0000
# 3 53.2501 34.2455 111.4669 0.0000 -4.6621 0.0000
# 4 0.0000 0.0000 0.0000 6.4194 0.0000 -3.7446
# 5 1.1445 14.9113 -4.6621 0.0000 30.6130 0.0000
# 6 0.0000 0.0000 0.0000 -3.7446 0.0000 15.5483
#
#
#
# Elastic Compliance Matrix: (Units=1/GPa)
#
#
# Indices 1 2 3 4 5 6 
#
# 1 0.029468 -0.005050 -0.012549 0.000000 -0.000553 0.000000
# 2 -0.005050 0.024294 -0.005574 0.000000 -0.012494 0.000000
# 3 -0.012549 -0.005574 0.016920 0.000000 0.005761 0.000000
# 4 0.000000 0.000000 0.000000 0.181239 0.000000 0.043649
# 5 -0.000553 -0.012494 0.005761 0.000000 0.039649 0.000000
# 6 0.000000 0.000000 0.000000 0.043649 0.000000 0.074828
#
#
# Mechanical properties :
#
#
# Convention : Reuss Voigt Hill
#
# Bulk Modulus (GPa) = 41.09118 51.15722 46.12420
# Shear Modulus (GPa) = 11.88056 18.61425 15.24740
#
# Velocity S-wave (km/s) = 2.54603 3.18689 2.88432
# Velocity P-wave (km/s) = 5.57343 6.43849 6.02151
#
# Compressibility (1/GPa) = 0.02433612
#
# Stress axis : x y z
#
# Youngs Moduli (GPa) = 33.93525 41.16204 59.10257
#
# Poissons Ratio (x) = 0.20785 0.74169
# Poissons Ratio (y) = 0.17136 0.32944
# Poissons Ratio (z) = 0.42586 0.22944
#
# Static dielectric constant tensor:
#      x y z
#    x 1.650870 0.000000 -0.023660 
#    y 0.000000 1.626250 0.000000 
#    z -0.023660 0.000000 1.640200 
# 
# From -- ./inp_files/63745.got.cif
#   From: 2010.05.17/outbox.cif.g08.bks.cpg/sg13_32_cif.got.tgz:63745.got - 2010.06.03 16:44:36.
