data_PCOD9230550
_publ_section_title
;
Structure prediction by ZEFSAII (Michael W. Deem and Ramdas Pophale) SiO2 
 PCOD9230550
Probable space group: P 2/C
;
_chemical_formula_sum "Si O2"
_cell_formula_units_Z 20
_cell_length_a 6.601291
_cell_length_b 5.168897
_cell_length_c 25.779193
_cell_angle_alpha 90.000000
_cell_angle_beta 63.530379
_cell_angle_gamma 90.000000
_cell_volume 787.411927
_symmetry_space_group_name_H-M "P 2/C"
_symmetry_group_IT_number 13
_symmetry_cell_setting 'monoclinic'
loop_
_space_group_symop_operation_xyz
x,y,z
-x,y,1/2-z
-x,-y,-z
x,-y,1/2+z
loop_
_atom_site_type_symbol
_atom_site_label
_atom_site_fract_x
_atom_site_fract_y
_atom_site_fract_z
Si Si1 0.886518 0.804888 0.572077
Si Si2 0.913831 0.799132 0.686360
Si Si3 0.285432 0.304366 0.965453
Si Si4 0.342090 0.638611 0.686606
Si Si5 0.330691 0.852447 0.139187
O O1 0.836012 0.750172 0.637766
O O2 0.776425 0.590165 0.546936
O O3 0.159420 0.755979 0.533449
O O4 0.834348 0.095467 0.559484
O O5 0.721701 0.764529 0.751341
O O6 0.102088 0.595988 0.683721
O O7 0.066304 0.061414 0.670155
O O8 0.552221 0.251424 0.926610
O O9 0.423539 0.347080 0.672627
O O10 0.439298 0.868096 0.640553
#
# Coordination Sequence:
#
# PCOD9230550 Si02
#       5
#     4   4   4   4   4
#     4  10  22  39  59  82 112 158 184 237 284 347
#     4   9  22  35  63  81 115 147 196 223 292 336
#     4  10  22  40  57  81 120 146 193 233 290 329
#     4   9  21  34  59  83 116 140 189 236 282 332
#     4  10  20  37  58  83 115 148 183 242 275 335
#
# _framework density 25.399667000000001
#
# number of rings (size 3 to 8) (size 9 to 14) (size 15 to 20)
#    1.200    1.200    0.000    1.200    8.400    0.800 
#    0.000    7.000    0.000    0.000    0.000    0.000 
#    0.000    0.000    0.000    0.000    0.000    0.000 
#
# Total GULP energy -111369.142920 kJ/mol
# GULP energy per Si atom -5568.457146 kJ/mol
# Density = 2.534186 g / cm^3
# Si number density = 25.399667 Si / 1000 Ang^3
#
#
#
# Elastic Constant Matrix: (Units=GPa)
#
#
# Indices 1 2 3 4 5 6 
#
# 1 42.1787 -2.0393 -69.3290 0.0000 6.9633 0.0000
# 2 -2.0393 140.8225 -62.5287 0.0000 -8.9884 0.0000
# 3 -69.3290 -62.5287 -319.3039 0.0000 21.0875 0.0000
# 4 0.0000 0.0000 0.0000 -97.3589 0.0000 28.1683
# 5 6.9633 -8.9884 21.0875 0.0000 35.1041 0.0000
# 6 0.0000 0.0000 0.0000 28.1683 0.0000 10.3500
#
#
#
# Elastic Compliance Matrix: (Units=1/GPa)
#
#
# Indices 1 2 3 4 5 6 
#
# 1 0.017844 -0.001491 -0.003695 0.000000 -0.001702 0.000000
# 2 -0.001491 0.006865 -0.000851 0.000000 0.002565 0.000000
# 3 -0.003695 -0.000851 -0.002048 0.000000 0.001745 0.000000
# 4 0.000000 0.000000 0.000000 -0.005746 0.000000 0.015639
# 5 -0.001702 0.002565 0.001745 0.000000 0.028433 0.000000
# 6 0.000000 0.000000 0.000000 0.015639 0.000000 0.054055
#
#
# Mechanical properties :
#
#
# Convention : Reuss Voigt Hill
#
# Bulk Modulus (GPa) = 94.44796 -44.89963 24.77417
# Shear Modulus (GPa) = 43.47583 -10.54136 16.46724
#
# Velocity S-wave (km/s) = 4.14172 -2.03941 2.54898
# Velocity P-wave (km/s) = 7.75482 4.82299 4.29395
#
# Compressibility (1/GPa) = 0.01058784
#
# Stress axis : x y z
#
# Youngs Moduli (GPa) = 56.04051 145.66094 -488.37490
#
# Poissons Ratio (x) = 0.21715 -1.80449
# Poissons Ratio (y) = 0.08355 -0.41576
# Poissons Ratio (z) = 0.20706 0.12400
#
# Static dielectric constant tensor:
#      x y z
#    x 2.930830 0.000000 -0.711320 
#    y 0.000000 2.006330 0.000000 
#    z -0.711320 0.000000 2.490910 
# 
# From -- ./inp_files/84132.got.cif
#   From: 2010.05.17/outbox.cif.g08.bks.cpg/sg13_43_cif.got.tgz:84132.got - 2010.06.03 16:44:36.
