data_PCOD9230999
_publ_section_title
;
Structure prediction by ZEFSAII (Michael W. Deem and Ramdas Pophale) SiO2 
 PCOD9230999
Probable space group: P 2/C
;
_chemical_formula_sum "Si O2"
_cell_formula_units_Z 28
_cell_length_a 6.108901
_cell_length_b 15.022985
_cell_length_c 17.423258
_cell_angle_alpha 90.000000
_cell_angle_beta 121.783267
_cell_angle_gamma 90.000000
_cell_volume 1359.225140
_symmetry_space_group_name_H-M "P 2/C"
_symmetry_group_IT_number 13
_symmetry_cell_setting 'monoclinic'
loop_
_space_group_symop_operation_xyz
x,y,z
-x,y,1/2-z
-x,-y,-z
x,-y,1/2+z
loop_
_atom_site_type_symbol
_atom_site_label
_atom_site_fract_x
_atom_site_fract_y
_atom_site_fract_z
Si Si1 0.297868 0.717877 0.010819
Si Si2 0.500000 0.855502 0.750000
Si Si3 0.987963 0.033648 0.119005
Si Si4 0.745563 0.610144 0.157454
Si Si5 0.586430 0.155133 0.104295
Si Si6 0.500000 0.500553 0.250000
Si Si7 0.973035 0.535272 0.581651
Si Si8 0.986417 0.130473 0.962663
O O1 0.580675 0.689916 0.091547
O O2 0.147046 0.773972 0.048718
O O3 0.298781 0.779054 0.936262
O O4 0.169763 0.627365 0.958504
O O5 0.424771 0.804297 0.812823
O O6 0.748110 0.915181 0.815094
O O7 0.762884 0.066053 0.134609
O O8 0.050705 0.929851 0.119460
O O9 0.892512 0.070821 0.018129
O O10 0.575435 0.560727 0.190687
O O11 0.000000 0.639792 0.250000
O O12 0.825354 0.537865 0.107008
O O13 0.293313 0.138232 0.026798
O O14 0.754298 0.449645 0.325122
O O15 0.000000 0.500000 0.500000
#
# Coordination Sequence:
#
# PCOD9230999 Si02
#       8
#     4   2   4   4   4   2   4   4
#     4  11  23  39  64  96 130 166 220 271 338 388
#     4  10  20  38  62  88 128 172 210 254 329 385
#     4   9  18  38  60  84 119 163 207 251 317 389
#     4  10  23  42  66  93 125 175 222 275 334 400
#     4  10  21  37  62  91 129 169 211 268 321 397
#     4  10  22  42  64  96 122 166 232 274 323 401
#     4  11  23  41  70  90 129 180 223 271 335 403
#     4   9  20  36  61  89 116 158 208 261 315 383
#
# _framework density 20.599972000000001
#
# number of rings (size 3 to 8) (size 9 to 14) (size 15 to 20)
#    0.000    2.000    1.429    1.286    2.000    1.143 
#    0.000   23.571    0.000    0.000    0.000    0.000 
#    0.000    0.000    0.000    0.000    0.000    0.000 
#
# Total GULP energy -156126.158093 kJ/mol
# GULP energy per Si atom -5575.934218 kJ/mol
# Density = 2.055309 g / cm^3
# Si number density = 20.599972 Si / 1000 Ang^3
#
#
#
# Elastic Constant Matrix: (Units=GPa)
#
#
# Indices 1 2 3 4 5 6 
#
# 1 100.1062 36.9433 30.3077 0.0000 -7.7070 0.0000
# 2 36.9433 74.9008 39.4798 0.0000 2.4466 0.0000
# 3 30.3077 39.4798 75.7901 0.0000 -3.7290 0.0000
# 4 0.0000 0.0000 0.0000 9.9523 0.0000 -4.2640
# 5 -7.7070 2.4466 -3.7290 0.0000 44.4050 0.0000
# 6 0.0000 0.0000 0.0000 -4.2640 0.0000 17.4203
#
#
#
# Elastic Compliance Matrix: (Units=1/GPa)
#
#
# Indices 1 2 3 4 5 6 
#
# 1 0.012769 -0.005158 -0.002306 0.000000 0.002307 0.000000
# 2 -0.005158 0.020636 -0.008824 0.000000 -0.002773 0.000000
# 3 -0.002306 -0.008824 0.018795 0.000000 0.001664 0.000000
# 4 0.000000 0.000000 0.000000 0.112251 0.000000 0.027476
# 5 0.002307 -0.002773 0.001664 0.000000 0.023213 0.000000
# 6 0.000000 0.000000 0.000000 0.027476 0.000000 0.064129
#
#
# Mechanical properties :
#
#
# Convention : Reuss Voigt Hill
#
# Bulk Modulus (GPa) = 50.95497 51.58431 51.26964
# Shear Modulus (GPa) = 17.18749 23.95994 20.57371
#
# Velocity S-wave (km/s) = 2.89164 3.41413 3.16369
# Velocity P-wave (km/s) = 5.99482 6.37472 6.18769
#
# Compressibility (1/GPa) = 0.01962517
#
# Stress axis : x y z
#
# Youngs Moduli (GPa) = 78.31773 48.45796 53.20676
#
# Poissons Ratio (x) = 0.24994 0.12268
# Poissons Ratio (y) = 0.40395 0.46948
# Poissons Ratio (z) = 0.18058 0.42758
#
# Static dielectric constant tensor:
#      x y z
#    x 1.825630 0.000000 0.002900 
#    y 0.000000 1.762190 0.000000 
#    z 0.002900 0.000000 1.760050 
# 
# From -- ./inp_files/61703.got.cif
#   From: 2010.05.17/outbox.cif.g08.bks.cpg/sg13_31_cif.got.tgz:61703.got - 2010.06.03 16:44:36.
