data_PCOD9230191
_publ_section_title
;
Structure prediction by ZEFSAII (Michael W. Deem and Ramdas Pophale) SiO2 
 PCOD9230191
Probable space group: P 2/C
;
_chemical_formula_sum "Si O2"
_cell_formula_units_Z 18
_cell_length_a 12.198341
_cell_length_b 8.409262
_cell_length_c 9.612072
_cell_angle_alpha 90.000000
_cell_angle_beta 121.519468
_cell_angle_gamma 90.000000
_cell_volume 840.525692
_symmetry_space_group_name_H-M "P 2/C"
_symmetry_group_IT_number 13
_symmetry_cell_setting 'monoclinic'
loop_
_space_group_symop_operation_xyz
x,y,z
-x,y,1/2-z
-x,-y,-z
x,-y,1/2+z
loop_
_atom_site_type_symbol
_atom_site_label
_atom_site_fract_x
_atom_site_fract_y
_atom_site_fract_z
Si Si1 0.650815 0.169863 0.820347
Si Si2 0.285418 0.479855 0.243027
Si Si3 0.711250 0.927399 0.065987
Si Si4 0.141794 0.379944 0.893765
Si Si5 0.500000 0.733360 0.750000
O O1 0.500000 0.173290 0.750000
O O2 0.691549 0.344254 0.801839
O O3 0.678879 0.058399 0.706001
O O4 0.724276 0.095616 0.999884
O O5 0.243131 0.512232 0.372885
O O6 0.410876 0.374909 0.291648
O O7 0.171113 0.405398 0.074996
O O8 0.827029 0.803455 0.122889
O O9 0.593109 0.838772 0.908102
O O10 0.000000 0.420484 0.750000
#
# Coordination Sequence:
#
# PCOD9230191 Si02
#       5
#     4   4   4   4   2
#     4  11  21  35  54  86 117 145 179 225 285 342
#     4  10  22  35  62  84 114 143 188 233 284 329
#     4  10  23  35  57  81 117 148 184 226 281 332
#     4  10  22  41  58  81 112 152 193 230 269 327
#     4  10  20  36  56  90 112 146 178 238 288 332
#
# _framework density 21.41517
#
# number of rings (size 3 to 8) (size 9 to 14) (size 15 to 20)
#    0.000    1.778    2.222    1.333    3.111    4.444 
#    0.000    5.556    0.000    0.000    0.000    0.000 
#    0.000    0.000    0.000    0.000    0.000    0.000 
#
# Total GULP energy -100636.668811 kJ/mol
# GULP energy per Si atom -5590.926045 kJ/mol
# Density = 2.136643 g / cm^3
# Si number density = 21.415170 Si / 1000 Ang^3
#
#
#
# Elastic Constant Matrix: (Units=GPa)
#
#
# Indices 1 2 3 4 5 6 
#
# 1 36.1033 4.1911 6.3389 0.0000 4.5915 0.0000
# 2 4.1911 41.8768 -11.2937 0.0000 -0.6440 0.0000
# 3 6.3389 -11.2937 40.4717 0.0000 -7.9970 0.0000
# 4 0.0000 0.0000 0.0000 28.2899 0.0000 -15.2183
# 5 4.5915 -0.6440 -7.9970 0.0000 26.2408 0.0000
# 6 0.0000 0.0000 0.0000 -15.2183 0.0000 6.9534
#
#
#
# Elastic Compliance Matrix: (Units=1/GPa)
#
#
# Indices 1 2 3 4 5 6 
#
# 1 0.030697 -0.005310 -0.007850 0.000000 -0.007894 0.000000
# 2 -0.005310 0.026967 0.009227 0.000000 0.004403 0.000000
# 3 -0.007850 0.009227 0.030676 0.000000 0.010949 0.000000
# 4 0.000000 0.000000 0.000000 -0.199330 0.000000 -0.436253
# 5 -0.007894 0.004403 0.010949 0.000000 0.042934 0.000000
# 6 0.000000 0.000000 0.000000 -0.436253 0.000000 -0.810968
#
#
# Mechanical properties :
#
#
# Convention : Reuss Voigt Hill
#
# Bulk Modulus (GPa) = 12.42634 12.99159 12.70896
# Shear Modulus (GPa) = -5.92184 20.24454 7.16135
#
# Velocity S-wave (km/s) = -1.66471 3.07797 1.83066
# Velocity P-wave (km/s) = 1.45608 4.32569 3.22736
#
# Compressibility (1/GPa) = 0.08047425
#
# Stress axis : x y z
#
# Youngs Moduli (GPa) = 32.57667 37.08211 32.59852
#
# Poissons Ratio (x) = 0.19692 0.25588
# Poissons Ratio (y) = 0.17300 -0.30079
# Poissons Ratio (z) = 0.25571 -0.34216
#
# Static dielectric constant tensor:
#      x y z
#    x 1.770850 0.000000 -0.011610 
#    y 0.000000 1.800500 0.000000 
#    z -0.011610 0.000000 1.775560 
# 
# From -- ./inp_files/14501.got.cif
#   From: 2010.05.17/outbox.cif.g08.bks.cpg/sg13_8_cif.got.tgz:14501.got - 2010.06.03 16:44:36.
