data_PCOD9230556
_publ_section_title
;
Structure prediction by ZEFSAII (Michael W. Deem and Ramdas Pophale) SiO2 
 PCOD9230556
Probable space group: P 2/C
;
_chemical_formula_sum "Si O2"
_cell_formula_units_Z 20
_cell_length_a 14.382944
_cell_length_b 8.297767
_cell_length_c 22.386743
_cell_angle_alpha 90.000000
_cell_angle_beta 21.283913
_cell_angle_gamma 90.000000
_cell_volume 969.826731
_symmetry_space_group_name_H-M "P 2/C"
_symmetry_group_IT_number 13
_symmetry_cell_setting 'monoclinic'
loop_
_space_group_symop_operation_xyz
x,y,z
-x,y,1/2-z
-x,-y,-z
x,-y,1/2+z
loop_
_atom_site_type_symbol
_atom_site_label
_atom_site_fract_x
_atom_site_fract_y
_atom_site_fract_z
Si Si1 0.728495 0.895089 0.891349
Si Si2 0.037222 0.377919 0.923419
Si Si3 0.914999 0.687466 0.668904
Si Si4 0.453733 0.176470 0.868201
Si Si5 0.753582 0.119404 0.150935
O O1 0.809237 0.759704 0.794348
O O2 0.000000 0.976042 0.750000
O O3 0.614360 0.832837 0.021383
O O4 0.500000 0.000000 0.000000
O O5 0.076541 0.494221 0.843117
O O6 0.295487 0.284118 0.783926
O O7 0.000000 0.500000 0.000000
O O8 0.806546 0.248033 0.065875
O O9 0.764259 0.773720 0.705112
O O10 0.207163 0.746513 0.485513
O O11 0.518555 0.002671 0.801500
O O12 0.000000 0.000000 0.000000
#
# Coordination Sequence:
#
# PCOD9230556 Si02
#       5
#     4   4   4   4   4
#     4  10  20  37  64  90 122 162 208 262 316 373
#     4   9  20  36  54  84 119 154 199 251 307 377
#     4  10  20  37  58  84 121 158 199 259 319 371
#     4  10  20  37  60  85 119 160 204 256 315 375
#     4   9  18  34  56  84 113 153 202 249 300 374
#
# _framework density 20.622240000000001
#
# number of rings (size 3 to 8) (size 9 to 14) (size 15 to 20)
#    0.000    2.400    2.000    0.000    0.000    8.000 
#    0.000   16.000    0.000    0.000    0.000    0.000 
#    0.000    0.000    0.000    0.000    0.000    0.000 
#
# Total GULP energy -111456.714619 kJ/mol
# GULP energy per Si atom -5572.835731 kJ/mol
# Density = 2.057530 g / cm^3
# Si number density = 20.622240 Si / 1000 Ang^3
#
#
#
# Elastic Constant Matrix: (Units=GPa)
#
#
# Indices 1 2 3 4 5 6 
#
# 1 87.7503 39.1335 35.1119 0.0000 7.8863 0.0000
# 2 39.1335 142.0214 62.8434 0.0000 -1.3520 0.0000
# 3 35.1119 62.8434 116.8557 0.0000 4.1824 0.0000
# 4 0.0000 0.0000 0.0000 33.0156 0.0000 1.4894
# 5 7.8863 -1.3520 4.1824 0.0000 37.7736 0.0000
# 6 0.0000 0.0000 0.0000 1.4894 0.0000 33.4445
#
#
#
# Elastic Compliance Matrix: (Units=1/GPa)
#
#
# Indices 1 2 3 4 5 6 
#
# 1 0.013891 -0.002689 -0.002631 0.000000 -0.002705 0.000000
# 2 -0.002689 0.009790 -0.004507 0.000000 0.001411 0.000000
# 3 -0.002631 -0.004507 0.011805 0.000000 -0.000919 0.000000
# 4 0.000000 0.000000 0.000000 0.030350 0.000000 -0.001352
# 5 -0.002705 0.001411 -0.000919 0.000000 0.027191 0.000000
# 6 0.000000 0.000000 0.000000 -0.001352 0.000000 0.029960
#
#
# Mechanical properties :
#
#
# Convention : Reuss Voigt Hill
#
# Bulk Modulus (GPa) = 63.16662 68.97834 66.07248
# Shear Modulus (GPa) = 33.80225 34.81597 34.30911
#
# Velocity S-wave (km/s) = 4.05299 4.11332 4.08327
# Velocity P-wave (km/s) = 7.25253 7.48868 7.37155
#
# Compressibility (1/GPa) = 0.01583115
#
# Stress axis : x y z
#
# Youngs Moduli (GPa) = 71.98857 102.14338 84.70989
#
# Poissons Ratio (x) = 0.27469 0.22286
# Poissons Ratio (y) = 0.19360 0.38183
# Poissons Ratio (z) = 0.18939 0.46041
#
# Static dielectric constant tensor:
#      x y z
#    x 1.804830 0.000000 -0.040340 
#    y 0.000000 1.777240 0.000000 
#    z -0.040340 0.000000 1.779530 
# 
# From -- ./inp_files/31788.got.cif
#   From: 2010.05.17/outbox.cif.g08.bks.cpg/sg13_16_cif.got.tgz:31788.got - 2010.06.03 16:44:36.
