data_PCOD9230582
_publ_section_title
;
Structure prediction by ZEFSAII (Michael W. Deem and Ramdas Pophale) SiO2 
 PCOD9230582
Probable space group: P 2/C
;
_chemical_formula_sum "Si O2"
_cell_formula_units_Z 26
_cell_length_a 8.795041
_cell_length_b 8.309616
_cell_length_c 18.013926
_cell_angle_alpha 90.000000
_cell_angle_beta 105.148891
_cell_angle_gamma 90.000000
_cell_volume 1270.770144
_symmetry_space_group_name_H-M "P 2/C"
_symmetry_group_IT_number 13
_symmetry_cell_setting 'monoclinic'
loop_
_space_group_symop_operation_xyz
x,y,z
-x,y,1/2-z
-x,-y,-z
x,-y,1/2+z
loop_
_atom_site_type_symbol
_atom_site_label
_atom_site_fract_x
_atom_site_fract_y
_atom_site_fract_z
Si Si1 0.763365 0.878200 0.767751
Si Si2 0.334703 0.306411 0.097019
Si Si3 0.911736 0.155085 0.141858
Si Si4 0.015101 0.195362 0.001261
Si Si5 0.298567 0.314566 0.600317
Si Si6 0.401118 0.851222 0.962257
Si Si7 0.500000 0.125825 0.750000
O O1 0.692068 0.780555 0.827283
O O2 0.832517 0.776315 0.707093
O O3 0.932134 0.945589 0.819057
O O4 0.633928 0.010422 0.730917
O O5 0.319124 0.495282 0.107304
O O6 0.501018 0.252034 0.084488
O O7 0.196857 0.247349 0.022822
O O8 0.965942 0.260411 0.078296
O O9 0.759813 0.071724 0.088871
O O10 0.886895 0.264660 0.927698
O O11 0.000000 0.000000 0.000000
O O12 0.363133 0.254755 0.529221
O O13 0.401259 0.227436 0.677138
O O14 0.500000 0.000000 0.000000
#
# Coordination Sequence:
#
# PCOD9230582 Si02
#       7
#     4   4   4   4   4   4   2
#     4  10  20  37  59  84 114 157 201 244 300 366
#     4  11  22  38  63  90 120 159 200 257 313 357
#     4   9  19  34  58  86 113 145 196 250 291 349
#     4  10  20  39  65  89 117 160 207 250 303 371
#     4  11  24  39  56  90 127 156 199 259 313 357
#     4  11  21  37  61  88 116 154 202 249 298 367
#     4  12  24  38  58  84 118 160 206 246 296 374
#
# _framework density 20.460035999999999
#
# number of rings (size 3 to 8) (size 9 to 14) (size 15 to 20)
#    0.000    1.538    0.000    7.385    0.000    1.846 
#    0.000    0.000    0.000   14.769    0.000    0.000 
#    0.000    0.000    0.000    0.000    0.000    0.000 
#
# Total GULP energy -144735.684781 kJ/mol
# GULP energy per Si atom -5566.757107 kJ/mol
# Density = 2.041347 g / cm^3
# Si number density = 20.460036 Si / 1000 Ang^3
#
#
#
# Elastic Constant Matrix: (Units=GPa)
#
#
# Indices 1 2 3 4 5 6 
#
# 1 108.7818 20.0545 30.3858 0.0000 24.0168 0.0000
# 2 20.0545 94.3405 14.0404 0.0000 10.8256 0.0000
# 3 30.3858 14.0404 89.0604 0.0000 3.0891 0.0000
# 4 0.0000 0.0000 0.0000 19.5344 0.0000 4.5132
# 5 24.0168 10.8256 3.0891 0.0000 52.9274 0.0000
# 6 0.0000 0.0000 0.0000 4.5132 0.0000 20.6846
#
#
#
# Elastic Compliance Matrix: (Units=1/GPa)
#
#
# Indices 1 2 3 4 5 6 
#
# 1 0.011475 -0.001372 -0.003535 0.000000 -0.004720 0.000000
# 2 -0.001372 0.011262 -0.001252 0.000000 -0.001608 0.000000
# 3 -0.003535 -0.001252 0.012593 0.000000 0.001125 0.000000
# 4 0.000000 0.000000 0.000000 0.053909 0.000000 -0.011763
# 5 -0.004720 -0.001608 0.001125 0.000000 0.021299 0.000000
# 6 0.000000 0.000000 0.000000 -0.011763 0.000000 0.050912
#
#
# Mechanical properties :
#
#
# Convention : Reuss Voigt Hill
#
# Bulk Modulus (GPa) = 43.45328 46.79379 45.12354
# Shear Modulus (GPa) = 27.55758 33.80941 30.68350
#
# Velocity S-wave (km/s) = 3.67399 4.06946 3.87677
# Velocity P-wave (km/s) = 6.26752 6.70829 6.49165
#
# Compressibility (1/GPa) = 0.02301322
#
# Stress axis : x y z
#
# Youngs Moduli (GPa) = 87.14467 88.79193 79.41050
#
# Poissons Ratio (x) = 0.12178 0.28073
# Poissons Ratio (y) = 0.11952 0.09940
# Poissons Ratio (z) = 0.30807 0.11115
#
# Static dielectric constant tensor:
#      x y z
#    x 1.735490 0.000000 0.036070 
#    y 0.000000 1.650740 0.000000 
#    z 0.036070 0.000000 1.829850 
# 
# From -- ./inp_files/63874.got.cif
#   From: 2010.05.17/outbox.cif.g08.bks.cpg/sg13_32_cif.got.tgz:63874.got - 2010.06.03 16:44:36.
