data_PCOD9230061
_publ_section_title
;
Structure prediction by ZEFSAII (Michael W. Deem and Ramdas Pophale) SiO2 
 PCOD9230061
Probable space group: P 2/C
;
_chemical_formula_sum "Si O2"
_cell_formula_units_Z 20
_cell_length_a 15.779785
_cell_length_b 12.773013
_cell_length_c 8.800213
_cell_angle_alpha 90.000000
_cell_angle_beta 152.558926
_cell_angle_gamma 90.000000
_cell_volume 817.399056
_symmetry_space_group_name_H-M "P 2/C"
_symmetry_group_IT_number 13
_symmetry_cell_setting 'monoclinic'
loop_
_space_group_symop_operation_xyz
x,y,z
-x,y,1/2-z
-x,-y,-z
x,-y,1/2+z
loop_
_atom_site_type_symbol
_atom_site_label
_atom_site_fract_x
_atom_site_fract_y
_atom_site_fract_z
Si Si1 0.080582 0.262466 0.706855
Si Si2 0.318553 0.446169 0.066774
Si Si3 0.739947 0.859945 0.522613
Si Si4 0.572463 0.338325 0.700112
Si Si5 0.222260 0.077716 0.080691
O O1 0.000000 0.287524 0.750000
O O2 0.931964 0.201074 0.368544
O O3 0.157976 0.369571 0.758999
O O4 0.238238 0.176246 0.992759
O O5 0.500000 0.447157 0.250000
O O6 0.399509 0.388457 0.342447
O O7 0.281813 0.566732 0.049011
O O8 0.647254 0.772113 0.267881
O O9 0.688907 0.893604 0.616045
O O10 0.730112 0.967533 0.415821
O O11 0.500000 0.310405 0.750000
O O12 0.000000 0.069453 0.750000
#
# Coordination Sequence:
#
# PCOD9230061 Si02
#       5
#     4   4   4   4   4
#     4   9  18  36  60  86 118 154 189 234 288 344
#     4  10  22  39  60  86 119 153 191 237 290 345
#     4  10  20  35  60  83 110 150 195 236 280 340
#     4  10  21  40  59  81 119 160 186 231 303 348
#     4   9  18  34  55  82 115 148 183 236 293 332
#
# _framework density 24.467855
#
# number of rings (size 3 to 8) (size 9 to 14) (size 15 to 20)
#    0.000    2.800    0.000    4.800    0.000    4.000 
#    0.000    6.000    0.000    0.000    0.000    0.000 
#    0.000    0.000    0.000    0.000    0.000    0.000 
#
# Total GULP energy -111498.922312 kJ/mol
# GULP energy per Si atom -5574.946116 kJ/mol
# Density = 2.441216 g / cm^3
# Si number density = 24.467855 Si / 1000 Ang^3
#
#
#
# Elastic Constant Matrix: (Units=GPa)
#
#
# Indices 1 2 3 4 5 6 
#
# 1 16.7963 15.8313 4.1855 0.0000 -2.8529 0.0000
# 2 15.8313 201.9140 25.0338 0.0000 16.4675 0.0000
# 3 4.1855 25.0338 83.9206 0.0000 0.2118 0.0000
# 4 0.0000 0.0000 0.0000 36.5001 0.0000 5.5152
# 5 -2.8529 16.4675 0.2118 0.0000 15.9782 0.0000
# 6 0.0000 0.0000 0.0000 5.5152 0.0000 23.2124
#
#
#
# Elastic Compliance Matrix: (Units=1/GPa)
#
#
# Indices 1 2 3 4 5 6 
#
# 1 0.069708 -0.006877 -0.001474 0.000000 0.019554 0.000000
# 2 -0.006877 0.006309 -0.001520 0.000000 -0.007710 0.000000
# 3 -0.001474 -0.001520 0.012440 0.000000 0.001138 0.000000
# 4 0.000000 0.000000 0.000000 0.028417 0.000000 -0.006752
# 5 0.019554 -0.007710 0.001138 0.000000 0.074007 0.000000
# 6 0.000000 0.000000 0.000000 -0.006752 0.000000 0.044685
#
#
# Mechanical properties :
#
#
# Convention : Reuss Voigt Hill
#
# Bulk Modulus (GPa) = 14.55306 43.63689 29.09498
# Shear Modulus (GPa) = 17.97179 32.31017 25.14098
#
# Velocity S-wave (km/s) = 2.71312 3.63783 3.20896
# Velocity P-wave (km/s) = 3.97183 5.95971 5.06427
#
# Compressibility (1/GPa) = 0.06871407
#
# Stress axis : x y z
#
# Youngs Moduli (GPa) = 14.34559 158.50277 80.38599
#
# Poissons Ratio (x) = 1.09010 0.11852
# Poissons Ratio (y) = 0.09866 0.12215
# Poissons Ratio (z) = 0.02115 0.24085
#
# Static dielectric constant tensor:
#      x y z
#    x 2.041750 0.000000 0.054750 
#    y 0.000000 1.977880 0.000000 
#    z 0.054750 0.000000 2.022390 
# 
# From -- ./inp_files/21766.got.cif
#   From: 2010.05.17/outbox.cif.g08.bks.cpg/sg13_11_cif.got.tgz:21766.got - 2010.06.03 16:44:36.
