data_PCOD9230328
_publ_section_title
;
Structure prediction by ZEFSAII (Michael W. Deem and Ramdas Pophale) SiO2 
 PCOD9230328
Probable space group: P 2/C
;
_chemical_formula_sum "Si O2"
_cell_formula_units_Z 32
_cell_length_a 14.612243
_cell_length_b 16.418843
_cell_length_c 13.071639
_cell_angle_alpha 90.000000
_cell_angle_beta 149.687127
_cell_angle_gamma 90.000000
_cell_volume 1582.855861
_symmetry_space_group_name_H-M "P 2/C"
_symmetry_group_IT_number 13
_symmetry_cell_setting 'monoclinic'
loop_
_space_group_symop_operation_xyz
x,y,z
-x,y,1/2-z
-x,-y,-z
x,-y,1/2+z
loop_
_atom_site_type_symbol
_atom_site_label
_atom_site_fract_x
_atom_site_fract_y
_atom_site_fract_z
Si Si1 0.990098 0.412221 0.543846
Si Si2 0.545124 0.241479 0.908480
Si Si3 0.625455 0.617996 0.137706
Si Si4 0.371427 0.544678 0.725713
Si Si5 0.282379 0.906171 0.801751
Si Si6 0.931965 0.689773 0.785726
Si Si7 0.578432 0.014350 0.714529
Si Si8 0.925725 0.873468 0.566574
O O1 0.834786 0.421068 0.479624
O O2 0.939880 0.352650 0.402025
O O3 0.000000 0.500000 0.500000
O O4 0.197153 0.387078 0.763341
O O5 0.500000 0.210667 0.750000
O O6 0.400676 0.297778 0.826905
O O7 0.621181 0.173692 0.059675
O O8 0.722133 0.295652 0.060611
O O9 0.635082 0.546815 0.233086
O O10 0.460628 0.597741 0.903215
O O11 0.500000 0.546804 0.750000
O O12 0.072501 0.903355 0.626170
O O13 0.320907 0.932361 0.723881
O O14 0.393975 0.974225 0.971432
O O15 0.044829 0.775260 0.901252
O O16 0.000000 0.643254 0.750000
O O17 0.500000 0.010203 0.750000
O O18 0.729001 0.087694 0.854409
O O19 0.000000 0.900888 0.750000
#
# Coordination Sequence:
#
# PCOD9230328 Si02
#       8
#     4   4   4   4   4   4   4   4
#     4  10  21  39  54  86 123 155 203 250 295 366
#     4  11  21  36  62  90 122 155 195 259 316 356
#     4  10  21  37  60  88 118 156 203 255 307 357
#     4  10  21  39  58  85 122 161 204 248 301 364
#     4  10  23  36  57  92 118 156 194 244 303 362
#     4  10  21  35  58  93 120 154 198 257 308 360
#     4  11  21  38  60  86 124 157 198 240 295 373
#     4  10  20  36  60  89 122 154 194 250 308 354
#
# _framework density 20.216622000000001
#
# number of rings (size 3 to 8) (size 9 to 14) (size 15 to 20)
#    0.000    1.750    2.500    1.875    5.250    1.500 
#    0.000    0.625    0.000    0.000    0.000    0.000 
#    0.000    0.000    0.000    0.000    0.000    0.000 
#
# Total GULP energy -178280.135833 kJ/mol
# GULP energy per Si atom -5571.254245 kJ/mol
# Density = 2.017061 g / cm^3
# Si number density = 20.216622 Si / 1000 Ang^3
#
#
#
# Elastic Constant Matrix: (Units=GPa)
#
#
# Indices 1 2 3 4 5 6 
#
# 1 120.2666 44.9236 20.5495 0.0000 38.1494 0.0000
# 2 44.9236 38.6762 5.4644 0.0000 10.3748 0.0000
# 3 20.5495 5.4644 71.7104 0.0000 26.6925 0.0000
# 4 0.0000 0.0000 0.0000 13.0458 0.0000 -1.3094
# 5 38.1494 10.3748 26.6925 0.0000 34.7112 0.0000
# 6 0.0000 0.0000 0.0000 -1.3094 0.0000 18.6755
#
#
#
# Elastic Compliance Matrix: (Units=1/GPa)
#
#
# Indices 1 2 3 4 5 6 
#
# 1 0.021765 -0.020315 0.002739 0.000000 -0.019955 0.000000
# 2 -0.020315 0.047168 -0.001171 0.000000 0.009129 0.000000
# 3 0.002739 -0.001171 0.019950 0.000000 -0.018001 0.000000
# 4 0.000000 0.000000 0.000000 0.077196 0.000000 0.005413
# 5 -0.019955 0.009129 -0.018001 0.000000 0.061855 0.000000
# 6 0.000000 0.000000 0.000000 0.005413 0.000000 0.053926
#
#
# Mechanical properties :
#
#
# Convention : Reuss Voigt Hill
#
# Bulk Modulus (GPa) = 19.45926 41.39202 30.42564
# Shear Modulus (GPa) = 14.85955 23.93422 19.39688
#
# Velocity S-wave (km/s) = 2.71406 3.44450 3.10086
# Velocity P-wave (km/s) = 4.41223 6.02811 5.28232
#
# Compressibility (1/GPa) = 0.05138941
#
# Stress axis : x y z
#
# Youngs Moduli (GPa) = 45.94530 21.20064 50.12553
#
# Poissons Ratio (x) = 0.43069 -0.13728
# Poissons Ratio (y) = 0.93337 0.05870
# Poissons Ratio (z) = -0.12583 0.02483
#
# Static dielectric constant tensor:
#      x y z
#    x 1.802480 0.000000 -0.000940 
#    y 0.000000 1.744890 0.000000 
#    z -0.000940 0.000000 1.786300 
# 
# From -- ./inp_files/53930.got.cif
#   From: 2010.05.17/outbox.cif.g08.bks.cpg/sg13_27_cif.got.tgz:53930.got - 2010.06.03 16:44:36.
