data_PCOD9230499
_publ_section_title
;
Structure prediction by ZEFSAII (Michael W. Deem and Ramdas Pophale) SiO2 
 PCOD9230499
Probable space group: P 2/C
;
_chemical_formula_sum "Si O2"
_cell_formula_units_Z 28
_cell_length_a 28.596334
_cell_length_b 8.368376
_cell_length_c 28.413827
_cell_angle_alpha 90.000000
_cell_angle_beta 170.078227
_cell_angle_gamma 90.000000
_cell_volume 1171.588839
_symmetry_space_group_name_H-M "P 2/C"
_symmetry_group_IT_number 13
_symmetry_cell_setting 'monoclinic'
loop_
_space_group_symop_operation_xyz
x,y,z
-x,y,1/2-z
-x,-y,-z
x,-y,1/2+z
loop_
_atom_site_type_symbol
_atom_site_label
_atom_site_fract_x
_atom_site_fract_y
_atom_site_fract_z
Si Si1 0.000000 0.483441 0.250000
Si Si2 0.632474 0.773692 0.779822
Si Si3 0.222088 0.675203 0.699355
Si Si4 0.062275 0.574087 0.914404
Si Si5 0.600573 0.005994 0.168548
Si Si6 0.500000 0.283534 0.250000
Si Si7 0.295642 0.404448 0.876814
Si Si8 0.058054 0.797472 0.629204
O O1 0.053126 0.388240 0.350464
O O2 0.253198 0.600033 0.491380
O O3 0.580437 0.810066 0.782648
O O4 0.367531 0.736613 0.485621
O O5 0.733954 0.921910 0.849549
O O6 0.788760 0.600343 0.934390
O O7 0.153833 0.664262 0.686253
O O8 0.949381 0.657298 0.398513
O O9 0.382572 0.841121 0.849288
O O10 0.436428 0.557334 0.887587
O O11 0.774290 0.540339 0.654316
O O12 0.123892 0.723748 0.008524
O O13 0.829476 0.892309 0.374236
O O14 0.318153 0.911794 0.896404
#
# Coordination Sequence:
#
# PCOD9230499 Si02
#       8
#     2   4   4   4   4   2   4   4
#     4  10  22  38  66  92 124 158 204 254 316 384
#     4  10  22  42  68  92 125 161 215 266 316 368
#     4  11  23  41  65  89 125 171 217 255 305 381
#     4  11  24  43  66  95 126 162 211 261 321 378
#     4  11  23  42  62  88 127 169 210 261 309 378
#     4  10  20  36  68  98 114 158 214 262 312 370
#     4  11  20  39  65  93 122 157 209 267 305 354
#     4  12  27  40  63  92 130 172 210 252 322 380
#
# _framework density 23.899170999999999
#
# number of rings (size 3 to 8) (size 9 to 14) (size 15 to 20)
#    0.000    1.143    4.286    3.429    2.000    1.143 
#    0.000    1.429    0.000    0.000    0.000    0.000 
#    0.000    0.000    0.000    0.000    0.000    0.000 
#
# Total GULP energy -156056.104271 kJ/mol
# GULP energy per Si atom -5573.432295 kJ/mol
# Density = 2.384478 g / cm^3
# Si number density = 23.899171 Si / 1000 Ang^3
#
#
#
# Elastic Constant Matrix: (Units=GPa)
#
#
# Indices 1 2 3 4 5 6 
#
# 1 196.9819 18.7955 12.6440 0.0000 -6.9516 0.0000
# 2 18.7955 68.2788 23.6956 0.0000 -3.1277 0.0000
# 3 12.6440 23.6956 120.3649 0.0000 1.5036 0.0000
# 4 0.0000 0.0000 0.0000 37.3953 0.0000 6.7498
# 5 -6.9516 -3.1277 1.5036 0.0000 25.7433 0.0000
# 6 0.0000 0.0000 0.0000 6.7498 0.0000 40.8917
#
#
#
# Elastic Compliance Matrix: (Units=1/GPa)
#
#
# Indices 1 2 3 4 5 6 
#
# 1 0.005264 -0.001280 -0.000317 0.000000 0.001285 0.000000
# 2 -0.001280 0.016145 -0.003066 0.000000 0.001795 0.000000
# 3 -0.000317 -0.003066 0.008957 0.000000 -0.000981 0.000000
# 4 0.000000 0.000000 0.000000 0.027563 0.000000 -0.004550
# 5 0.001285 0.001795 -0.000981 0.000000 0.039467 0.000000
# 6 0.000000 0.000000 0.000000 -0.004550 0.000000 0.025206
#
#
# Mechanical properties :
#
#
# Convention : Reuss Voigt Hill
#
# Bulk Modulus (GPa) = 47.53034 55.09954 51.31494
# Shear Modulus (GPa) = 35.98617 42.83874 39.41245
#
# Velocity S-wave (km/s) = 3.88461 4.23836 4.06533
# Velocity P-wave (km/s) = 6.32861 6.85978 6.59954
#
# Compressibility (1/GPa) = 0.02103919
#
# Stress axis : x y z
#
# Youngs Moduli (GPa) = 189.95316 61.94019 111.64121
#
# Poissons Ratio (x) = 0.07930 0.03539
# Poissons Ratio (y) = 0.24320 0.34232
# Poissons Ratio (z) = 0.06022 0.18992
#
# Static dielectric constant tensor:
#      x y z
#    x 1.954690 0.000000 0.002710 
#    y 0.000000 2.183990 0.000000 
#    z 0.002710 0.000000 2.015850 
# 
# From -- ./inp_files/98140.got.cif
#   From: 2010.05.17/outbox.cif.g08.bks.cpg/sg13_50_cif.got.tgz:98140.got - 2010.06.03 16:44:36.
