data_PCOD9230554
_publ_section_title
;
Structure prediction by ZEFSAII (Michael W. Deem and Ramdas Pophale) SiO2 
 PCOD9230554
Probable space group: P 2/C
;
_chemical_formula_sum "Si O2"
_cell_formula_units_Z 20
_cell_length_a 8.706176
_cell_length_b 16.701007
_cell_length_c 7.773695
_cell_angle_alpha 90.000000
_cell_angle_beta 123.702909
_cell_angle_gamma 90.000000
_cell_volume 940.334281
_symmetry_space_group_name_H-M "P 2/C"
_symmetry_group_IT_number 13
_symmetry_cell_setting 'monoclinic'
loop_
_space_group_symop_operation_xyz
x,y,z
-x,y,1/2-z
-x,-y,-z
x,-y,1/2+z
loop_
_atom_site_type_symbol
_atom_site_label
_atom_site_fract_x
_atom_site_fract_y
_atom_site_fract_z
Si Si1 0.352963 0.069756 0.029658
Si Si2 0.876623 0.938435 0.816079
Si Si3 0.500000 0.643506 0.250000
Si Si4 0.082031 0.585057 0.989563
Si Si5 0.000000 0.298823 0.750000
Si Si6 0.412821 0.238961 0.006370
O O1 0.500000 0.031719 0.250000
O O2 0.217521 0.109665 0.089569
O O3 0.436721 0.144124 0.978806
O O4 0.257248 0.999017 0.868990
O O5 0.000000 0.894502 0.750000
O O6 0.000000 0.000000 0.000000
O O7 0.692665 0.593094 0.370835
O O8 0.496023 0.701357 0.415478
O O9 0.000000 0.601650 0.750000
O O10 0.000000 0.500000 0.000000
O O11 0.007671 0.647393 0.083655
O O12 0.806937 0.252815 0.632507
O O13 0.500000 0.253213 0.250000
#
# Coordination Sequence:
#
# PCOD9230554 Si02
#       6
#     4   4   2   4   2   4
#     4  10  20  37  58  84 118 160 208 262 320 369
#     4   9  19  35  55  83 117 151 201 265 312 366
#     4  10  24  44  64  92 136 168 206 266 308 384
#     4  11  22  41  65  99 127 165 208 252 317 369
#     4  10  22  40  64  88 130 162 208 262 300 382
#     4  10  22  42  62  89 124 171 213 256 321 379
#
# _framework density 21.269031999999999
#
# number of rings (size 3 to 8) (size 9 to 14) (size 15 to 20)
#    0.000    2.000    1.000    1.800    4.200    0.800 
#   18.000    1.000    0.000    0.000    0.000    0.000 
#    0.000    0.000    0.000    0.000    0.000    0.000 
#
# Total GULP energy -111446.429984 kJ/mol
# GULP energy per Si atom -5572.321499 kJ/mol
# Density = 2.122062 g / cm^3
# Si number density = 21.269032 Si / 1000 Ang^3
#
#
#
# Elastic Constant Matrix: (Units=GPa)
#
#
# Indices 1 2 3 4 5 6 
#
# 1 108.6325 29.9409 18.5751 0.0000 -12.0567 0.0000
# 2 29.9409 89.5852 52.7480 0.0000 -2.4960 0.0000
# 3 18.5751 52.7480 148.2422 0.0000 -2.9791 0.0000
# 4 0.0000 0.0000 0.0000 15.6222 0.0000 -4.9096
# 5 -12.0567 -2.4960 -2.9791 0.0000 40.2027 0.0000
# 6 0.0000 0.0000 0.0000 -4.9096 0.0000 25.4616
#
#
#
# Elastic Compliance Matrix: (Units=1/GPa)
#
#
# Indices 1 2 3 4 5 6 
#
# 1 0.010473 -0.003391 -0.000047 0.000000 0.002927 0.000000
# 2 -0.003391 0.015229 -0.005003 0.000000 -0.000442 0.000000
# 3 -0.000047 -0.005003 0.008538 0.000000 0.000308 0.000000
# 4 0.000000 0.000000 0.000000 0.068141 0.000000 0.013139
# 5 0.002927 -0.000442 0.000308 0.000000 0.025747 0.000000
# 6 0.000000 0.000000 0.000000 0.013139 0.000000 0.041808
#
#
# Mechanical properties :
#
#
# Convention : Reuss Voigt Hill
#
# Bulk Modulus (GPa) = 57.60890 60.99864 59.30377
# Shear Modulus (GPa) = 25.95999 32.60369 29.28184
#
# Velocity S-wave (km/s) = 3.49743 3.91950 3.71446
# Velocity P-wave (km/s) = 6.59196 7.01606 6.80732
#
# Compressibility (1/GPa) = 0.01735843
#
# Stress axis : x y z
#
# Youngs Moduli (GPa) = 95.48524 65.66278 117.12441
#
# Poissons Ratio (x) = 0.22267 0.00548
# Poissons Ratio (y) = 0.32380 0.58596
# Poissons Ratio (z) = 0.00447 0.32851
#
# Static dielectric constant tensor:
#      x y z
#    x 1.981430 0.000000 0.049250 
#    y 0.000000 1.724020 0.000000 
#    z 0.049250 0.000000 1.759730 
# 
# From -- ./inp_files/12902.got.cif
#   From: 2010.05.17/outbox.cif.g08.bks.cpg/sg13_7_cif.got.tgz:12902.got - 2010.06.03 16:44:36.
