data_PCOD9230666
_publ_section_title
;
Structure prediction by ZEFSAII (Michael W. Deem and Ramdas Pophale) SiO2 
 PCOD9230666
Probable space group: P 2/C
;
_chemical_formula_sum "Si O2"
_cell_formula_units_Z 24
_cell_length_a 8.795786
_cell_length_b 9.215137
_cell_length_c 18.391771
_cell_angle_alpha 90.000000
_cell_angle_beta 118.659264
_cell_angle_gamma 90.000000
_cell_volume 1308.099789
_symmetry_space_group_name_H-M "P 2/C"
_symmetry_group_IT_number 13
_symmetry_cell_setting 'monoclinic'
loop_
_space_group_symop_operation_xyz
x,y,z
-x,y,1/2-z
-x,-y,-z
x,-y,1/2+z
loop_
_atom_site_type_symbol
_atom_site_label
_atom_site_fract_x
_atom_site_fract_y
_atom_site_fract_z
Si Si1 0.843655 0.157968 0.157675
Si Si2 0.777988 0.352102 0.484374
Si Si3 0.850789 0.313852 0.003590
Si Si4 0.655551 0.892646 0.068734
Si Si5 0.484294 0.193544 0.161760
Si Si6 0.566422 0.859959 0.348169
O O1 0.857815 0.243512 0.085249
O O2 0.665311 0.191708 0.160033
O O3 0.000000 0.177394 0.250000
O O4 0.818193 0.993378 0.124605
O O5 0.789935 0.521397 0.504292
O O6 0.714356 0.238933 0.531319
O O7 0.631872 0.324138 0.391619
O O8 0.962219 0.311510 0.491690
O O9 0.723604 0.232287 0.917647
O O10 0.585595 0.832118 0.128725
O O11 0.500000 0.000000 0.000000
O O12 0.500000 0.210570 0.250000
O O13 0.397215 0.033202 0.133971
O O14 0.500000 0.835563 0.250000
#
# Coordination Sequence:
#
# PCOD9230666 Si02
#       6
#     4   4   4   4   4   4
#     4  11  22  39  64  94 122 158 209 259 315 374
#     4  11  23  39  61  85 127 167 207 257 320 374
#     4  11  24  40  58  91 125 167 206 255 316 385
#     4  11  20  42  63  93 121 162 212 261 313 371
#     4  10  20  37  61  90 121 158 206 260 307 371
#     4  10  21  39  63  91 122 159 211 256 314 373
#
# _framework density 18.347224000000001
#
# number of rings (size 3 to 8) (size 9 to 14) (size 15 to 20)
#    0.000    1.333    5.000    1.000    0.000   10.000 
#    0.000    4.167    0.000    0.000    0.000    0.000 
#    0.000    0.000    0.000    0.000    0.000    0.000 
#
# Total GULP energy -133723.627027 kJ/mol
# GULP energy per Si atom -5571.817793 kJ/mol
# Density = 1.830546 g / cm^3
# Si number density = 18.347224 Si / 1000 Ang^3
#
#
#
# Elastic Constant Matrix: (Units=GPa)
#
#
# Indices 1 2 3 4 5 6 
#
# 1 57.7173 57.2205 48.4518 0.0000 -3.1376 0.0000
# 2 57.2205 39.1195 41.9468 0.0000 12.2052 0.0000
# 3 48.4518 41.9468 127.2380 0.0000 -7.3756 0.0000
# 4 0.0000 0.0000 0.0000 22.6245 0.0000 1.4490
# 5 -3.1376 12.2052 -7.3756 0.0000 35.4188 0.0000
# 6 0.0000 0.0000 0.0000 1.4490 0.0000 33.2549
#
#
#
# Elastic Compliance Matrix: (Units=1/GPa)
#
#
# Indices 1 2 3 4 5 6 
#
# 1 -0.019965 0.043105 -0.007664 0.000000 -0.018219 0.000000
# 2 0.043105 -0.040896 -0.001917 0.000000 0.017512 0.000000
# 3 -0.007664 -0.001917 0.011548 0.000000 0.002386 0.000000
# 4 0.000000 0.000000 0.000000 0.044324 0.000000 -0.001931
# 5 -0.018219 0.017512 0.002386 0.000000 0.021082 0.000000
# 6 0.000000 0.000000 0.000000 -0.001931 0.000000 0.030155
#
#
# Mechanical properties :
#
#
# Convention : Reuss Voigt Hill
#
# Bulk Modulus (GPa) = 56.38426 57.70143 57.04284
# Shear Modulus (GPa) = -335.80022 23.35669 -156.22176
#
# Velocity S-wave (km/s) = -13.54335 3.57184 -9.23754
# Velocity P-wave (km/s) = 14.62070 6.96625 9.08945
#
# Compressibility (1/GPa) = 0.01773545
#
# Stress axis : x y z
#
# Youngs Moduli (GPa) = -50.08720 -24.45221 86.59506
#
# Poissons Ratio (x) = 1.05402 0.66366
# Poissons Ratio (y) = 2.15902 0.16600
# Poissons Ratio (z) = -0.38387 -0.04687
#
# Static dielectric constant tensor:
#      x y z
#    x 1.657450 0.000000 -0.028950 
#    y 0.000000 1.648310 0.000000 
#    z -0.028950 0.000000 1.785300 
# 
# From -- ./inp_files/75402.got.cif
#   From: 2010.05.17/outbox.cif.g08.bks.cpg/sg13_38_cif.got.tgz:75402.got - 2010.06.03 16:44:36.
