data_PCOD9230840
_publ_section_title
;
Structure prediction by ZEFSAII (Michael W. Deem and Ramdas Pophale) SiO2 
 PCOD9230840
Probable space group: P 2/C
;
_chemical_formula_sum "Si O2"
_cell_formula_units_Z 26
_cell_length_a 14.560562
_cell_length_b 16.617374
_cell_length_c 9.556107
_cell_angle_alpha 90.000000
_cell_angle_beta 32.030819
_cell_angle_gamma 90.000000
_cell_volume 1226.322976
_symmetry_space_group_name_H-M "P 2/C"
_symmetry_group_IT_number 13
_symmetry_cell_setting 'monoclinic'
loop_
_space_group_symop_operation_xyz
x,y,z
-x,y,1/2-z
-x,-y,-z
x,-y,1/2+z
loop_
_atom_site_type_symbol
_atom_site_label
_atom_site_fract_x
_atom_site_fract_y
_atom_site_fract_z
Si Si1 0.458863 0.240308 0.964829
Si Si2 0.000000 0.305737 0.750000
Si Si3 0.780249 0.985613 0.636734
Si Si4 0.660354 0.399770 0.283800
Si Si5 0.500000 0.510036 0.250000
Si Si6 0.446035 0.109713 0.463942
Si Si7 0.064626 0.825114 0.964436
Si Si8 0.000000 0.117802 0.250000
O O1 0.464767 0.322411 0.043465
O O2 0.579916 0.174703 0.881550
O O3 0.260888 0.208105 0.223853
O O4 0.500000 0.252947 0.750000
O O5 0.150961 0.362401 0.493794
O O6 0.948062 0.239293 0.698476
O O7 0.614771 0.940079 0.791533
O O8 0.916935 0.917123 0.503800
O O9 0.845206 0.053030 0.445931
O O10 0.706830 0.044843 0.853192
O O11 0.606376 0.457251 0.225728
O O12 0.629015 0.440820 0.477660
O O13 0.500000 0.150636 0.250000
O O14 0.005916 0.830792 0.881365
#
# Coordination Sequence:
#
# PCOD9230840 Si02
#       8
#     4   2   4   4   2   4   4   2
#     4  10  20  38  57  83 122 161 193 257 303 360
#     4  10  23  44  62  93 134 174 192 260 319 378
#     4  10  21  35  54  78 117 160 209 271 313 345
#     4  10  22  42  69  97 134 159 204 244 318 373
#     4  10  22  44  70 104 122 162 200 254 294 394
#     4  10  21  35  55  83 110 155 218 258 304 360
#     4  10  22  37  54  81 121 161 213 255 314 357
#     4  12  21  34  54  79 108 164 214 258 299 366
#
# _framework density 21.201592999999999
#
# number of rings (size 3 to 8) (size 9 to 14) (size 15 to 20)
#    0.000    1.846    0.769    2.769    1.077    8.615 
#    2.769    0.000    0.000    0.000    0.000    0.000 
#    0.000    0.000    0.000    0.000    0.000    0.000 
#
# Total GULP energy -144928.408722 kJ/mol
# GULP energy per Si atom -5574.169566 kJ/mol
# Density = 2.115334 g / cm^3
# Si number density = 21.201593 Si / 1000 Ang^3
#
#
#
# Elastic Constant Matrix: (Units=GPa)
#
#
# Indices 1 2 3 4 5 6 
#
# 1 75.9265 47.7327 38.5605 0.0000 22.3756 0.0000
# 2 47.7327 122.0266 66.8891 0.0000 15.3752 0.0000
# 3 38.5605 66.8891 112.6932 0.0000 25.8454 0.0000
# 4 0.0000 0.0000 0.0000 39.5794 0.0000 19.6073
# 5 22.3756 15.3752 25.8454 0.0000 35.7847 0.0000
# 6 0.0000 0.0000 0.0000 19.6073 0.0000 10.7432
#
#
#
# Elastic Compliance Matrix: (Units=1/GPa)
#
#
# Indices 1 2 3 4 5 6 
#
# 1 0.020362 -0.006141 -0.001207 0.000000 -0.009222 0.000000
# 2 -0.006141 0.013999 -0.006843 0.000000 0.002767 0.000000
# 3 -0.001207 -0.006843 0.014982 0.000000 -0.007126 0.000000
# 4 0.000000 0.000000 0.000000 0.263548 0.000000 -0.480998
# 5 -0.009222 0.002767 -0.007126 0.000000 0.037669 0.000000
# 6 0.000000 0.000000 0.000000 -0.480998 0.000000 0.970946
#
#
# Mechanical properties :
#
#
# Convention : Reuss Voigt Hill
#
# Bulk Modulus (GPa) = 47.70609 68.55677 58.13143
# Shear Modulus (GPa) = 3.68493 27.71906 15.70200
#
# Velocity S-wave (km/s) = 1.31978 3.61973 2.72436
# Velocity P-wave (km/s) = 4.98723 7.06228 6.11344
#
# Compressibility (1/GPa) = 0.02096168
#
# Stress axis : x y z
#
# Youngs Moduli (GPa) = 49.11053 71.43210 66.74468
#
# Poissons Ratio (x) = 0.43869 0.08058
# Poissons Ratio (y) = 0.30160 0.45670
# Poissons Ratio (z) = 0.05929 0.48878
#
# Static dielectric constant tensor:
#      x y z
#    x 1.735340 0.000000 0.007380 
#    y 0.000000 1.772830 0.000000 
#    z 0.007380 0.000000 1.893720 
# 
# From -- ./inp_files/19886.got.cif
#   From: 2010.05.17/outbox.cif.g08.bks.cpg/sg13_10_cif.got.tgz:19886.got - 2010.06.03 16:44:36.
