data_PCOD9230636
_publ_section_title
;
Structure prediction by ZEFSAII (Michael W. Deem and Ramdas Pophale) SiO2 
 PCOD9230636
Probable space group: P 2/C
;
_chemical_formula_sum "Si O2"
_cell_formula_units_Z 24
_cell_length_a 18.077520
_cell_length_b 10.175628
_cell_length_c 11.675427
_cell_angle_alpha 90.000000
_cell_angle_beta 27.183527
_cell_angle_gamma 90.000000
_cell_volume 981.158235
_symmetry_space_group_name_H-M "P 2/C"
_symmetry_group_IT_number 13
_symmetry_cell_setting 'monoclinic'
loop_
_space_group_symop_operation_xyz
x,y,z
-x,y,1/2-z
-x,-y,-z
x,-y,1/2+z
loop_
_atom_site_type_symbol
_atom_site_label
_atom_site_fract_x
_atom_site_fract_y
_atom_site_fract_z
Si Si1 0.800712 0.530673 0.015931
Si Si2 0.793784 0.150747 0.811531
Si Si3 0.856634 0.131542 0.114304
Si Si4 0.356396 0.945154 0.776975
Si Si5 0.676478 0.782591 0.070308
Si Si6 0.181298 0.556639 0.261186
O O1 0.759870 0.454089 0.952933
O O2 0.000000 0.544203 0.750000
O O3 0.707868 0.665266 0.112794
O O4 0.750622 0.489881 0.214993
O O5 0.800649 0.288171 0.738133
O O6 0.956044 0.148221 0.665482
O O7 0.817094 0.020843 0.701976
O O8 0.643953 0.129622 0.101949
O O9 0.805427 0.222539 0.289957
O O10 0.741918 0.153473 0.166881
O O11 0.282282 0.083011 0.921348
O O12 0.500000 0.000000 0.500000
O O13 0.500000 0.789641 0.250000
O O14 0.000000 0.500000 0.500000
#
# Coordination Sequence:
#
# PCOD9230636 Si02
#       6
#     4   4   4   4   4   4
#     4  10  22  40  67  94 126 172 230 285 344 406
#     4  10  22  36  63  96 125 162 221 281 333 405
#     4  10  20  37  60  94 126 162 216 273 337 407
#     4  11  22  37  59  91 130 171 209 260 342 409
#     4  11  22  39  63  89 131 177 217 274 348 412
#     4  10  21  40  64  98 131 172 228 296 346 398
#
# _framework density 24.460885999999999
#
# number of rings (size 3 to 8) (size 9 to 14) (size 15 to 20)
#    0.000    1.667    1.667    3.500    0.000    8.000 
#    0.000    0.833    3.667    0.000    0.000    0.000 
#    0.000    0.000    0.000    0.000    0.000    0.000 
#
# Total GULP energy -133685.871227 kJ/mol
# GULP energy per Si atom -5570.244634 kJ/mol
# Density = 2.440521 g / cm^3
# Si number density = 24.460886 Si / 1000 Ang^3
#
#
#
# Elastic Constant Matrix: (Units=GPa)
#
#
# Indices 1 2 3 4 5 6 
#
# 1 142.4757 19.8683 51.7814 0.0000 16.0681 0.0000
# 2 19.8683 65.4289 -2.8531 0.0000 20.9562 0.0000
# 3 51.7814 -2.8531 88.0269 0.0000 23.1025 0.0000
# 4 0.0000 0.0000 0.0000 8.1307 0.0000 13.4101
# 5 16.0681 20.9562 23.1025 0.0000 35.7076 0.0000
# 6 0.0000 0.0000 0.0000 13.4101 0.0000 31.2668
#
#
#
# Elastic Compliance Matrix: (Units=1/GPa)
#
#
# Indices 1 2 3 4 5 6 
#
# 1 0.009622 -0.003840 -0.006311 0.000000 0.002007 0.000000
# 2 -0.003840 0.021757 0.007060 0.000000 -0.015609 0.000000
# 3 -0.006311 0.007060 0.018843 0.000000 -0.013495 0.000000
# 4 0.000000 0.000000 0.000000 0.420315 0.000000 -0.180270
# 5 0.002007 -0.015609 -0.013495 0.000000 0.044994 0.000000
# 6 0.000000 0.000000 0.000000 -0.180270 0.000000 0.109299
#
#
# Mechanical properties :
#
#
# Convention : Reuss Voigt Hill
#
# Bulk Modulus (GPa) = 22.70602 48.16940 35.43771
# Shear Modulus (GPa) = 7.74364 30.16336 18.95350
#
# Velocity S-wave (km/s) = 1.78118 3.51540 2.78663
# Velocity P-wave (km/s) = 3.67870 6.01769 4.98725
#
# Compressibility (1/GPa) = 0.04404119
#
# Stress axis : x y z
#
# Youngs Moduli (GPa) = 103.93373 45.96215 53.06956
#
# Poissons Ratio (x) = 0.17648 0.33492
# Poissons Ratio (y) = 0.39908 -0.37470
# Poissons Ratio (z) = 0.65593 -0.32451
#
# Static dielectric constant tensor:
#      x y z
#    x 1.906530 0.000000 0.037100 
#    y 0.000000 1.952980 0.000000 
#    z 0.037100 0.000000 2.015460 
# 
# From -- ./inp_files/39092.got.cif
#   From: 2010.05.17/outbox.cif.g08.bks.cpg/sg13_20_cif.got.tgz:39092.got - 2010.06.03 16:44:36.
