data_PCOD9230833
_publ_section_title
;
Structure prediction by ZEFSAII (Michael W. Deem and Ramdas Pophale) SiO2 
 PCOD9230833
Probable space group: P 2/C
;
_chemical_formula_sum "Si O2"
_cell_formula_units_Z 28
_cell_length_a 5.728041
_cell_length_b 13.738309
_cell_length_c 14.635041
_cell_angle_alpha 90.000000
_cell_angle_beta 63.758343
_cell_angle_gamma 90.000000
_cell_volume 1032.988167
_symmetry_space_group_name_H-M "P 2/C"
_symmetry_group_IT_number 13
_symmetry_cell_setting 'monoclinic'
loop_
_space_group_symop_operation_xyz
x,y,z
-x,y,1/2-z
-x,-y,-z
x,-y,1/2+z
loop_
_atom_site_type_symbol
_atom_site_label
_atom_site_fract_x
_atom_site_fract_y
_atom_site_fract_z
Si Si1 0.000000 0.768981 0.750000
Si Si2 0.496184 0.295734 0.565198
Si Si3 0.285825 0.406503 0.146751
Si Si4 0.010543 0.720812 0.423980
Si Si5 0.157179 0.431460 0.405353
Si Si6 0.654794 0.113786 0.415308
Si Si7 0.994756 0.950585 0.402738
Si Si8 0.500000 0.050939 0.250000
O O1 0.239838 0.694580 0.709428
O O2 0.061873 0.837221 0.654636
O O3 0.602718 0.371236 0.471569
O O4 0.187531 0.313864 0.621021
O O5 0.543783 0.187752 0.510633
O O6 0.684809 0.304150 0.619202
O O7 0.537869 0.457219 0.145508
O O8 0.001048 0.444110 0.161781
O O9 0.885139 0.675005 0.539323
O O10 0.999793 0.836474 0.416847
O O11 0.000000 0.500000 0.500000
O O12 0.512923 0.113127 0.341436
O O13 0.729622 0.000298 0.413269
O O14 0.245393 0.982870 0.302088
O O15 0.000000 0.000000 0.500000
#
# Coordination Sequence:
#
# PCOD9230833 Si02
#       8
#     2   4   4   4   4   4   4   2
#     4  10  20  38  56  90 140 162 210 266 340 404
#     4   9  19  35  56  87 122 158 213 251 323 386
#     4   9  20  33  59  90 124 164 194 262 330 399
#     4  10  21  36  59  91 118 164 213 266 319 386
#     4  10  20  39  62  92 123 156 216 269 332 393
#     4  11  22  38  55  88 128 177 211 272 326 390
#     4  12  24  40  61  87 130 173 226 269 324 399
#     4  12  26  38  58  86 122 178 236 270 328 390
#
# _framework density 27.105830999999998
#
# number of rings (size 3 to 8) (size 9 to 14) (size 15 to 20)
#    0.000    1.714    2.857    1.286    2.000    5.143 
#    0.000    0.000    0.000    1.714    0.000    0.000 
#    0.000    0.000    0.000    0.000    0.000    0.000 
#
# Total GULP energy -156246.352821 kJ/mol
# GULP energy per Si atom -5580.226886 kJ/mol
# Density = 2.704414 g / cm^3
# Si number density = 27.105831 Si / 1000 Ang^3
#
#
#
# Elastic Constant Matrix: (Units=GPa)
#
#
# Indices 1 2 3 4 5 6 
#
# 1 261.7475 12.6633 18.2557 0.0000 -17.8660 0.0000
# 2 12.6633 73.6581 -4.4532 0.0000 -2.4764 0.0000
# 3 18.2557 -4.4532 33.5794 0.0000 -10.3782 0.0000
# 4 0.0000 0.0000 0.0000 30.7156 0.0000 -4.0707
# 5 -17.8660 -2.4764 -10.3782 0.0000 36.6516 0.0000
# 6 0.0000 0.0000 0.0000 -4.0707 0.0000 23.4584
#
#
#
# Elastic Compliance Matrix: (Units=1/GPa)
#
#
# Indices 1 2 3 4 5 6 
#
# 1 0.004085 -0.000769 -0.001889 0.000000 0.001405 0.000000
# 2 -0.000769 0.013914 0.002672 0.000000 0.001322 0.000000
# 3 -0.001889 0.002672 0.033899 0.000000 0.008859 0.000000
# 4 0.000000 0.000000 0.000000 0.033323 0.000000 0.005782
# 5 0.001405 0.001322 0.008859 0.000000 0.030566 0.000000
# 6 0.000000 0.000000 0.000000 0.005782 0.000000 0.043632
#
#
# Mechanical properties :
#
#
# Convention : Reuss Voigt Hill
#
# Bulk Modulus (GPa) = 19.25789 46.87962 33.06875
# Shear Modulus (GPa) = 28.29621 40.99972 34.64797
#
# Velocity S-wave (km/s) = 3.23447 3.89341 3.57914
# Velocity P-wave (km/s) = 4.59012 6.12732 5.41356
#
# Compressibility (1/GPa) = 0.05192677
#
# Stress axis : x y z
#
# Youngs Moduli (GPa) = 244.77940 71.86753 29.49906
#
# Poissons Ratio (x) = 0.05529 0.05572
# Poissons Ratio (y) = 0.18832 -0.07882
# Poissons Ratio (z) = 0.46238 -0.19204
#
# Static dielectric constant tensor:
#      x y z
#    x 2.324990 0.000000 0.017210 
#    y 0.000000 2.235110 0.000000 
#    z 0.017210 0.000000 2.422300 
# 
# From -- ./inp_files/61437.got.cif
#   From: 2010.05.17/outbox.cif.g08.bks.cpg/sg13_31_cif.got.tgz:61437.got - 2010.06.03 16:44:36.
