data_PCOD9230744
_publ_section_title
;
Structure prediction by ZEFSAII (Michael W. Deem and Ramdas Pophale) SiO2 
 PCOD9230744
Probable space group: P 2/C
;
_chemical_formula_sum "Si O2"
_cell_formula_units_Z 28
_cell_length_a 16.209094
_cell_length_b 9.179945
_cell_length_c 15.254479
_cell_angle_alpha 90.000000
_cell_angle_beta 35.161224
_cell_angle_gamma 90.000000
_cell_volume 1307.156439
_symmetry_space_group_name_H-M "P 2/C"
_symmetry_group_IT_number 13
_symmetry_cell_setting 'monoclinic'
loop_
_space_group_symop_operation_xyz
x,y,z
-x,y,1/2-z
-x,-y,-z
x,-y,1/2+z
loop_
_atom_site_type_symbol
_atom_site_label
_atom_site_fract_x
_atom_site_fract_y
_atom_site_fract_z
Si Si1 0.920550 0.634929 0.519682
Si Si2 0.763212 0.188100 0.293052
Si Si3 0.451279 0.443795 0.394083
Si Si4 0.158442 0.545650 0.575515
Si Si5 0.049514 0.157289 0.120223
Si Si6 0.547247 0.290418 0.924254
Si Si7 0.160037 0.874693 0.340148
O O1 0.792263 0.714220 0.682865
O O2 0.845045 0.565341 0.502172
O O3 0.000000 0.500000 0.500000
O O4 0.043788 0.759834 0.402800
O O5 0.899730 0.240658 0.230564
O O6 0.602360 0.207849 0.463585
O O7 0.801728 0.019413 0.245882
O O8 0.500000 0.413569 0.250000
O O9 0.289255 0.504576 0.524182
O O10 0.458217 0.569359 0.134776
O O11 0.448085 0.323760 0.474646
O O12 0.000000 0.522625 0.750000
O O13 0.162715 0.713586 0.539308
O O14 0.000000 0.070661 0.250000
O O15 0.100414 0.079791 0.988160
O O16 0.690115 0.205487 0.778229
#
# Coordination Sequence:
#
# PCOD9230744 Si02
#       7
#     4   4   4   4   4   4   4
#     4  11  21  37  66  91 121 159 210 267 322 366
#     4  11  23  41  61  90 128 170 212 255 316 394
#     4  11  24  39  63  97 128 162 217 274 319 372
#     4  11  20  35  60  93 122 148 206 270 317 366
#     4  10  20  37  63  91 124 160 215 268 316 374
#     4  11  24  41  66  89 134 175 214 260 326 383
#     4  11  23  41  63  93 128 175 212 254 325 395
#
# _framework density 21.420542999999999
#
# number of rings (size 3 to 8) (size 9 to 14) (size 15 to 20)
#    0.000    1.143    2.857    6.429    4.000    0.000 
#    0.000    7.143    0.000    5.143    0.000    0.000 
#    0.000    0.000    0.000    0.000    0.000    0.000 
#
# Total GULP energy -156069.891540 kJ/mol
# GULP energy per Si atom -5573.924698 kJ/mol
# Density = 2.137179 g / cm^3
# Si number density = 21.420543 Si / 1000 Ang^3
#
#
#
# Elastic Constant Matrix: (Units=GPa)
#
#
# Indices 1 2 3 4 5 6 
#
# 1 85.4155 11.1287 21.0891 0.0000 -0.1463 0.0000
# 2 11.1287 69.3573 7.3770 0.0000 -0.5326 0.0000
# 3 21.0891 7.3770 98.0933 0.0000 -12.5058 0.0000
# 4 0.0000 0.0000 0.0000 28.3172 0.0000 -1.4535
# 5 -0.1463 -0.5326 -12.5058 0.0000 48.0501 0.0000
# 6 0.0000 0.0000 0.0000 -1.4535 0.0000 14.2528
#
#
#
# Elastic Compliance Matrix: (Units=1/GPa)
#
#
# Indices 1 2 3 4 5 6 
#
# 1 0.012590 -0.001742 -0.002662 0.000000 -0.000674 0.000000
# 2 -0.001742 0.014776 -0.000741 0.000000 -0.000034 0.000000
# 3 -0.002662 -0.000741 0.011192 0.000000 0.002896 0.000000
# 4 0.000000 0.000000 0.000000 0.035500 0.000000 0.003620
# 5 -0.000674 -0.000034 0.002896 0.000000 0.021563 0.000000
# 6 0.000000 0.000000 0.000000 0.003620 0.000000 0.070531
#
#
# Mechanical properties :
#
#
# Convention : Reuss Voigt Hill
#
# Bulk Modulus (GPa) = 35.37533 36.89508 36.13521
# Shear Modulus (GPa) = 26.90126 32.34212 29.62169
#
# Velocity S-wave (km/s) = 3.54766 3.88991 3.72272
# Velocity P-wave (km/s) = 5.77336 6.11856 5.94847
#
# Compressibility (1/GPa) = 0.02826828
#
# Stress axis : x y z
#
# Youngs Moduli (GPa) = 79.42503 67.67641 89.35259
#
# Poissons Ratio (x) = 0.11791 0.23783
# Poissons Ratio (y) = 0.13838 0.06621
# Poissons Ratio (z) = 0.21141 0.05015
#
# Static dielectric constant tensor:
#      x y z
#    x 1.882500 0.000000 0.097170 
#    y 0.000000 1.782810 0.000000 
#    z 0.097170 0.000000 1.878590 
# 
# From -- ./inp_files/70471.got.cif
#   From: 2010.05.17/outbox.cif.g08.bks.cpg/sg13_36_cif.got.tgz:70471.got - 2010.06.03 16:44:36.
