data_PCOD9230651
_publ_section_title
;
Structure prediction by ZEFSAII (Michael W. Deem and Ramdas Pophale) SiO2 
 PCOD9230651
Probable space group: P 2/C
;
_chemical_formula_sum "Si O2"
_cell_formula_units_Z 20
_cell_length_a 8.636683
_cell_length_b 6.825334
_cell_length_c 17.531411
_cell_angle_alpha 90.000000
_cell_angle_beta 75.576250
_cell_angle_gamma 90.000000
_cell_volume 1000.871707
_symmetry_space_group_name_H-M "P 2/C"
_symmetry_group_IT_number 13
_symmetry_cell_setting 'monoclinic'
loop_
_space_group_symop_operation_xyz
x,y,z
-x,y,1/2-z
-x,-y,-z
x,-y,1/2+z
loop_
_atom_site_type_symbol
_atom_site_label
_atom_site_fract_x
_atom_site_fract_y
_atom_site_fract_z
Si Si1 0.176589 0.743933 0.259404
Si Si2 0.566937 0.024878 0.327258
Si Si3 0.221993 0.033757 0.914490
Si Si4 0.970621 0.689101 0.951619
Si Si5 0.157605 0.670521 0.695971
O O1 0.194067 0.837402 0.341028
O O2 0.191180 0.510805 0.247890
O O3 0.000000 0.788352 0.250000
O O4 0.318041 0.836585 0.191556
O O5 0.500000 0.057346 0.250000
O O6 0.687394 0.198412 0.330769
O O7 0.411007 0.002528 0.397782
O O8 0.151173 0.161177 0.992040
O O9 0.126617 0.827631 0.919901
O O10 0.898217 0.611912 0.881423
O O11 0.000000 0.500000 0.000000
O O12 0.000000 0.775647 0.750000
#
# Coordination Sequence:
#
# PCOD9230651 Si02
#       5
#     4   4   4   4   4
#     4  10  20  37  61  87 116 154 199 245 292 352
#     4  10  21  37  59  87 119 154 198 249 296 347
#     4  10  23  40  60  87 124 160 198 250 306 358
#     4  11  23  41  63  88 121 163 202 246 304 364
#     4  11  22  37  62  89 116 155 203 247 294 356
#
# _framework density 19.982583000000002
#
# number of rings (size 3 to 8) (size 9 to 14) (size 15 to 20)
#    0.000    1.600    0.000    6.600    0.000    6.400 
#    0.000    2.000    0.000    0.000    0.000    0.000 
#    0.000    0.000    0.000    0.000    0.000    0.000 
#
# Total GULP energy -111660.037716 kJ/mol
# GULP energy per Si atom -5583.001886 kJ/mol
# Density = 1.993710 g / cm^3
# Si number density = 19.982583 Si / 1000 Ang^3
#
#
#
# Elastic Constant Matrix: (Units=GPa)
#
#
# Indices 1 2 3 4 5 6 
#
# 1 126.9382 28.7749 38.1414 0.0000 -37.0382 0.0000
# 2 28.7749 97.1595 18.9605 0.0000 -15.7721 0.0000
# 3 38.1414 18.9605 58.1890 0.0000 -22.1732 0.0000
# 4 0.0000 0.0000 0.0000 29.6586 0.0000 -10.0703
# 5 -37.0382 -15.7721 -22.1732 0.0000 42.8694 0.0000
# 6 0.0000 0.0000 0.0000 -10.0703 0.0000 45.5651
#
#
#
# Elastic Compliance Matrix: (Units=1/GPa)
#
#
# Indices 1 2 3 4 5 6 
#
# 1 0.011639 -0.001409 -0.004403 0.000000 0.007259 0.000000
# 2 -0.001409 0.011424 -0.002069 0.000000 0.001916 0.000000
# 3 -0.004403 -0.002069 0.023672 0.000000 0.007678 0.000000
# 4 0.000000 0.000000 0.000000 0.036453 0.000000 0.008056
# 5 0.007259 0.001916 0.007678 0.000000 0.034275 0.000000
# 6 0.000000 0.000000 0.000000 0.008056 0.000000 0.023727
#
#
# Mechanical properties :
#
#
# Convention : Reuss Voigt Hill
#
# Bulk Modulus (GPa) = 32.28769 50.44893 41.36831
# Shear Modulus (GPa) = 29.89078 36.71261 33.30170
#
# Velocity S-wave (km/s) = 3.87181 4.29094 4.08675
# Velocity P-wave (km/s) = 6.01505 7.06051 6.55865
#
# Compressibility (1/GPa) = 0.03097156
#
# Stress axis : x y z
#
# Youngs Moduli (GPa) = 85.92147 87.53197 42.24479
#
# Poissons Ratio (x) = 0.12334 0.18602
# Poissons Ratio (y) = 0.12107 0.08740
# Poissons Ratio (z) = 0.37834 0.18110
#
# Static dielectric constant tensor:
#      x y z
#    x 1.690050 0.000000 -0.017480 
#    y 0.000000 1.715320 0.000000 
#    z -0.017480 0.000000 1.731920 
# 
# From -- ./inp_files/74457.got.cif
#   From: 2010.05.17/outbox.cif.g08.bks.cpg/sg13_38_cif.got.tgz:74457.got - 2010.06.03 16:44:36.
