data_PCOD9230863
_publ_section_title
;
Structure prediction by ZEFSAII (Michael W. Deem and Ramdas Pophale) SiO2 
 PCOD9230863
Probable space group: P 2/C
;
_chemical_formula_sum "Si O2"
_cell_formula_units_Z 30
_cell_length_a 14.978952
_cell_length_b 12.147596
_cell_length_c 17.681638
_cell_angle_alpha 90.000000
_cell_angle_beta 149.980311
_cell_angle_gamma 90.000000
_cell_volume 1609.617396
_symmetry_space_group_name_H-M "P 2/C"
_symmetry_group_IT_number 13
_symmetry_cell_setting 'monoclinic'
loop_
_space_group_symop_operation_xyz
x,y,z
-x,y,1/2-z
-x,-y,-z
x,-y,1/2+z
loop_
_atom_site_type_symbol
_atom_site_label
_atom_site_fract_x
_atom_site_fract_y
_atom_site_fract_z
Si Si1 0.908685 0.619370 0.440666
Si Si2 0.306941 0.550406 0.347136
Si Si3 0.881157 0.169433 0.470669
Si Si4 0.950456 0.651932 0.801195
Si Si5 0.500000 0.242177 0.250000
Si Si6 0.625888 0.749013 0.000094
Si Si7 0.735514 0.141633 0.203726
Si Si8 0.874306 0.056972 0.721936
O O1 0.728188 0.601108 0.261537
O O2 0.000000 0.500000 0.500000
O O3 0.029723 0.711973 0.486623
O O4 0.898761 0.649304 0.521994
O O5 0.500000 0.500000 0.500000
O O6 0.170326 0.453585 0.266947
O O7 0.289263 0.651706 0.390503
O O8 0.683148 0.180063 0.361698
O O9 0.841633 0.116373 0.359726
O O10 0.010070 0.107228 0.623777
O O11 0.841121 0.762705 0.737588
O O12 0.000000 0.646552 0.750000
O O13 0.442324 0.299068 0.129813
O O14 0.454275 0.805248 0.913846
O O15 0.771062 0.845268 0.103438
O O16 0.738559 0.032146 0.156279
O O17 0.000000 0.004217 0.750000
#
# Coordination Sequence:
#
# PCOD9230863 Si02
#       8
#     4   4   4   4   2   4   4   4
#     4   9  20  36  61  83 118 157 195 235 299 360
#     4  11  21  39  62  86 118 157 200 248 296 358
#     4  10  20  38  58  86 118 151 198 242 296 359
#     4  10  21  39  60  87 119 159 202 243 293 358
#     4  10  22  36  56  90 122 142 192 252 302 344
#     4  11  22  39  61  86 121 153 199 247 303 354
#     4  10  22  39  60  82 119 166 193 237 303 363
#     4  12  22  37  61  90 117 150 203 252 290 352
#
# _framework density 18.637968000000001
#
# number of rings (size 3 to 8) (size 9 to 14) (size 15 to 20)
#    0.000    1.600    4.000    1.200    1.867    2.667 
#    0.000    0.000    0.000    0.000    0.000    0.000 
#    0.000    0.000    0.000    0.000    0.000    0.000 
#
# Total GULP energy -167102.264868 kJ/mol
# GULP energy per Si atom -5570.075496 kJ/mol
# Density = 1.859555 g / cm^3
# Si number density = 18.637968 Si / 1000 Ang^3
#
#
#
# Elastic Constant Matrix: (Units=GPa)
#
#
# Indices 1 2 3 4 5 6 
#
# 1 98.5695 15.7056 32.3766 0.0000 -18.2234 0.0000
# 2 15.7056 58.3026 9.9230 0.0000 -10.6489 0.0000
# 3 32.3766 9.9230 90.4516 0.0000 -20.4510 0.0000
# 4 0.0000 0.0000 0.0000 20.2083 0.0000 -3.6690
# 5 -18.2234 -10.6489 -20.4510 0.0000 30.8658 0.0000
# 6 0.0000 0.0000 0.0000 -3.6690 0.0000 15.2352
#
#
#
# Elastic Compliance Matrix: (Units=1/GPa)
#
#
# Indices 1 2 3 4 5 6 
#
# 1 0.012334 -0.001959 -0.003183 0.000000 0.004497 0.000000
# 2 -0.001959 0.018653 -0.000178 0.000000 0.005160 0.000000
# 3 -0.003183 -0.000178 0.013851 0.000000 0.007236 0.000000
# 4 0.000000 0.000000 0.000000 0.051747 0.000000 0.012462
# 5 0.004497 0.005160 0.007236 0.000000 0.041628 0.000000
# 6 0.000000 0.000000 0.000000 0.012462 0.000000 0.068639
#
#
# Mechanical properties :
#
#
# Convention : Reuss Voigt Hill
#
# Bulk Modulus (GPa) = 29.24326 40.37046 34.80686
# Shear Modulus (GPa) = 21.84436 25.88310 23.86373
#
# Velocity S-wave (km/s) = 3.42721 3.73061 3.58213
# Velocity P-wave (km/s) = 5.60226 6.34539 5.98537
#
# Compressibility (1/GPa) = 0.03419591
#
# Stress axis : x y z
#
# Youngs Moduli (GPa) = 81.07447 53.61186 72.19829
#
# Poissons Ratio (x) = 0.10505 0.22983
# Poissons Ratio (y) = 0.15886 0.01286
# Poissons Ratio (z) = 0.25808 0.00955
#
# Static dielectric constant tensor:
#      x y z
#    x 1.680960 0.000000 -0.012080 
#    y 0.000000 1.343400 0.000000 
#    z -0.012080 0.000000 1.659310 
# 
# From -- ./inp_files/68546.got.cif
#   From: 2010.05.17/outbox.cif.g08.bks.cpg/sg13_35_cif.got.tgz:68546.got - 2010.06.03 16:44:36.
