data_PCOD9230268
_publ_section_title
;
Structure prediction by ZEFSAII (Michael W. Deem and Ramdas Pophale) SiO2 
 PCOD9230268
Probable space group: P 2/C
;
_chemical_formula_sum "Si O2"
_cell_formula_units_Z 16
_cell_length_a 7.512182
_cell_length_b 15.665749
_cell_length_c 7.250655
_cell_angle_alpha 90.000000
_cell_angle_beta 123.175152
_cell_angle_gamma 90.000000
_cell_volume 714.201647
_symmetry_space_group_name_H-M "P 2/C"
_symmetry_group_IT_number 13
_symmetry_cell_setting 'monoclinic'
loop_
_space_group_symop_operation_xyz
x,y,z
-x,y,1/2-z
-x,-y,-z
x,-y,1/2+z
loop_
_atom_site_type_symbol
_atom_site_label
_atom_site_fract_x
_atom_site_fract_y
_atom_site_fract_z
Si Si1 0.150622 0.615926 0.557779
Si Si2 0.000000 0.774962 0.250000
Si Si3 0.709997 0.557994 0.486295
Si Si4 0.000000 0.064356 0.250000
Si Si5 0.258213 0.908389 0.548597
O O1 0.239356 0.543511 0.469543
O O2 0.110931 0.708167 0.452552
O O3 0.917590 0.590556 0.498706
O O4 0.295911 0.605119 0.821173
O O5 0.194577 0.843322 0.348509
O O6 0.500000 0.571045 0.250000
O O7 0.110691 0.113307 0.144012
O O8 0.180084 0.001441 0.437342
O O9 0.500000 0.906507 0.750000
#
# Coordination Sequence:
#
# PCOD9230268 Si02
#       5
#     4   2   4   2   4
#     4  10  21  36  53  80 115 145 196 254 294 354
#     4  11  24  38  52  85 126 156 192 245 300 360
#     4  10  20  36  59  79 102 152 205 249 303 353
#     4   9  20  40  66  93 120 150 204 251 280 352
#     4  10  21  39  64  91 121 161 198 240 299 354
#
# _framework density 22.402636999999999
#
# number of rings (size 3 to 8) (size 9 to 14) (size 15 to 20)
#    0.000    2.000    0.000    4.500    0.000    5.000 
#    0.000    0.000    0.000    1.500    0.000    0.000 
#    0.000    0.000    0.000    0.000    0.000    0.000 
#
# Total GULP energy -89211.087763 kJ/mol
# GULP energy per Si atom -5575.692985 kJ/mol
# Density = 2.235165 g / cm^3
# Si number density = 22.402637 Si / 1000 Ang^3
#
#
#
# Elastic Constant Matrix: (Units=GPa)
#
#
# Indices 1 2 3 4 5 6 
#
# 1 47.4392 11.1730 37.8046 0.0000 13.3354 0.0000
# 2 11.1730 98.0040 45.6261 0.0000 10.7077 0.0000
# 3 37.8046 45.6261 193.4060 0.0000 26.5330 0.0000
# 4 0.0000 0.0000 0.0000 -1.0249 0.0000 -1.0890
# 5 13.3354 10.7077 26.5330 0.0000 50.1620 0.0000
# 6 0.0000 0.0000 0.0000 -1.0890 0.0000 0.5915
#
#
#
# Elastic Compliance Matrix: (Units=1/GPa)
#
#
# Indices 1 2 3 4 5 6 
#
# 1 0.025909 -0.000440 -0.004344 0.000000 -0.004496 0.000000
# 2 -0.000440 0.011526 -0.002492 0.000000 -0.001025 0.000000
# 3 -0.004344 -0.002492 0.006875 0.000000 -0.001950 0.000000
# 4 0.000000 0.000000 0.000000 -0.330076 0.000000 -0.607655
# 5 -0.004496 -0.001025 -0.001950 0.000000 0.022381 0.000000
# 6 0.000000 0.000000 0.000000 -0.607655 0.000000 0.571881
#
#
# Mechanical properties :
#
#
# Convention : Reuss Voigt Hill
#
# Bulk Modulus (GPa) = 33.60541 58.67299 46.13920
# Shear Modulus (GPa) = 15.01650 26.22876 20.62263
#
# Velocity S-wave (km/s) = 2.59183 3.42539 3.03734
# Velocity P-wave (km/s) = 4.89795 6.47236 5.73940
#
# Compressibility (1/GPa) = 0.02975711
#
# Stress axis : x y z
#
# Youngs Moduli (GPa) = 38.59711 86.75872 145.45505
#
# Poissons Ratio (x) = 0.03820 0.63180
# Poissons Ratio (y) = 0.01699 0.36254
# Poissons Ratio (z) = 0.16765 0.21624
#
# Static dielectric constant tensor:
#      x y z
#    x 1.868920 0.000000 -0.084140 
#    y 0.000000 1.825640 0.000000 
#    z -0.084140 0.000000 1.934640 
# 
# From -- ./inp_files/12217.got.cif
#   From: 2010.05.17/outbox.cif.g08.bks.cpg/sg13_7_cif.got.tgz:12217.got - 2010.06.03 16:44:36.
