data_PCOD9230638
_publ_section_title
;
Structure prediction by ZEFSAII (Michael W. Deem and Ramdas Pophale) SiO2 
 PCOD9230638
Probable space group: P 2/C
;
_chemical_formula_sum "Si O2"
_cell_formula_units_Z 28
_cell_length_a 20.062803
_cell_length_b 8.376821
_cell_length_c 20.007875
_cell_angle_alpha 90.000000
_cell_angle_beta 158.685023
_cell_angle_gamma 90.000000
_cell_volume 1222.277914
_symmetry_space_group_name_H-M "P 2/C"
_symmetry_group_IT_number 13
_symmetry_cell_setting 'monoclinic'
loop_
_space_group_symop_operation_xyz
x,y,z
-x,y,1/2-z
-x,-y,-z
x,-y,1/2+z
loop_
_atom_site_type_symbol
_atom_site_label
_atom_site_fract_x
_atom_site_fract_y
_atom_site_fract_z
Si Si1 0.885289 0.634809 0.852884
Si Si2 0.213844 0.237888 0.437749
Si Si3 0.815012 0.660079 0.035985
Si Si4 0.390340 0.072403 0.080125
Si Si5 0.323736 0.223473 0.227240
Si Si6 0.438320 0.549731 0.045142
Si Si7 0.772430 0.327694 0.914321
O O1 0.806968 0.764088 0.831353
O O2 0.708188 0.560958 0.650696
O O3 0.000000 0.500000 0.000000
O O4 0.029681 0.696509 0.933021
O O5 0.321859 0.378688 0.499594
O O6 0.280515 0.211696 0.576044
O O7 0.000000 0.272415 0.250000
O O8 0.246007 0.067968 0.432503
O O9 0.000000 0.641913 0.250000
O O10 0.691376 0.753255 0.975151
O O11 0.801893 0.769892 0.957159
O O12 0.770729 0.493153 0.956864
O O13 0.500000 0.038805 0.250000
O O14 0.530800 0.085170 0.149928
O O15 0.458516 0.379673 0.356998
O O16 0.616950 0.664052 0.212912
#
# Coordination Sequence:
#
# PCOD9230638 Si02
#       7
#     4   4   4   4   4   4   4
#     4  12  23  41  63  99 130 168 215 258 313 388
#     4  12  23  42  65  94 127 166 215 272 320 370
#     4  10  20  37  60  96 122 157 214 267 316 367
#     4  10  22  39  61  88 126 167 209 265 321 375
#     4  10  23  40  62  93 132 166 210 258 323 375
#     4  11  23  41  66  95 130 165 213 266 321 370
#     4  11  23  39  67  96 129 165 210 266 321 376
#
# _framework density 22.908048000000001
#
# number of rings (size 3 to 8) (size 9 to 14) (size 15 to 20)
#    0.000    1.143    4.286    3.429    2.000    2.286 
#    0.000    0.714    0.000    4.286    0.000    0.000 
#    0.000    0.000    0.000    0.000    0.000    0.000 
#
# Total GULP energy -155964.241456 kJ/mol
# GULP energy per Si atom -5570.151481 kJ/mol
# Density = 2.285591 g / cm^3
# Si number density = 22.908048 Si / 1000 Ang^3
#
#
#
# Elastic Constant Matrix: (Units=GPa)
#
#
# Indices 1 2 3 4 5 6 
#
# 1 117.7496 31.5858 19.9481 0.0000 15.0079 0.0000
# 2 31.5858 67.4392 18.3289 0.0000 26.5721 0.0000
# 3 19.9481 18.3289 142.7779 0.0000 -8.8689 0.0000
# 4 0.0000 0.0000 0.0000 15.2395 0.0000 11.8142
# 5 15.0079 26.5721 -8.8689 0.0000 43.2060 0.0000
# 6 0.0000 0.0000 0.0000 11.8142 0.0000 20.3312
#
#
#
# Elastic Compliance Matrix: (Units=1/GPa)
#
#
# Indices 1 2 3 4 5 6 
#
# 1 0.009849 -0.003864 -0.000957 0.000000 -0.001242 0.000000
# 2 -0.003864 0.022754 -0.003208 0.000000 -0.013310 0.000000
# 3 -0.000957 -0.003208 0.007792 0.000000 0.003905 0.000000
# 4 0.000000 0.000000 0.000000 0.119410 0.000000 -0.069388
# 5 -0.001242 -0.013310 0.003905 0.000000 0.032564 0.000000
# 6 0.000000 0.000000 0.000000 -0.069388 0.000000 0.089506
#
#
# Mechanical properties :
#
#
# Convention : Reuss Voigt Hill
#
# Bulk Modulus (GPa) = 41.08854 51.96580 46.52717
# Shear Modulus (GPa) = 16.33741 32.96227 24.64984
#
# Velocity S-wave (km/s) = 2.67343 3.79739 3.28385
# Velocity P-wave (km/s) = 5.24451 6.47771 5.89345
#
# Compressibility (1/GPa) = 0.02433768
#
# Stress axis : x y z
#
# Youngs Moduli (GPa) = 101.52870 43.94792 128.33660
#
# Poissons Ratio (x) = 0.16980 0.12285
# Poissons Ratio (y) = 0.39228 0.41171
# Poissons Ratio (z) = 0.09719 0.14099
#
# Static dielectric constant tensor:
#      x y z
#    x 1.916260 0.000000 0.000700 
#    y 0.000000 1.937850 0.000000 
#    z 0.000700 0.000000 1.921940 
# 
# From -- ./inp_files/81789.got.cif
#   From: 2010.05.17/outbox.cif.g08.bks.cpg/sg13_41_cif.got.tgz:81789.got - 2010.06.03 16:44:36.
