data_PCOD9230515
_publ_section_title
;
Structure prediction by ZEFSAII (Michael W. Deem and Ramdas Pophale) SiO2 
 PCOD9230515
Probable space group: P 2/C
;
_chemical_formula_sum "Si O2"
_cell_formula_units_Z 32
_cell_length_a 19.065452
_cell_length_b 8.806994
_cell_length_c 10.382460
_cell_angle_alpha 90.000000
_cell_angle_beta 60.650834
_cell_angle_gamma 90.000000
_cell_volume 1519.556012
_symmetry_space_group_name_H-M "P 2/C"
_symmetry_group_IT_number 13
_symmetry_cell_setting 'monoclinic'
loop_
_space_group_symop_operation_xyz
x,y,z
-x,y,1/2-z
-x,-y,-z
x,-y,1/2+z
loop_
_atom_site_type_symbol
_atom_site_label
_atom_site_fract_x
_atom_site_fract_y
_atom_site_fract_z
Si Si1 0.081572 0.172679 0.208065
Si Si2 0.848074 0.262256 0.110585
Si Si3 0.310312 0.396831 0.190554
Si Si4 0.079721 0.559857 0.500891
Si Si5 0.766338 0.024438 0.552095
Si Si6 0.233477 0.299809 0.753856
Si Si7 0.339438 0.222682 0.425646
Si Si8 0.552473 0.525623 0.579569
O O1 0.081665 0.212414 0.357759
O O2 0.075595 0.322873 0.123185
O O3 0.000000 0.081419 0.250000
O O4 0.165845 0.090655 0.103867
O O5 0.776117 0.327692 0.265532
O O6 0.810926 0.120307 0.073314
O O7 0.876270 0.402817 0.999096
O O8 0.289281 0.565469 0.259683
O O9 0.342187 0.297976 0.281260
O O10 0.369899 0.420212 0.018321
O O11 0.141590 0.645574 0.348706
O O12 0.000000 0.500000 0.500000
O O13 0.753481 0.149360 0.674069
O O14 0.683105 0.955168 0.570289
O O15 0.264665 0.278243 0.581130
O O16 0.415223 0.301025 0.429006
O O17 0.500000 0.484071 0.750000
O O18 0.500000 0.500000 0.500000
#
# Coordination Sequence:
#
# PCOD9230515 Si02
#       8
#     4   4   4   4   4   4   4   4
#     4  11  22  39  59  84 121 168 217 277 328 375
#     4  10  21  38  57  84 120 158 218 260 324 377
#     4   9  20  37  64  96 125 167 206 271 317 389
#     4  10  20  37  54  81 113 155 211 278 329 373
#     4  10  22  38  57  88 121 172 215 258 317 398
#     4   9  20  35  59  86 120 166 217 257 323 387
#     4  10  20  40  63  94 133 163 217 264 323 387
#     4  11  21  38  68 109 137 163 202 269 334 389
#
# _framework density 21.058783999999999
#
# number of rings (size 3 to 8) (size 9 to 14) (size 15 to 20)
#    0.000    2.000    2.500    0.750    0.000   12.500 
#    2.250    0.000    0.000    3.000    0.000    0.000 
#    0.000    0.000    0.000    0.000    0.000    0.000 
#
# Total GULP energy -178257.563158 kJ/mol
# GULP energy per Si atom -5570.548849 kJ/mol
# Density = 2.101085 g / cm^3
# Si number density = 21.058784 Si / 1000 Ang^3
#
#
#
# Elastic Constant Matrix: (Units=GPa)
#
#
# Indices 1 2 3 4 5 6 
#
# 1 80.1521 23.6179 6.7696 0.0000 1.4316 0.0000
# 2 23.6179 102.4414 24.7566 0.0000 -3.7419 0.0000
# 3 6.7696 24.7566 97.9811 0.0000 -7.4481 0.0000
# 4 0.0000 0.0000 0.0000 22.3222 0.0000 -5.1564
# 5 1.4316 -3.7419 -7.4481 0.0000 22.2372 0.0000
# 6 0.0000 0.0000 0.0000 -5.1564 0.0000 36.1962
#
#
#
# Elastic Compliance Matrix: (Units=1/GPa)
#
#
# Indices 1 2 3 4 5 6 
#
# 1 0.013435 -0.003088 -0.000260 0.000000 -0.001472 0.000000
# 2 -0.003088 0.011124 -0.002504 0.000000 0.001232 0.000000
# 3 -0.000260 -0.002504 0.011109 0.000000 0.003316 0.000000
# 4 0.000000 0.000000 0.000000 0.046323 0.000000 0.006599
# 5 -0.001472 0.001232 0.003316 0.000000 0.046382 0.000000
# 6 0.000000 0.000000 0.000000 0.006599 0.000000 0.028567
#
#
# Mechanical properties :
#
#
# Convention : Reuss Voigt Hill
#
# Bulk Modulus (GPa) = 41.72990 43.42919 42.57955
# Shear Modulus (GPa) = 28.30770 31.17984 29.74377
#
# Velocity S-wave (km/s) = 3.67034 3.85204 3.76229
# Velocity P-wave (km/s) = 6.14986 6.36018 6.25591
#
# Compressibility (1/GPa) = 0.02396363
#
# Stress axis : x y z
#
# Youngs Moduli (GPa) = 74.43509 89.89790 90.01999
#
# Poissons Ratio (x) = 0.27763 0.02338
# Poissons Ratio (y) = 0.22988 0.22537
# Poissons Ratio (z) = 0.01933 0.22507
#
# Static dielectric constant tensor:
#      x y z
#    x 1.836780 0.000000 -0.045120 
#    y 0.000000 1.792310 0.000000 
#    z -0.045120 0.000000 1.781680 
# 
# From -- ./inp_files/40507.got.cif
#   From: 2010.05.17/outbox.cif.g08.bks.cpg/sg13_21_cif.got.tgz:40507.got - 2010.06.03 16:44:36.
