data_PCOD9230347
_publ_section_title
;
Structure prediction by ZEFSAII (Michael W. Deem and Ramdas Pophale) SiO2 
 PCOD9230347
Probable space group: P 2/C
;
_chemical_formula_sum "Si O2"
_cell_formula_units_Z 28
_cell_length_a 13.913006
_cell_length_b 12.678539
_cell_length_c 16.822940
_cell_angle_alpha 90.000000
_cell_angle_beta 26.111215
_cell_angle_gamma 90.000000
_cell_volume 1306.045150
_symmetry_space_group_name_H-M "P 2/C"
_symmetry_group_IT_number 13
_symmetry_cell_setting 'monoclinic'
loop_
_space_group_symop_operation_xyz
x,y,z
-x,y,1/2-z
-x,-y,-z
x,-y,1/2+z
loop_
_atom_site_type_symbol
_atom_site_label
_atom_site_fract_x
_atom_site_fract_y
_atom_site_fract_z
Si Si1 0.620465 0.483777 0.825332
Si Si2 0.999665 0.006188 0.133205
Si Si3 0.343024 0.828615 0.436801
Si Si4 0.422839 0.029177 0.470494
Si Si5 0.017308 0.353549 0.013228
Si Si6 0.201461 0.866959 0.862079
Si Si7 0.788499 0.393507 0.453722
O O1 0.792702 0.386505 0.690075
O O2 0.793955 0.577080 0.677396
O O3 0.500000 0.500000 0.000000
O O4 0.424613 0.463494 0.907287
O O5 0.832824 0.964023 0.322485
O O6 0.872337 0.049394 0.150420
O O7 0.152770 0.915205 0.984361
O O8 0.131971 0.108492 0.063525
O O9 0.500000 0.790866 0.250000
O O10 0.272488 0.723670 0.534891
O O11 0.469979 0.922827 0.385794
O O12 0.539173 0.129945 0.346353
O O13 0.500000 0.000000 0.500000
O O14 0.131271 0.373664 0.015083
O O15 0.933182 0.237046 0.056967
O O16 0.000000 0.434903 0.250000
#
# Coordination Sequence:
#
# PCOD9230347 Si02
#       7
#     4   4   4   4   4   4   4
#     4  11  25  44  69 101 136 174 230 298 361 407
#     4  10  20  36  60  93 137 172 209 264 323 392
#     4  12  22  38  63 100 134 171 226 280 328 398
#     4  10  22  35  57  90 133 173 213 262 324 392
#     4  11  24  45  71 102 135 177 230 287 350 418
#     4  10  21  38  60  97 132 173 213 265 329 398
#     4  12  24  41  72 104 133 172 231 290 346 414
#
# _framework density 21.438769000000001
#
# number of rings (size 3 to 8) (size 9 to 14) (size 15 to 20)
#    0.000    1.143    4.286    2.571    2.000    1.143 
#    0.000    0.000   12.571    0.000    0.000    0.000 
#    0.000    0.000    0.000    0.000    0.000    0.000 
#
# Total GULP energy -156033.924126 kJ/mol
# GULP energy per Si atom -5572.640147 kJ/mol
# Density = 2.138997 g / cm^3
# Si number density = 21.438769 Si / 1000 Ang^3
#
#
#
# Elastic Constant Matrix: (Units=GPa)
#
#
# Indices 1 2 3 4 5 6 
#
# 1 58.8832 24.8240 27.3914 0.0000 -19.6461 0.0000
# 2 24.8240 63.1504 54.6654 0.0000 -0.0130 0.0000
# 3 27.3914 54.6654 187.1409 0.0000 -5.5647 0.0000
# 4 0.0000 0.0000 0.0000 39.4767 0.0000 -13.7841
# 5 -19.6461 -0.0130 -5.5647 0.0000 27.0803 0.0000
# 6 0.0000 0.0000 0.0000 -13.7841 0.0000 30.2848
#
#
#
# Elastic Compliance Matrix: (Units=1/GPa)
#
#
# Indices 1 2 3 4 5 6 
#
# 1 0.028691 -0.010938 -0.000388 0.000000 0.020729 0.000000
# 2 -0.010938 0.025408 -0.006094 0.000000 -0.009175 0.000000
# 3 -0.000388 -0.006094 0.007216 0.000000 0.001198 0.000000
# 4 0.000000 0.000000 0.000000 0.030118 0.000000 0.013708
# 5 0.020729 -0.009175 0.001198 0.000000 0.052208 0.000000
# 6 0.000000 0.000000 0.000000 0.013708 0.000000 0.039259
#
#
# Mechanical properties :
#
#
# Convention : Reuss Voigt Hill
#
# Bulk Modulus (GPa) = 37.77104 58.10402 47.93753
# Shear Modulus (GPa) = 22.06883 32.85461 27.46172
#
# Velocity S-wave (km/s) = 3.21189 3.91894 3.58290
# Velocity P-wave (km/s) = 5.60458 6.90208 6.28689
#
# Compressibility (1/GPa) = 0.02647531
#
# Stress axis : x y z
#
# Youngs Moduli (GPa) = 34.85444 39.35778 138.58079
#
# Poissons Ratio (x) = 0.43050 0.05376
# Poissons Ratio (y) = 0.38124 0.84447
# Poissons Ratio (z) = 0.01352 0.23984
#
# Static dielectric constant tensor:
#      x y z
#    x 1.840510 0.000000 -0.042600 
#    y 0.000000 1.764030 0.000000 
#    z -0.042600 0.000000 1.906490 
# 
# From -- ./inp_files/81051.got.cif
#   From: 2010.05.17/outbox.cif.g08.bks.cpg/sg13_41_cif.got.tgz:81051.got - 2010.06.03 16:44:36.
