data_PCOD9230975
_publ_section_title
;
Structure prediction by ZEFSAII (Michael W. Deem and Ramdas Pophale) SiO2 
 PCOD9230975
Probable space group: P 2/C
;
_chemical_formula_sum "Si O2"
_cell_formula_units_Z 30
_cell_length_a 14.628503
_cell_length_b 13.586233
_cell_length_c 8.784651
_cell_angle_alpha 90.000000
_cell_angle_beta 99.127460
_cell_angle_gamma 90.000000
_cell_volume 1723.809465
_symmetry_space_group_name_H-M "P 2/C"
_symmetry_group_IT_number 13
_symmetry_cell_setting 'monoclinic'
loop_
_space_group_symop_operation_xyz
x,y,z
-x,y,1/2-z
-x,-y,-z
x,-y,1/2+z
loop_
_atom_site_type_symbol
_atom_site_label
_atom_site_fract_x
_atom_site_fract_y
_atom_site_fract_z
Si Si1 0.287004 0.415875 0.040539
Si Si2 0.402864 0.089456 0.317308
Si Si3 0.728248 0.299341 0.757360
Si Si4 0.000000 0.536346 0.750000
Si Si5 0.599038 0.690208 0.693061
Si Si6 0.606119 0.886729 0.323566
Si Si7 0.872338 0.578460 0.454068
Si Si8 0.582104 0.575287 0.388228
O O1 0.266239 0.326259 0.919987
O O2 0.320614 0.376551 0.213448
O O3 0.201774 0.491915 0.023098
O O4 0.379237 0.478123 0.019337
O O5 0.500000 0.088955 0.250000
O O6 0.365223 0.198481 0.276167
O O7 0.404497 0.089348 0.500486
O O8 0.360817 0.987115 0.249722
O O9 0.676591 0.199261 0.791652
O O10 0.822246 0.325536 0.871899
O O11 0.662684 0.385361 0.802430
O O12 0.063056 0.468272 0.658865
O O13 0.933545 0.596887 0.619867
O O14 0.500000 0.681581 0.750000
O O15 0.574379 0.658765 0.514918
O O16 0.500000 0.859612 0.250000
O O17 0.500000 0.556942 0.250000
#
# Coordination Sequence:
#
# PCOD9230975 Si02
#       8
#     4   4   4   2   4   4   4   4
#     4  11  23  34  52  78 115 150 182 229 263 320
#     4  10  22  36  54  75 103 146 203 243 277 315
#     4  11  22  34  55  78 111 140 187 228 277 319
#     4  10  20  38  62  78 116 146 174 214 272 346
#     4  11  23  34  51  76 109 154 198 230 268 316
#     4  11  22  37  56  76 108 151 191 242 282 317
#     4  10  21  38  57  86 111 147 176 217 272 337
#     4  11  21  36  49  72 109 155 193 223 264 318
#
# _framework density 17.403314999999999
#
# number of rings (size 3 to 8) (size 9 to 14) (size 15 to 20)
#    0.000    1.333    2.667    4.800    7.467    1.600 
#    0.000    0.667    0.000    0.000    0.000    0.000 
#    0.000   18.133    0.000    0.000    0.000    0.000 
#
# Total GULP energy -167132.515857 kJ/mol
# GULP energy per Si atom -5571.083862 kJ/mol
# Density = 1.736370 g / cm^3
# Si number density = 17.403315 Si / 1000 Ang^3
#
#
#
# Elastic Constant Matrix: (Units=GPa)
#
#
# Indices 1 2 3 4 5 6 
#
# 1 51.5318 20.7100 36.4775 0.0000 10.5108 0.0000
# 2 20.7100 108.0227 38.0155 0.0000 12.0855 0.0000
# 3 36.4775 38.0155 116.1515 0.0000 6.8260 0.0000
# 4 0.0000 0.0000 0.0000 21.4582 0.0000 -3.5486
# 5 10.5108 12.0855 6.8260 0.0000 28.0175 0.0000
# 6 0.0000 0.0000 0.0000 -3.5486 0.0000 6.7886
#
#
#
# Elastic Compliance Matrix: (Units=1/GPa)
#
#
# Indices 1 2 3 4 5 6 
#
# 1 0.026898 -0.001691 -0.007451 0.000000 -0.007546 0.000000
# 2 -0.001691 0.010968 -0.002859 0.000000 -0.003400 0.000000
# 3 -0.007451 -0.002859 0.011818 0.000000 0.001149 0.000000
# 4 0.000000 0.000000 0.000000 0.051012 0.000000 0.026665
# 5 -0.007546 -0.003400 0.001149 0.000000 0.039710 0.000000
# 6 0.000000 0.000000 0.000000 0.026665 0.000000 0.161244
#
#
# Mechanical properties :
#
#
# Convention : Reuss Voigt Hill
#
# Bulk Modulus (GPa) = 38.93575 51.79023 45.36299
# Shear Modulus (GPa) = 14.96061 23.28639 19.12350
#
# Velocity S-wave (km/s) = 2.93515 3.66190 3.31848
# Velocity P-wave (km/s) = 5.82305 6.90672 6.38791
#
# Compressibility (1/GPa) = 0.02568334
#
# Stress axis : x y z
#
# Youngs Moduli (GPa) = 37.17726 91.17431 84.62018
#
# Poissons Ratio (x) = 0.15414 0.63047
# Poissons Ratio (y) = 0.06285 0.24193
# Poissons Ratio (z) = 0.27699 0.26067
#
# Static dielectric constant tensor:
#      x y z
#    x 1.606370 0.000000 -0.001320 
#    y 0.000000 1.623370 0.000000 
#    z -0.001320 0.000000 1.663090 
# 
# From -- ./inp_files/19427.got.cif
#   From: 2010.05.17/outbox.cif.g08.bks.cpg/sg13_10_cif.got.tgz:19427.got - 2010.06.03 16:44:36.
