data_PCOD9230087
_publ_section_title
;
Structure prediction by ZEFSAII (Michael W. Deem and Ramdas Pophale) SiO2 
 PCOD9230087
Probable space group: P 2/C
;
_chemical_formula_sum "Si O2"
_cell_formula_units_Z 28
_cell_length_a 8.893809
_cell_length_b 8.625312
_cell_length_c 27.534565
_cell_angle_alpha 90.000000
_cell_angle_beta 141.492456
_cell_angle_gamma 90.000000
_cell_volume 1315.110598
_symmetry_space_group_name_H-M "P 2/C"
_symmetry_group_IT_number 13
_symmetry_cell_setting 'monoclinic'
loop_
_space_group_symop_operation_xyz
x,y,z
-x,y,1/2-z
-x,-y,-z
x,-y,1/2+z
loop_
_atom_site_type_symbol
_atom_site_label
_atom_site_fract_x
_atom_site_fract_y
_atom_site_fract_z
Si Si1 0.927806 0.611551 0.532653
Si Si2 0.793798 0.099037 0.562463
Si Si3 0.225785 0.138439 0.056306
Si Si4 0.565395 0.561360 0.320645
Si Si5 0.454166 0.586543 0.882266
Si Si6 0.313365 0.093186 0.666115
Si Si7 0.310366 0.758935 0.936765
O O1 0.690636 0.508543 0.461465
O O2 0.862278 0.699091 0.565172
O O3 0.002909 0.745186 0.512736
O O4 0.166859 0.507238 0.600179
O O5 0.764489 0.075102 0.496296
O O6 0.595469 0.230257 0.524079
O O7 0.073796 0.138942 0.635770
O O8 0.746135 0.943299 0.581254
O O9 0.453603 0.251224 0.116251
O O10 0.247864 0.013141 0.103916
O O11 0.500000 0.508565 0.250000
O O12 0.380995 0.508010 0.316171
O O13 0.573724 0.746330 0.322811
O O14 0.295596 0.643869 0.887274
O O15 0.500000 0.012965 0.750000
#
# Coordination Sequence:
#
# PCOD9230087 Si02
#       7
#     4   4   4   4   4   4   4
#     4  11  20  37  60  91 117 155 200 248 300 352
#     4  10  20  37  59  92 118 150 199 250 298 344
#     4  10  20  35  61  86 115 153 200 249 289 343
#     4  10  22  38  59  84 118 153 200 252 298 351
#     4  10  21  37  57  90 116 149 197 243 299 356
#     4  11  22  37  61  88 114 155 202 251 297 347
#     4  10  21  35  59  89 121 152 190 241 304 351
#
# _framework density 21.290984999999999
#
# number of rings (size 3 to 8) (size 9 to 14) (size 15 to 20)
#    0.000    1.714    1.429    5.143    2.000    2.286 
#    0.000    0.714    3.143    2.571    0.000    0.000 
#    0.000    0.000    0.000    0.000    0.000    0.000 
#
# Total GULP energy -156031.854856 kJ/mol
# GULP energy per Si atom -5572.566245 kJ/mol
# Density = 2.124253 g / cm^3
# Si number density = 21.290985 Si / 1000 Ang^3
#
#
#
# Elastic Constant Matrix: (Units=GPa)
#
#
# Indices 1 2 3 4 5 6 
#
# 1 112.5249 23.6069 5.5528 0.0000 -15.1905 0.0000
# 2 23.6069 69.9652 14.8147 0.0000 -16.1910 0.0000
# 3 5.5528 14.8147 45.5453 0.0000 -16.2830 0.0000
# 4 0.0000 0.0000 0.0000 7.1535 0.0000 -4.4127
# 5 -15.1905 -16.1910 -16.2830 0.0000 22.0336 0.0000
# 6 0.0000 0.0000 0.0000 -4.4127 0.0000 35.3445
#
#
#
# Elastic Compliance Matrix: (Units=1/GPa)
#
#
# Indices 1 2 3 4 5 6 
#
# 1 0.010183 -0.002276 0.001917 0.000000 0.006765 0.000000
# 2 -0.002276 0.017802 -0.001899 0.000000 0.010109 0.000000
# 3 0.001917 -0.001899 0.030326 0.000000 0.022338 0.000000
# 4 0.000000 0.000000 0.000000 0.151455 0.000000 0.018909
# 5 0.006765 0.010109 0.022338 0.000000 0.073985 0.000000
# 6 0.000000 0.000000 0.000000 0.018909 0.000000 0.030654
#
#
# Mechanical properties :
#
#
# Convention : Reuss Voigt Hill
#
# Bulk Modulus (GPa) = 18.58898 35.10935 26.84916
# Shear Modulus (GPa) = 14.84328 25.17707 20.01018
#
# Velocity S-wave (km/s) = 2.64325 3.44251 3.06901
# Velocity P-wave (km/s) = 4.25036 5.68570 5.01960
#
# Compressibility (1/GPa) = 0.05379533
#
# Stress axis : x y z
#
# Youngs Moduli (GPa) = 98.20214 56.17233 32.97494
#
# Poissons Ratio (x) = 0.12787 -0.06323
# Poissons Ratio (y) = 0.22355 0.06262
# Poissons Ratio (z) = -0.18829 0.10667
#
# Static dielectric constant tensor:
#      x y z
#    x 1.795790 0.000000 0.005660 
#    y 0.000000 1.801580 0.000000 
#    z 0.005660 0.000000 1.841590 
# 
# From -- ./inp_files/91387.got.cif
#   From: 2010.05.17/outbox.cif.g08.bks.cpg/sg13_46_cif.got.tgz:91387.got - 2010.06.03 16:44:36.
