data_PCOD9230227
_publ_section_title
;
Structure prediction by ZEFSAII (Michael W. Deem and Ramdas Pophale) SiO2 
 PCOD9230227
Probable space group: P 2/C
;
_chemical_formula_sum "Si O2"
_cell_formula_units_Z 32
_cell_length_a 19.820104
_cell_length_b 14.109917
_cell_length_c 9.525151
_cell_angle_alpha 90.000000
_cell_angle_beta 42.132923
_cell_angle_gamma 90.000000
_cell_volume 1787.020489
_symmetry_space_group_name_H-M "P 2/C"
_symmetry_group_IT_number 13
_symmetry_cell_setting 'monoclinic'
loop_
_space_group_symop_operation_xyz
x,y,z
-x,y,1/2-z
-x,-y,-z
x,-y,1/2+z
loop_
_atom_site_type_symbol
_atom_site_label
_atom_site_fract_x
_atom_site_fract_y
_atom_site_fract_z
Si Si1 0.812514 0.676818 0.201634
Si Si2 0.114033 0.181620 0.130675
Si Si3 0.074680 0.512234 0.012473
Si Si4 0.599761 0.611895 0.170507
Si Si5 0.401792 0.589394 0.986761
Si Si6 0.803029 0.695838 0.755043
Si Si7 0.076954 0.020506 0.757313
Si Si8 0.112521 0.227093 0.643745
O O1 0.868353 0.586495 0.045075
O O2 0.696999 0.649003 0.396813
O O3 0.866955 0.698555 0.264420
O O4 0.822520 0.768060 0.087722
O O5 0.124847 0.248686 0.248740
O O6 0.141346 0.073912 0.129783
O O7 0.000000 0.180089 0.250000
O O8 0.152974 0.593658 0.853911
O O9 0.000000 0.540886 0.250000
O O10 0.000000 0.500000 0.000000
O O11 0.500000 0.653522 0.250000
O O12 0.587298 0.590276 0.358100
O O13 0.615136 0.514827 0.056347
O O14 0.696100 0.677813 0.993347
O O15 0.500000 0.624832 0.750000
O O16 0.808525 0.755017 0.602992
O O17 0.000000 0.031546 0.750000
O O18 0.127547 0.122721 0.687444
O O19 0.000000 0.000000 0.000000
O O20 0.000000 0.235369 0.750000
#
# Coordination Sequence:
#
# PCOD9230227 Si02
#       8
#     4   4   4   4   4   4   4   4
#     4  12  23  37  58  84 119 159 203 238 294 354
#     4  11  21  37  58  83 120 158 198 245 290 353
#     4  12  24  34  49  76 121 164 187 218 270 345
#     4  11  24  42  63  86 115 155 202 259 300 344
#     4  11  24  42  64  86 113 155 205 256 301 345
#     4  12  23  37  57  85 121 157 202 238 293 359
#     4  10  20  36  58  82 117 158 205 252 295 334
#     4  11  23  37  56  89 121 162 200 244 290 351
#
# _framework density 17.9069
#
# number of rings (size 3 to 8) (size 9 to 14) (size 15 to 20)
#    0.000    0.750    2.500    9.000    3.500    0.000 
#    0.000    0.000    0.000    0.000    0.000    5.250 
#    0.000    0.000    0.000    0.000    0.000    0.000 
#
# Total GULP energy -178597.913306 kJ/mol
# GULP energy per Si atom -5581.184791 kJ/mol
# Density = 1.786614 g / cm^3
# Si number density = 17.906900 Si / 1000 Ang^3
#
#
#
# Elastic Constant Matrix: (Units=GPa)
#
#
# Indices 1 2 3 4 5 6 
#
# 1 72.1372 29.5444 33.7027 0.0000 9.3008 0.0000
# 2 29.5444 95.9253 34.1569 0.0000 -6.3717 0.0000
# 3 33.7027 34.1569 99.8506 0.0000 3.1478 0.0000
# 4 0.0000 0.0000 0.0000 27.2757 0.0000 4.8380
# 5 9.3008 -6.3717 3.1478 0.0000 41.2812 0.0000
# 6 0.0000 0.0000 0.0000 4.8380 0.0000 9.5126
#
#
#
# Elastic Compliance Matrix: (Units=1/GPa)
#
#
# Indices 1 2 3 4 5 6 
#
# 1 0.018341 -0.004316 -0.004574 0.000000 -0.004450 0.000000
# 2 -0.004316 0.013079 -0.003119 0.000000 0.003229 0.000000
# 3 -0.004574 -0.003119 0.012639 0.000000 -0.000415 0.000000
# 4 0.000000 0.000000 0.000000 0.040298 0.000000 -0.020495
# 5 -0.004450 0.003229 -0.000415 0.000000 0.025757 0.000000
# 6 0.000000 0.000000 0.000000 -0.020495 0.000000 0.115548
#
#
# Mechanical properties :
#
#
# Convention : Reuss Voigt Hill
#
# Bulk Modulus (GPa) = 49.89777 51.41344 50.65560
# Shear Modulus (GPa) = 19.50389 26.98116 23.24253
#
# Velocity S-wave (km/s) = 3.30386 3.88589 3.60664
# Velocity P-wave (km/s) = 6.51763 6.99338 6.75970
#
# Compressibility (1/GPa) = 0.02004098
#
# Stress axis : x y z
#
# Youngs Moduli (GPa) = 54.52371 76.45754 79.12070
#
# Poissons Ratio (x) = 0.32997 0.36189
# Poissons Ratio (y) = 0.23531 0.24680
# Poissons Ratio (z) = 0.24939 0.23849
#
# Static dielectric constant tensor:
#      x y z
#    x 1.629760 0.000000 0.012970 
#    y 0.000000 1.670350 0.000000 
#    z 0.012970 0.000000 1.637030 
# 
# From -- ./inp_files/23540.got.cif
#   From: 2010.05.17/outbox.cif.g08.bks.cpg/sg13_12_cif.got.tgz:23540.got - 2010.06.03 16:44:36.
