data_PCOD9230144
_publ_section_title
;
Structure prediction by ZEFSAII (Michael W. Deem and Ramdas Pophale) SiO2 
 PCOD9230144
Probable space group: P 2/C
;
_chemical_formula_sum "Si O2"
_cell_formula_units_Z 24
_cell_length_a 21.173797
_cell_length_b 6.219378
_cell_length_c 8.224398
_cell_angle_alpha 90.000000
_cell_angle_beta 72.121876
_cell_angle_gamma 90.000000
_cell_volume 1030.754451
_symmetry_space_group_name_H-M "P 2/C"
_symmetry_group_IT_number 13
_symmetry_cell_setting 'monoclinic'
loop_
_space_group_symop_operation_xyz
x,y,z
-x,y,1/2-z
-x,-y,-z
x,-y,1/2+z
loop_
_atom_site_type_symbol
_atom_site_label
_atom_site_fract_x
_atom_site_fract_y
_atom_site_fract_z
Si Si1 0.114397 0.171226 0.176887
Si Si2 0.102958 0.571228 0.359216
Si Si3 0.500000 0.852538 0.750000
Si Si4 0.776945 0.824989 0.340499
Si Si5 0.591225 0.855823 0.942766
Si Si6 0.686533 0.906622 0.125372
Si Si7 0.000000 0.163484 0.750000
O O1 0.095037 0.317954 0.345220
O O2 0.179656 0.043618 0.179588
O O3 0.117928 0.331097 0.022244
O O4 0.059878 0.999032 0.164523
O O5 0.035921 0.681816 0.349350
O O6 0.166947 0.643250 0.199429
O O7 0.546180 0.728711 0.845935
O O8 0.544244 0.007655 0.600262
O O9 0.720532 0.879411 0.518493
O O10 0.741046 0.798175 0.195784
O O11 0.630907 0.018549 0.795745
O O12 0.649844 0.768197 0.013946
#
# Coordination Sequence:
#
# PCOD9230144 Si02
#       7
#     4   4   2   4   4   4   2
#     4  11  24  39  59  84 109 144 184 234 288 342
#     4  11  24  39  59  84 109 144 184 234 288 342
#     4   8  12  22  36  70 116 148 186 232 274 324
#     4  10  20  36  54  76 112 148 190 234 286 336
#     4   8  14  22  42  70 106 156 190 222 284 322
#     4   9  16  29  48  71 102 155 196 222 278 339
#     4  10  24  42  64  82 110 138 186 232 286 344
#
# _framework density 23.283918
#
# number of rings (size 3 to 8) (size 9 to 14) (size 15 to 20)
#    0.000    2.333    1.667    1.000    2.333    4.000 
#    0.000    0.000    0.000    0.000    0.000    0.000 
#    0.000    0.000    0.000 1386.000    0.000    0.000 
#
# Total GULP energy -133670.216859 kJ/mol
# GULP energy per Si atom -5569.592369 kJ/mol
# Density = 2.323092 g / cm^3
# Si number density = 23.283918 Si / 1000 Ang^3
#
#
#
# Elastic Constant Matrix: (Units=GPa)
#
#
# Indices 1 2 3 4 5 6 
#
# 1 170.3492 27.3885 61.3049 0.0000 37.0960 0.0000
# 2 27.3885 54.1882 24.4598 0.0000 11.8089 0.0000
# 3 61.3049 24.4598 92.1297 0.0000 1.6975 0.0000
# 4 0.0000 0.0000 0.0000 14.9628 0.0000 12.5014
# 5 37.0960 11.8089 1.6975 0.0000 49.7818 0.0000
# 6 0.0000 0.0000 0.0000 12.5014 0.0000 9.0212
#
#
#
# Elastic Compliance Matrix: (Units=1/GPa)
#
#
# Indices 1 2 3 4 5 6 
#
# 1 0.009674 -0.000622 -0.006146 0.000000 -0.006852 0.000000
# 2 -0.000622 0.022212 -0.005398 0.000000 -0.004621 0.000000
# 3 -0.006146 -0.005398 0.016279 0.000000 0.005305 0.000000
# 4 0.000000 0.000000 0.000000 -0.423490 0.000000 0.586865
# 5 -0.006852 -0.004621 0.005305 0.000000 0.026109 0.000000
# 6 0.000000 0.000000 0.000000 0.586865 0.000000 -0.702416
#
#
# Mechanical properties :
#
#
# Convention : Reuss Voigt Hill
#
# Bulk Modulus (GPa) = 41.95789 60.33036 51.14413
# Shear Modulus (GPa) = -4.90506 28.32076 11.70785
#
# Velocity S-wave (km/s) = -1.45300 3.49137 2.24482
# Velocity P-wave (km/s) = 3.90439 6.49768 5.36023
#
# Compressibility (1/GPa) = 0.02383342
#
# Stress axis : x y z
#
# Youngs Moduli (GPa) = 103.36766 45.01985 61.42776
#
# Poissons Ratio (x) = 0.02802 0.37753
# Poissons Ratio (y) = 0.06433 0.33159
# Poissons Ratio (z) = 0.63529 0.24302
#
# Static dielectric constant tensor:
#      x y z
#    x 1.964290 0.000000 -0.002540 
#    y 0.000000 1.842750 0.000000 
#    z -0.002540 0.000000 1.962980 
# 
# From -- ./inp_files/23743.got.cif
#   From: 2010.05.17/outbox.cif.g08.bks.cpg/sg13_12_cif.got.tgz:23743.got - 2010.06.03 16:44:36.
