data_PCOD9230830
_publ_section_title
;
Structure prediction by ZEFSAII (Michael W. Deem and Ramdas Pophale) SiO2 
 PCOD9230830
Probable space group: P 2/C
;
_chemical_formula_sum "Si O2"
_cell_formula_units_Z 30
_cell_length_a 7.860425
_cell_length_b 20.321197
_cell_length_c 8.792334
_cell_angle_alpha 90.000000
_cell_angle_beta 82.715664
_cell_angle_gamma 90.000000
_cell_volume 1393.093103
_symmetry_space_group_name_H-M "P 2/C"
_symmetry_group_IT_number 13
_symmetry_cell_setting 'monoclinic'
loop_
_space_group_symop_operation_xyz
x,y,z
-x,y,1/2-z
-x,-y,-z
x,-y,1/2+z
loop_
_atom_site_type_symbol
_atom_site_label
_atom_site_fract_x
_atom_site_fract_y
_atom_site_fract_z
Si Si1 0.127143 0.519159 0.621674
Si Si2 0.000000 0.266290 0.250000
Si Si3 0.646113 0.907552 0.418551
Si Si4 0.309431 0.580264 0.333523
Si Si5 0.698264 0.832297 0.691287
Si Si6 0.731022 0.944605 0.912342
Si Si7 0.850996 0.860172 0.144139
Si Si8 0.896363 0.709881 0.099607
O O1 0.280509 0.551096 0.507221
O O2 0.197827 0.460144 0.719788
O O3 0.000000 0.558894 0.750000
O O4 0.000000 0.500000 0.500000
O O5 0.166845 0.219836 0.260294
O O6 0.977586 0.301732 0.419705
O O7 0.714017 0.846517 0.511596
O O8 0.459709 0.926032 0.504546
O O9 0.678404 0.882187 0.246934
O O10 0.744557 0.977583 0.408687
O O11 0.500000 0.576150 0.250000
O O12 0.245908 0.654714 0.357788
O O13 0.500000 0.814142 0.750000
O O14 0.734666 0.905167 0.754777
O O15 0.869905 0.909206 0.001857
O O16 0.836908 0.785232 0.095010
O O17 0.000000 0.866952 0.250000
O O18 0.000000 0.706876 0.250000
#
# Coordination Sequence:
#
# PCOD9230830 Si02
#       8
#     4   2   4   4   4   4   4   4
#     4   9  19  39  71 100 142 188 226 267 336 404
#     4  12  24  48  70  90 142 182 234 296 356 420
#     4  10  21  36  60  82 118 162 210 282 350 427
#     4  11  23  42  70 110 145 181 233 290 340 407
#     4  10  21  39  62  87 120 167 227 283 352 426
#     4  10  20  38  56  85 118 159 215 274 356 423
#     4  11  22  38  57  89 118 161 215 271 341 404
#     4  11  25  45  69  97 138 185 233 281 352 424
#
# _framework density 21.534814999999998
#
# number of rings (size 3 to 8) (size 9 to 14) (size 15 to 20)
#    0.000    1.600    1.333    4.400    0.933    3.733 
#    4.800    0.000    0.000    0.000    0.000    0.000 
#    0.000    0.000    0.000    0.000    0.000    0.000 
#
# Total GULP energy -167160.018379 kJ/mol
# GULP energy per Si atom -5572.000613 kJ/mol
# Density = 2.148580 g / cm^3
# Si number density = 21.534815 Si / 1000 Ang^3
#
#
#
# Elastic Constant Matrix: (Units=GPa)
#
#
# Indices 1 2 3 4 5 6 
#
# 1 98.0549 35.6216 36.8128 0.0000 -11.1025 0.0000
# 2 35.6216 60.7167 26.4178 0.0000 -3.6306 0.0000
# 3 36.8128 26.4178 140.6507 0.0000 -9.9687 0.0000
# 4 0.0000 0.0000 0.0000 23.2104 0.0000 6.8211
# 5 -11.1025 -3.6306 -9.9687 0.0000 37.6189 0.0000
# 6 0.0000 0.0000 0.0000 6.8211 0.0000 82.1865
#
#
#
# Elastic Compliance Matrix: (Units=1/GPa)
#
#
# Indices 1 2 3 4 5 6 
#
# 1 0.013874 -0.007053 -0.002104 0.000000 0.002856 0.000000
# 2 -0.007053 0.021549 -0.002244 0.000000 -0.000597 0.000000
# 3 -0.002104 -0.002244 0.008176 0.000000 0.001329 0.000000
# 4 0.000000 0.000000 0.000000 0.044161 0.000000 -0.003665
# 5 0.002856 -0.000597 0.001329 0.000000 0.027720 0.000000
# 6 0.000000 0.000000 0.000000 -0.003665 0.000000 0.012472
#
#
# Mechanical properties :
#
#
# Convention : Reuss Voigt Hill
#
# Bulk Modulus (GPa) = 48.08451 55.23630 51.66040
# Shear Modulus (GPa) = 31.70857 41.97450 36.84154
#
# Velocity S-wave (km/s) = 3.84139 4.41970 4.14066
# Velocity P-wave (km/s) = 6.48477 7.19378 6.84846
#
# Compressibility (1/GPa) = 0.02079672
#
# Stress axis : x y z
#
# Youngs Moduli (GPa) = 72.07672 46.40675 122.30768
#
# Poissons Ratio (x) = 0.32733 0.25734
# Poissons Ratio (y) = 0.50839 0.27440
# Poissons Ratio (z) = 0.15165 0.10412
#
# Static dielectric constant tensor:
#      x y z
#    x 1.852780 0.000000 -0.026350 
#    y 0.000000 1.742340 0.000000 
#    z -0.026350 0.000000 1.615150 
# 
# From -- ./inp_files/13484.got.cif
#   From: 2010.05.17/outbox.cif.g08.bks.cpg/sg13_7_cif.got.tgz:13484.got - 2010.06.03 16:44:36.
