data_PCOD9230150
_publ_section_title
;
Structure prediction by ZEFSAII (Michael W. Deem and Ramdas Pophale) SiO2 
 PCOD9230150
Probable space group: P 2/C
;
_chemical_formula_sum "Si O2"
_cell_formula_units_Z 22
_cell_length_a 8.905079
_cell_length_b 15.076149
_cell_length_c 7.490451
_cell_angle_alpha 90.000000
_cell_angle_beta 94.853755
_cell_angle_gamma 90.000000
_cell_volume 1002.018981
_symmetry_space_group_name_H-M "P 2/C"
_symmetry_group_IT_number 13
_symmetry_cell_setting 'monoclinic'
loop_
_space_group_symop_operation_xyz
x,y,z
-x,y,1/2-z
-x,-y,-z
x,-y,1/2+z
loop_
_atom_site_type_symbol
_atom_site_label
_atom_site_fract_x
_atom_site_fract_y
_atom_site_fract_z
Si Si1 0.137912 0.606592 0.015605
Si Si2 0.420285 0.277970 0.930856
Si Si3 0.500000 0.003507 0.750000
Si Si4 0.363930 0.130801 0.442292
Si Si5 0.789659 0.414867 0.387024
Si Si6 0.838165 0.795081 0.304193
O O1 0.192740 0.614279 0.816686
O O2 0.955610 0.596952 0.992749
O O3 0.222900 0.521533 0.106149
O O4 0.163409 0.693499 0.131311
O O5 0.500000 0.303727 0.750000
O O6 0.545596 0.223695 0.055556
O O7 0.289649 0.207696 0.860873
O O8 0.338471 0.358260 0.026087
O O9 0.634921 0.932859 0.727613
O O10 0.456819 0.069966 0.589480
O O11 0.209667 0.149925 0.527271
O O12 0.000000 0.820372 0.250000
#
# Coordination Sequence:
#
# PCOD9230150 Si02
#       6
#     4   4   2   4   4   4
#     4  10  21  33  58  82 116 158 194 235 280 326
#     4  10  20  38  57  85 117 151 192 233 285 336
#     4  10  20  42  66  80 114 146 192 224 290 372
#     4  10  22  39  64  86 110 153 184 232 293 344
#     4  10  20  36  54  84 116 156 201 230 275 335
#     4  11  20  37  58  86 118 151 191 236 283 335
#
# _framework density 21.955672
#
# number of rings (size 3 to 8) (size 9 to 14) (size 15 to 20)
#    0.000    1.818    4.545    1.091    5.091    0.000 
#    0.000    9.091    0.000    0.000    0.000    0.000 
#    0.000    0.000    0.000    0.000    0.000    0.000 
#
# Total GULP energy -122768.685777 kJ/mol
# GULP energy per Si atom -5580.394808 kJ/mol
# Density = 2.190570 g / cm^3
# Si number density = 21.955672 Si / 1000 Ang^3
#
#
#
# Elastic Constant Matrix: (Units=GPa)
#
#
# Indices 1 2 3 4 5 6 
#
# 1 101.0952 33.5687 24.5843 0.0000 -42.5914 0.0000
# 2 33.5687 99.2620 31.2049 0.0000 -30.1489 0.0000
# 3 24.5843 31.2049 60.1333 0.0000 -31.0648 0.0000
# 4 0.0000 0.0000 0.0000 30.3634 0.0000 -17.0855
# 5 -42.5914 -30.1489 -31.0648 0.0000 42.7300 0.0000
# 6 0.0000 0.0000 0.0000 -17.0855 0.0000 12.7901
#
#
#
# Elastic Compliance Matrix: (Units=1/GPa)
#
#
# Indices 1 2 3 4 5 6 
#
# 1 0.017478 -0.001177 0.003261 0.000000 0.018962 0.000000
# 2 -0.001177 0.013290 -0.003487 0.000000 0.005670 0.000000
# 3 0.003261 -0.003487 0.028048 0.000000 0.021181 0.000000
# 4 0.000000 0.000000 0.000000 0.132629 0.000000 0.177170
# 5 0.018962 0.005670 0.021181 0.000000 0.061702 0.000000
# 6 0.000000 0.000000 0.000000 0.177170 0.000000 0.314856
#
#
# Mechanical properties :
#
#
# Convention : Reuss Voigt Hill
#
# Bulk Modulus (GPa) = 17.85368 48.80070 33.32719
# Shear Modulus (GPa) = 8.48207 28.58554 18.53380
#
# Velocity S-wave (km/s) = 1.96765 3.61219 2.90857
# Velocity P-wave (km/s) = 3.64850 6.29860 5.14704
#
# Compressibility (1/GPa) = 0.05601085
#
# Stress axis : x y z
#
# Youngs Moduli (GPa) = 57.21498 75.24204 35.65297
#
# Poissons Ratio (x) = 0.08853 -0.11625
# Poissons Ratio (y) = 0.06732 0.12432
# Poissons Ratio (z) = -0.18655 0.26236
#
# Static dielectric constant tensor:
#      x y z
#    x 1.836810 0.000000 -0.043080 
#    y 0.000000 1.830600 0.000000 
#    z -0.043080 0.000000 1.980450 
# 
# From -- ./inp_files/12261.got.cif
#   From: 2010.05.17/outbox.cif.g08.bks.cpg/sg13_7_cif.got.tgz:12261.got - 2010.06.03 16:44:36.
