data_PCOD9230705
_publ_section_title
;
Structure prediction by ZEFSAII (Michael W. Deem and Ramdas Pophale) SiO2 
 PCOD9230705
Probable space group: P 2/C
;
_chemical_formula_sum "Si O2"
_cell_formula_units_Z 28
_cell_length_a 8.477226
_cell_length_b 15.271280
_cell_length_c 21.049727
_cell_angle_alpha 90.000000
_cell_angle_beta 28.955531
_cell_angle_gamma 90.000000
_cell_volume 1319.283869
_symmetry_space_group_name_H-M "P 2/C"
_symmetry_group_IT_number 13
_symmetry_cell_setting 'monoclinic'
loop_
_space_group_symop_operation_xyz
x,y,z
-x,y,1/2-z
-x,-y,-z
x,-y,1/2+z
loop_
_atom_site_type_symbol
_atom_site_label
_atom_site_fract_x
_atom_site_fract_y
_atom_site_fract_z
Si Si1 0.812437 0.349351 0.259754
Si Si2 0.572002 0.702607 0.299529
Si Si3 0.725236 0.620764 0.463062
Si Si4 0.613727 0.938776 0.642750
Si Si5 0.986735 0.157507 0.184027
Si Si6 0.237802 0.578952 0.517402
Si Si7 0.319354 0.887399 0.440241
O O1 0.468225 0.328597 0.412559
O O2 0.017093 0.261043 0.178333
O O3 0.000000 0.402814 0.250000
O O4 0.877689 0.397237 0.171174
O O5 0.500000 0.703371 0.250000
O O6 0.342998 0.633811 0.418698
O O7 0.504000 0.800823 0.350793
O O8 0.943289 0.668106 0.173987
O O9 0.504986 0.606015 0.477592
O O10 0.763061 0.525725 0.482912
O O11 0.500000 0.978373 0.750000
O O12 0.372305 0.859783 0.715679
O O13 0.978591 0.902224 0.521015
O O14 0.536182 0.016175 0.621077
O O15 0.000000 0.120336 0.250000
O O16 0.233088 0.123621 0.044536
#
# Coordination Sequence:
#
# PCOD9230705 Si02
#       7
#     4   4   4   4   4   4   4
#     4   9  18  35  60  86 115 155 200 248 296 362
#     4  12  25  38  59  96 131 157 204 266 314 353
#     4  10  22  39  66  91 118 165 209 254 308 373
#     4   9  20  39  64  85 119 167 210 242 306 387
#     4  10  20  37  62  90 117 154 207 260 310 366
#     4  10  20  43  65  86 121 165 213 249 306 378
#     4  10  21  41  61  88 124 167 206 252 307 380
#
# _framework density 21.223634000000001
#
# number of rings (size 3 to 8) (size 9 to 14) (size 15 to 20)
#    0.000    2.000    1.429    1.714    2.000    3.429 
#    0.000    2.143    0.000    0.000    0.000    0.000 
#    0.000    0.000    0.000    0.000    0.000    0.000 
#
# Total GULP energy -155928.764471 kJ/mol
# GULP energy per Si atom -5568.884445 kJ/mol
# Density = 2.117533 g / cm^3
# Si number density = 21.223634 Si / 1000 Ang^3
#
#
#
# Elastic Constant Matrix: (Units=GPa)
#
#
# Indices 1 2 3 4 5 6 
#
# 1 41.5874 18.1900 23.9481 0.0000 24.7918 0.0000
# 2 18.1900 100.8950 48.9331 0.0000 10.0196 0.0000
# 3 23.9481 48.9331 123.2720 0.0000 21.5456 0.0000
# 4 0.0000 0.0000 0.0000 25.1781 0.0000 0.4171
# 5 24.7918 10.0196 21.5456 0.0000 37.0274 0.0000
# 6 0.0000 0.0000 0.0000 0.4171 0.0000 15.9853
#
#
#
# Elastic Compliance Matrix: (Units=1/GPa)
#
#
# Indices 1 2 3 4 5 6 
#
# 1 0.042687 -0.004077 -0.002084 0.000000 -0.026265 0.000000
# 2 -0.004077 0.012673 -0.004582 0.000000 0.001967 0.000000
# 3 -0.002084 -0.004582 0.010993 0.000000 -0.003762 0.000000
# 4 0.000000 0.000000 0.000000 0.039734 0.000000 -0.001037
# 5 -0.026265 0.001967 -0.003762 0.000000 0.046250 0.000000
# 6 0.000000 0.000000 0.000000 -0.001037 0.000000 0.062585
#
#
# Mechanical properties :
#
#
# Convention : Reuss Voigt Hill
#
# Bulk Modulus (GPa) = 22.28796 49.76633 36.02715
# Shear Modulus (GPa) = 19.89146 27.28370 23.58758
#
# Velocity S-wave (km/s) = 3.06474 3.58932 3.33736
# Velocity P-wave (km/s) = 4.80082 6.37786 5.64468
#
# Compressibility (1/GPa) = 0.04486727
#
# Stress axis : x y z
#
# Youngs Moduli (GPa) = 23.42654 78.90511 90.96331
#
# Poissons Ratio (x) = 0.32169 0.18954
# Poissons Ratio (y) = 0.09551 0.41684
# Poissons Ratio (z) = 0.04881 0.36158
#
# Static dielectric constant tensor:
#      x y z
#    x 1.833890 0.000000 0.021720 
#    y 0.000000 1.751960 0.000000 
#    z 0.021720 0.000000 1.826780 
# 
# From -- ./inp_files/76585.got.cif
#   From: 2010.05.17/outbox.cif.g08.bks.cpg/sg13_39_cif.got.tgz:76585.got - 2010.06.03 16:44:36.
