data_PCOD9230834
_publ_section_title
;
Structure prediction by ZEFSAII (Michael W. Deem and Ramdas Pophale) SiO2 
 PCOD9230834
Probable space group: P 2/C
;
_chemical_formula_sum "Si O2"
_cell_formula_units_Z 30
_cell_length_a 11.689085
_cell_length_b 8.589761
_cell_length_c 15.129143
_cell_angle_alpha 90.000000
_cell_angle_beta 84.382295
_cell_angle_gamma 90.000000
_cell_volume 1511.767726
_symmetry_space_group_name_H-M "P 2/C"
_symmetry_group_IT_number 13
_symmetry_cell_setting 'monoclinic'
loop_
_space_group_symop_operation_xyz
x,y,z
-x,y,1/2-z
-x,-y,-z
x,-y,1/2+z
loop_
_atom_site_type_symbol
_atom_site_label
_atom_site_fract_x
_atom_site_fract_y
_atom_site_fract_z
Si Si1 0.811864 0.538696 0.066488
Si Si2 0.500000 0.862127 0.250000
Si Si3 0.082210 0.201207 0.171041
Si Si4 0.688375 0.623255 0.901230
Si Si5 0.581488 0.958099 0.913423
Si Si6 0.705609 0.628398 0.256617
Si Si7 0.974686 0.253769 0.997809
Si Si8 0.177183 0.887249 0.141501
O O1 0.758915 0.541203 0.168229
O O2 0.884838 0.387115 0.034726
O O3 0.714650 0.563971 0.998480
O O4 0.908233 0.674017 0.051228
O O5 0.609012 0.748903 0.230776
O O6 0.477385 0.973131 0.169111
O O7 0.187989 0.313377 0.141951
O O8 0.000000 0.273126 0.250000
O O9 0.013749 0.174313 0.085528
O O10 0.129632 0.034704 0.199376
O O11 0.606710 0.773788 0.907605
O O12 0.655238 0.489005 0.834491
O O13 0.703800 0.048087 0.909233
O O14 0.500000 0.000000 0.000000
O O15 0.797624 0.736954 0.300859
O O16 0.909492 0.156248 0.929430
#
# Coordination Sequence:
#
# PCOD9230834 Si02
#       8
#     4   2   4   4   4   4   4   4
#     4  10  21  36  62  89 124 162 196 246 312 356
#     4  10  24  44  60  94 120 148 216 258 304 378
#     4  10  21  36  56  89 126 162 201 244 302 363
#     4  10  21  41  61  91 124 154 210 254 298 378
#     4  10  22  45  65  85 122 163 199 264 318 355
#     4  11  22  41  63  87 122 158 202 259 311 360
#     4  10  20  38  56  91 125 159 203 247 291 377
#     4  10  22  39  58  90 122 154 211 251 294 378
#
# _framework density 19.844318000000001
#
# number of rings (size 3 to 8) (size 9 to 14) (size 15 to 20)
#    0.000    1.867    1.333    2.000    1.867    0.533 
#   12.000    2.000    0.000    0.000    0.000    0.000 
#    0.000    0.000    0.000    0.000    0.000    0.000 
#
# Total GULP energy -167508.230765 kJ/mol
# GULP energy per Si atom -5583.607692 kJ/mol
# Density = 1.979915 g / cm^3
# Si number density = 19.844318 Si / 1000 Ang^3
#
#
#
# Elastic Constant Matrix: (Units=GPa)
#
#
# Indices 1 2 3 4 5 6 
#
# 1 51.6195 10.4867 21.4695 0.0000 11.4219 0.0000
# 2 10.4867 70.2419 17.0987 0.0000 10.8753 0.0000
# 3 21.4695 17.0987 52.2565 0.0000 -4.5590 0.0000
# 4 0.0000 0.0000 0.0000 21.6305 0.0000 14.8702
# 5 11.4219 10.8753 -4.5590 0.0000 26.3060 0.0000
# 6 0.0000 0.0000 0.0000 14.8702 0.0000 7.4143
#
#
#
# Elastic Compliance Matrix: (Units=1/GPa)
#
#
# Indices 1 2 3 4 5 6 
#
# 1 0.027906 0.001370 -0.013220 0.000000 -0.014974 0.000000
# 2 0.001370 0.017090 -0.006928 0.000000 -0.008861 0.000000
# 3 -0.013220 -0.006928 0.028009 0.000000 0.013458 0.000000
# 4 0.000000 0.000000 0.000000 -0.122054 0.000000 0.244792
# 5 -0.014974 -0.008861 0.013458 0.000000 0.050511 0.000000
# 6 0.000000 0.000000 0.000000 0.244792 0.000000 -0.356080
#
#
# Mechanical properties :
#
#
# Convention : Reuss Voigt Hill
#
# Bulk Modulus (GPa) = 28.20903 30.24752 29.22828
# Shear Modulus (GPa) = -16.38025 19.40770 1.51373
#
# Velocity S-wave (km/s) = -2.87616 3.13069 0.87433
# Velocity P-wave (km/s) = 1.79340 5.32389 3.97241
#
# Compressibility (1/GPa) = 0.03544964
#
# Stress axis : x y z
#
# Youngs Moduli (GPa) = 35.83476 58.51255 35.70309
#
# Poissons Ratio (x) = -0.08018 0.47199
# Poissons Ratio (y) = -0.04910 0.24736
# Poissons Ratio (z) = 0.47373 0.40538
#
# Static dielectric constant tensor:
#      x y z
#    x 1.697130 0.000000 0.006130 
#    y 0.000000 1.698590 0.000000 
#    z 0.006130 0.000000 1.651630 
# 
# From -- ./inp_files/50035.got.cif
#   From: 2010.05.17/outbox.cif.g08.bks.cpg/sg13_26_cif.got.tgz:50035.got - 2010.06.03 16:44:36.
