data_PCOD9230133
_publ_section_title
;
Structure prediction by ZEFSAII (Michael W. Deem and Ramdas Pophale) SiO2 
 PCOD9230133
Probable space group: P 2/C
;
_chemical_formula_sum "Si O2"
_cell_formula_units_Z 26
_cell_length_a 13.698678
_cell_length_b 18.470827
_cell_length_c 7.960377
_cell_angle_alpha 90.000000
_cell_angle_beta 39.934393
_cell_angle_gamma 90.000000
_cell_volume 1292.923387
_symmetry_space_group_name_H-M "P 2/C"
_symmetry_group_IT_number 13
_symmetry_cell_setting 'monoclinic'
loop_
_space_group_symop_operation_xyz
x,y,z
-x,y,1/2-z
-x,-y,-z
x,-y,1/2+z
loop_
_atom_site_type_symbol
_atom_site_label
_atom_site_fract_x
_atom_site_fract_y
_atom_site_fract_z
Si Si1 0.873069 0.095557 0.194394
Si Si2 0.000000 0.007940 0.750000
Si Si3 0.453374 0.920390 0.503593
Si Si4 0.117455 0.245251 0.443652
Si Si5 0.000000 0.507084 0.250000
Si Si6 0.466236 0.236470 0.103707
Si Si7 0.175100 0.401472 0.269932
Si Si8 0.500000 0.661227 0.250000
O O1 0.728486 0.081368 0.267586
O O2 0.893689 0.180618 0.175927
O O3 0.869110 0.050709 0.372063
O O4 0.002603 0.060582 0.906537
O O5 0.500000 0.909029 0.250000
O O6 0.509236 0.848748 0.527255
O O7 0.500000 0.000000 0.500000
O O8 0.286459 0.242487 0.300533
O O9 0.099821 0.322433 0.380420
O O10 0.000000 0.234686 0.750000
O O11 0.910256 0.453637 0.245606
O O12 0.868631 0.558788 0.499016
O O13 0.500000 0.259776 0.250000
O O14 0.536895 0.286334 0.861654
O O15 0.351953 0.386338 0.994021
#
# Coordination Sequence:
#
# PCOD9230133 Si02
#       8
#     4   2   4   4   2   4   4   2
#     4  10  21  36  54  79 113 154 201 255 307 365
#     4  10  20  36  52  76 114 152 198 258 308 356
#     4  11  21  36  55  80 115 159 211 265 320 372
#     4  10  20  39  61  86 121 162 203 253 311 376
#     4  10  22  42  66  98 128 164 204 254 320 394
#     4  10  22  40  61  90 124 164 211 267 318 372
#     4  10  22  41  67  93 132 162 206 260 314 384
#     4  10  22  44  64  96 132 166 210 264 310 384
#
# _framework density 20.109468
#
# number of rings (size 3 to 8) (size 9 to 14) (size 15 to 20)
#    0.000    1.846    2.308    1.385    0.000    3.692 
#    5.538    0.000    0.000    0.000    0.000    0.000 
#    0.000    0.000    0.000    0.000    0.000    0.000 
#
# Total GULP energy -144772.874247 kJ/mol
# GULP energy per Si atom -5568.187471 kJ/mol
# Density = 2.006370 g / cm^3
# Si number density = 20.109468 Si / 1000 Ang^3
#
#
#
# Elastic Constant Matrix: (Units=GPa)
#
#
# Indices 1 2 3 4 5 6 
#
# 1 43.8588 37.8940 15.4823 0.0000 17.3539 0.0000
# 2 37.8940 164.5241 40.5443 0.0000 5.2097 0.0000
# 3 15.4823 40.5443 78.4984 0.0000 4.6146 0.0000
# 4 0.0000 0.0000 0.0000 -83.1805 0.0000 -21.5350
# 5 17.3539 5.2097 4.6146 0.0000 28.9013 0.0000
# 6 0.0000 0.0000 0.0000 -21.5350 0.0000 24.8990
#
#
#
# Elastic Compliance Matrix: (Units=1/GPa)
#
#
# Indices 1 2 3 4 5 6 
#
# 1 0.038787 -0.007653 -0.002432 0.000000 -0.021522 0.000000
# 2 -0.007653 0.008488 -0.003084 0.000000 0.003557 0.000000
# 3 -0.002432 -0.003084 0.014832 0.000000 -0.000352 0.000000
# 4 0.000000 0.000000 0.000000 -0.009823 0.000000 -0.008495
# 5 -0.021522 0.003557 -0.000352 0.000000 0.046938 0.000000
# 6 0.000000 0.000000 0.000000 -0.008495 0.000000 0.032815
#
#
# Mechanical properties :
#
#
# Convention : Reuss Voigt Hill
#
# Bulk Modulus (GPa) = 27.95671 52.74696 40.35184
# Shear Modulus (GPa) = 29.36033 6.98801 18.17417
#
# Velocity S-wave (km/s) = 3.82517 1.86615 3.00952
# Velocity P-wave (km/s) = 5.78288 5.56150 5.67327
#
# Compressibility (1/GPa) = 0.03576959
#
# Stress axis : x y z
#
# Youngs Moduli (GPa) = 25.78212 117.81267 67.42035
#
# Poissons Ratio (x) = 0.90158 0.16398
# Poissons Ratio (y) = 0.19730 0.20791
# Poissons Ratio (z) = 0.06271 0.36332
#
# Static dielectric constant tensor:
#      x y z
#    x 1.730950 0.000000 0.021580 
#    y 0.000000 1.715540 0.000000 
#    z 0.021580 0.000000 1.820020 
# 
# From -- ./inp_files/19860.got.cif
#   From: 2010.05.17/outbox.cif.g08.bks.cpg/sg13_10_cif.got.tgz:19860.got - 2010.06.03 16:44:36.
