data_PCOD9230276
_publ_section_title
;
Structure prediction by ZEFSAII (Michael W. Deem and Ramdas Pophale) SiO2 
 PCOD9230276
Probable space group: P 2/C
;
_chemical_formula_sum "Si O2"
_cell_formula_units_Z 14
_cell_length_a 8.172823
_cell_length_b 10.142716
_cell_length_c 9.054068
_cell_angle_alpha 90.000000
_cell_angle_beta 83.895089
_cell_angle_gamma 90.000000
_cell_volume 746.277148
_symmetry_space_group_name_H-M "P 2/C"
_symmetry_group_IT_number 13
_symmetry_cell_setting 'monoclinic'
loop_
_space_group_symop_operation_xyz
x,y,z
-x,y,1/2-z
-x,-y,-z
x,-y,1/2+z
loop_
_atom_site_type_symbol
_atom_site_label
_atom_site_fract_x
_atom_site_fract_y
_atom_site_fract_z
Si Si1 0.500000 0.982560 0.250000
Si Si2 0.183655 0.407374 0.176557
Si Si3 0.389084 0.818522 0.517699
Si Si4 0.646432 0.398842 0.026041
O O1 0.383069 0.892578 0.362909
O O2 0.601067 0.075344 0.352066
O O3 0.249740 0.289388 0.065779
O O4 0.300337 0.407154 0.309503
O O5 0.000000 0.386930 0.250000
O O6 0.206366 0.545834 0.088840
O O7 0.565172 0.741834 0.502587
O O8 0.500000 0.500000 0.000000
#
# Coordination Sequence:
#
# PCOD9230276 Si02
#       4
#     2   4   4   4
#     4  10  20  36  62  80 104 154 200 238 258 326
#     4  11  22  37  57  88 120 145 179 241 299 338
#     4  10  20  37  60  82 110 144 202 228 277 331
#     4  10  20  36  59  85 111 148 191 233 280 341
#
# _framework density 18.759785999999998
#
# number of rings (size 3 to 8) (size 9 to 14) (size 15 to 20)
#    0.000    1.714    2.857    3.429    8.000    0.000 
#    0.000    1.429    0.000    0.000    0.000    0.000 
#    0.000    0.000    0.000    0.000    0.000    0.000 
#
# Total GULP energy -78088.983488 kJ/mol
# GULP energy per Si atom -5577.784535 kJ/mol
# Density = 1.871709 g / cm^3
# Si number density = 18.759786 Si / 1000 Ang^3
#
#
#
# Elastic Constant Matrix: (Units=GPa)
#
#
# Indices 1 2 3 4 5 6 
#
# 1 63.5078 29.2109 29.6655 0.0000 -24.0667 0.0000
# 2 29.2109 98.2713 65.9053 0.0000 -15.4649 0.0000
# 3 29.6655 65.9053 99.6034 0.0000 -14.6551 0.0000
# 4 0.0000 0.0000 0.0000 50.2660 0.0000 -10.0147
# 5 -24.0667 -15.4649 -14.6551 0.0000 35.3602 0.0000
# 6 0.0000 0.0000 0.0000 -10.0147 0.0000 13.4433
#
#
#
# Elastic Compliance Matrix: (Units=1/GPa)
#
#
# Indices 1 2 3 4 5 6 
#
# 1 0.023655 -0.002715 -0.003253 0.000000 0.013564 0.000000
# 2 -0.002715 0.018947 -0.011481 0.000000 0.001680 0.000000
# 3 -0.003253 -0.011481 0.018680 0.000000 0.000507 0.000000
# 4 0.000000 0.000000 0.000000 0.023362 0.000000 0.017403
# 5 0.013564 0.001680 0.000507 0.000000 0.038457 0.000000
# 6 0.000000 0.000000 0.000000 0.017403 0.000000 0.087351
#
#
# Mechanical properties :
#
#
# Convention : Reuss Voigt Hill
#
# Bulk Modulus (GPa) = 37.90236 56.77176 47.33706
# Shear Modulus (GPa) = 19.67391 28.92063 24.29727
#
# Velocity S-wave (km/s) = 3.24192 3.93062 3.60276
# Velocity P-wave (km/s) = 5.85332 7.13638 6.52645
#
# Compressibility (1/GPa) = 0.02638358
#
# Stress axis : x y z
#
# Youngs Moduli (GPa) = 42.27500 52.77864 53.53352
#
# Poissons Ratio (x) = 0.14330 0.17414
# Poissons Ratio (y) = 0.11478 0.61462
# Poissons Ratio (z) = 0.13752 0.60595
#
# Static dielectric constant tensor:
#      x y z
#    x 1.668570 0.000000 -0.025600 
#    y 0.000000 1.679430 0.000000 
#    z -0.025600 0.000000 1.678170 
# 
# From -- ./inp_files/10640.got.cif
#   From: 2010.05.17/outbox.cif.g08.bks.cpg/sg13_6_cif.got.tgz:10640.got - 2010.06.03 16:44:36.
