data_PCOD9230751
_publ_section_title
;
Structure prediction by ZEFSAII (Michael W. Deem and Ramdas Pophale) SiO2 
 PCOD9230751
Probable space group: P 2/C
;
_chemical_formula_sum "Si O2"
_cell_formula_units_Z 26
_cell_length_a 9.131965
_cell_length_b 7.813172
_cell_length_c 26.127335
_cell_angle_alpha 90.000000
_cell_angle_beta 138.180806
_cell_angle_gamma 90.000000
_cell_volume 1242.998810
_symmetry_space_group_name_H-M "P 2/C"
_symmetry_group_IT_number 13
_symmetry_cell_setting 'monoclinic'
loop_
_space_group_symop_operation_xyz
x,y,z
-x,y,1/2-z
-x,-y,-z
x,-y,1/2+z
loop_
_atom_site_type_symbol
_atom_site_label
_atom_site_fract_x
_atom_site_fract_y
_atom_site_fract_z
Si Si1 0.879051 0.284490 0.351170
Si Si2 0.416476 0.740579 0.512341
Si Si3 0.294202 0.881836 0.007700
Si Si4 0.208753 0.497530 0.378504
Si Si5 0.554914 0.807065 0.176888
Si Si6 0.500000 0.462503 0.750000
Si Si7 0.000000 0.770730 0.250000
Si Si8 0.500000 0.959567 0.750000
O O1 0.707642 0.429195 0.324922
O O2 0.052652 0.196920 0.435032
O O3 0.017420 0.366383 0.341641
O O4 0.709323 0.145331 0.287403
O O5 0.562574 0.816434 0.503518
O O6 0.258645 0.601755 0.444182
O O7 0.585836 0.617319 0.586643
O O8 0.310945 0.908845 0.511075
O O9 0.410523 0.804594 0.088127
O O10 0.134364 0.644056 0.321409
O O11 0.580002 0.643996 0.221098
O O12 0.430976 0.932653 0.183217
O O13 0.802742 0.867161 0.227063
#
# Coordination Sequence:
#
# PCOD9230751 Si02
#       8
#     4   4   4   4   4   2   2   2
#     4  10  22  41  64  86 124 172 213 256 316 379
#     4   9  20  37  60  94 133 157 204 267 325 369
#     4  10  21  38  63  94 127 167 211 264 317 380
#     4  10  20  37  63  94 123 165 205 261 316 379
#     4  11  24  41  65  93 127 167 213 266 322 385
#     4  10  22  44  62  88 130 170 210 266 320 386
#     4  12  22  36  68  98 120 160 214 262 314 378
#     4  10  26  44  62  90 132 172 212 260 324 380
#
# _framework density 20.917155000000001
#
# number of rings (size 3 to 8) (size 9 to 14) (size 15 to 20)
#    0.000    1.846    3.077    0.000    2.154    3.692 
#    0.000    0.000    0.000    0.000    0.000    0.000 
#    0.000    0.000    0.000    0.000    0.000    0.000 
#
# Total GULP energy -144763.921952 kJ/mol
# GULP energy per Si atom -5567.843152 kJ/mol
# Density = 2.086955 g / cm^3
# Si number density = 20.917155 Si / 1000 Ang^3
#
#
#
# Elastic Constant Matrix: (Units=GPa)
#
#
# Indices 1 2 3 4 5 6 
#
# 1 48.3867 18.8606 20.7905 0.0000 10.5989 0.0000
# 2 18.8606 77.0248 28.4730 0.0000 12.0491 0.0000
# 3 20.7905 28.4730 96.0138 0.0000 12.0952 0.0000
# 4 0.0000 0.0000 0.0000 -37.4749 0.0000 -16.0699
# 5 10.5989 12.0491 12.0952 0.0000 22.1050 0.0000
# 6 0.0000 0.0000 0.0000 -16.0699 0.0000 -6.2844
#
#
#
# Elastic Compliance Matrix: (Units=1/GPa)
#
#
# Indices 1 2 3 4 5 6 
#
# 1 0.025362 -0.003667 -0.003355 0.000000 -0.008325 0.000000
# 2 -0.003667 0.015891 -0.003274 0.000000 -0.005112 0.000000
# 3 -0.003355 -0.003274 0.012550 0.000000 -0.003474 0.000000
# 4 0.000000 0.000000 0.000000 0.276420 0.000000 -0.706838
# 5 -0.008325 -0.005112 -0.003474 0.000000 0.053917 0.000000
# 6 0.000000 0.000000 0.000000 -0.706838 0.000000 1.648343
#
#
# Mechanical properties :
#
#
# Convention : Reuss Voigt Hill
#
# Bulk Modulus (GPa) = 30.11281 39.74152 34.92716
# Shear Modulus (GPa) = 2.42231 5.88923 4.15577
#
# Velocity S-wave (km/s) = 1.07729 1.67977 1.41106
# Velocity P-wave (km/s) = 3.99686 4.77524 4.40328
#
# Compressibility (1/GPa) = 0.03320846
#
# Stress axis : x y z
#
# Youngs Moduli (GPa) = 39.42955 62.92904 79.67915
#
# Poissons Ratio (x) = 0.23079 0.26735
# Poissons Ratio (y) = 0.14461 0.26090
# Poissons Ratio (z) = 0.13230 0.20605
#
# Static dielectric constant tensor:
#      x y z
#    x 1.760860 0.000000 0.005530 
#    y 0.000000 1.821650 0.000000 
#    z 0.005530 0.000000 1.763890 
# 
# From -- ./inp_files/63434.got.cif
#   From: 2010.05.17/outbox.cif.g08.bks.cpg/sg13_32_cif.got.tgz:63434.got - 2010.06.03 16:44:36.
