data_PCOD9230681
_publ_section_title
;
Structure prediction by ZEFSAII (Michael W. Deem and Ramdas Pophale) SiO2 
 PCOD9230681
Probable space group: P 2/C
;
_chemical_formula_sum "Si O2"
_cell_formula_units_Z 24
_cell_length_a 12.372347
_cell_length_b 11.907142
_cell_length_c 17.160471
_cell_angle_alpha 90.000000
_cell_angle_beta 157.727454
_cell_angle_gamma 90.000000
_cell_volume 958.170276
_symmetry_space_group_name_H-M "P 2/C"
_symmetry_group_IT_number 13
_symmetry_cell_setting 'monoclinic'
loop_
_space_group_symop_operation_xyz
x,y,z
-x,y,1/2-z
-x,-y,-z
x,-y,1/2+z
loop_
_atom_site_type_symbol
_atom_site_label
_atom_site_fract_x
_atom_site_fract_y
_atom_site_fract_z
Si Si1 0.306688 0.228886 0.466975
Si Si2 0.770679 0.668982 0.986553
Si Si3 0.825305 0.421403 0.995858
Si Si4 0.862041 0.913692 0.072302
Si Si5 0.432566 0.382580 0.410268
Si Si6 0.364334 0.986782 0.321629
O O1 0.227190 0.335524 0.467776
O O2 0.417502 0.284216 0.462508
O O3 0.530175 0.134612 0.640730
O O4 0.000000 0.170831 0.250000
O O5 0.500000 0.679733 0.750000
O O6 0.915723 0.551370 0.063979
O O7 0.667649 0.645178 0.004994
O O8 0.923043 0.787196 0.085659
O O9 0.500000 0.426759 0.750000
O O10 0.123774 0.377964 0.159849
O O11 0.000000 0.925934 0.250000
O O12 0.028487 0.989866 0.119274
O O13 0.526003 0.930938 0.868838
O O14 0.500000 0.500000 0.500000
O O15 0.500000 0.000000 0.500000
#
# Coordination Sequence:
#
# PCOD9230681 Si02
#       6
#     4   4   4   4   4   4
#     4  10  20  37  62  92 126 167 218 271 323 389
#     4  11  25  41  60  93 131 167 211 268 326 394
#     4  10  24  40  60  93 135 171 208 265 336 397
#     4  10  22  38  66  90 124 169 219 275 327 385
#     4  11  22  38  64  93 126 168 218 266 316 394
#     4  10  20  37  61  95 123 163 219 279 325 380
#
# _framework density 25.047740000000001
#
# number of rings (size 3 to 8) (size 9 to 14) (size 15 to 20)
#    0.000    1.667    1.667    3.500    4.667    5.333 
#    0.000    1.667    0.000    0.000    0.000    0.000 
#    0.000    0.000    0.000    0.000    0.000    0.000 
#
# Total GULP energy -133842.575175 kJ/mol
# GULP energy per Si atom -5576.773966 kJ/mol
# Density = 2.499073 g / cm^3
# Si number density = 25.047740 Si / 1000 Ang^3
#
#
#
# Elastic Constant Matrix: (Units=GPa)
#
#
# Indices 1 2 3 4 5 6 
#
# 1 53.1538 4.6910 22.6768 0.0000 20.7148 0.0000
# 2 4.6910 104.6777 9.5828 0.0000 -7.8755 0.0000
# 3 22.6768 9.5828 111.9464 0.0000 28.8612 0.0000
# 4 0.0000 0.0000 0.0000 31.6587 0.0000 16.3378
# 5 20.7148 -7.8755 28.8612 0.0000 25.1542 0.0000
# 6 0.0000 0.0000 0.0000 16.3378 0.0000 32.7906
#
#
#
# Elastic Compliance Matrix: (Units=1/GPa)
#
#
# Indices 1 2 3 4 5 6 
#
# 1 0.028783 -0.003365 0.001193 0.000000 -0.026125 0.000000
# 2 -0.003365 0.010617 -0.002554 0.000000 0.009025 0.000000
# 3 0.001193 -0.002554 0.013305 0.000000 -0.017048 0.000000
# 4 0.000000 0.000000 0.000000 0.042520 0.000000 -0.021185
# 5 -0.026125 0.009025 -0.017048 0.000000 0.083655 0.000000
# 6 0.000000 0.000000 0.000000 -0.021185 0.000000 0.041052
#
#
# Mechanical properties :
#
#
# Convention : Reuss Voigt Hill
#
# Bulk Modulus (GPa) = 23.11986 38.18656 30.65321
# Shear Modulus (GPa) = 20.50860 33.44252 26.97556
#
# Velocity S-wave (km/s) = 2.86454 3.65794 3.28528
# Velocity P-wave (km/s) = 4.49345 5.75493 5.16287
#
# Compressibility (1/GPa) = 0.04325286
#
# Stress axis : x y z
#
# Youngs Moduli (GPa) = 34.74323 94.19090 75.15989
#
# Poissons Ratio (x) = 0.31691 -0.08966
# Poissons Ratio (y) = 0.11690 0.19196
# Poissons Ratio (z) = -0.04145 0.24057
#
# Static dielectric constant tensor:
#      x y z
#    x 1.922310 0.000000 -0.000600 
#    y 0.000000 2.021170 0.000000 
#    z -0.000600 0.000000 2.098010 
# 
# From -- ./inp_files/80213.got.cif
#   From: 2010.05.17/outbox.cif.g08.bks.cpg/sg13_41_cif.got.tgz:80213.got - 2010.06.03 16:44:36.
