data_PCOD9230859
_publ_section_title
;
Structure prediction by ZEFSAII (Michael W. Deem and Ramdas Pophale) SiO2 
 PCOD9230859
Probable space group: P 2/C
;
_chemical_formula_sum "Si O2"
_cell_formula_units_Z 22
_cell_length_a 7.221894
_cell_length_b 5.167126
_cell_length_c 24.820786
_cell_angle_alpha 90.000000
_cell_angle_beta 76.281580
_cell_angle_gamma 90.000000
_cell_volume 899.800841
_symmetry_space_group_name_H-M "P 2/C"
_symmetry_group_IT_number 13
_symmetry_cell_setting 'monoclinic'
loop_
_space_group_symop_operation_xyz
x,y,z
-x,y,1/2-z
-x,-y,-z
x,-y,1/2+z
loop_
_atom_site_type_symbol
_atom_site_label
_atom_site_fract_x
_atom_site_fract_y
_atom_site_fract_z
Si Si1 0.992285 0.908414 0.375384
Si Si2 0.730464 0.902810 0.815232
Si Si3 0.324281 0.489837 0.084408
Si Si4 0.500000 0.662991 0.750000
Si Si5 0.065081 0.748708 0.528893
Si Si6 0.401968 0.682474 0.359608
O O1 0.921767 0.950747 0.319192
O O2 0.023185 0.174846 0.406555
O O3 0.814335 0.739519 0.411364
O O4 0.185238 0.759089 0.370514
O O5 0.734632 0.661760 0.856422
O O6 0.682398 0.824132 0.757964
O O7 0.546316 0.075576 0.843569
O O8 0.279756 0.311315 0.036086
O O9 0.537983 0.562323 0.086951
O O10 0.556239 0.496798 0.694595
O O11 0.000000 0.500000 0.500000
O O12 0.000000 0.000000 0.500000
#
# Coordination Sequence:
#
# PCOD9230859 Si02
#       6
#     4   4   4   2   4   4
#     4  10  21  40  66  92 125 175 214 266 335 386
#     4   9  20  38  59  85 125 166 204 269 322 381
#     4   9  20  39  63  89 128 169 204 271 328 377
#     4  10  20  38  58  84 128 162 212 270 322 382
#     4  11  21  39  67  96 136 172 218 273 331 394
#     4  10  21  40  63  90 123 171 220 266 327 395
#
# _framework density 24.449853000000001
#
# number of rings (size 3 to 8) (size 9 to 14) (size 15 to 20)
#    0.000    2.182    1.818    0.545    0.000    5.818 
#    0.000   23.636    0.000    0.000    0.000    0.000 
#    0.000    0.000    0.000    0.000    0.000    0.000 
#
# Total GULP energy -122635.118718 kJ/mol
# GULP energy per Si atom -5574.323578 kJ/mol
# Density = 2.439420 g / cm^3
# Si number density = 24.449853 Si / 1000 Ang^3
#
#
#
# Elastic Constant Matrix: (Units=GPa)
#
#
# Indices 1 2 3 4 5 6 
#
# 1 161.2188 46.1929 78.8409 0.0000 64.4683 0.0000
# 2 46.1929 116.4089 54.9718 0.0000 37.9092 0.0000
# 3 78.8409 54.9718 143.8503 0.0000 62.7761 0.0000
# 4 0.0000 0.0000 0.0000 32.9327 0.0000 28.1944
# 5 64.4683 37.9092 62.7761 0.0000 58.7739 0.0000
# 6 0.0000 0.0000 0.0000 28.1944 0.0000 34.0663
#
#
#
# Elastic Compliance Matrix: (Units=1/GPa)
#
#
# Indices 1 2 3 4 5 6 
#
# 1 0.011220 -0.000343 -0.001394 0.000000 -0.010597 0.000000
# 2 -0.000343 0.011218 -0.002071 0.000000 -0.004648 0.000000
# 3 -0.001394 -0.002071 0.013593 0.000000 -0.011654 0.000000
# 4 0.000000 0.000000 0.000000 0.104187 0.000000 -0.086228
# 5 -0.010597 -0.004648 -0.011654 0.000000 0.044084 0.000000
# 6 0.000000 0.000000 0.000000 -0.086228 0.000000 0.100720
#
#
# Mechanical properties :
#
#
# Convention : Reuss Voigt Hill
#
# Bulk Modulus (GPa) = 35.19175 86.83214 61.01195
# Shear Modulus (GPa) = 16.55038 41.25276 28.90157
#
# Velocity S-wave (km/s) = 2.60457 4.11206 3.44186
# Velocity P-wave (km/s) = 4.84456 7.62475 6.38775
#
# Compressibility (1/GPa) = 0.02841575
#
# Stress axis : x y z
#
# Youngs Moduli (GPa) = 89.12346 89.14347 73.56989
#
# Poissons Ratio (x) = 0.03059 0.10254
# Poissons Ratio (y) = 0.03058 0.15234
# Poissons Ratio (z) = 0.12422 0.18458
#
# Static dielectric constant tensor:
#      x y z
#    x 2.051480 0.000000 -0.003120 
#    y 0.000000 2.085600 0.000000 
#    z -0.003120 0.000000 1.994960 
# 
# From -- ./inp_files/94550.got.cif
#   From: 2010.05.17/outbox.cif.g08.bks.cpg/sg13_48_cif.got.tgz:94550.got - 2010.06.03 16:44:36.
