data_PCOD9230812
_publ_section_title
;
Structure prediction by ZEFSAII (Michael W. Deem and Ramdas Pophale) SiO2 
 PCOD9230812
Probable space group: P 2/C
;
_chemical_formula_sum "Si O2"
_cell_formula_units_Z 32
_cell_length_a 11.984679
_cell_length_b 15.825509
_cell_length_c 15.498022
_cell_angle_alpha 90.000000
_cell_angle_beta 29.421246
_cell_angle_gamma 90.000000
_cell_volume 1443.917563
_symmetry_space_group_name_H-M "P 2/C"
_symmetry_group_IT_number 13
_symmetry_cell_setting 'monoclinic'
loop_
_space_group_symop_operation_xyz
x,y,z
-x,y,1/2-z
-x,-y,-z
x,-y,1/2+z
loop_
_atom_site_type_symbol
_atom_site_label
_atom_site_fract_x
_atom_site_fract_y
_atom_site_fract_z
Si Si1 0.535313 0.146542 0.955313
Si Si2 0.252172 0.382585 0.399004
Si Si3 0.825694 0.053768 0.063134
Si Si4 0.760096 0.427740 0.908158
Si Si5 0.076684 0.234312 0.294567
Si Si6 0.729633 0.588497 0.805962
Si Si7 0.636601 0.979754 0.522702
Si Si8 0.929756 0.225131 0.582764
O O1 0.690139 0.205103 0.789975
O O2 0.419540 0.068780 0.982198
O O3 0.326444 0.194795 0.140106
O O4 0.685519 0.095442 0.923388
O O5 0.500000 0.338638 0.250000
O O6 0.257604 0.444904 0.477421
O O7 0.234164 0.430686 0.319929
O O8 0.053142 0.312617 0.526544
O O9 0.590577 0.047764 0.272873
O O10 0.819275 0.011630 0.973789
O O11 0.904536 0.149438 0.000930
O O12 0.000000 0.000000 0.000000
O O13 0.769408 0.511205 0.843356
O O14 0.000000 0.379248 0.750000
O O15 0.537294 0.383972 0.019182
O O16 0.115935 0.334648 0.269884
O O17 0.000000 0.208902 0.250000
O O18 0.922218 0.217116 0.482820
#
# Coordination Sequence:
#
# PCOD9230812 Si02
#       8
#     4   4   4   4   4   4   4   4
#     4  11  24  43  65  97 130 171 229 273 333 397
#     4   9  21  40  64  95 132 170 209 271 336 387
#     4  11  22  41  64  88 130 180 219 269 338 390
#     4  10  20  37  68  95 124 171 212 261 325 397
#     4  11  25  42  69  92 134 176 210 275 339 399
#     4   9  21  42  62  95 134 163 216 262 327 405
#     4  10  24  40  62  96 131 172 225 282 323 397
#     4  11  24  42  63  97 130 172 221 275 327 396
#
# _framework density 22.161930000000002
#
# number of rings (size 3 to 8) (size 9 to 14) (size 15 to 20)
#    0.000    1.750    2.500    0.375    5.250    2.500 
#    0.000    0.000    8.250    0.000    0.000    0.000 
#    0.000    0.000    0.000    0.000    0.000    0.000 
#
# Total GULP energy -178431.973899 kJ/mol
# GULP energy per Si atom -5575.999184 kJ/mol
# Density = 2.211149 g / cm^3
# Si number density = 22.161930 Si / 1000 Ang^3
#
#
#
# Elastic Constant Matrix: (Units=GPa)
#
#
# Indices 1 2 3 4 5 6 
#
# 1 152.3562 32.8152 28.1648 0.0000 26.1491 0.0000
# 2 32.8152 52.5641 11.4109 0.0000 22.0522 0.0000
# 3 28.1648 11.4109 82.6476 0.0000 13.0649 0.0000
# 4 0.0000 0.0000 0.0000 28.6635 0.0000 6.9740
# 5 26.1491 22.0522 13.0649 0.0000 34.3011 0.0000
# 6 0.0000 0.0000 0.0000 6.9740 0.0000 16.9183
#
#
#
# Elastic Compliance Matrix: (Units=1/GPa)
#
#
# Indices 1 2 3 4 5 6 
#
# 1 0.008194 -0.003276 -0.001794 0.000000 -0.003458 0.000000
# 2 -0.003276 0.027440 -0.000296 0.000000 -0.015031 0.000000
# 3 -0.001794 -0.000296 0.013307 0.000000 -0.003511 0.000000
# 4 0.000000 0.000000 0.000000 0.038777 0.000000 -0.015984
# 5 -0.003458 -0.015031 -0.003511 0.000000 0.042790 0.000000
# 6 0.000000 0.000000 0.000000 -0.015984 0.000000 0.065696
#
#
# Mechanical properties :
#
#
# Convention : Reuss Voigt Hill
#
# Bulk Modulus (GPa) = 26.17130 48.03888 37.10509
# Shear Modulus (GPa) = 22.76134 30.32171 26.54152
#
# Velocity S-wave (km/s) = 3.20823 3.70292 3.46442
# Velocity P-wave (km/s) = 5.05554 6.32499 5.72555
#
# Compressibility (1/GPa) = 0.03820980
#
# Stress axis : x y z
#
# Youngs Moduli (GPa) = 122.03950 36.44372 75.15056
#
# Poissons Ratio (x) = 0.11937 0.13479
# Poissons Ratio (y) = 0.39974 0.02226
# Poissons Ratio (z) = 0.21889 0.01079
#
# Static dielectric constant tensor:
#      x y z
#    x 1.832420 0.000000 0.011350 
#    y 0.000000 1.739520 0.000000 
#    z 0.011350 0.000000 1.960670 
# 
# From -- ./inp_files/51646.got.cif
#   From: 2010.05.17/outbox.cif.g08.bks.cpg/sg13_26_cif.got.tgz:51646.got - 2010.06.03 16:44:36.
