data_PCOD9230190
_publ_section_title
;
Structure prediction by ZEFSAII (Michael W. Deem and Ramdas Pophale) SiO2 
 PCOD9230190
Probable space group: P 2/C
;
_chemical_formula_sum "Si O2"
_cell_formula_units_Z 26
_cell_length_a 15.856130
_cell_length_b 4.890910
_cell_length_c 17.302191
_cell_angle_alpha 90.000000
_cell_angle_beta 133.401761
_cell_angle_gamma 90.000000
_cell_volume 974.889969
_symmetry_space_group_name_H-M "P 2/C"
_symmetry_group_IT_number 13
_symmetry_cell_setting 'monoclinic'
loop_
_space_group_symop_operation_xyz
x,y,z
-x,y,1/2-z
-x,-y,-z
x,-y,1/2+z
loop_
_atom_site_type_symbol
_atom_site_label
_atom_site_fract_x
_atom_site_fract_y
_atom_site_fract_z
Si Si1 0.346821 0.556147 0.968104
Si Si2 0.000000 0.458488 0.750000
Si Si3 0.092294 0.716415 0.666954
Si Si4 0.477177 0.215621 0.342042
Si Si5 0.688626 0.059694 0.658537
Si Si6 0.051976 0.216360 0.938845
Si Si7 0.310695 0.658412 0.608769
O O1 0.290031 0.350599 0.867973
O O2 0.471484 0.415027 0.060758
O O3 0.297727 0.540157 0.025725
O O4 0.655233 0.144190 0.067604
O O5 0.081012 0.654974 0.751393
O O6 0.061623 0.272703 0.852454
O O7 0.054398 0.423870 0.608090
O O8 0.203158 0.908965 0.732586
O O9 0.986905 0.909264 0.574208
O O10 0.593943 0.130894 0.368764
O O11 0.387194 0.393883 0.233377
O O12 0.410512 0.969137 0.339692
O O13 0.180660 0.266799 0.051185
#
# Coordination Sequence:
#
# PCOD9230190 Si02
#       7
#     4   2   4   4   4   4   4
#     4  10  23  39  65  94 120 162 209 253 308 360
#     4   8  20  30  54  84 122 142 208 232 308 334
#     4  10  22  32  57  90 118 155 194 253 302 358
#     4   9  22  43  63  91 127 166 205 256 309 370
#     4  12  22  41  64  96 126 157 207 260 310 360
#     4  10  20  36  56  88 117 157 199 250 294 364
#     4   9  21  42  65  90 126 166 208 250 311 367
#
# _framework density 26.669678000000001
#
# number of rings (size 3 to 8) (size 9 to 14) (size 15 to 20)
#    1.846    0.308    0.000    3.231    4.308    0.000 
#    0.000    9.231    0.000    0.000    0.000    0.000 
#    0.000    0.000    0.000    0.000    0.000    0.000 
#
# Total GULP energy -144970.778538 kJ/mol
# GULP energy per Si atom -5575.799175 kJ/mol
# Density = 2.660898 g / cm^3
# Si number density = 26.669678 Si / 1000 Ang^3
#
#
#
# Elastic Constant Matrix: (Units=GPa)
#
#
# Indices 1 2 3 4 5 6 
#
# 1 60.6762 26.6345 36.1847 0.0000 6.4386 0.0000
# 2 26.6345 121.6032 13.1618 0.0000 9.9872 0.0000
# 3 36.1847 13.1618 141.0236 0.0000 3.8573 0.0000
# 4 0.0000 0.0000 0.0000 25.1608 0.0000 3.8573
# 5 6.4386 9.9872 3.8573 0.0000 56.0459 0.0000
# 6 0.0000 0.0000 0.0000 3.8573 0.0000 5.9680
#
#
#
# Elastic Compliance Matrix: (Units=1/GPa)
#
#
# Indices 1 2 3 4 5 6 
#
# 1 0.021429 -0.004029 -0.005084 0.000000 -0.001394 0.000000
# 2 -0.004029 0.009181 0.000209 0.000000 -0.001188 0.000000
# 3 -0.005084 0.000209 0.008377 0.000000 -0.000030 0.000000
# 4 0.000000 0.000000 0.000000 0.044116 0.000000 -0.028513
# 5 -0.001394 -0.001188 -0.000030 0.000000 0.018216 0.000000
# 6 0.000000 0.000000 0.000000 -0.028513 0.000000 0.185990
#
#
# Mechanical properties :
#
#
# Convention : Reuss Voigt Hill
#
# Bulk Modulus (GPa) = 47.21559 52.80720 50.01139
# Shear Modulus (GPa) = 16.01657 33.92306 24.96982
#
# Velocity S-wave (km/s) = 2.45328 3.57034 3.06316
# Velocity P-wave (km/s) = 5.07613 6.06959 5.59495
#
# Compressibility (1/GPa) = 0.02117944
#
# Stress axis : x y z
#
# Youngs Moduli (GPa) = 46.66472 108.92336 119.37645
#
# Poissons Ratio (x) = 0.43884 0.60695
# Poissons Ratio (y) = 0.18801 -0.02500
# Poissons Ratio (z) = 0.23726 -0.02281
#
# Static dielectric constant tensor:
#      x y z
#    x 2.188690 0.000000 -0.018290 
#    y 0.000000 1.968400 0.000000 
#    z -0.018290 0.000000 2.171540 
# 
# From -- ./inp_files/80631.got.cif
#   From: 2010.05.17/outbox.cif.g08.bks.cpg/sg13_41_cif.got.tgz:80631.got - 2010.06.03 16:44:36.
