data_PCOD9230153
_publ_section_title
;
Structure prediction by ZEFSAII (Michael W. Deem and Ramdas Pophale) SiO2 
 PCOD9230153
Probable space group: P 2/C
;
_chemical_formula_sum "Si O2"
_cell_formula_units_Z 28
_cell_length_a 18.516851
_cell_length_b 12.339814
_cell_length_c 22.394725
_cell_angle_alpha 90.000000
_cell_angle_beta 162.625327
_cell_angle_gamma 90.000000
_cell_volume 1528.054503
_symmetry_space_group_name_H-M "P 2/C"
_symmetry_group_IT_number 13
_symmetry_cell_setting 'monoclinic'
loop_
_space_group_symop_operation_xyz
x,y,z
-x,y,1/2-z
-x,-y,-z
x,-y,1/2+z
loop_
_atom_site_type_symbol
_atom_site_label
_atom_site_fract_x
_atom_site_fract_y
_atom_site_fract_z
Si Si1 0.965298 0.606404 0.624224
Si Si2 0.688140 0.577385 0.844077
Si Si3 0.849419 0.190650 0.424717
Si Si4 0.591742 0.174072 0.655580
Si Si5 0.847124 0.174078 0.283285
Si Si6 0.683958 0.969412 0.341964
Si Si7 0.399045 0.393593 0.557958
O O1 0.900843 0.499304 0.536847
O O2 0.735136 0.631811 0.485142
O O3 0.032478 0.709904 0.637729
O O4 0.189607 0.586103 0.844807
O O5 0.500000 0.595980 0.750000
O O6 0.776791 0.690251 0.888400
O O7 0.555174 0.500701 0.691173
O O8 0.783865 0.174651 0.303216
O O9 0.138743 0.174614 0.658094
O O10 0.720519 0.096619 0.360244
O O11 0.381952 0.158017 0.440967
O O12 0.589190 0.084925 0.705897
O O13 0.546549 0.290093 0.651788
O O14 0.056058 0.084932 0.439365
O O15 0.500000 0.946862 0.250000
#
# Coordination Sequence:
#
# PCOD9230153 Si02
#       7
#     4   4   4   4   4   4   4
#     4   9  18  33  55  82 108 139 183 229 271 317
#     4  10  20  36  55  76 111 152 183 219 268 321
#     4  11  24  37  53  81 114 149 184 216 264 333
#     4  10  21  38  60  84 110 140 179 231 282 321
#     4  10  21  38  60  84 110 140 179 231 282 321
#     4  11  23  39  59  82 108 141 184 228 270 324
#     4   9  18  33  55  82 108 139 183 229 271 317
#
# _framework density 18.323954000000001
#
# number of rings (size 3 to 8) (size 9 to 14) (size 15 to 20)
#    0.000    2.000    0.000    4.714    0.000    8.571 
#    0.000    2.857    0.000    5.143    0.000    0.000 
#    0.000    0.000    0.000    0.000    0.000    0.000 
#
# Total GULP energy -156393.885660 kJ/mol
# GULP energy per Si atom -5585.495916 kJ/mol
# Density = 1.828225 g / cm^3
# Si number density = 18.323954 Si / 1000 Ang^3
#
#
#
# Elastic Constant Matrix: (Units=GPa)
#
#
# Indices 1 2 3 4 5 6 
#
# 1 38.9951 17.6203 25.1405 0.0000 -4.0771 0.0000
# 2 17.6203 91.5408 29.3498 0.0000 -4.5113 0.0000
# 3 25.1405 29.3498 91.9341 0.0000 -16.2764 0.0000
# 4 0.0000 0.0000 0.0000 -21.2934 0.0000 27.9325
# 5 -4.0771 -4.5113 -16.2764 0.0000 16.9174 0.0000
# 6 0.0000 0.0000 0.0000 27.9325 0.0000 51.3349
#
#
#
# Elastic Compliance Matrix: (Units=1/GPa)
#
#
# Indices 1 2 3 4 5 6 
#
# 1 0.032265 -0.003762 -0.007742 0.000000 -0.000676 0.000000
# 2 -0.003762 0.012613 -0.003089 0.000000 -0.000515 0.000000
# 3 -0.007742 -0.003089 0.016277 0.000000 0.012971 0.000000
# 4 0.000000 0.000000 0.000000 -0.027403 0.000000 0.014911
# 5 -0.000676 -0.000515 0.012971 0.000000 0.071289 0.000000
# 6 0.000000 0.000000 0.000000 0.014911 0.000000 0.011367
#
#
# Mechanical properties :
#
#
# Convention : Reuss Voigt Hill
#
# Bulk Modulus (GPa) = 31.28000 40.74345 36.01172
# Shear Modulus (GPa) = 32.00003 19.41576 25.70790
#
# Velocity S-wave (km/s) = 4.18347 3.25866 3.74968
# Velocity P-wave (km/s) = 6.35947 6.03670 6.20019
#
# Compressibility (1/GPa) = 0.03196931
#
# Stress axis : x y z
#
# Youngs Moduli (GPa) = 30.99379 79.28177 61.43591
#
# Poissons Ratio (x) = 0.29822 0.47563
# Poissons Ratio (y) = 0.11658 0.18980
# Poissons Ratio (z) = 0.23995 0.24493
#
# Static dielectric constant tensor:
#      x y z
#    x 1.623490 0.000000 -0.007340 
#    y 0.000000 1.601430 0.000000 
#    z -0.007340 0.000000 1.642500 
# 
# From -- ./inp_files/81058.got.cif
#   From: 2010.05.17/outbox.cif.g08.bks.cpg/sg13_41_cif.got.tgz:81058.got - 2010.06.03 16:44:36.
