data_PCOD9230660
_publ_section_title
;
Structure prediction by ZEFSAII (Michael W. Deem and Ramdas Pophale) SiO2 
 PCOD9230660
Probable space group: P 2/C
;
_chemical_formula_sum "Si O2"
_cell_formula_units_Z 32
_cell_length_a 13.009923
_cell_length_b 15.556387
_cell_length_c 18.548768
_cell_angle_alpha 90.000000
_cell_angle_beta 153.970200
_cell_angle_gamma 90.000000
_cell_volume 1647.416127
_symmetry_space_group_name_H-M "P 2/C"
_symmetry_group_IT_number 13
_symmetry_cell_setting 'monoclinic'
loop_
_space_group_symop_operation_xyz
x,y,z
-x,y,1/2-z
-x,-y,-z
x,-y,1/2+z
loop_
_atom_site_type_symbol
_atom_site_label
_atom_site_fract_x
_atom_site_fract_y
_atom_site_fract_z
Si Si1 0.796835 0.965464 0.822377
Si Si2 0.724567 0.366110 0.942964
Si Si3 0.108488 0.508956 0.738689
Si Si4 0.792026 0.952605 0.159093
Si Si5 0.377697 0.919953 0.066911
Si Si6 0.009229 0.808175 0.613376
Si Si7 0.516177 0.628455 0.052643
Si Si8 0.553994 0.811986 0.516025
O O1 0.821262 0.861845 0.833579
O O2 0.561649 0.008457 0.705426
O O3 0.824825 0.009523 0.759944
O O4 0.000000 0.000000 0.000000
O O5 0.500000 0.377252 0.750000
O O6 0.611508 0.355255 0.951330
O O7 0.883424 0.282877 0.021699
O O8 0.902760 0.446949 0.062395
O O9 0.247388 0.427441 0.794244
O O10 0.000000 0.490329 0.750000
O O11 0.318347 0.577776 0.882615
O O12 0.000000 0.903230 0.250000
O O13 0.571093 0.889624 0.021149
O O14 0.245371 0.031479 0.418661
O O15 0.485492 0.839058 0.092047
O O16 0.200056 0.877065 0.009298
O O17 0.176054 0.801426 0.789209
O O18 0.562226 0.720203 0.045728
#
# Coordination Sequence:
#
# PCOD9230660 Si02
#       8
#     4   4   4   4   4   4   4   4
#     4  11  24  35  51  82 118 155 191 239 300 344
#     4  11  24  36  59  94 119 154 196 241 307 367
#     4   9  20  39  62  87 119 146 189 241 305 366
#     4  11  20  37  55  79 109 155 203 238 285 354
#     4  11  20  35  56  80 110 154 194 242 288 342
#     4  12  21  36  60  83 120 150 201 256 291 339
#     4  10  20  37  61  89 115 148 193 253 296 357
#     4  11  19  33  60  84 108 146 198 249 291 334
#
# _framework density 19.424357000000001
#
# number of rings (size 3 to 8) (size 9 to 14) (size 15 to 20)
#    0.000    1.250    6.250    1.125    1.750    1.000 
#    0.000    0.000    0.000    0.000    0.000    0.000 
#    0.000    0.000    0.000    0.000    0.000    0.000 
#
# Total GULP energy -178215.621054 kJ/mol
# GULP energy per Si atom -5569.238158 kJ/mol
# Density = 1.938015 g / cm^3
# Si number density = 19.424357 Si / 1000 Ang^3
#
#
#
# Elastic Constant Matrix: (Units=GPa)
#
#
# Indices 1 2 3 4 5 6 
#
# 1 32.7092 12.3859 13.0371 0.0000 9.3599 0.0000
# 2 12.3859 107.5792 40.1447 0.0000 9.0564 0.0000
# 3 13.0371 40.1447 119.9066 0.0000 4.3586 0.0000
# 4 0.0000 0.0000 0.0000 37.2897 0.0000 15.0593
# 5 9.3599 9.0564 4.3586 0.0000 30.8234 0.0000
# 6 0.0000 0.0000 0.0000 15.0593 0.0000 20.6555
#
#
#
# Elastic Compliance Matrix: (Units=1/GPa)
#
#
# Indices 1 2 3 4 5 6 
#
# 1 0.035274 -0.002225 -0.002739 0.000000 -0.009670 0.000000
# 2 -0.002225 0.010980 -0.003359 0.000000 -0.002075 0.000000
# 3 -0.002739 -0.003359 0.009746 0.000000 0.000440 0.000000
# 4 0.000000 0.000000 0.000000 0.038008 0.000000 -0.027710
# 5 -0.009670 -0.002075 0.000440 0.000000 0.035927 0.000000
# 6 0.000000 0.000000 0.000000 -0.027710 0.000000 0.068616
#
#
# Mechanical properties :
#
#
# Convention : Reuss Voigt Hill
#
# Bulk Modulus (GPa) = 25.41000 43.48114 34.44557
# Shear Modulus (GPa) = 21.89974 30.72887 26.31431
#
# Velocity S-wave (km/s) = 3.36138 3.98172 3.68463
# Velocity P-wave (km/s) = 5.30802 6.60093 5.98946
#
# Compressibility (1/GPa) = 0.03935459
#
# Stress axis : x y z
#
# Youngs Moduli (GPa) = 28.34967 91.07722 102.60549
#
# Poissons Ratio (x) = 0.20265 0.28101
# Poissons Ratio (y) = 0.06308 0.34461
# Poissons Ratio (z) = 0.07764 0.30589
#
# Static dielectric constant tensor:
#      x y z
#    x 1.774620 0.000000 0.045430 
#    y 0.000000 1.715070 0.000000 
#    z 0.045430 0.000000 1.771760 
# 
# From -- ./inp_files/80405.got.cif
#   From: 2010.05.17/outbox.cif.g08.bks.cpg/sg13_41_cif.got.tgz:80405.got - 2010.06.03 16:44:36.
