data_PCOD9230051
_publ_section_title
;
Structure prediction by ZEFSAII (Michael W. Deem and Ramdas Pophale) SiO2 
 PCOD9230051
Probable space group: P 2/C
;
_chemical_formula_sum "Si O2"
_cell_formula_units_Z 26
_cell_length_a 10.587152
_cell_length_b 6.612493
_cell_length_c 21.121823
_cell_angle_alpha 90.000000
_cell_angle_beta 125.422577
_cell_angle_gamma 90.000000
_cell_volume 1204.979916
_symmetry_space_group_name_H-M "P 2/C"
_symmetry_group_IT_number 13
_symmetry_cell_setting 'monoclinic'
loop_
_space_group_symop_operation_xyz
x,y,z
-x,y,1/2-z
-x,-y,-z
x,-y,1/2+z
loop_
_atom_site_type_symbol
_atom_site_label
_atom_site_fract_x
_atom_site_fract_y
_atom_site_fract_z
Si Si1 0.474782 0.169325 0.170526
Si Si2 0.637547 0.884293 0.122598
Si Si3 0.000000 0.458335 0.250000
Si Si4 0.042302 0.483128 0.409141
Si Si5 0.667007 0.780281 0.539205
Si Si6 0.114707 0.805306 0.537937
Si Si7 0.669439 0.556119 0.660510
O O1 0.500000 0.118796 0.250000
O O2 0.298095 0.144042 0.096139
O O3 0.544996 0.393221 0.177444
O O4 0.595471 0.033125 0.166695
O O5 0.714307 0.678406 0.167541
O O6 0.712878 0.008841 0.086781
O O7 0.468929 0.820992 0.048289
O O8 0.989296 0.543672 0.173685
O O9 0.838334 0.338823 0.211056
O O10 0.192816 0.339926 0.449646
O O11 0.078306 0.671243 0.465132
O O12 0.919579 0.339794 0.410765
O O13 0.597754 0.639990 0.574898
O O14 0.000000 0.000000 0.500000
#
# Coordination Sequence:
#
# PCOD9230051 Si02
#       7
#     4   4   2   4   4   4   4
#     4  11  24  40  60  89 125 167 211 257 313 377
#     4  10  20  35  59  88 114 150 196 251 307 370
#     4  10  22  40  64  92 120 160 210 264 324 380
#     4  10  22  41  62  89 125 164 205 261 317 370
#     4   9  19  36  60  88 114 146 198 251 310 372
#     4  11  24  41  64  92 127 171 216 258 313 384
#     4  10  21  38  59  85 120 156 197 253 315 373
#
# _framework density 21.577123
#
# number of rings (size 3 to 8) (size 9 to 14) (size 15 to 20)
#    0.000    1.846    0.000    3.231    0.000   11.692 
#    0.000    7.692    0.000    0.000    0.000    0.000 
#    0.000    0.000    0.000    0.000    0.000    0.000 
#
# Total GULP energy -144831.686472 kJ/mol
# GULP energy per Si atom -5570.449480 kJ/mol
# Density = 2.152801 g / cm^3
# Si number density = 21.577123 Si / 1000 Ang^3
#
#
#
# Elastic Constant Matrix: (Units=GPa)
#
#
# Indices 1 2 3 4 5 6 
#
# 1 93.9135 33.6830 37.8170 0.0000 -4.1445 0.0000
# 2 33.6830 86.8746 21.1263 0.0000 4.3586 0.0000
# 3 37.8170 21.1263 107.1777 0.0000 -10.6913 0.0000
# 4 0.0000 0.0000 0.0000 16.9378 0.0000 -12.3623
# 5 -4.1445 4.3586 -10.6913 0.0000 36.0520 0.0000
# 6 0.0000 0.0000 0.0000 -12.3623 0.0000 30.1245
#
#
#
# Elastic Compliance Matrix: (Units=1/GPa)
#
#
# Indices 1 2 3 4 5 6 
#
# 1 0.013873 -0.004476 -0.003916 0.000000 0.000975 0.000000
# 2 -0.004476 0.013712 -0.001381 0.000000 -0.002582 0.000000
# 3 -0.003916 -0.001381 0.011290 0.000000 0.003065 0.000000
# 4 0.000000 0.000000 0.000000 0.084284 0.000000 0.034588
# 5 0.000975 -0.002582 0.003065 0.000000 0.029071 0.000000
# 6 0.000000 0.000000 0.000000 0.034588 0.000000 0.047389
#
#
# Mechanical properties :
#
#
# Convention : Reuss Voigt Hill
#
# Bulk Modulus (GPa) = 51.73335 52.57984 52.15659
# Shear Modulus (GPa) = 22.16252 29.64549 25.90401
#
# Velocity S-wave (km/s) = 3.20836 3.71068 3.46863
# Velocity P-wave (km/s) = 6.14434 6.54065 6.34559
#
# Compressibility (1/GPa) = 0.01932989
#
# Stress axis : x y z
#
# Youngs Moduli (GPa) = 72.08224 72.93146 88.57514
#
# Poissons Ratio (x) = 0.32641 0.34682
# Poissons Ratio (y) = 0.32261 0.12233
# Poissons Ratio (z) = 0.28224 0.10073
#
# Static dielectric constant tensor:
#      x y z
#    x 1.827200 0.000000 -0.011330 
#    y 0.000000 1.939560 0.000000 
#    z -0.011330 0.000000 1.827580 
# 
# From -- ./inp_files/77329.got.cif
#   From: 2010.05.17/outbox.cif.g08.bks.cpg/sg13_39_cif.got.tgz:77329.got - 2010.06.03 16:44:36.
