data_PCOD9230561
_publ_section_title
;
Structure prediction by ZEFSAII (Michael W. Deem and Ramdas Pophale) SiO2 
 PCOD9230561
Probable space group: P 2/C
;
_chemical_formula_sum "Si O2"
_cell_formula_units_Z 22
_cell_length_a 13.302589
_cell_length_b 8.368215
_cell_length_c 17.308068
_cell_angle_alpha 90.000000
_cell_angle_beta 34.641921
_cell_angle_gamma 90.000000
_cell_volume 1095.233439
_symmetry_space_group_name_H-M "P 2/C"
_symmetry_group_IT_number 13
_symmetry_cell_setting 'monoclinic'
loop_
_space_group_symop_operation_xyz
x,y,z
-x,y,1/2-z
-x,-y,-z
x,-y,1/2+z
loop_
_atom_site_type_symbol
_atom_site_label
_atom_site_fract_x
_atom_site_fract_y
_atom_site_fract_z
Si Si1 0.656329 0.914556 0.254048
Si Si2 0.049505 0.319529 0.949779
Si Si3 0.085509 0.127863 0.317563
Si Si4 0.708079 0.978095 0.546276
Si Si5 0.000000 0.622639 0.750000
Si Si6 0.870422 0.312156 0.898697
O O1 0.758037 0.006849 0.258626
O O2 0.445917 0.916726 0.394373
O O3 0.687017 0.007945 0.152637
O O4 0.748567 0.742252 0.184232
O O5 0.964931 0.290725 0.920449
O O6 0.000000 0.500000 0.000000
O O7 0.964340 0.211135 0.069777
O O8 0.109239 0.267763 0.240107
O O9 0.904376 0.041835 0.405772
O O10 0.699456 0.798917 0.516818
O O11 0.869025 0.500895 0.879008
O O12 0.000000 0.248991 0.750000
#
# Coordination Sequence:
#
# PCOD9230561 Si02
#       6
#     4   4   4   4   2   4
#     4  10  21  36  64  98 114 158 216 246 304 376
#     4  11  18  37  64  85 123 161 200 250 308 365
#     4  11  20  38  61  88 120 162 205 254 303 366
#     4  10  20  38  64  89 123 155 208 260 296 367
#     4  10  24  34  60  88 122 164 206 252 312 356
#     4  10  20  37  58  88 118 163 203 248 312 361
#
# _framework density 20.087042
#
# number of rings (size 3 to 8) (size 9 to 14) (size 15 to 20)
#    0.545    1.091    5.455    1.091    1.273    0.000 
#    0.000    6.364    4.000    0.000    0.000    0.000 
#    0.000    0.000    0.000    0.000    0.000    0.000 
#
# Total GULP energy -122482.756106 kJ/mol
# GULP energy per Si atom -5567.398005 kJ/mol
# Density = 2.004132 g / cm^3
# Si number density = 20.087042 Si / 1000 Ang^3
#
#
#
# Elastic Constant Matrix: (Units=GPa)
#
#
# Indices 1 2 3 4 5 6 
#
# 1 96.5852 44.0767 41.3757 0.0000 -7.0197 0.0000
# 2 44.0767 114.0082 33.3926 0.0000 -12.9241 0.0000
# 3 41.3757 33.3926 35.8479 0.0000 -12.2984 0.0000
# 4 0.0000 0.0000 0.0000 12.7852 0.0000 14.9013
# 5 -7.0197 -12.9241 -12.2984 0.0000 39.5909 0.0000
# 6 0.0000 0.0000 0.0000 14.9013 0.0000 32.9416
#
#
#
# Elastic Compliance Matrix: (Units=1/GPa)
#
#
# Indices 1 2 3 4 5 6 
#
# 1 0.021293 -0.001499 -0.024684 0.000000 -0.004382 0.000000
# 2 -0.001499 0.012177 -0.009335 0.000000 0.000809 0.000000
# 3 -0.024684 -0.009335 0.069993 0.000000 0.014319 0.000000
# 4 0.000000 0.000000 0.000000 0.165439 0.000000 -0.074837
# 5 -0.004382 0.000809 0.014319 0.000000 0.029194 0.000000
# 6 0.000000 0.000000 0.000000 -0.074837 0.000000 0.064210
#
#
# Mechanical properties :
#
#
# Convention : Reuss Voigt Hill
#
# Bulk Modulus (GPa) = 30.83715 53.79235 42.31475
# Shear Modulus (GPa) = 11.25746 25.56997 18.41372
#
# Velocity S-wave (km/s) = 2.36992 3.57173 3.03098
# Velocity P-wave (km/s) = 4.78265 6.62174 5.77586
#
# Compressibility (1/GPa) = 0.03242841
#
# Stress axis : x y z
#
# Youngs Moduli (GPa) = 46.96303 82.12378 14.28715
#
# Poissons Ratio (x) = 0.12312 0.35266
# Poissons Ratio (y) = 0.07041 0.13336
# Poissons Ratio (z) = 1.15921 0.76659
#
# Static dielectric constant tensor:
#      x y z
#    x 1.710670 0.000000 0.011250 
#    y 0.000000 1.836090 0.000000 
#    z 0.011250 0.000000 1.740330 
# 
# From -- ./inp_files/79517.got.cif
#   From: 2010.05.17/outbox.cif.g08.bks.cpg/sg13_40_cif.got.tgz:79517.got - 2010.06.03 16:44:36.
