data_PCOD9230466
_publ_section_title
;
Structure prediction by ZEFSAII (Michael W. Deem and Ramdas Pophale) SiO2 
 PCOD9230466
Probable space group: P 2/C
;
_chemical_formula_sum "Si O2"
_cell_formula_units_Z 32
_cell_length_a 9.947170
_cell_length_b 10.039890
_cell_length_c 26.768493
_cell_angle_alpha 90.000000
_cell_angle_beta 32.193526
_cell_angle_gamma 90.000000
_cell_volume 1424.298011
_symmetry_space_group_name_H-M "P 2/C"
_symmetry_group_IT_number 13
_symmetry_cell_setting 'monoclinic'
loop_
_space_group_symop_operation_xyz
x,y,z
-x,y,1/2-z
-x,-y,-z
x,-y,1/2+z
loop_
_atom_site_type_symbol
_atom_site_label
_atom_site_fract_x
_atom_site_fract_y
_atom_site_fract_z
Si Si1 0.515267 0.199883 0.111253
Si Si2 0.246215 0.729589 0.797213
Si Si3 0.274866 0.376237 0.685671
Si Si4 0.556737 0.420323 0.031854
Si Si5 0.465214 0.894821 0.140347
Si Si6 0.786017 0.986525 0.181816
Si Si7 0.089906 0.771074 0.434597
Si Si8 0.867703 0.572290 0.157476
O O1 0.329349 0.243846 0.214125
O O2 0.435309 0.281521 0.087227
O O3 0.515375 0.041418 0.103134
O O4 0.797135 0.245147 0.041814
O O5 0.500000 0.723452 0.750000
O O6 0.123456 0.587491 0.844967
O O7 0.101964 0.865489 0.856465
O O8 0.481941 0.478691 0.599811
O O9 0.347396 0.226511 0.646520
O O10 0.257055 0.383882 0.751386
O O11 0.000000 0.413004 0.750000
O O12 0.500000 0.500000 0.000000
O O13 0.845116 0.382511 0.933847
O O14 0.263585 0.928932 0.247817
O O15 0.721229 0.832753 0.083966
O O16 0.500000 0.997060 0.250000
O O17 0.924118 0.881852 0.104307
O O18 0.219620 0.643050 0.366512
#
# Coordination Sequence:
#
# PCOD9230466 Si02
#       8
#     4   4   4   4   4   4   4   4
#     4  10  22  40  63  96 129 167 209 263 320 392
#     4  10  21  35  57  89 132 159 198 253 317 381
#     4  12  24  42  65  87 126 169 218 272 319 378
#     4  11  24  44  65  88 121 172 221 261 322 372
#     4  10  21  38  62  92 126 164 208 257 329 382
#     4   8  16  32  53  83 119 163 192 238 305 376
#     4  10  20  36  65  92 132 164 203 255 327 396
#     4  11  23  38  62  94 122 166 213 265 318 388
#
# _framework density 22.467207999999999
#
# number of rings (size 3 to 8) (size 9 to 14) (size 15 to 20)
#    0.000    1.750    3.750    1.125    1.750    2.000 
#    0.000    6.250    0.000    0.000    0.000    0.000 
#    0.000    0.000    0.000    0.000    0.000    0.000 
#
# Total GULP energy -178511.713033 kJ/mol
# GULP energy per Si atom -5578.491032 kJ/mol
# Density = 2.241607 g / cm^3
# Si number density = 22.467208 Si / 1000 Ang^3
#
#
#
# Elastic Constant Matrix: (Units=GPa)
#
#
# Indices 1 2 3 4 5 6 
#
# 1 31.4506 6.9416 5.6307 0.0000 3.3644 0.0000
# 2 6.9416 151.8618 17.7570 0.0000 17.6345 0.0000
# 3 5.6307 17.7570 64.7030 0.0000 17.5436 0.0000
# 4 0.0000 0.0000 0.0000 23.3764 0.0000 -3.4426
# 5 3.3644 17.6345 17.5436 0.0000 10.3841 0.0000
# 6 0.0000 0.0000 0.0000 -3.4426 0.0000 62.4184
#
#
#
# Elastic Compliance Matrix: (Units=1/GPa)
#
#
# Indices 1 2 3 4 5 6 
#
# 1 0.032951 -0.000338 -0.000066 0.000000 -0.009990 0.000000
# 2 -0.000338 0.008494 0.002915 0.000000 -0.019239 0.000000
# 3 -0.000066 0.002915 0.029520 0.000000 -0.054803 0.000000
# 4 0.000000 0.000000 0.000000 0.043129 0.000000 0.002379
# 5 -0.009990 -0.019239 -0.054803 0.000000 0.224800 0.000000
# 6 0.000000 0.000000 0.000000 0.002379 0.000000 0.016152
#
#
# Mechanical properties :
#
#
# Convention : Reuss Voigt Hill
#
# Bulk Modulus (GPa) = 13.16028 34.29710 23.72869
# Shear Modulus (GPa) = 13.32079 33.74817 23.53448
#
# Velocity S-wave (km/s) = 2.43759 3.87991 3.24003
# Velocity P-wave (km/s) = 3.71386 5.94728 4.95797
#
# Compressibility (1/GPa) = 0.07598620
#
# Stress axis : x y z
#
# Youngs Moduli (GPa) = 30.34803 117.73467 33.87493
#
# Poissons Ratio (x) = 0.03985 0.00224
# Poissons Ratio (y) = 0.01027 -0.09875
# Poissons Ratio (z) = 0.00201 -0.34321
#
# Static dielectric constant tensor:
#      x y z
#    x 1.935960 0.000000 0.041000 
#    y 0.000000 1.932380 0.000000 
#    z 0.041000 0.000000 1.841880 
# 
# From -- ./inp_files/96654.got.cif
#   From: 2010.05.17/outbox.cif.g08.bks.cpg/sg13_49_cif.got.tgz:96654.got - 2010.06.03 16:44:36.
