data_PCOD9230109
_publ_section_title
;
Structure prediction by ZEFSAII (Michael W. Deem and Ramdas Pophale) SiO2 
 PCOD9230109
Probable space group: P 2/C
;
_chemical_formula_sum "Si O2"
_cell_formula_units_Z 24
_cell_length_a 5.227810
_cell_length_b 15.872991
_cell_length_c 14.207500
_cell_angle_alpha 90.000000
_cell_angle_beta 98.498560
_cell_angle_gamma 90.000000
_cell_volume 1166.006895
_symmetry_space_group_name_H-M "P 2/C"
_symmetry_group_IT_number 13
_symmetry_cell_setting 'monoclinic'
loop_
_space_group_symop_operation_xyz
x,y,z
-x,y,1/2-z
-x,-y,-z
x,-y,1/2+z
loop_
_atom_site_type_symbol
_atom_site_label
_atom_site_fract_x
_atom_site_fract_y
_atom_site_fract_z
Si Si1 0.945596 0.944450 0.405351
Si Si2 0.559197 0.698161 0.009642
Si Si3 0.349347 0.201943 0.330074
Si Si4 0.000000 0.645268 0.750000
Si Si5 0.000000 0.065964 0.250000
Si Si6 0.033860 0.592346 0.959564
Si Si7 0.549332 0.843244 0.141401
O O1 0.715180 0.880592 0.415510
O O2 0.202892 0.896424 0.381651
O O3 0.853193 0.003867 0.313538
O O4 0.000000 0.000000 0.500000
O O5 0.580503 0.747533 0.108058
O O6 0.508804 0.771158 0.928831
O O7 0.316519 0.633832 0.991268
O O8 0.820738 0.651711 0.995923
O O9 0.500000 0.165204 0.250000
O O10 0.230029 0.289216 0.284317
O O11 0.136133 0.130410 0.330634
O O12 0.973035 0.593346 0.844199
O O13 0.000000 0.500000 0.000000
O O14 0.500000 0.845727 0.250000
#
# Coordination Sequence:
#
# PCOD9230109 Si02
#       7
#     4   4   4   2   2   4   4
#     4  12  26  43  64  94 131 176 225 281 328 376
#     4  11  24  43  67  95 128 171 216 256 324 397
#     4  10  20  35  63  89 123 162 212 267 320 375
#     4   9  20  40  60  95 130 164 200 263 324 380
#     4  11  24  36  60  95 124 164 226 271 328 360
#     4  11  23  43  68 101 132 163 207 266 324 388
#     4  12  25  47  65  90 135 182 220 270 325 391
#
# _framework density 20.583069999999999
#
# number of rings (size 3 to 8) (size 9 to 14) (size 15 to 20)
#    0.000    1.000    3.333    3.000    4.667    0.000 
#    3.000    0.000    0.000    0.000    0.000    0.000 
#    0.000    0.000    0.000    0.000    0.000    0.000 
#
# Total GULP energy -133996.139846 kJ/mol
# GULP energy per Si atom -5583.172494 kJ/mol
# Density = 2.053622 g / cm^3
# Si number density = 20.583070 Si / 1000 Ang^3
#
#
#
# Elastic Constant Matrix: (Units=GPa)
#
#
# Indices 1 2 3 4 5 6 
#
# 1 83.8206 7.0827 14.2598 0.0000 -16.8757 0.0000
# 2 7.0827 74.1991 46.0906 0.0000 -21.3792 0.0000
# 3 14.2598 46.0906 96.3284 0.0000 -11.3717 0.0000
# 4 0.0000 0.0000 0.0000 19.1649 0.0000 -17.3507
# 5 -16.8757 -21.3792 -11.3717 0.0000 18.7936 0.0000
# 6 0.0000 0.0000 0.0000 -17.3507 0.0000 17.8246
#
#
#
# Elastic Compliance Matrix: (Units=1/GPa)
#
#
# Indices 1 2 3 4 5 6 
#
# 1 0.015735 0.005699 -0.002825 0.000000 0.018904 0.000000
# 2 0.005699 0.028667 -0.010884 0.000000 0.031144 0.000000
# 3 -0.002825 -0.010884 0.015342 0.000000 -0.005635 0.000000
# 4 0.000000 0.000000 0.000000 0.439456 0.000000 0.427773
# 5 0.018904 0.031144 -0.005635 0.000000 0.102203 0.000000
# 6 0.000000 0.000000 0.000000 0.427773 0.000000 0.472502
#
#
# Mechanical properties :
#
#
# Convention : Reuss Voigt Hill
#
# Bulk Modulus (GPa) = 22.86961 43.24604 33.05783
# Shear Modulus (GPa) = 4.52694 23.61762 14.07228
#
# Velocity S-wave (km/s) = 1.48463 3.39105 2.61757
# Velocity P-wave (km/s) = 3.75151 6.03228 5.02306
#
# Compressibility (1/GPa) = 0.04372614
#
# Stress axis : x y z
#
# Youngs Moduli (GPa) = 63.55213 34.88273 65.18165
#
# Poissons Ratio (x) = -0.19881 0.18412
# Poissons Ratio (y) = -0.36221 0.70942
# Poissons Ratio (z) = 0.17952 0.37966
#
# Static dielectric constant tensor:
#      x y z
#    x 2.340190 0.000000 -0.254920 
#    y 0.000000 1.707040 0.000000 
#    z -0.254920 0.000000 1.897760 
# 
# From -- ./inp_files/43889.got.cif
#   From: 2010.05.17/outbox.cif.g08.bks.cpg/sg13_22_cif.got.tgz:43889.got - 2010.06.03 16:44:36.
