data_PCOD9230637
_publ_section_title
;
Structure prediction by ZEFSAII (Michael W. Deem and Ramdas Pophale) SiO2 
 PCOD9230637
Probable space group: P 2/C
;
_chemical_formula_sum "Si O2"
_cell_formula_units_Z 28
_cell_length_a 23.630344
_cell_length_b 11.245679
_cell_length_c 29.036129
_cell_angle_alpha 90.000000
_cell_angle_beta 169.632923
_cell_angle_gamma 90.000000
_cell_volume 1388.531721
_symmetry_space_group_name_H-M "P 2/C"
_symmetry_group_IT_number 13
_symmetry_cell_setting 'monoclinic'
loop_
_space_group_symop_operation_xyz
x,y,z
-x,y,1/2-z
-x,-y,-z
x,-y,1/2+z
loop_
_atom_site_type_symbol
_atom_site_label
_atom_site_fract_x
_atom_site_fract_y
_atom_site_fract_z
Si Si1 0.841998 0.095989 0.073321
Si Si2 0.250621 0.227288 0.636115
Si Si3 0.706201 0.661124 0.147543
Si Si4 0.534052 0.191289 0.957873
Si Si5 0.841558 0.145678 0.517985
Si Si6 0.821075 0.002235 0.287346
Si Si7 0.912112 0.464335 0.376944
O O1 0.000000 0.093051 0.250000
O O2 0.098619 0.162506 0.247599
O O3 0.829905 0.962712 0.044634
O O4 0.512139 0.163987 0.813525
O O5 0.432360 0.253367 0.829680
O O6 0.968248 0.130426 0.414342
O O7 0.109360 0.355677 0.513117
O O8 0.549952 0.737068 0.063868
O O9 0.931071 0.573929 0.356732
O O10 0.891409 0.754729 0.264212
O O11 0.447998 0.584179 0.913869
O O12 0.320638 0.071045 0.783631
O O13 0.500000 0.202786 0.250000
O O14 0.924282 0.078758 0.535884
O O15 0.500000 0.000000 0.000000
O O16 0.000000 0.500000 0.500000
#
# Coordination Sequence:
#
# PCOD9230637 Si02
#       7
#     4   4   4   4   4   4   4
#     4  10  22  37  58  97 132 162 199 263 326 388
#     4  11  21  37  62  92 124 170 209 258 318 381
#     4  10  24  43  67  92 124 167 218 274 305 380
#     4  10  20  37  60  95 127 157 212 262 321 381
#     4  11  21  40  62  90 133 163 207 261 337 388
#     4  11  20  33  58  93 123 165 207 261 323 374
#     4  11  23  45  67  94 123 169 225 264 310 369
#
# _framework density 20.165185999999999
#
# number of rings (size 3 to 8) (size 9 to 14) (size 15 to 20)
#    0.000    1.429    4.286    2.143    0.000    0.000 
#    2.571    2.857    0.000    0.000    0.000    0.000 
#    0.000    0.000    0.000    0.000    0.000    0.000 
#
# Total GULP energy -156147.800902 kJ/mol
# GULP energy per Si atom -5576.707175 kJ/mol
# Density = 2.011929 g / cm^3
# Si number density = 20.165186 Si / 1000 Ang^3
#
#
#
# Elastic Constant Matrix: (Units=GPa)
#
#
# Indices 1 2 3 4 5 6 
#
# 1 58.5367 24.2221 35.1325 0.0000 -1.3220 0.0000
# 2 24.2221 110.7704 43.2945 0.0000 5.9547 0.0000
# 3 35.1325 43.2945 105.8254 0.0000 10.4563 0.0000
# 4 0.0000 0.0000 0.0000 39.1038 0.0000 -0.5183
# 5 -1.3220 5.9547 10.4563 0.0000 35.6623 0.0000
# 6 0.0000 0.0000 0.0000 -0.5183 0.0000 30.9930
#
#
#
# Elastic Compliance Matrix: (Units=1/GPa)
#
#
# Indices 1 2 3 4 5 6 
#
# 1 0.022165 -0.002403 -0.006690 0.000000 0.003184 0.000000
# 2 -0.002403 0.011016 -0.003623 0.000000 -0.000866 0.000000
# 3 -0.006690 -0.003623 0.013509 0.000000 -0.003604 0.000000
# 4 0.000000 0.000000 0.000000 0.025579 0.000000 0.000428
# 5 0.003184 -0.000866 -0.003604 0.000000 0.029360 0.000000
# 6 0.000000 0.000000 0.000000 0.000428 0.000000 0.032272
#
#
# Mechanical properties :
#
#
# Convention : Reuss Voigt Hill
#
# Bulk Modulus (GPa) = 47.04382 53.38120 50.21251
# Shear Modulus (GPa) = 30.04462 32.65072 31.34767
#
# Velocity S-wave (km/s) = 3.86414 4.02825 3.94705
# Velocity P-wave (km/s) = 6.57941 6.94011 6.76217
#
# Compressibility (1/GPa) = 0.02125678
#
# Stress axis : x y z
#
# Youngs Moduli (GPa) = 45.11672 90.77764 74.02535
#
# Poissons Ratio (x) = 0.21816 0.49522
# Poissons Ratio (y) = 0.10843 0.26822
# Poissons Ratio (z) = 0.30182 0.32892
#
# Static dielectric constant tensor:
#      x y z
#    x 1.783480 0.000000 -0.032010 
#    y 0.000000 1.748020 0.000000 
#    z -0.032010 0.000000 1.778490 
# 
# From -- ./inp_files/97728.got.cif
#   From: 2010.05.17/outbox.cif.g08.bks.cpg/sg13_49_cif.got.tgz:97728.got - 2010.06.03 16:44:36.
