data_PCOD9230688
_publ_section_title
;
Structure prediction by ZEFSAII (Michael W. Deem and Ramdas Pophale) SiO2 
 PCOD9230688
Probable space group: P 2/C
;
_chemical_formula_sum "Si O2"
_cell_formula_units_Z 24
_cell_length_a 10.180943
_cell_length_b 14.561742
_cell_length_c 13.694620
_cell_angle_alpha 90.000000
_cell_angle_beta 146.893144
_cell_angle_gamma 90.000000
_cell_volume 1108.931622
_symmetry_space_group_name_H-M "P 2/C"
_symmetry_group_IT_number 13
_symmetry_cell_setting 'monoclinic'
loop_
_space_group_symop_operation_xyz
x,y,z
-x,y,1/2-z
-x,-y,-z
x,-y,1/2+z
loop_
_atom_site_type_symbol
_atom_site_label
_atom_site_fract_x
_atom_site_fract_y
_atom_site_fract_z
Si Si1 0.713265 0.238647 0.254196
Si Si2 0.500000 0.905802 0.750000
Si Si3 0.791359 0.589471 0.194200
Si Si4 0.540425 0.059722 0.930154
Si Si5 0.000000 0.816878 0.750000
Si Si6 0.773125 0.201002 0.675033
Si Si7 0.621592 0.559552 0.724487
O O1 0.705742 0.160018 0.332378
O O2 0.726046 0.339173 0.308847
O O3 0.909122 0.235318 0.289957
O O4 0.457829 0.216009 0.040775
O O5 0.584035 0.979621 0.880792
O O6 0.823501 0.695738 0.243975
O O7 0.781798 0.521434 0.279634
O O8 0.000000 0.562462 0.250000
O O9 0.558494 0.580187 0.978894
O O10 0.314802 0.130940 0.795398
O O11 0.775627 0.121329 0.080002
O O12 0.500000 0.000000 0.000000
O O13 0.000000 0.171198 0.750000
O O14 0.500000 0.529496 0.750000
#
# Coordination Sequence:
#
# PCOD9230688 Si02
#       7
#     4   2   4   4   2   4   4
#     4  10  21  38  61  88 115 154 200 242 296 352
#     4  12  22  40  58  88 118 152 210 236 288 360
#     4   9  20  38  60  88 113 155 197 235 296 350
#     4  11  23  39  59  87 118 157 196 245 297 345
#     4  10  22  42  58  86 122 154 194 250 296 346
#     4   9  19  40  62  80 120 158 194 240 296 350
#     4  10  20  37  62  86 119 152 191 245 291 350
#
# _framework density 21.642451999999999
#
# number of rings (size 3 to 8) (size 9 to 14) (size 15 to 20)
#    0.000    2.000    4.167    0.000    2.333    1.333 
#    4.500    0.000    0.000    0.000    0.000    0.000 
#    0.000    0.000    0.000    0.000    0.000    0.000 
#
# Total GULP energy -133805.572038 kJ/mol
# GULP energy per Si atom -5575.232168 kJ/mol
# Density = 2.159319 g / cm^3
# Si number density = 21.642452 Si / 1000 Ang^3
#
#
#
# Elastic Constant Matrix: (Units=GPa)
#
#
# Indices 1 2 3 4 5 6 
#
# 1 152.0721 81.4333 12.0672 0.0000 19.6296 0.0000
# 2 81.4333 136.0693 7.7659 0.0000 7.9648 0.0000
# 3 12.0672 7.7659 30.0269 0.0000 13.7502 0.0000
# 4 0.0000 0.0000 0.0000 0.2156 0.0000 -14.7862
# 5 19.6296 7.9648 13.7502 0.0000 36.4519 0.0000
# 6 0.0000 0.0000 0.0000 -14.7862 0.0000 -45.0997
#
#
#
# Elastic Compliance Matrix: (Units=1/GPa)
#
#
# Indices 1 2 3 4 5 6 
#
# 1 0.010304 -0.005889 -0.000805 0.000000 -0.003958 0.000000
# 2 -0.005889 0.010861 -0.000976 0.000000 0.001166 0.000000
# 3 -0.000805 -0.000976 0.040596 0.000000 -0.014666 0.000000
# 4 0.000000 0.000000 0.000000 0.197499 0.000000 -0.064751
# 5 -0.003958 0.001166 -0.014666 0.000000 0.034842 0.000000
# 6 0.000000 0.000000 0.000000 -0.064751 0.000000 -0.000944
#
#
# Mechanical properties :
#
#
# Convention : Reuss Voigt Hill
#
# Bulk Modulus (GPa) = 21.54277 57.85568 39.69923
# Shear Modulus (GPa) = 15.43335 12.77368 14.10352
#
# Velocity S-wave (km/s) = 2.67330 2.43207 2.55553
# Velocity P-wave (km/s) = 4.41636 5.88873 5.20487
#
# Compressibility (1/GPa) = 0.04641928
#
# Stress axis : x y z
#
# Youngs Moduli (GPa) = 97.04731 92.07170 24.63313
#
# Poissons Ratio (x) = 0.54222 0.01984
# Poissons Ratio (y) = 0.57152 0.02405
# Poissons Ratio (z) = 0.07815 0.08990
#
# Static dielectric constant tensor:
#      x y z
#    x 1.724650 0.000000 -0.054350 
#    y 0.000000 1.801180 0.000000 
#    z -0.054350 0.000000 1.952770 
# 
# From -- ./inp_files/47833.got.cif
#   From: 2010.05.17/outbox.cif.g08.bks.cpg/sg13_24_cif.got.tgz:47833.got - 2010.06.03 16:44:36.
