data_PCOD9230068
_publ_section_title
;
Structure prediction by ZEFSAII (Michael W. Deem and Ramdas Pophale) SiO2 
 PCOD9230068
Probable space group: P 2/C
;
_chemical_formula_sum "Si O2"
_cell_formula_units_Z 30
_cell_length_a 8.818096
_cell_length_b 6.503743
_cell_length_c 26.160405
_cell_angle_alpha 90.000000
_cell_angle_beta 95.364324
_cell_angle_gamma 90.000000
_cell_volume 1493.744883
_symmetry_space_group_name_H-M "P 2/C"
_symmetry_group_IT_number 13
_symmetry_cell_setting 'monoclinic'
loop_
_space_group_symop_operation_xyz
x,y,z
-x,y,1/2-z
-x,-y,-z
x,-y,1/2+z
loop_
_atom_site_type_symbol
_atom_site_label
_atom_site_fract_x
_atom_site_fract_y
_atom_site_fract_z
Si Si1 0.203819 0.207032 0.400863
Si Si2 0.052413 0.535643 0.662170
Si Si3 0.271484 0.631770 0.087558
Si Si4 0.182117 0.041944 0.510603
Si Si5 0.334709 0.380938 0.994640
Si Si6 0.378262 0.433661 0.882335
Si Si7 0.000000 0.846764 0.750000
Si Si8 0.840892 0.158664 0.675783
O O1 0.221271 0.178885 0.461754
O O2 0.348791 0.321165 0.379254
O O3 0.063527 0.351440 0.380296
O O4 0.171439 0.987840 0.374194
O O5 0.196058 0.469262 0.634108
O O6 0.068091 0.696612 0.708820
O O7 0.977106 0.323136 0.678682
O O8 0.209616 0.849657 0.065980
O O9 0.242009 0.494172 0.036220
O O10 0.450516 0.634332 0.103770
O O11 0.302591 0.854688 0.509287
O O12 0.000000 0.000000 0.500000
O O13 0.500000 0.500000 0.000000
O O14 0.292163 0.386898 0.933588
O O15 0.304589 0.308150 0.833628
O O16 0.127186 0.996800 0.778307
#
# Coordination Sequence:
#
# PCOD9230068 Si02
#       8
#     4   4   4   4   4   4   2   4
#     4  10  20  35  60  87 125 168 217 250 309 384
#     4  10  22  40  64  95 121 159 208 279 333 380
#     4  11  24  38  59  94 142 167 214 263 315 378
#     4  12  23  34  60  92 130 182 228 262 304 375
#     4  10  22  38  55  87 136 189 213 247 310 385
#     4  10  21  38  60  90 132 180 209 252 311 392
#     4  10  22  42  74  90 114 156 218 280 340 402
#     4  10  20  40  67  92 117 161 216 264 324 390
#
# _framework density 20.083750999999999
#
# number of rings (size 3 to 8) (size 9 to 14) (size 15 to 20)
#    0.000    1.600    2.667    2.000    1.867    6.400 
#    0.000    0.000    0.000   19.200    0.000    0.000 
#    0.000    0.000    0.000    0.000    0.000    0.000 
#
# Total GULP energy -167066.737804 kJ/mol
# GULP energy per Si atom -5568.891260 kJ/mol
# Density = 2.003804 g / cm^3
# Si number density = 20.083751 Si / 1000 Ang^3
#
#
#
# Elastic Constant Matrix: (Units=GPa)
#
#
# Indices 1 2 3 4 5 6 
#
# 1 77.1074 39.4093 30.0184 0.0000 4.4447 0.0000
# 2 39.4093 124.3405 53.4217 0.0000 0.5560 0.0000
# 3 30.0184 53.4217 87.6851 0.0000 11.6749 0.0000
# 4 0.0000 0.0000 0.0000 38.9584 0.0000 14.2854
# 5 4.4447 0.5560 11.6749 0.0000 17.5185 0.0000
# 6 0.0000 0.0000 0.0000 14.2854 0.0000 16.7435
#
#
#
# Elastic Compliance Matrix: (Units=1/GPa)
#
#
# Indices 1 2 3 4 5 6 
#
# 1 0.016201 -0.003874 -0.002914 0.000000 -0.002046 0.000000
# 2 -0.003874 0.012150 -0.006755 0.000000 0.005099 0.000000
# 3 -0.002914 -0.006755 0.017986 0.000000 -0.011033 0.000000
# 4 0.000000 0.000000 0.000000 0.037355 0.000000 -0.031871
# 5 -0.002046 0.005099 -0.011033 0.000000 0.064792 0.000000
# 6 0.000000 0.000000 0.000000 -0.031871 0.000000 0.086917
#
#
# Mechanical properties :
#
#
# Convention : Reuss Voigt Hill
#
# Bulk Modulus (GPa) = 51.94257 59.42577 55.68417
# Shear Modulus (GPa) = 18.59401 25.72964 22.16182
#
# Velocity S-wave (km/s) = 3.04604 3.58315 3.32546
# Velocity P-wave (km/s) = 6.18791 6.83900 6.52158
#
# Compressibility (1/GPa) = 0.01925203
#
# Stress axis : x y z
#
# Youngs Moduli (GPa) = 61.72408 82.30750 55.59785
#
# Poissons Ratio (x) = 0.31885 0.16201
# Poissons Ratio (y) = 0.23911 0.37555
# Poissons Ratio (z) = 0.17986 0.55597
#
# Static dielectric constant tensor:
#      x y z
#    x 1.736290 0.000000 0.015830 
#    y 0.000000 1.824410 0.000000 
#    z 0.015830 0.000000 1.710030 
# 
# From -- ./inp_files/95489.got.cif
#   From: 2010.05.17/outbox.cif.g08.bks.cpg/sg13_48_cif.got.tgz:95489.got - 2010.06.03 16:44:36.
