data_PCOD9230731
_publ_section_title
;
Structure prediction by ZEFSAII (Michael W. Deem and Ramdas Pophale) SiO2 
 PCOD9230731
Probable space group: P 2/C
;
_chemical_formula_sum "Si O2"
_cell_formula_units_Z 22
_cell_length_a 16.109767
_cell_length_b 8.944136
_cell_length_c 17.883943
_cell_angle_alpha 90.000000
_cell_angle_beta 23.142977
_cell_angle_gamma 90.000000
_cell_volume 1012.775688
_symmetry_space_group_name_H-M "P 2/C"
_symmetry_group_IT_number 13
_symmetry_cell_setting 'monoclinic'
loop_
_space_group_symop_operation_xyz
x,y,z
-x,y,1/2-z
-x,-y,-z
x,-y,1/2+z
loop_
_atom_site_type_symbol
_atom_site_label
_atom_site_fract_x
_atom_site_fract_y
_atom_site_fract_z
Si Si1 0.801849 0.903036 0.767864
Si Si2 0.023380 0.640662 0.536386
Si Si3 0.000000 0.001781 0.250000
Si Si4 0.347826 0.791358 0.179603
Si Si5 0.141501 0.405091 0.730110
Si Si6 0.728008 0.262746 0.024048
O O1 0.967487 0.914887 0.698722
O O2 0.866541 0.778640 0.653942
O O3 0.773421 0.061488 0.750620
O O4 0.585583 0.846565 0.984247
O O5 0.249494 0.717483 0.335388
O O6 0.000000 0.500000 0.500000
O O7 0.945283 0.567829 0.678174
O O8 0.796040 0.893108 0.429145
O O9 0.306870 0.662551 0.151857
O O10 0.247455 0.385204 0.561943
O O11 0.928274 0.303063 0.910383
O O12 0.500000 0.261005 0.250000
#
# Coordination Sequence:
#
# PCOD9230731 Si02
#       6
#     4   4   2   4   4   4
#     4  11  22  40  64  89 127 159 207 259 305 369
#     4  10  23  39  61  92 129 164 204 252 311 365
#     4  10  22  42  58  94 124 156 202 266 306 366
#     4  10  21  40  64  93 119 165 205 254 310 357
#     4   9  20  40  57  92 125 159 211 254 303 368
#     4  10  20  37  63  87 123 168 207 253 316 370
#
# _framework density 21.722480999999998
#
# number of rings (size 3 to 8) (size 9 to 14) (size 15 to 20)
#    0.000    2.182    3.636    0.545    0.000   10.182 
#    0.000    0.000    0.000    1.091    0.000    0.000 
#    0.000    0.000    0.000    0.000    0.000    0.000 
#
# Total GULP energy -122582.176046 kJ/mol
# GULP energy per Si atom -5571.917093 kJ/mol
# Density = 2.167304 g / cm^3
# Si number density = 21.722481 Si / 1000 Ang^3
#
#
#
# Elastic Constant Matrix: (Units=GPa)
#
#
# Indices 1 2 3 4 5 6 
#
# 1 41.4971 8.9473 14.6779 0.0000 9.5854 0.0000
# 2 8.9473 95.7478 50.8058 0.0000 14.6812 0.0000
# 3 14.6779 50.8058 153.4901 0.0000 14.0703 0.0000
# 4 0.0000 0.0000 0.0000 40.4470 0.0000 12.1806
# 5 9.5854 14.6812 14.0703 0.0000 19.6149 0.0000
# 6 0.0000 0.0000 0.0000 12.1806 0.0000 15.4194
#
#
#
# Elastic Compliance Matrix: (Units=1/GPa)
#
#
# Indices 1 2 3 4 5 6 
#
# 1 0.027483 0.000157 -0.001539 0.000000 -0.012443 0.000000
# 2 0.000157 0.013616 -0.003833 0.000000 -0.007518 0.000000
# 3 -0.001539 -0.003833 0.008134 0.000000 -0.002214 0.000000
# 4 0.000000 0.000000 0.000000 0.032441 0.000000 -0.025627
# 5 -0.012443 -0.007518 -0.002214 0.000000 0.064278 0.000000
# 6 0.000000 0.000000 0.000000 -0.025627 0.000000 0.085097
#
#
# Mechanical properties :
#
#
# Convention : Reuss Voigt Hill
#
# Bulk Modulus (GPa) = 25.77190 48.84413 37.30801
# Shear Modulus (GPa) = 19.65299 29.51651 24.58475
#
# Velocity S-wave (km/s) = 3.01114 3.69019 3.36782
# Velocity P-wave (km/s) = 4.89685 6.37895 5.68640
#
# Compressibility (1/GPa) = 0.03880195
#
# Stress axis : x y z
#
# Youngs Moduli (GPa) = 36.38609 73.44296 122.94293
#
# Poissons Ratio (x) = -0.01150 0.18925
# Poissons Ratio (y) = -0.00570 0.47121
# Poissons Ratio (z) = 0.05601 0.28149
#
# Static dielectric constant tensor:
#      x y z
#    x 1.828160 0.000000 0.045700 
#    y 0.000000 1.835550 0.000000 
#    z 0.045700 0.000000 1.822760 
# 
# From -- ./inp_files/81586.got.cif
#   From: 2010.05.17/outbox.cif.g08.bks.cpg/sg13_41_cif.got.tgz:81586.got - 2010.06.03 16:44:36.
