data_PCOD9230914
_publ_section_title
;
Structure prediction by ZEFSAII (Michael W. Deem and Ramdas Pophale) SiO2 
 PCOD9230914
Probable space group: P 2/C
;
_chemical_formula_sum "Si O2"
_cell_formula_units_Z 32
_cell_length_a 22.530412
_cell_length_b 8.170594
_cell_length_c 14.469342
_cell_angle_alpha 90.000000
_cell_angle_beta 33.245954
_cell_angle_gamma 90.000000
_cell_volume 1460.285083
_symmetry_space_group_name_H-M "P 2/C"
_symmetry_group_IT_number 13
_symmetry_cell_setting 'monoclinic'
loop_
_space_group_symop_operation_xyz
x,y,z
-x,y,1/2-z
-x,-y,-z
x,-y,1/2+z
loop_
_atom_site_type_symbol
_atom_site_label
_atom_site_fract_x
_atom_site_fract_y
_atom_site_fract_z
Si Si1 0.840320 0.319412 0.720179
Si Si2 0.159680 0.319412 0.279821
Si Si3 0.265827 0.182197 0.972740
Si Si4 0.080974 0.809184 0.069002
Si Si5 0.599472 0.500000 0.738957
Si Si6 0.265827 0.182197 0.472740
Si Si7 0.919026 0.190816 0.430998
Si Si8 0.354823 0.500000 0.601324
O O1 0.871380 0.500000 0.715142
O O2 0.820500 0.200372 0.831107
O O3 0.913666 0.268872 0.538608
O O4 0.720726 0.348762 0.830805
O O5 0.086334 0.268872 0.461392
O O6 0.179501 0.200372 0.168893
O O7 0.279274 0.348762 0.169195
O O8 0.346619 0.335682 0.871906
O O9 0.197303 0.197599 0.967770
O O10 0.314748 1.000000 0.912933
O O11 0.197303 0.802401 0.967770
O O12 0.000000 0.733756 0.250000
O O13 0.052785 0.000000 0.093704
O O14 0.653381 0.664318 0.628094
O O15 0.470111 0.500000 0.901379
O O16 0.626333 0.500000 0.813788
O O17 0.000000 0.266244 0.250000
#
# Coordination Sequence:
#
# PCOD9230914 Si02
#       8
#     4   4   4   4   4   4   4   4
#     4  10  20  38  60  87 117 155 194 240 292 347
#     4  10  20  38  60  87 117 155 194 240 292 347
#     4  11  22  38  63  88 119 158 195 242 292 348
#     4  10  22  40  59  84 120 156 197 247 293 344
#     4  11  19  43  63  87 121 152 203 238 292 354
#     4  11  22  38  63  88 119 158 195 242 292 348
#     4  10  22  40  59  84 120 156 197 247 293 344
#     4   9  21  37  67  83 119 162 181 254 296 334
#
# _framework density 21.913532
#
# number of rings (size 3 to 8) (size 9 to 14) (size 15 to 20)
#    0.750    1.000    3.750    0.750    0.000    3.500 
#    0.000   11.250    0.000    0.000    0.000    0.000 
#    0.000    0.000    0.000    0.000    0.000    0.000 
#
# Total GULP energy -178691.304214 kJ/mol
# GULP energy per Si atom -5584.103257 kJ/mol
# Density = 2.186366 g / cm^3
# Si number density = 21.913532 Si / 1000 Ang^3
#
#
#
# Elastic Constant Matrix: (Units=GPa)
#
#
# Indices 1 2 3 4 5 6 
#
# 1 74.0889 17.5898 20.3893 0.0000 13.0757 0.0000
# 2 17.5898 128.6533 54.3648 0.0000 0.3953 0.0000
# 3 20.3893 54.3648 128.6674 0.0000 14.9381 0.0000
# 4 0.0000 0.0000 0.0000 14.0797 0.0000 3.4468
# 5 13.0757 0.3953 14.9381 0.0000 38.8317 0.0000
# 6 0.0000 0.0000 0.0000 3.4468 0.0000 17.0058
#
#
#
# Elastic Compliance Matrix: (Units=1/GPa)
#
#
# Indices 1 2 3 4 5 6 
#
# 1 0.014998 -0.001530 -0.001199 0.000000 -0.004573 0.000000
# 2 -0.001530 0.009704 -0.004088 0.000000 0.001989 0.000000
# 3 -0.001199 -0.004088 0.010088 0.000000 -0.003435 0.000000
# 4 0.000000 0.000000 0.000000 0.074732 0.000000 -0.015147
# 5 -0.004573 0.001989 -0.003435 0.000000 0.028593 0.000000
# 6 0.000000 0.000000 0.000000 -0.015147 0.000000 0.061874
#
#
# Mechanical properties :
#
#
# Convention : Reuss Voigt Hill
#
# Bulk Modulus (GPa) = 47.27121 57.34415 52.30768
# Shear Modulus (GPa) = 22.65774 29.92116 26.28945
#
# Velocity S-wave (km/s) = 3.21901 3.69917 3.46741
# Velocity P-wave (km/s) = 5.95270 6.66861 6.32080
#
# Compressibility (1/GPa) = 0.02115452
#
# Stress axis : x y z
#
# Youngs Moduli (GPa) = 66.67724 103.05541 99.12428
#
# Poissons Ratio (x) = 0.15764 0.11888
# Poissons Ratio (y) = 0.10199 0.40527
# Poissons Ratio (z) = 0.07997 0.42134
#
# Static dielectric constant tensor:
#      x y z
#    x 1.821710 0.000000 -0.014990 
#    y 0.000000 1.771840 0.000000 
#    z -0.014990 0.000000 1.833520 
# 
# From -- ./inp_files/59501.got.cif
#   From: 2010.05.17/outbox.cif.g08.bks.cpg/sg13_30_cif.got.tgz:59501.got - 2010.06.03 16:44:36.
