data_PCOD9230524
_publ_section_title
;
Structure prediction by ZEFSAII (Michael W. Deem and Ramdas Pophale) SiO2 
 PCOD9230524
Probable space group: P 2/C
;
_chemical_formula_sum "Si O2"
_cell_formula_units_Z 16
_cell_length_a 7.900319
_cell_length_b 21.035849
_cell_length_c 5.092636
_cell_angle_alpha 90.000000
_cell_angle_beta 81.709459
_cell_angle_gamma 90.000000
_cell_volume 837.500122
_symmetry_space_group_name_H-M "P 2/C"
_symmetry_group_IT_number 13
_symmetry_cell_setting 'monoclinic'
loop_
_space_group_symop_operation_xyz
x,y,z
-x,y,1/2-z
-x,-y,-z
x,-y,1/2+z
loop_
_atom_site_type_symbol
_atom_site_label
_atom_site_fract_x
_atom_site_fract_y
_atom_site_fract_z
Si Si1 0.500000 0.722315 0.750000
Si Si2 0.804736 0.456841 0.831070
Si Si3 0.609826 0.841670 0.489184
Si Si4 0.204275 0.035887 0.696987
Si Si5 0.500000 0.362429 0.750000
O O1 0.643497 0.771981 0.607369
O O2 0.449426 0.679971 0.513388
O O3 0.785069 0.514322 0.625982
O O4 0.000000 0.432949 0.750000
O O5 0.659740 0.594232 0.301270
O O6 0.500000 0.831412 0.250000
O O7 0.752829 0.891846 0.383097
O O8 0.500000 0.872267 0.750000
O O9 0.000000 0.030000 0.750000
O O10 0.271584 0.987745 0.460672
#
# Coordination Sequence:
#
# PCOD9230524 Si02
#       5
#     2   4   4   4   2
#     4  10  22  37  54  81 108 152 194 236 260 346
#     4  10  21  37  59  90 120 146 185 235 288 342
#     4  10  20  37  56  76 111 143 185 234 284 322
#     4  10  21  35  55  82 110 139 181 235 293 351
#     4  12  20  37  64  79 120 152 196 232 282 328
#
# _framework density 19.104474
#
# number of rings (size 3 to 8) (size 9 to 14) (size 15 to 20)
#    0.750    1.000    1.250    3.750    0.000    3.000 
#    0.000    1.250    5.500    0.000    0.000    0.000 
#    0.000    0.000    0.000    0.000    0.000    0.000 
#
# Total GULP energy -89127.685076 kJ/mol
# GULP energy per Si atom -5570.480317 kJ/mol
# Density = 1.906099 g / cm^3
# Si number density = 19.104474 Si / 1000 Ang^3
#
#
#
# Elastic Constant Matrix: (Units=GPa)
#
#
# Indices 1 2 3 4 5 6 
#
# 1 62.5468 43.9970 31.3133 0.0000 8.5802 0.0000
# 2 43.9970 84.4954 23.5911 0.0000 -5.3548 0.0000
# 3 31.3133 23.5911 100.7756 0.0000 17.8436 0.0000
# 4 0.0000 0.0000 0.0000 17.7009 0.0000 15.0913
# 5 8.5802 -5.3548 17.8436 0.0000 17.3442 0.0000
# 6 0.0000 0.0000 0.0000 15.0913 0.0000 -18.8945
#
#
#
# Elastic Compliance Matrix: (Units=1/GPa)
#
#
# Indices 1 2 3 4 5 6 
#
# 1 0.031724 -0.016921 -0.002681 0.000000 -0.018160 0.000000
# 2 -0.016921 0.022806 -0.003436 0.000000 0.018947 0.000000
# 3 -0.002681 -0.003436 0.014078 0.000000 -0.014218 0.000000
# 4 0.000000 0.000000 0.000000 0.033608 0.000000 0.026843
# 5 -0.018160 0.018947 -0.014218 0.000000 0.087117 0.000000
# 6 0.000000 0.000000 0.000000 0.026843 0.000000 -0.031485
#
#
# Mechanical properties :
#
#
# Convention : Reuss Voigt Hill
#
# Bulk Modulus (GPa) = 44.38054 49.51340 46.94697
# Shear Modulus (GPa) = 23.64808 13.15787 18.40298
#
# Velocity S-wave (km/s) = 3.52210 2.62722 3.10704
# Velocity P-wave (km/s) = 6.31040 5.93098 6.12363
#
# Compressibility (1/GPa) = 0.02253240
#
# Stress axis : x y z
#
# Youngs Moduli (GPa) = 31.52167 43.84838 71.03456
#
# Poissons Ratio (x) = 0.74197 0.19042
# Poissons Ratio (y) = 0.53339 0.24405
# Poissons Ratio (z) = 0.08450 0.15065
#
# Static dielectric constant tensor:
#      x y z
#    x 1.649020 0.000000 -0.005180 
#    y 0.000000 1.671880 0.000000 
#    z -0.005180 0.000000 1.687430 
# 
# From -- ./inp_files/1259.got.cif
#   From: 2010.05.17/outbox.cif.g08.bks.cpg/sg13_1_cif.got.tgz:1259.got - 2010.06.03 16:44:36.
