data_PCOD9230253
_publ_section_title
;
Structure prediction by ZEFSAII (Michael W. Deem and Ramdas Pophale) SiO2 
 PCOD9230253
Probable space group: P 2/C
;
_chemical_formula_sum "Si O2"
_cell_formula_units_Z 20
_cell_length_a 6.284406
_cell_length_b 13.217696
_cell_length_c 12.861405
_cell_angle_alpha 90.000000
_cell_angle_beta 109.106536
_cell_angle_gamma 90.000000
_cell_volume 1009.484322
_symmetry_space_group_name_H-M "P 2/C"
_symmetry_group_IT_number 13
_symmetry_cell_setting 'monoclinic'
loop_
_space_group_symop_operation_xyz
x,y,z
-x,y,1/2-z
-x,-y,-z
x,-y,1/2+z
loop_
_atom_site_type_symbol
_atom_site_label
_atom_site_fract_x
_atom_site_fract_y
_atom_site_fract_z
Si Si1 0.746836 0.744148 0.400046
Si Si2 0.405949 0.893304 0.449214
Si Si3 0.000000 0.835460 0.250000
Si Si4 0.601005 0.570977 0.105549
Si Si5 0.500000 0.580880 0.750000
Si Si6 0.220879 0.291331 0.038312
O O1 0.593854 0.837868 0.409974
O O2 0.848676 0.768479 0.303586
O O3 0.591338 0.645955 0.382499
O O4 0.957990 0.730240 0.511553
O O5 0.347474 0.813333 0.531609
O O6 0.173844 0.899388 0.347082
O O7 0.500000 0.000000 0.500000
O O8 0.659044 0.493294 0.206518
O O9 0.500000 0.500000 0.000000
O O10 0.768927 0.641750 0.066983
O O11 0.651451 0.648605 0.850965
#
# Coordination Sequence:
#
# PCOD9230253 Si02
#       6
#     4   4   2   4   2   4
#     4  10  21  39  64  88 128 156 212 258 298 375
#     4  10  22  43  63  92 124 159 204 260 308 383
#     4  10  22  38  68  94 120 166 200 254 326 352
#     4   9  20  36  58  84 124 164 209 249 300 364
#     4  10  20  36  58  86 126 170 202 254 310 366
#     4   9  21  40  56  90 126 163 204 258 308 364
#
# _framework density 19.812097000000001
#
# number of rings (size 3 to 8) (size 9 to 14) (size 15 to 20)
#    0.000    2.400    0.000    0.600    8.400    6.400 
#    7.200   14.000    0.000    0.000    0.000    0.000 
#    0.000    0.000    0.000    0.000    0.000    0.000 
#
# Total GULP energy -111574.993855 kJ/mol
# GULP energy per Si atom -5578.749693 kJ/mol
# Density = 1.976700 g / cm^3
# Si number density = 19.812097 Si / 1000 Ang^3
#
#
#
# Elastic Constant Matrix: (Units=GPa)
#
#
# Indices 1 2 3 4 5 6 
#
# 1 98.4856 48.1738 45.0420 0.0000 8.2393 0.0000
# 2 48.1738 149.5194 69.5639 0.0000 6.4938 0.0000
# 3 45.0420 69.5639 119.9014 0.0000 8.7266 0.0000
# 4 0.0000 0.0000 0.0000 28.0709 0.0000 8.0354
# 5 8.2393 6.4938 8.7266 0.0000 20.5755 0.0000
# 6 0.0000 0.0000 0.0000 8.0354 0.0000 2.4752
#
#
#
# Elastic Compliance Matrix: (Units=1/GPa)
#
#
# Indices 1 2 3 4 5 6 
#
# 1 0.013155 -0.002616 -0.003200 0.000000 -0.003085 0.000000
# 2 -0.002616 0.009690 -0.004636 0.000000 -0.000045 0.000000
# 3 -0.003200 -0.004636 0.012415 0.000000 -0.002521 0.000000
# 4 0.000000 0.000000 0.000000 0.503782 0.000000 -1.635457
# 5 -0.003085 -0.000045 -0.002521 0.000000 0.050920 0.000000
# 6 0.000000 0.000000 0.000000 -1.635457 0.000000 5.713282
#
#
# Mechanical properties :
#
#
# Convention : Reuss Voigt Hill
#
# Bulk Modulus (GPa) = 69.65096 77.05175 73.35136
# Shear Modulus (GPa) = 0.79002 23.89943 12.34473
#
# Velocity S-wave (km/s) = 0.63216 3.47696 2.49889
# Velocity P-wave (km/s) = 5.98038 7.42258 6.74016
#
# Compressibility (1/GPa) = 0.01435730
#
# Stress axis : x y z
#
# Youngs Moduli (GPa) = 76.01879 103.20339 80.54644
#
# Poissons Ratio (x) = 0.26995 0.25771
# Poissons Ratio (y) = 0.19885 0.37340
# Poissons Ratio (z) = 0.24322 0.47843
#
# Static dielectric constant tensor:
#      x y z
#    x 1.724340 0.000000 0.000980 
#    y 0.000000 1.684070 0.000000 
#    z 0.000980 0.000000 1.745810 
# 
# From -- ./inp_files/43771.got.cif
#   From: 2010.05.17/outbox.cif.g08.bks.cpg/sg13_22_cif.got.tgz:43771.got - 2010.06.03 16:44:36.
