data_PCOD9230488
_publ_section_title
;
Structure prediction by ZEFSAII (Michael W. Deem and Ramdas Pophale) SiO2 
 PCOD9230488
Probable space group: P 2/C
;
_chemical_formula_sum "Si O2"
_cell_formula_units_Z 26
_cell_length_a 30.327413
_cell_length_b 9.213875
_cell_length_c 13.072862
_cell_angle_alpha 90.000000
_cell_angle_beta 159.841832
_cell_angle_gamma 90.000000
_cell_volume 1258.867143
_symmetry_space_group_name_H-M "P 2/C"
_symmetry_group_IT_number 13
_symmetry_cell_setting 'monoclinic'
loop_
_space_group_symop_operation_xyz
x,y,z
-x,y,1/2-z
-x,-y,-z
x,-y,1/2+z
loop_
_atom_site_type_symbol
_atom_site_label
_atom_site_fract_x
_atom_site_fract_y
_atom_site_fract_z
Si Si1 0.500000 0.675315 0.250000
Si Si2 0.715301 0.125218 0.148770
Si Si3 0.671226 0.286561 0.841177
Si Si4 0.909823 0.472179 0.400109
Si Si5 0.000000 0.284616 0.250000
Si Si6 0.000000 0.772133 0.250000
Si Si7 0.439267 0.388132 0.222731
Si Si8 0.253402 0.808047 0.222094
O O1 0.625771 0.775964 0.528011
O O2 0.462895 0.559373 0.258246
O O3 0.683503 0.179704 0.964283
O O4 0.867985 0.148561 0.492288
O O5 0.686187 0.957763 0.107217
O O6 0.762326 0.428573 0.055642
O O7 0.524565 0.329553 0.499518
O O8 0.721226 0.219137 0.842651
O O9 0.934059 0.608909 0.524746
O O10 0.000000 0.500000 0.500000
O O11 0.962310 0.331804 0.574061
O O12 0.102502 0.189409 0.413427
O O13 0.500000 0.323932 0.250000
O O14 0.301087 0.324361 0.899387
#
# Coordination Sequence:
#
# PCOD9230488 Si02
#       8
#     2   4   4   4   2   2   4   4
#     4  10  24  40  66  96 130 170 222 268 330 376
#     4  11  25  44  66  96 134 180 216 269 338 395
#     4  10  22  42  67  93 132 172 223 266 326 398
#     4  10  20  36  66  97 126 168 220 271 326 384
#     4  11  23  40  70  98 136 168 224 270 334 384
#     4   9  23  40  62  94 134 164 216 276 322 386
#     4   8  21  40  63  91 133 162 215 271 321 369
#     4  11  23  45  65  95 140 173 212 277 331 391
#
# _framework density 20.653487999999999
#
# number of rings (size 3 to 8) (size 9 to 14) (size 15 to 20)
#    0.462    1.538    1.538    0.462   11.846    1.231 
#    2.769    2.308    0.000    0.000    0.000    0.000 
#    0.000    0.000    0.000    0.000    0.000    0.000 
#
# Total GULP energy -144776.464715 kJ/mol
# GULP energy per Si atom -5568.325566 kJ/mol
# Density = 2.060648 g / cm^3
# Si number density = 20.653488 Si / 1000 Ang^3
#
#
#
# Elastic Constant Matrix: (Units=GPa)
#
#
# Indices 1 2 3 4 5 6 
#
# 1 60.9525 43.8070 18.8343 0.0000 4.7886 0.0000
# 2 43.8070 100.4828 20.7068 0.0000 -1.7298 0.0000
# 3 18.8343 20.7068 74.5619 0.0000 3.3865 0.0000
# 4 0.0000 0.0000 0.0000 99.0719 0.0000 -22.2832
# 5 4.7886 -1.7298 3.3865 0.0000 34.1680 0.0000
# 6 0.0000 0.0000 0.0000 -22.2832 0.0000 16.8614
#
#
#
# Elastic Compliance Matrix: (Units=1/GPa)
#
#
# Indices 1 2 3 4 5 6 
#
# 1 0.025161 -0.010351 -0.003312 0.000000 -0.003722 0.000000
# 2 -0.010351 0.014838 -0.001613 0.000000 0.002362 0.000000
# 3 -0.003312 -0.001613 0.014745 0.000000 -0.001079 0.000000
# 4 0.000000 0.000000 0.000000 0.014363 0.000000 0.018981
# 5 -0.003722 0.002362 -0.001079 0.000000 0.030015 0.000000
# 6 0.000000 0.000000 0.000000 0.018981 0.000000 0.084392
#
#
# Mechanical properties :
#
#
# Convention : Reuss Voigt Hill
#
# Bulk Modulus (GPa) = 41.33639 44.74373 43.04006
# Shear Modulus (GPa) = 22.50919 40.19686 31.35303
#
# Velocity S-wave (km/s) = 3.30487 4.41642 3.90044
# Velocity P-wave (km/s) = 5.88392 6.90778 6.41630
#
# Compressibility (1/GPa) = 0.02419176
#
# Stress axis : x y z
#
# Youngs Moduli (GPa) = 39.74330 67.39562 67.81812
#
# Poissons Ratio (x) = 0.69762 0.22462
# Poissons Ratio (y) = 0.41139 0.10941
# Poissons Ratio (z) = 0.13163 0.10872
#
# Static dielectric constant tensor:
#      x y z
#    x 1.759890 0.000000 0.051890 
#    y 0.000000 1.728560 0.000000 
#    z 0.051890 0.000000 1.826460 
# 
# From -- ./inp_files/42297.got.cif
#   From: 2010.05.17/outbox.cif.g08.bks.cpg/sg13_22_cif.got.tgz:42297.got - 2010.06.03 16:44:36.
