data_PCOD9230710
_publ_section_title
;
Structure prediction by ZEFSAII (Michael W. Deem and Ramdas Pophale) SiO2 
 PCOD9230710
Probable space group: P 2/C
;
_chemical_formula_sum "Si O2"
_cell_formula_units_Z 28
_cell_length_a 21.421516
_cell_length_b 8.166632
_cell_length_c 23.140150
_cell_angle_alpha 90.000000
_cell_angle_beta 18.631183
_cell_angle_gamma 90.000000
_cell_volume 1293.291275
_symmetry_space_group_name_H-M "P 2/C"
_symmetry_group_IT_number 13
_symmetry_cell_setting 'monoclinic'
loop_
_space_group_symop_operation_xyz
x,y,z
-x,y,1/2-z
-x,-y,-z
x,-y,1/2+z
loop_
_atom_site_type_symbol
_atom_site_label
_atom_site_fract_x
_atom_site_fract_y
_atom_site_fract_z
Si Si1 0.734672 0.470336 0.204207
Si Si2 0.626082 0.360712 0.696386
Si Si3 0.172321 0.937574 0.431297
Si Si4 0.041534 0.546964 0.780345
Si Si5 0.672797 0.830623 0.312041
Si Si6 0.759684 0.255095 0.297777
Si Si7 0.987694 0.258843 0.620430
O O1 0.583391 0.502358 0.283301
O O2 0.735415 0.658453 0.225682
O O3 0.715519 0.366933 0.279849
O O4 0.917047 0.385315 0.010542
O O5 0.500000 0.371355 0.750000
O O6 0.654592 0.175402 0.694636
O O7 0.843347 0.399103 0.485057
O O8 0.236545 0.968142 0.308894
O O9 0.963553 0.842614 0.613092
O O10 0.136050 0.107894 0.494985
O O11 0.207799 0.639406 0.671727
O O12 0.056173 0.356022 0.782969
O O13 0.000000 0.581621 0.750000
O O14 0.441116 0.843163 0.518720
O O15 0.787578 0.813826 0.270764
#
# Coordination Sequence:
#
# PCOD9230710 Si02
#       7
#     4   4   4   4   4   4   4
#     4  10  20  37  62  92 121 150 210 263 298 355
#     4   9  21  39  65  83 116 168 209 251 309 364
#     4  10  23  40  59  90 133 162 198 249 306 384
#     4  10  23  38  62  90 119 154 212 269 302 361
#     4  11  21  35  65  89 124 162 200 250 302 371
#     4  11  22  39  62  96 120 162 210 252 314 357
#     4  11  21  40  61  91 130 165 192 256 325 355
#
# _framework density 21.650189999999998
#
# number of rings (size 3 to 8) (size 9 to 14) (size 15 to 20)
#    0.000    1.714    2.857    2.143    4.000    0.571 
#    0.000    5.714    0.000    0.000    0.000    0.000 
#    0.000    0.000    0.000    0.000    0.000    0.000 
#
# Total GULP energy -155934.884209 kJ/mol
# GULP energy per Si atom -5569.103007 kJ/mol
# Density = 2.160091 g / cm^3
# Si number density = 21.650190 Si / 1000 Ang^3
#
#
#
# Elastic Constant Matrix: (Units=GPa)
#
#
# Indices 1 2 3 4 5 6 
#
# 1 146.7585 28.3081 17.9472 0.0000 -18.6149 0.0000
# 2 28.3081 51.8973 6.6188 0.0000 -7.9847 0.0000
# 3 17.9472 6.6188 85.8529 0.0000 -8.9911 0.0000
# 4 0.0000 0.0000 0.0000 14.6943 0.0000 -1.7305
# 5 -18.6149 -7.9847 -8.9911 0.0000 35.7808 0.0000
# 6 0.0000 0.0000 0.0000 -1.7305 0.0000 19.2277
#
#
#
# Elastic Compliance Matrix: (Units=1/GPa)
#
#
# Indices 1 2 3 4 5 6 
#
# 1 0.008067 -0.003789 -0.001071 0.000000 0.003082 0.000000
# 2 -0.003789 0.021836 -0.000603 0.000000 0.002750 0.000000
# 3 -0.001071 -0.000603 0.012166 0.000000 0.002365 0.000000
# 4 0.000000 0.000000 0.000000 0.068783 0.000000 0.006191
# 5 0.003082 0.002750 0.002365 0.000000 0.030759 0.000000
# 6 0.000000 0.000000 0.000000 0.006191 0.000000 0.052566
#
#
# Mechanical properties :
#
#
# Convention : Reuss Voigt Hill
#
# Bulk Modulus (GPa) = 32.11258 43.36187 37.73723
# Shear Modulus (GPa) = 23.20356 29.38286 26.29321
#
# Velocity S-wave (km/s) = 3.27731 3.68797 3.48869
# Velocity P-wave (km/s) = 5.40238 6.18116 5.80484
#
# Compressibility (1/GPa) = 0.03114044
#
# Stress axis : x y z
#
# Youngs Moduli (GPa) = 123.96545 45.79642 82.19625
#
# Poissons Ratio (x) = 0.17354 0.08807
# Poissons Ratio (y) = 0.46974 0.04959
# Poissons Ratio (z) = 0.13282 0.02763
#
# Static dielectric constant tensor:
#      x y z
#    x 1.875510 0.000000 0.014070 
#    y 0.000000 1.893990 0.000000 
#    z 0.014070 0.000000 1.807360 
# 
# From -- ./inp_files/88450.got.cif
#   From: 2010.05.17/outbox.cif.g08.bks.cpg/sg13_45_cif.got.tgz:88450.got - 2010.06.03 16:44:36.
