data_PCOD9230008
_publ_section_title
;
Structure prediction by ZEFSAII (Michael W. Deem and Ramdas Pophale) SiO2 
 PCOD9230008
Probable space group: P 2/C
;
_chemical_formula_sum "Si O2"
_cell_formula_units_Z 26
_cell_length_a 9.357117
_cell_length_b 27.658598
_cell_length_c 5.141472
_cell_angle_alpha 90.000000
_cell_angle_beta 98.703024
_cell_angle_gamma 90.000000
_cell_volume 1315.316223
_symmetry_space_group_name_H-M "P 2/C"
_symmetry_group_IT_number 13
_symmetry_cell_setting 'monoclinic'
loop_
_space_group_symop_operation_xyz
x,y,z
-x,y,1/2-z
-x,-y,-z
x,-y,1/2+z
loop_
_atom_site_type_symbol
_atom_site_label
_atom_site_fract_x
_atom_site_fract_y
_atom_site_fract_z
Si Si1 0.193527 0.032970 0.506876
Si Si2 0.101876 0.277272 0.025345
Si Si3 0.896894 0.614513 0.973440
Si Si4 0.156716 0.825432 0.653180
Si Si5 0.670787 0.468638 0.287971
Si Si6 0.000000 0.895151 0.250000
Si Si7 0.593454 0.883959 0.515147
O O1 0.067248 0.070433 0.548731
O O2 0.337446 0.065185 0.553443
O O3 0.186839 0.007792 0.226360
O O4 0.165996 0.330936 0.012943
O O5 0.196482 0.229091 0.082176
O O6 0.000000 0.280201 0.250000
O O7 0.000000 0.268468 0.750000
O O8 0.771587 0.575784 0.894857
O O9 0.000000 0.613197 0.750000
O O10 0.000000 0.604742 0.250000
O O11 0.276360 0.848684 0.868258
O O12 0.000000 0.822941 0.750000
O O13 0.124564 0.861438 0.404897
O O14 0.500000 0.456448 0.250000
O O15 0.699356 0.510766 0.507996
O O16 0.500000 0.890664 0.750000
O O17 0.500000 0.864686 0.250000
#
# Coordination Sequence:
#
# PCOD9230008 Si02
#       7
#     4   4   4   4   4   2   4
#     4  12  26  43  65  91 125 159 197 248 300 360
#     4   9  19  35  59  92 120 151 194 249 306 357
#     4  10  20  35  57  87 122 154 199 255 303 354
#     4  11  22  41  70  92 121 158 206 248 300 363
#     4  10  21  36  55  81 118 165 209 249 297 354
#     4  12  22  40  68 102 120 150 206 260 296 350
#     4  12  27  45  64  93 128 161 199 247 304 366
#
# _framework density 19.767108
#
# number of rings (size 3 to 8) (size 9 to 14) (size 15 to 20)
#    0.000    1.231    2.308    4.154    0.000    3.692 
#    0.000    0.769    0.000    2.769    0.000    0.000 
#    0.000    0.000    0.000    0.000    0.000    0.000 
#
# Total GULP energy -145315.114272 kJ/mol
# GULP energy per Si atom -5589.042857 kJ/mol
# Density = 1.972212 g / cm^3
# Si number density = 19.767108 Si / 1000 Ang^3
#
#
#
# Elastic Constant Matrix: (Units=GPa)
#
#
# Indices 1 2 3 4 5 6 
#
# 1 76.7267 56.1423 41.3258 0.0000 13.3328 0.0000
# 2 56.1423 131.0081 34.4096 0.0000 32.3437 0.0000
# 3 41.3258 34.4096 137.3712 0.0000 16.9298 0.0000
# 4 0.0000 0.0000 0.0000 23.6907 0.0000 -2.0756
# 5 13.3328 32.3437 16.9298 0.0000 37.7024 0.0000
# 6 0.0000 0.0000 0.0000 -2.0756 0.0000 -1.8633
#
#
#
# Elastic Compliance Matrix: (Units=1/GPa)
#
#
# Indices 1 2 3 4 5 6 
#
# 1 0.021283 -0.008344 -0.004517 0.000000 0.001660 0.000000
# 2 -0.008344 0.013250 0.000242 0.000000 -0.008525 0.000000
# 3 -0.004517 0.000242 0.008899 0.000000 -0.002606 0.000000
# 4 0.000000 0.000000 0.000000 0.038457 0.000000 -0.042841
# 5 0.001660 -0.008525 -0.002606 0.000000 0.034420 0.000000
# 6 0.000000 0.000000 0.000000 -0.042841 0.000000 -0.488972
#
#
# Mechanical properties :
#
#
# Convention : Reuss Voigt Hill
#
# Bulk Modulus (GPa) = 54.96533 67.65129 61.30831
# Shear Modulus (GPa) = -14.64732 26.12119 5.73693
#
# Velocity S-wave (km/s) = -2.72508 3.63912 1.70545
# Velocity P-wave (km/s) = 4.23857 7.20805 5.91276
#
# Compressibility (1/GPa) = 0.01819329
#
# Stress axis : x y z
#
# Youngs Moduli (GPa) = 46.98487 75.47166 112.37115
#
# Poissons Ratio (x) = 0.62975 0.50761
# Poissons Ratio (y) = 0.39205 -0.02718
# Poissons Ratio (z) = 0.21224 -0.01825
#
# Static dielectric constant tensor:
#      x y z
#    x 1.697530 0.000000 -0.008920 
#    y 0.000000 1.723360 0.000000 
#    z -0.008920 0.000000 1.707300 
# 
# From -- ./inp_files/2586.got.cif
#   From: 2010.05.17/outbox.cif.g08.bks.cpg/sg13_2_cif.got.tgz:2586.got - 2010.06.03 16:44:36.
