data_PCOD9230777
_publ_section_title
;
Structure prediction by ZEFSAII (Michael W. Deem and Ramdas Pophale) SiO2 
 PCOD9230777
Probable space group: P 2/C
;
_chemical_formula_sum "Si O2"
_cell_formula_units_Z 26
_cell_length_a 20.657929
_cell_length_b 9.296024
_cell_length_c 15.435941
_cell_angle_alpha 90.000000
_cell_angle_beta 24.099495
_cell_angle_gamma 90.000000
_cell_volume 1210.376123
_symmetry_space_group_name_H-M "P 2/C"
_symmetry_group_IT_number 13
_symmetry_cell_setting 'monoclinic'
loop_
_space_group_symop_operation_xyz
x,y,z
-x,y,1/2-z
-x,-y,-z
x,-y,1/2+z
loop_
_atom_site_type_symbol
_atom_site_label
_atom_site_fract_x
_atom_site_fract_y
_atom_site_fract_z
Si Si1 0.500000 0.222119 0.250000
Si Si2 0.500000 0.314328 0.750000
Si Si3 0.000000 0.726195 0.250000
Si Si4 0.877701 0.116261 0.052382
Si Si5 0.219307 0.141150 0.719117
Si Si6 0.718604 0.543494 0.567332
Si Si7 0.679339 0.396939 0.803160
Si Si8 0.605861 0.301447 0.446926
O O1 0.369244 0.142242 0.470207
O O2 0.403363 0.326848 0.302730
O O3 0.649748 0.412859 0.594858
O O4 0.546526 0.231090 0.607570
O O5 0.888826 0.832594 0.440216
O O6 0.885414 0.616511 0.338666
O O7 0.776809 0.243601 0.217572
O O8 0.784797 0.975652 0.198138
O O9 0.058957 0.109629 0.861932
O O10 0.206265 0.295857 0.782368
O O11 0.730928 0.478697 0.650781
O O12 0.619959 0.525570 0.937073
O O13 0.533010 0.293087 0.954167
#
# Coordination Sequence:
#
# PCOD9230777 Si02
#       8
#     2   2   2   4   4   4   4   4
#     4  11  20  41  68  94 125 177 210 256 319 391
#     4   9  20  35  60  96 131 155 208 270 309 377
#     4  12  22  42  62  90 124 170 212 266 316 380
#     4  11  26  43  62  90 132 173 211 263 318 380
#     4  11  25  43  64  93 131 172 214 259 317 381
#     4  10  20  37  65  96 122 165 210 263 317 376
#     4  10  20  37  64  95 124 156 216 262 310 374
#     4  10  20  38  62  94 127 162 209 266 314 370
#
# _framework density 21.480927000000001
#
# number of rings (size 3 to 8) (size 9 to 14) (size 15 to 20)
#    0.000    1.538    3.077    3.692    0.000    3.077 
#    0.000    6.923    0.000    0.000    0.000    0.000 
#    0.000    0.000    0.000    0.000    0.000    0.000 
#
# Total GULP energy -144812.206869 kJ/mol
# GULP energy per Si atom -5569.700264 kJ/mol
# Density = 2.143204 g / cm^3
# Si number density = 21.480927 Si / 1000 Ang^3
#
#
#
# Elastic Constant Matrix: (Units=GPa)
#
#
# Indices 1 2 3 4 5 6 
#
# 1 49.2921 5.9810 13.2939 0.0000 22.1778 0.0000
# 2 5.9810 52.0891 24.7606 0.0000 2.5132 0.0000
# 3 13.2939 24.7606 109.6119 0.0000 16.2410 0.0000
# 4 0.0000 0.0000 0.0000 27.2427 0.0000 -1.8447
# 5 22.1778 2.5132 16.2410 0.0000 38.4832 0.0000
# 6 0.0000 0.0000 0.0000 -1.8447 0.0000 2.2791
#
#
#
# Elastic Compliance Matrix: (Units=1/GPa)
#
#
# Indices 1 2 3 4 5 6 
#
# 1 0.027718 -0.002163 -0.000562 0.000000 -0.015595 0.000000
# 2 -0.002163 0.021693 -0.004920 0.000000 0.001906 0.000000
# 3 -0.000562 -0.004920 0.010888 0.000000 -0.003950 0.000000
# 4 0.000000 0.000000 0.000000 0.038836 0.000000 0.031435
# 5 -0.015595 0.001906 -0.003950 0.000000 0.036515 0.000000
# 6 0.000000 0.000000 0.000000 0.031435 0.000000 0.464219
#
#
# Mechanical properties :
#
#
# Convention : Reuss Voigt Hill
#
# Bulk Modulus (GPa) = 22.21841 33.22935 27.72388
# Shear Modulus (GPa) = 7.93445 24.73151 16.33298
#
# Velocity S-wave (km/s) = 1.92399 3.39680 2.76043
# Velocity P-wave (km/s) = 3.91170 5.55762 4.80565
#
# Compressibility (1/GPa) = 0.04500773
#
# Stress axis : x y z
#
# Youngs Moduli (GPa) = 36.07760 46.09735 91.84409
#
# Poissons Ratio (x) = 0.09970 0.05165
# Poissons Ratio (y) = 0.07803 0.45192
# Poissons Ratio (z) = 0.02029 0.22682
#
# Static dielectric constant tensor:
#      x y z
#    x 1.980060 0.000000 0.159210 
#    y 0.000000 1.794450 0.000000 
#    z 0.159210 0.000000 1.946940 
# 
# From -- ./inp_files/71296.got.cif
#   From: 2010.05.17/outbox.cif.g08.bks.cpg/sg13_36_cif.got.tgz:71296.got - 2010.06.03 16:44:36.
