data_PCOD9230401
_publ_section_title
;
Structure prediction by ZEFSAII (Michael W. Deem and Ramdas Pophale) SiO2 
 PCOD9230401
Probable space group: P 2/C
;
_chemical_formula_sum "Si O2"
_cell_formula_units_Z 18
_cell_length_a 7.843645
_cell_length_b 10.276759
_cell_length_c 13.152678
_cell_angle_alpha 90.000000
_cell_angle_beta 53.160359
_cell_angle_gamma 90.000000
_cell_volume 848.496759
_symmetry_space_group_name_H-M "P 2/C"
_symmetry_group_IT_number 13
_symmetry_cell_setting 'monoclinic'
loop_
_space_group_symop_operation_xyz
x,y,z
-x,y,1/2-z
-x,-y,-z
x,-y,1/2+z
loop_
_atom_site_type_symbol
_atom_site_label
_atom_site_fract_x
_atom_site_fract_y
_atom_site_fract_z
Si Si1 0.144585 0.900172 0.386381
Si Si2 0.555891 0.603057 0.394646
Si Si3 0.000000 0.943281 0.750000
Si Si4 0.598707 0.872938 0.013800
Si Si5 0.150038 0.603235 0.390570
O O1 0.063513 0.751097 0.414652
O O2 0.133127 0.963418 0.279065
O O3 0.000000 0.000000 0.500000
O O4 0.648151 0.105673 0.615313
O O5 0.500000 0.500000 0.500000
O O6 0.551716 0.747876 0.442928
O O7 0.358201 0.606677 0.387465
O O8 0.764064 0.571222 0.253343
O O9 0.171671 0.858266 0.625347
O O10 0.500000 0.000000 0.000000
O O11 0.000000 0.500000 0.500000
#
# Coordination Sequence:
#
# PCOD9230401 Si02
#       5
#     4   4   2   4   4
#     4   9  20  37  59  89 118 152 199 244 294 354
#     4  10  23  40  58  87 121 156 200 245 295 355
#     4  10  20  36  62  90 118 156 200 250 304 354
#     4  10  21  38  60  87 121 160 200 248 299 357
#     4  10  22  40  61  86 120 158 197 246 298 355
#
# _framework density 21.213986999999999
#
# number of rings (size 3 to 8) (size 9 to 14) (size 15 to 20)
#    0.000    2.222    0.000    1.333    0.000   14.222 
#    0.000    2.222    0.000    2.667    0.000    0.000 
#    0.000    0.000    0.000    0.000    0.000    0.000 
#
# Total GULP energy -100381.687561 kJ/mol
# GULP energy per Si atom -5576.760420 kJ/mol
# Density = 2.116570 g / cm^3
# Si number density = 21.213987 Si / 1000 Ang^3
#
#
#
# Elastic Constant Matrix: (Units=GPa)
#
#
# Indices 1 2 3 4 5 6 
#
# 1 42.1802 15.6993 25.2830 0.0000 11.6664 0.0000
# 2 15.6993 140.4748 96.1724 0.0000 -1.8722 0.0000
# 3 25.2830 96.1724 195.0035 0.0000 -10.5363 0.0000
# 4 0.0000 0.0000 0.0000 37.0276 0.0000 -0.2192
# 5 11.6664 -1.8722 -10.5363 0.0000 40.3559 0.0000
# 6 0.0000 0.0000 0.0000 -0.2192 0.0000 35.6612
#
#
#
# Elastic Compliance Matrix: (Units=1/GPa)
#
#
# Indices 1 2 3 4 5 6 
#
# 1 0.028915 -0.000667 -0.003929 0.000000 -0.009416 0.000000
# 2 -0.000667 0.010795 -0.005274 0.000000 -0.000683 0.000000
# 3 -0.003929 -0.005274 0.008405 0.000000 0.003086 0.000000
# 4 0.000000 0.000000 0.000000 0.027008 0.000000 0.000166
# 5 -0.009416 -0.000683 0.003086 0.000000 0.028275 0.000000
# 6 0.000000 0.000000 0.000000 0.000166 0.000000 0.028043
#
#
# Mechanical properties :
#
#
# Convention : Reuss Voigt Hill
#
# Bulk Modulus (GPa) = 35.24222 72.44091 53.84156
# Shear Modulus (GPa) = 31.12532 38.64250 34.88391
#
# Velocity S-wave (km/s) = 3.83457 4.27260 4.05950
# Velocity P-wave (km/s) = 6.02113 7.65258 6.88535
#
# Compressibility (1/GPa) = 0.02837506
#
# Stress axis : x y z
#
# Youngs Moduli (GPa) = 34.58386 92.63411 118.97099
#
# Poissons Ratio (x) = 0.06183 0.46738
# Poissons Ratio (y) = 0.02308 0.62750
# Poissons Ratio (z) = 0.13586 0.48859
#
# Static dielectric constant tensor:
#      x y z
#    x 1.739090 0.000000 0.038390 
#    y 0.000000 1.746010 0.000000 
#    z 0.038390 0.000000 1.810480 
# 
# From -- ./inp_files/28043.got.cif
#   From: 2010.05.17/outbox.cif.g08.bks.cpg/sg13_15_cif.got.tgz:28043.got - 2010.06.03 16:44:36.
