data_PCOD9230935
_publ_section_title
;
Structure prediction by ZEFSAII (Michael W. Deem and Ramdas Pophale) SiO2 
 PCOD9230935
Probable space group: P 2/C
;
_chemical_formula_sum "Si O2"
_cell_formula_units_Z 26
_cell_length_a 25.980939
_cell_length_b 9.952532
_cell_length_c 9.179300
_cell_angle_alpha 90.000000
_cell_angle_beta 151.011186
_cell_angle_gamma 90.000000
_cell_volume 1150.313512
_symmetry_space_group_name_H-M "P 2/C"
_symmetry_group_IT_number 13
_symmetry_cell_setting 'monoclinic'
loop_
_space_group_symop_operation_xyz
x,y,z
-x,y,1/2-z
-x,-y,-z
x,-y,1/2+z
loop_
_atom_site_type_symbol
_atom_site_label
_atom_site_fract_x
_atom_site_fract_y
_atom_site_fract_z
Si Si1 0.637255 0.085050 0.344121
Si Si2 0.000000 0.410422 0.750000
Si Si3 0.784196 0.156921 0.170453
Si Si4 0.147163 0.216040 0.564820
Si Si5 0.500000 0.938682 0.250000
Si Si6 0.000000 0.986859 0.250000
Si Si7 0.177507 0.577965 0.903369
Si Si8 0.169394 0.296588 0.945345
O O1 0.728818 0.178438 0.636874
O O2 0.565266 0.031866 0.297884
O O3 0.701331 0.959063 0.432336
O O4 0.571337 0.142930 0.043881
O O5 0.914016 0.475119 0.431346
O O6 0.928954 0.330417 0.691575
O O7 0.768784 0.298020 0.048920
O O8 0.770510 0.187708 0.308453
O O9 0.905042 0.101947 0.445235
O O10 0.129050 0.347245 0.423578
O O11 0.133543 0.238799 0.703169
O O12 0.072710 0.090921 0.336767
O O13 0.231695 0.438217 0.081169
#
# Coordination Sequence:
#
# PCOD9230935 Si02
#       8
#     4   2   4   4   2   2   4   4
#     4  10  21  37  63  93 118 147 188 240 300 354
#     4  10  21  33  46  70 110 153 201 238 270 314
#     4  10  21  38  56  82 119 152 189 237 292 349
#     4  11  22  37  59  86 114 151 199 239 285 351
#     4  10  20  38  60  92 122 146 184 238 304 354
#     4  10  23  35  52  78 116 153 183 232 286 328
#     4  11  22  36  54  78 110 155 200 244 283 331
#     4  11  22  36  54  78 110 155 200 244 283 331
#
# _framework density 22.602533000000001
#
# number of rings (size 3 to 8) (size 9 to 14) (size 15 to 20)
#    0.000    1.538    0.000    6.923    0.000    6.154 
#    0.000    0.000    0.000    0.000    0.000   75.385 
#    0.000    0.000    0.000    0.000    0.000    0.000 
#
# Total GULP energy -144998.844945 kJ/mol
# GULP energy per Si atom -5576.878652 kJ/mol
# Density = 2.255109 g / cm^3
# Si number density = 22.602533 Si / 1000 Ang^3
#
#
#
# Elastic Constant Matrix: (Units=GPa)
#
#
# Indices 1 2 3 4 5 6 
#
# 1 115.4314 10.6952 30.8169 0.0000 -21.4300 0.0000
# 2 10.6952 89.9188 21.3410 0.0000 -9.6719 0.0000
# 3 30.8169 21.3410 79.7882 0.0000 -9.3143 0.0000
# 4 0.0000 0.0000 0.0000 15.4478 0.0000 -7.3751
# 5 -21.4300 -9.6719 -9.3143 0.0000 40.6175 0.0000
# 6 0.0000 0.0000 0.0000 -7.3751 0.0000 27.3798
#
#
#
# Elastic Compliance Matrix: (Units=1/GPa)
#
#
# Indices 1 2 3 4 5 6 
#
# 1 0.010474 0.000099 -0.003518 0.000000 0.004743 0.000000
# 2 0.000099 0.012063 -0.003004 0.000000 0.002236 0.000000
# 3 -0.003518 -0.003004 0.014791 0.000000 0.000820 0.000000
# 4 0.000000 0.000000 0.000000 0.074288 0.000000 0.020010
# 5 0.004743 0.002236 0.000820 0.000000 0.027843 0.000000
# 6 0.000000 0.000000 0.000000 0.020010 0.000000 0.041913
#
#
# Mechanical properties :
#
#
# Convention : Reuss Voigt Hill
#
# Bulk Modulus (GPa) = 40.84558 45.64940 43.24749
# Shear Modulus (GPa) = 24.70630 31.50805 28.10717
#
# Velocity S-wave (km/s) = 3.30976 3.73769 3.53021
# Velocity P-wave (km/s) = 5.71983 6.23438 5.98264
#
# Compressibility (1/GPa) = 0.02448245
#
# Stress axis : x y z
#
# Youngs Moduli (GPa) = 95.47697 82.89983 67.60763
#
# Poissons Ratio (x) = -0.00824 0.23786
# Poissons Ratio (y) = -0.00949 0.20308
# Poissons Ratio (z) = 0.33591 0.24901
#
# Static dielectric constant tensor:
#      x y z
#    x 1.887740 0.000000 0.002140 
#    y 0.000000 1.862840 0.000000 
#    z 0.002140 0.000000 1.891590 
# 
# From -- ./inp_files/24703.got.cif
#   From: 2010.05.17/outbox.cif.g08.bks.cpg/sg13_13_cif.got.tgz:24703.got - 2010.06.03 16:44:36.
