data_PCOD9230093
_publ_section_title
;
Structure prediction by ZEFSAII (Michael W. Deem and Ramdas Pophale) SiO2 
 PCOD9230093
Probable space group: P 2/C
;
_chemical_formula_sum "Si O2"
_cell_formula_units_Z 30
_cell_length_a 26.097647
_cell_length_b 8.995846
_cell_length_c 8.571647
_cell_angle_alpha 90.000000
_cell_angle_beta 132.570165
_cell_angle_gamma 90.000000
_cell_volume 1482.008123
_symmetry_space_group_name_H-M "P 2/C"
_symmetry_group_IT_number 13
_symmetry_cell_setting 'monoclinic'
loop_
_space_group_symop_operation_xyz
x,y,z
-x,y,1/2-z
-x,-y,-z
x,-y,1/2+z
loop_
_atom_site_type_symbol
_atom_site_label
_atom_site_fract_x
_atom_site_fract_y
_atom_site_fract_z
Si Si1 0.079653 0.206842 0.947409
Si Si2 0.898514 0.081900 0.840849
Si Si3 0.484289 0.839094 0.035087
Si Si4 0.872787 0.498633 0.579041
Si Si5 0.201275 0.681237 0.301091
Si Si6 0.000000 0.706214 0.750000
Si Si7 0.637807 0.665314 0.826089
Si Si8 0.564555 0.598934 0.987556
O O1 0.101740 0.111932 0.842431
O O2 0.000000 0.244707 0.750000
O O3 0.118568 0.362311 0.026041
O O4 0.089203 0.091355 0.105393
O O5 0.827050 0.150829 0.758653
O O6 0.957626 0.184438 0.046400
O O7 0.500000 0.830721 0.250000
O O8 0.403760 0.799943 0.838098
O O9 0.529760 0.721208 0.028269
O O10 0.500000 0.000000 0.000000
O O11 0.812112 0.605724 0.393191
O O12 0.850056 0.409978 0.686886
O O13 0.943523 0.598206 0.720105
O O14 0.279773 0.669858 0.518348
O O15 0.616370 0.662964 0.963948
O O16 0.604537 0.521920 0.672223
O O17 0.500000 0.535867 0.750000
#
# Coordination Sequence:
#
# PCOD9230093 Si02
#       8
#     4   4   4   4   4   2   4   4
#     4  11  21  35  56  81 103 143 184 244 290 341
#     4  10  23  36  55  79 112 141 194 231 301 341
#     4  11  22  39  62  94 122 153 198 246 282 335
#     4  10  22  36  58  82 114 142 202 238 299 342
#     4  10  23  39  55  84 116 158 184 241 288 365
#     4  10  20  36  58  82 106 144 184 260 288 344
#     4  11  20  38  61  84 124 155 199 236 300 350
#     4  10  20  35  61  92 116 153 196 246 283 341
#
# _framework density 20.242802999999999
#
# number of rings (size 3 to 8) (size 9 to 14) (size 15 to 20)
#    0.000    1.600    1.333    5.200    1.867    2.667 
#    0.000    6.667    0.000    0.000    0.000    0.000 
#    0.000    0.000    0.000    0.000    0.000    0.000 
#
# Total GULP energy -167542.513756 kJ/mol
# GULP energy per Si atom -5584.750459 kJ/mol
# Density = 2.019673 g / cm^3
# Si number density = 20.242803 Si / 1000 Ang^3
#
#
#
# Elastic Constant Matrix: (Units=GPa)
#
#
# Indices 1 2 3 4 5 6 
#
# 1 66.4432 24.2314 35.6771 0.0000 3.8785 0.0000
# 2 24.2314 85.4821 36.9477 0.0000 10.5541 0.0000
# 3 35.6771 36.9477 86.0361 0.0000 13.9142 0.0000
# 4 0.0000 0.0000 0.0000 18.9548 0.0000 -7.1964
# 5 3.8785 10.5541 13.9142 0.0000 37.9686 0.0000
# 6 0.0000 0.0000 0.0000 -7.1964 0.0000 18.0080
#
#
#
# Elastic Compliance Matrix: (Units=1/GPa)
#
#
# Indices 1 2 3 4 5 6 
#
# 1 0.019867 -0.002634 -0.007332 0.000000 0.001390 0.000000
# 2 -0.002634 0.014836 -0.004949 0.000000 -0.002041 0.000000
# 3 -0.007332 -0.004949 0.017481 0.000000 -0.004282 0.000000
# 4 0.000000 0.000000 0.000000 0.062193 0.000000 0.024854
# 5 0.001390 -0.002041 -0.004282 0.000000 0.028332 0.000000
# 6 0.000000 0.000000 0.000000 0.024854 0.000000 0.065463
#
#
# Mechanical properties :
#
#
# Convention : Reuss Voigt Hill
#
# Bulk Modulus (GPa) = 44.73396 47.96376 46.34886
# Shear Modulus (GPa) = 20.37050 24.39330 22.38190
#
# Velocity S-wave (km/s) = 3.17568 3.47513 3.32877
# Velocity P-wave (km/s) = 5.96601 6.31250 6.14170
#
# Compressibility (1/GPa) = 0.02235438
#
# Stress axis : x y z
#
# Youngs Moduli (GPa) = 50.33505 67.40318 57.20477
#
# Poissons Ratio (x) = 0.17755 0.41942
# Poissons Ratio (y) = 0.13259 0.28310
# Poissons Ratio (z) = 0.36905 0.33357
#
# Static dielectric constant tensor:
#      x y z
#    x 1.756020 0.000000 -0.025280 
#    y 0.000000 1.713510 0.000000 
#    z -0.025280 0.000000 1.714970 
# 
# From -- ./inp_files/24447.got.cif
#   From: 2010.05.17/outbox.cif.g08.bks.cpg/sg13_13_cif.got.tgz:24447.got - 2010.06.03 16:44:36.
