data_PCOD9230395
_publ_section_title
;
Structure prediction by ZEFSAII (Michael W. Deem and Ramdas Pophale) SiO2 
 PCOD9230395
Probable space group: P 2/C
;
_chemical_formula_sum "Si O2"
_cell_formula_units_Z 26
_cell_length_a 24.333118
_cell_length_b 8.209622
_cell_length_c 18.734618
_cell_angle_alpha 90.000000
_cell_angle_beta 159.286108
_cell_angle_gamma 90.000000
_cell_volume 1323.740455
_symmetry_space_group_name_H-M "P 2/C"
_symmetry_group_IT_number 13
_symmetry_cell_setting 'monoclinic'
loop_
_space_group_symop_operation_xyz
x,y,z
-x,y,1/2-z
-x,-y,-z
x,-y,1/2+z
loop_
_atom_site_type_symbol
_atom_site_label
_atom_site_fract_x
_atom_site_fract_y
_atom_site_fract_z
Si Si1 0.138067 0.707521 0.970028
Si Si2 0.652535 0.705805 0.672979
Si Si3 0.157149 0.919353 0.512770
Si Si4 0.027708 0.509098 0.449439
Si Si5 0.162776 0.229326 0.865901
Si Si6 0.545282 0.516354 0.164759
Si Si7 0.500000 0.306142 0.250000
O O1 0.000000 0.662037 0.750000
O O2 0.073171 0.662910 0.969586
O O3 0.286517 0.599426 0.131613
O O4 0.173123 0.897678 0.005437
O O5 0.707790 0.881888 0.766169
O O6 0.571331 0.660150 0.500557
O O7 0.545447 0.623158 0.603590
O O8 0.817081 0.614342 0.872647
O O9 0.172658 0.792576 0.464527
O O10 0.980572 0.892357 0.326360
O O11 0.895937 0.602122 0.242397
O O12 0.000000 0.500000 0.500000
O O13 0.339109 0.204793 0.054008
O O14 0.507206 0.424661 0.190677
#
# Coordination Sequence:
#
# PCOD9230395 Si02
#       7
#     4   4   4   4   4   4   2
#     4  11  22  37  65  90 121 160 209 249 300 379
#     4   9  19  37  58  85 116 161 207 245 303 368
#     4  10  20  40  62  87 118 169 206 239 308 380
#     4  10  21  37  63  89 118 158 209 261 301 355
#     4  10  20  36  62  88 118 161 206 251 302 365
#     4  10  21  34  58  90 118 155 206 257 298 357
#     4  12  20  34  62  92 122 152 208 268 306 342
#
# _framework density 19.641314000000001
#
# number of rings (size 3 to 8) (size 9 to 14) (size 15 to 20)
#    0.000    1.846    3.077    1.846    6.462    0.615 
#    0.000    3.846    6.769    0.000    0.000    0.000 
#    0.000    0.000    0.000    0.000    0.000    0.000 
#
# Total GULP energy -144784.840002 kJ/mol
# GULP energy per Si atom -5568.647692 kJ/mol
# Density = 1.959661 g / cm^3
# Si number density = 19.641314 Si / 1000 Ang^3
#
#
#
# Elastic Constant Matrix: (Units=GPa)
#
#
# Indices 1 2 3 4 5 6 
#
# 1 106.1959 18.3402 4.6938 0.0000 2.4503 0.0000
# 2 18.3402 40.1765 8.5687 0.0000 1.7296 0.0000
# 3 4.6938 8.5687 73.9940 0.0000 15.0166 0.0000
# 4 0.0000 0.0000 0.0000 17.4249 0.0000 0.3054
# 5 2.4503 1.7296 15.0166 0.0000 31.3823 0.0000
# 6 0.0000 0.0000 0.0000 0.3054 0.0000 9.4941
#
#
#
# Elastic Compliance Matrix: (Units=1/GPa)
#
#
# Indices 1 2 3 4 5 6 
#
# 1 0.010232 -0.004647 -0.000001 0.000000 -0.000542 0.000000
# 2 -0.004647 0.027631 -0.002957 0.000000 0.000255 0.000000
# 3 -0.000001 -0.002957 0.015311 0.000000 -0.007163 0.000000
# 4 0.000000 0.000000 0.000000 0.057421 0.000000 -0.001847
# 5 -0.000542 0.000255 -0.007163 0.000000 0.035321 0.000000
# 6 0.000000 0.000000 0.000000 -0.001847 0.000000 0.105388
#
#
# Mechanical properties :
#
#
# Convention : Reuss Voigt Hill
#
# Bulk Modulus (GPa) = 26.34051 31.50799 28.92425
# Shear Modulus (GPa) = 17.91037 24.24453 21.07745
#
# Velocity S-wave (km/s) = 3.02300 3.51716 3.27940
# Velocity P-wave (km/s) = 5.06207 5.70705 5.39421
#
# Compressibility (1/GPa) = 0.03796433
#
# Stress axis : x y z
#
# Youngs Moduli (GPa) = 97.73569 36.19106 65.31344
#
# Poissons Ratio (x) = 0.16818 0.00005
# Poissons Ratio (y) = 0.45419 0.19311
# Poissons Ratio (z) = 0.00008 0.10700
#
# Static dielectric constant tensor:
#      x y z
#    x 1.699260 0.000000 -0.026250 
#    y 0.000000 1.699850 0.000000 
#    z -0.026250 0.000000 1.748460 
# 
# From -- ./inp_files/71260.got.cif
#   From: 2010.05.17/outbox.cif.g08.bks.cpg/sg13_36_cif.got.tgz:71260.got - 2010.06.03 16:44:36.
