data_PCOD9230778
_publ_section_title
;
Structure prediction by ZEFSAII (Michael W. Deem and Ramdas Pophale) SiO2 
 PCOD9230778
Probable space group: P 2/C
;
_chemical_formula_sum "Si O2"
_cell_formula_units_Z 24
_cell_length_a 9.529052
_cell_length_b 6.722906
_cell_length_c 20.058305
_cell_angle_alpha 90.000000
_cell_angle_beta 47.540238
_cell_angle_gamma 90.000000
_cell_volume 948.006104
_symmetry_space_group_name_H-M "P 2/C"
_symmetry_group_IT_number 13
_symmetry_cell_setting 'monoclinic'
loop_
_space_group_symop_operation_xyz
x,y,z
-x,y,1/2-z
-x,-y,-z
x,-y,1/2+z
loop_
_atom_site_type_symbol
_atom_site_label
_atom_site_fract_x
_atom_site_fract_y
_atom_site_fract_z
Si Si1 0.984901 0.345643 0.591169
Si Si2 0.110878 0.768604 0.912827
Si Si3 0.179175 0.878641 0.228897
Si Si4 0.276077 0.826998 0.524634
Si Si5 0.446007 0.937657 0.335630
Si Si6 0.346602 0.714473 0.046054
O O1 0.863623 0.533839 0.607141
O O2 0.893584 0.234778 0.682584
O O3 0.016782 0.210997 0.516338
O O4 0.200433 0.403223 0.545245
O O5 0.303389 0.891438 0.856823
O O6 0.951970 0.813857 0.907606
O O7 0.260124 0.720926 0.148558
O O8 0.000000 0.978762 0.250000
O O9 0.357624 0.011530 0.193256
O O10 0.423877 0.699042 0.522895
O O11 0.351554 0.810229 0.424397
O O12 0.315333 0.056558 0.531823
O O13 0.500000 0.825865 0.250000
#
# Coordination Sequence:
#
# PCOD9230778 Si02
#       6
#     4   4   4   4   4   4
#     4  10  21  41  61  92 127 163 200 251 325 371
#     4  11  23  37  63  92 129 160 200 261 311 376
#     4   9  20  38  66  88 120 168 207 254 308 368
#     4  10  20  37  64  96 119 162 213 256 298 362
#     4  11  22  36  60  95 123 162 212 260 304 363
#     4   9  19  37  67  88 119 162 213 247 300 369
#
# _framework density 25.316293000000002
#
# number of rings (size 3 to 8) (size 9 to 14) (size 15 to 20)
#    0.000    2.000    1.667    1.500    4.667    0.667 
#    0.000    7.500   33.000    0.000    0.000    0.000 
#    0.000    0.000    0.000    0.000    0.000    0.000 
#
# Total GULP energy -134015.287862 kJ/mol
# GULP energy per Si atom -5583.970328 kJ/mol
# Density = 2.525867 g / cm^3
# Si number density = 25.316293 Si / 1000 Ang^3
#
#
#
# Elastic Constant Matrix: (Units=GPa)
#
#
# Indices 1 2 3 4 5 6 
#
# 1 237.6871 48.1266 37.1539 0.0000 -56.8820 0.0000
# 2 48.1266 40.0013 7.3205 0.0000 -10.4661 0.0000
# 3 37.1539 7.3205 94.7032 0.0000 19.2738 0.0000
# 4 0.0000 0.0000 0.0000 12.9202 0.0000 -6.5600
# 5 -56.8820 -10.4661 19.2738 0.0000 68.2625 0.0000
# 6 0.0000 0.0000 0.0000 -6.5600 0.0000 65.1622
#
#
#
# Elastic Compliance Matrix: (Units=1/GPa)
#
#
# Indices 1 2 3 4 5 6 
#
# 1 0.007764 -0.006943 -0.003829 0.000000 0.006486 0.000000
# 2 -0.006943 0.033081 0.000331 0.000000 -0.000807 0.000000
# 3 -0.003829 0.000331 0.013448 0.000000 -0.006937 0.000000
# 4 0.000000 0.000000 0.000000 0.081567 0.000000 0.008212
# 5 0.006486 -0.000807 -0.006937 0.000000 0.021889 0.000000
# 6 0.000000 0.000000 0.000000 0.008212 0.000000 0.016173
#
#
# Mechanical properties :
#
#
# Convention : Reuss Voigt Hill
#
# Bulk Modulus (GPa) = 29.93124 61.95482 45.94303
# Shear Modulus (GPa) = 24.27880 47.92170 36.10025
#
# Velocity S-wave (km/s) = 3.10016 4.35549 3.78030
# Velocity P-wave (km/s) = 4.96621 7.05827 6.10256
#
# Compressibility (1/GPa) = 0.03340991
#
# Stress axis : x y z
#
# Youngs Moduli (GPa) = 128.80257 30.22900 74.36145
#
# Poissons Ratio (x) = 0.20988 0.28475
# Poissons Ratio (y) = 0.89428 -0.02461
# Poissons Ratio (z) = 0.49322 -0.01001
#
# Static dielectric constant tensor:
#      x y z
#    x 2.073660 0.000000 -0.049360 
#    y 0.000000 2.059190 0.000000 
#    z -0.049360 0.000000 2.047790 
# 
# From -- ./inp_files/75604.got.cif
#   From: 2010.05.17/outbox.cif.g08.bks.cpg/sg13_38_cif.got.tgz:75604.got - 2010.06.03 16:44:36.
