data_PCOD9230409
_publ_section_title
;
Structure prediction by ZEFSAII (Michael W. Deem and Ramdas Pophale) SiO2 
 PCOD9230409
Probable space group: P 2/C
;
_chemical_formula_sum "Si O2"
_cell_formula_units_Z 24
_cell_length_a 14.682626
_cell_length_b 12.106504
_cell_length_c 12.947724
_cell_angle_alpha 90.000000
_cell_angle_beta 27.702827
_cell_angle_gamma 90.000000
_cell_volume 1069.946681
_symmetry_space_group_name_H-M "P 2/C"
_symmetry_group_IT_number 13
_symmetry_cell_setting 'monoclinic'
loop_
_space_group_symop_operation_xyz
x,y,z
-x,y,1/2-z
-x,-y,-z
x,-y,1/2+z
loop_
_atom_site_type_symbol
_atom_site_label
_atom_site_fract_x
_atom_site_fract_y
_atom_site_fract_z
Si Si1 0.225906 0.689616 0.556384
Si Si2 0.000000 0.811445 0.250000
Si Si3 0.015278 0.678522 0.430961
Si Si4 0.149424 0.123041 0.275035
Si Si5 0.772225 0.012025 0.096053
Si Si6 0.716643 0.529312 0.809889
Si Si7 0.500000 0.834503 0.250000
O O1 0.256110 0.590910 0.606328
O O2 0.370309 0.720807 0.320623
O O3 0.000000 0.690294 0.750000
O O4 0.280105 0.812476 0.557948
O O5 0.075077 0.734594 0.265790
O O6 0.821685 0.884688 0.472864
O O7 0.974601 0.777423 0.550705
O O8 0.161565 0.583365 0.316507
O O9 0.808016 0.614505 0.635519
O O10 0.259854 0.059607 0.255539
O O11 0.987929 0.045503 0.386610
O O12 0.612806 0.929843 0.211720
O O13 0.500000 0.500000 0.000000
#
# Coordination Sequence:
#
# PCOD9230409 Si02
#       7
#     4   2   4   4   4   4   2
#     4  11  23  40  62  91 127 165 211 267 323 378
#     4  10  20  42  62  90 128 168 204 260 320 382
#     4   9  21  41  67  85 126 164 207 262 329 373
#     4   9  19  40  63  84 124 169 205 249 326 379
#     4  10  20  36  62  92 123 167 208 258 311 380
#     4  10  23  42  65  93 120 165 218 267 319 390
#     4  12  24  36  64  96 126 164 222 268 310 382
#
# _framework density 22.431023
#
# number of rings (size 3 to 8) (size 9 to 14) (size 15 to 20)
#    0.000    2.000    1.667    1.000    3.500    2.000 
#    9.000    0.000    0.000    0.000    0.000    0.000 
#    0.000    0.000    0.000    0.000    0.000    0.000 
#
# Total GULP energy -133682.622971 kJ/mol
# GULP energy per Si atom -5570.109290 kJ/mol
# Density = 2.237997 g / cm^3
# Si number density = 22.431023 Si / 1000 Ang^3
#
#
#
# Elastic Constant Matrix: (Units=GPa)
#
#
# Indices 1 2 3 4 5 6 
#
# 1 113.8187 55.6703 46.4610 0.0000 -8.1010 0.0000
# 2 55.6703 113.2791 30.0223 0.0000 -2.6222 0.0000
# 3 46.4610 30.0223 86.2902 0.0000 -16.0817 0.0000
# 4 0.0000 0.0000 0.0000 16.4669 0.0000 -5.2501
# 5 -8.1010 -2.6222 -16.0817 0.0000 41.2597 0.0000
# 6 0.0000 0.0000 0.0000 -5.2501 0.0000 32.9797
#
#
#
# Elastic Compliance Matrix: (Units=1/GPa)
#
#
# Indices 1 2 3 4 5 6 
#
# 1 0.013584 -0.005224 -0.005457 0.000000 0.000208 0.000000
# 2 -0.005224 0.011756 -0.001433 0.000000 -0.000837 0.000000
# 3 -0.005457 -0.001433 0.015969 0.000000 0.005062 0.000000
# 4 0.000000 0.000000 0.000000 0.063975 0.000000 0.010184
# 5 0.000208 -0.000837 0.005062 0.000000 0.026197 0.000000
# 6 0.000000 0.000000 0.000000 0.010184 0.000000 0.031943
#
#
# Mechanical properties :
#
#
# Convention : Reuss Voigt Hill
#
# Bulk Modulus (GPa) = 58.55262 64.18836 61.37049
# Shear Modulus (GPa) = 25.86031 30.22357 28.04194
#
# Velocity S-wave (km/s) = 3.39909 3.67468 3.53957
# Velocity P-wave (km/s) = 6.44711 6.83245 6.64257
#
# Compressibility (1/GPa) = 0.01707865
#
# Stress axis : x y z
#
# Youngs Moduli (GPa) = 73.61723 85.06495 62.62069
#
# Poissons Ratio (x) = 0.44442 0.34175
# Poissons Ratio (y) = 0.38461 0.08974
# Poissons Ratio (z) = 0.40176 0.12191
#
# Static dielectric constant tensor:
#      x y z
#    x 1.951120 0.000000 0.014210 
#    y 0.000000 1.875710 0.000000 
#    z 0.014210 0.000000 2.073280 
# 
# From -- ./inp_files/53496.got.cif
#   From: 2010.05.17/outbox.cif.g08.bks.cpg/sg13_27_cif.got.tgz:53496.got - 2010.06.03 16:44:36.
