data_PCOD9230765
_publ_section_title
;
Structure prediction by ZEFSAII (Michael W. Deem and Ramdas Pophale) SiO2 
 PCOD9230765
Probable space group: P 2/C
;
_chemical_formula_sum "Si O2"
_cell_formula_units_Z 26
_cell_length_a 9.299871
_cell_length_b 14.151832
_cell_length_c 14.842029
_cell_angle_alpha 90.000000
_cell_angle_beta 44.382933
_cell_angle_gamma 90.000000
_cell_volume 1366.280408
_symmetry_space_group_name_H-M "P 2/C"
_symmetry_group_IT_number 13
_symmetry_cell_setting 'monoclinic'
loop_
_space_group_symop_operation_xyz
x,y,z
-x,y,1/2-z
-x,-y,-z
x,-y,1/2+z
loop_
_atom_site_type_symbol
_atom_site_label
_atom_site_fract_x
_atom_site_fract_y
_atom_site_fract_z
Si Si1 0.598122 0.835887 0.111672
Si Si2 0.500000 0.653634 0.250000
Si Si3 0.957334 0.592995 0.076087
Si Si4 0.310208 0.822751 0.078638
Si Si5 0.000000 0.659519 0.250000
Si Si6 0.000000 0.016652 0.750000
Si Si7 0.950155 0.083614 0.092612
Si Si8 0.704166 0.248640 0.113649
O O1 0.500000 0.876453 0.250000
O O2 0.569117 0.724324 0.139555
O O3 0.479228 0.858236 0.073383
O O4 0.833410 0.862080 0.998512
O O5 0.710611 0.604088 0.182203
O O6 0.018737 0.595445 0.153735
O O7 0.100044 0.680272 0.976688
O O8 0.000000 0.500000 0.000000
O O9 0.161040 0.912027 0.132120
O O10 0.185993 0.734859 0.179416
O O11 0.360413 0.782875 0.958091
O O12 0.902234 0.956683 0.713134
O O13 0.779205 0.154812 0.132073
O O14 0.000000 0.000000 0.000000
O O15 0.500000 0.290951 0.250000
#
# Coordination Sequence:
#
# PCOD9230765 Si02
#       8
#     4   2   4   4   2   2   4   4
#     4  10  20  37  64  88 119 162 222 257 316 374
#     4  10  20  42  68  96 122 170 212 256 318 390
#     4  11  23  43  72  99 127 164 217 264 328 387
#     4  10  20  40  65  86 120 176 219 261 313 384
#     4   9  18  40  67  94 120 166 209 262 315 390
#     4  11  24  36  61  88 130 164 233 260 317 378
#     4  12  24  41  58  91 129 172 219 270 316 375
#     4  11  25  44  62  93 137 171 207 274 332 378
#
# _framework density 19.029769000000002
#
# number of rings (size 3 to 8) (size 9 to 14) (size 15 to 20)
#    0.462    0.923    4.615    0.923    5.385    2.462 
#    0.000    3.077    0.000    0.000    0.000    0.000 
#    0.000    0.000    0.000    0.000    0.000    0.000 
#
# Total GULP energy -144870.154304 kJ/mol
# GULP energy per Si atom -5571.929012 kJ/mol
# Density = 1.898646 g / cm^3
# Si number density = 19.029769 Si / 1000 Ang^3
#
#
#
# Elastic Constant Matrix: (Units=GPa)
#
#
# Indices 1 2 3 4 5 6 
#
# 1 102.9586 31.2225 25.0912 0.0000 0.8051 0.0000
# 2 31.2225 71.9785 24.3709 0.0000 11.7857 0.0000
# 3 25.0912 24.3709 74.7270 0.0000 0.9125 0.0000
# 4 0.0000 0.0000 0.0000 25.6157 0.0000 11.3676
# 5 0.8051 11.7857 0.9125 0.0000 38.5859 0.0000
# 6 0.0000 0.0000 0.0000 11.3676 0.0000 16.9067
#
#
#
# Elastic Compliance Matrix: (Units=1/GPa)
#
#
# Indices 1 2 3 4 5 6 
#
# 1 0.011644 -0.004398 -0.002490 0.000000 0.001159 0.000000
# 2 -0.004398 0.018160 -0.004381 0.000000 -0.005351 0.000000
# 3 -0.002490 -0.004381 0.015634 0.000000 0.001020 0.000000
# 4 0.000000 0.000000 0.000000 0.055641 0.000000 -0.037411
# 5 0.001159 -0.005351 0.001020 0.000000 0.027502 0.000000
# 6 0.000000 0.000000 0.000000 -0.037411 0.000000 0.084302
#
#
# Mechanical properties :
#
#
# Convention : Reuss Voigt Hill
#
# Bulk Modulus (GPa) = 43.66368 45.67037 44.66703
# Shear Modulus (GPa) = 20.57161 27.48697 24.02929
#
# Velocity S-wave (km/s) = 3.29146 3.80467 3.55733
# Velocity P-wave (km/s) = 6.11880 6.58424 6.35578
#
# Compressibility (1/GPa) = 0.02290233
#
# Stress axis : x y z
#
# Youngs Moduli (GPa) = 85.88180 55.06571 63.96234
#
# Poissons Ratio (x) = 0.24216 0.15924
# Poissons Ratio (y) = 0.37768 0.28020
# Poissons Ratio (z) = 0.21381 0.24122
#
# Static dielectric constant tensor:
#      x y z
#    x 1.711740 0.000000 -0.007660 
#    y 0.000000 1.653080 0.000000 
#    z -0.007660 0.000000 1.688100 
# 
# From -- ./inp_files/47916.got.cif
#   From: 2010.05.17/outbox.cif.g08.bks.cpg/sg13_24_cif.got.tgz:47916.got - 2010.06.03 16:44:36.
