data_PCOD9230187
_publ_section_title
;
Structure prediction by ZEFSAII (Michael W. Deem and Ramdas Pophale) SiO2 
 PCOD9230187
Probable space group: P 2/C
;
_chemical_formula_sum "Si O2"
_cell_formula_units_Z 22
_cell_length_a 28.919719
_cell_length_b 4.550472
_cell_length_c 5.120871
_cell_angle_alpha 90.000000
_cell_angle_beta 89.044508
_cell_angle_gamma 90.000000
_cell_volume 673.804579
_symmetry_space_group_name_H-M "P 2/C"
_symmetry_group_IT_number 13
_symmetry_cell_setting 'monoclinic'
loop_
_space_group_symop_operation_xyz
x,y,z
-x,y,1/2-z
-x,-y,-z
x,-y,1/2+z
loop_
_atom_site_type_symbol
_atom_site_label
_atom_site_fract_x
_atom_site_fract_y
_atom_site_fract_z
Si Si1 0.850057 0.752501 0.275128
Si Si2 0.694316 0.300946 0.278907
Si Si3 0.597723 0.294919 0.164249
Si Si4 0.206411 0.287694 0.361291
Si Si5 0.951711 0.699308 0.190847
Si Si6 0.500000 0.709091 0.750000
O O1 0.851393 0.446969 0.082825
O O2 0.903014 0.855226 0.247128
O O3 0.824744 0.012232 0.526127
O O4 0.693666 0.436710 0.565223
O O5 0.646359 0.138877 0.218000
O O6 0.743506 0.154156 0.216303
O O7 0.597755 0.552577 0.383357
O O8 0.549272 0.130783 0.222431
O O9 0.210246 0.417014 0.666718
O O10 0.951919 0.438024 0.404772
O O11 0.000000 0.857647 0.250000
O O12 0.500000 0.500000 0.500000
#
# Coordination Sequence:
#
# PCOD9230187 Si02
#       6
#     4   4   4   4   4   2
#     4  12  25  44  69 102 133 178 219 275 325 398
#     4  10  20  36  56  85 122 166 212 265 322 384
#     4   8  14  24  42  68 107 150 199 252 310 372
#     4  12  25  42  68  98 136 173 225 268 333 390
#     4  10  22  44  72 102 136 174 219 271 328 390
#     4   8  12  20  36  64 100 146 194 248 306 368
#
# _framework density 32.650418000000002
#
# number of rings (size 3 to 8) (size 9 to 14) (size 15 to 20)
#    0.000    1.818    3.636    1.091    0.000    0.000 
#    0.000    1.818    0.000    0.000    0.000    0.000 
#    0.000    2.909    0.000    0.182    0.000    1.636 
#
# Total GULP energy -122962.847913 kJ/mol
# GULP energy per Si atom -5589.220360 kJ/mol
# Density = 3.257610 g / cm^3
# Si number density = 32.650418 Si / 1000 Ang^3
#
#
#
# Elastic Constant Matrix: (Units=GPa)
#
#
# Indices 1 2 3 4 5 6 
#
# 1 324.9810 52.2840 -14.5464 0.0000 -18.8813 0.0000
# 2 52.2840 175.4033 53.9110 0.0000 -0.2991 0.0000
# 3 -14.5464 53.9110 215.3034 0.0000 -21.9925 0.0000
# 4 0.0000 0.0000 0.0000 69.4388 0.0000 -12.1954
# 5 -18.8813 -0.2991 -21.9925 0.0000 46.0304 0.0000
# 6 0.0000 0.0000 0.0000 -12.1954 0.0000 -18.2668
#
#
#
# Elastic Compliance Matrix: (Units=1/GPa)
#
#
# Indices 1 2 3 4 5 6 
#
# 1 0.003408 -0.001233 0.000716 0.000000 0.001732 0.000000
# 2 -0.001233 0.006646 -0.001887 0.000000 -0.001364 0.000000
# 3 0.000716 -0.001887 0.005461 0.000000 0.002890 0.000000
# 4 0.000000 0.000000 0.000000 0.012890 0.000000 -0.008606
# 5 0.001732 -0.001364 0.002890 0.000000 0.023807 0.000000
# 6 0.000000 0.000000 0.000000 -0.008606 0.000000 -0.048999
#
#
# Mechanical properties :
#
#
# Convention : Reuss Voigt Hill
#
# Bulk Modulus (GPa) = 93.39427 99.88720 96.64074
# Shear Modulus (GPa) = 431.39339 61.04309 246.21824
#
# Velocity S-wave (km/s) = 11.50703 4.32857 8.69334
# Velocity P-wave (km/s) = 14.32534 7.45932 11.42053
#
# Compressibility (1/GPa) = 0.01070730
#
# Stress axis : x y z
#
# Youngs Moduli (GPa) = 293.41483 150.46025 183.12747
#
# Poissons Ratio (x) = 0.18551 -0.13110
# Poissons Ratio (y) = 0.36178 0.34553
# Poissons Ratio (z) = -0.21006 0.28389
#
# Static dielectric constant tensor:
#      x y z
#    x 2.673680 0.000000 0.154900 
#    y 0.000000 2.463080 0.000000 
#    z 0.154900 0.000000 3.132200 
# 
# From -- ./inp_files/7962.got.cif
#   From: 2010.05.17/outbox.cif.g08.bks.cpg/sg13_4_cif.got.tgz:7962.got - 2010.06.03 16:44:36.
