data_PCOD9230100
_publ_section_title
;
Structure prediction by ZEFSAII (Michael W. Deem and Ramdas Pophale) SiO2 
 PCOD9230100
Probable space group: P 2/C
;
_chemical_formula_sum "Si O2"
_cell_formula_units_Z 26
_cell_length_a 19.907824
_cell_length_b 13.879079
_cell_length_c 8.289713
_cell_angle_alpha 90.000000
_cell_angle_beta 144.470747
_cell_angle_gamma 90.000000
_cell_volume 1331.032512
_symmetry_space_group_name_H-M "P 2/C"
_symmetry_group_IT_number 13
_symmetry_cell_setting 'monoclinic'
loop_
_space_group_symop_operation_xyz
x,y,z
-x,y,1/2-z
-x,-y,-z
x,-y,1/2+z
loop_
_atom_site_type_symbol
_atom_site_label
_atom_site_fract_x
_atom_site_fract_y
_atom_site_fract_z
Si Si1 0.176631 0.077285 0.910579
Si Si2 0.372564 0.809912 0.941299
Si Si3 0.000000 0.781081 0.250000
Si Si4 0.202357 0.712250 0.862191
Si Si5 0.132559 0.125946 0.467172
Si Si6 0.600627 0.373361 0.218691
Si Si7 0.343375 0.566983 0.317281
O O1 0.190188 0.099309 0.749206
O O2 0.081043 0.149350 0.800160
O O3 0.295252 0.100735 0.234375
O O4 0.137688 0.968193 0.863900
O O5 0.302905 0.755239 0.945941
O O6 0.380005 0.732868 0.810055
O O7 0.500000 0.834876 0.250000
O O8 0.085064 0.718907 0.528670
O O9 0.187745 0.785263 0.982737
O O10 0.241075 0.610659 0.010481
O O11 0.000000 0.147638 0.250000
O O12 0.645520 0.452101 0.177626
O O13 0.660488 0.397721 0.506085
O O14 0.464463 0.392511 0.981615
#
# Coordination Sequence:
#
# PCOD9230100 Si02
#       7
#     4   4   2   4   4   4   4
#     4  11  22  38  61  89 119 157 205 248 300 350
#     4  11  22  39  60  89 125 161 196 248 303 361
#     4  10  20  36  58  88 118 160 198 252 292 350
#     4  11  22  37  61  91 122 156 202 249 306 352
#     4  12  22  40  64  91 118 157 209 254 294 356
#     4  10  20  36  60  90 121 157 200 243 294 357
#     4  10  20  35  62  91 119 155 201 249 294 353
#
# _framework density 19.533708000000001
#
# number of rings (size 3 to 8) (size 9 to 14) (size 15 to 20)
#    0.000    1.231    3.846    4.154    2.154    0.000 
#    0.000    3.077    0.000    8.308    8.000    0.000 
#    0.000    0.000    0.000    0.000    0.000    0.000 
#
# Total GULP energy -145334.911570 kJ/mol
# GULP energy per Si atom -5589.804291 kJ/mol
# Density = 1.948925 g / cm^3
# Si number density = 19.533708 Si / 1000 Ang^3
#
#
#
# Elastic Constant Matrix: (Units=GPa)
#
#
# Indices 1 2 3 4 5 6 
#
# 1 71.0847 5.9030 21.5635 0.0000 -10.6554 0.0000
# 2 5.9030 31.8322 -0.2525 0.0000 1.3125 0.0000
# 3 21.5635 -0.2525 100.3289 0.0000 -0.8467 0.0000
# 4 0.0000 0.0000 0.0000 17.4546 0.0000 2.6427
# 5 -10.6554 1.3125 -0.8467 0.0000 29.7971 0.0000
# 6 0.0000 0.0000 0.0000 2.6427 0.0000 25.1800
#
#
#
# Elastic Compliance Matrix: (Units=1/GPa)
#
#
# Indices 1 2 3 4 5 6 
#
# 1 0.016268 -0.003286 -0.003455 0.000000 0.005864 0.000000
# 2 -0.003286 0.032136 0.000765 0.000000 -0.002569 0.000000
# 3 -0.003455 0.000765 0.010704 0.000000 -0.000965 0.000000
# 4 0.000000 0.000000 0.000000 0.058217 0.000000 -0.006110
# 5 0.005864 -0.002569 -0.000965 0.000000 0.035743 0.000000
# 6 0.000000 0.000000 0.000000 -0.006110 0.000000 0.040355
#
#
# Mechanical properties :
#
#
# Convention : Reuss Voigt Hill
#
# Bulk Modulus (GPa) = 21.20617 28.63043 24.91830
# Shear Modulus (GPa) = 22.61502 26.22180 24.41841
#
# Velocity S-wave (km/s) = 3.40625 3.66784 3.53946
# Velocity P-wave (km/s) = 5.13321 5.71193 5.43028
#
# Compressibility (1/GPa) = 0.04715609
#
# Stress axis : x y z
#
# Youngs Moduli (GPa) = 61.47150 31.11775 93.42637
#
# Poissons Ratio (x) = 0.10225 0.32280
# Poissons Ratio (y) = 0.20199 -0.07151
# Poissons Ratio (z) = 0.21239 -0.02382
#
# Static dielectric constant tensor:
#      x y z
#    x 1.682340 0.000000 -0.023720 
#    y 0.000000 1.641140 0.000000 
#    z -0.023720 0.000000 1.695960 
# 
# From -- ./inp_files/23590.got.cif
#   From: 2010.05.17/outbox.cif.g08.bks.cpg/sg13_12_cif.got.tgz:23590.got - 2010.06.03 16:44:36.
