data_PCOD9230568
_publ_section_title
;
Structure prediction by ZEFSAII (Michael W. Deem and Ramdas Pophale) SiO2 
 PCOD9230568
Probable space group: P 2/C
;
_chemical_formula_sum "Si O2"
_cell_formula_units_Z 28
_cell_length_a 9.751549
_cell_length_b 13.858734
_cell_length_c 18.250701
_cell_angle_alpha 90.000000
_cell_angle_beta 145.054329
_cell_angle_gamma 90.000000
_cell_volume 1412.795501
_symmetry_space_group_name_H-M "P 2/C"
_symmetry_group_IT_number 13
_symmetry_cell_setting 'monoclinic'
loop_
_space_group_symop_operation_xyz
x,y,z
-x,y,1/2-z
-x,-y,-z
x,-y,1/2+z
loop_
_atom_site_type_symbol
_atom_site_label
_atom_site_fract_x
_atom_site_fract_y
_atom_site_fract_z
Si Si1 0.824104 0.756845 0.574832
Si Si2 0.819419 0.140812 0.916708
Si Si3 0.588096 0.582859 0.403980
Si Si4 0.812928 0.334645 0.853705
Si Si5 0.365908 0.194256 0.361019
Si Si6 0.379487 0.364182 0.115081
Si Si7 0.649756 0.929950 0.882552
O O1 0.817257 0.801162 0.491397
O O2 0.740692 0.645205 0.529069
O O3 0.646286 0.802918 0.556638
O O4 0.092802 0.783297 0.717403
O O5 0.736967 0.221834 0.822944
O O6 0.686349 0.042239 0.879501
O O7 0.083543 0.111900 0.004081
O O8 0.315980 0.620533 0.273639
O O9 0.711587 0.608748 0.380060
O O10 0.584927 0.468326 0.406787
O O11 0.095824 0.343846 0.988946
O O12 0.507323 0.281246 0.385003
O O13 0.492940 0.098567 0.384305
O O14 0.500000 0.364704 0.250000
O O15 0.500000 0.884786 0.750000
#
# Coordination Sequence:
#
# PCOD9230568 Si02
#       7
#     4   4   4   4   4   4   4
#     4  10  23  42  59  85 125 166 196 249 305 367
#     4  10  21  37  63  87 121 146 201 254 303 353
#     4  10  22  35  59  89 122 159 204 245 308 357
#     4  10  20  37  58  93 121 154 192 260 305 347
#     4  11  23  40  61  86 125 161 203 247 305 368
#     4  12  21  35  63  91 121 157 208 256 294 356
#     4  11  21  37  62  93 113 152 202 255 301 358
#
# _framework density 19.818861999999999
#
# number of rings (size 3 to 8) (size 9 to 14) (size 15 to 20)
#    0.000    1.429    4.286    2.571    6.000    1.143 
#    0.000    0.714    0.000    0.000    0.000    0.000 
#    0.000    0.000    0.000    0.000    0.000    0.000 
#
# Total GULP energy -155968.413343 kJ/mol
# GULP energy per Si atom -5570.300477 kJ/mol
# Density = 1.977375 g / cm^3
# Si number density = 19.818862 Si / 1000 Ang^3
#
#
#
# Elastic Constant Matrix: (Units=GPa)
#
#
# Indices 1 2 3 4 5 6 
#
# 1 74.3831 0.4758 22.6721 0.0000 20.1125 0.0000
# 2 0.4758 98.1203 24.0897 0.0000 20.3676 0.0000
# 3 22.6721 24.0897 62.8643 0.0000 27.7297 0.0000
# 4 0.0000 0.0000 0.0000 11.0185 0.0000 9.4678
# 5 20.1125 20.3676 27.7297 0.0000 26.6471 0.0000
# 6 0.0000 0.0000 0.0000 9.4678 0.0000 7.8070
#
#
#
# Elastic Compliance Matrix: (Units=1/GPa)
#
#
# Indices 1 2 3 4 5 6 
#
# 1 0.017742 0.003243 -0.001185 0.000000 -0.014637 0.000000
# 2 0.003243 0.012743 -0.001251 0.000000 -0.010886 0.000000
# 3 -0.001185 -0.001251 0.029572 0.000000 -0.028923 0.000000
# 4 0.000000 0.000000 0.000000 -2.158569 0.000000 2.617747
# 5 -0.014637 -0.010886 -0.028923 0.000000 0.086994 0.000000
# 6 0.000000 0.000000 0.000000 2.617747 0.000000 -3.046513
#
#
# Mechanical properties :
#
#
# Convention : Reuss Voigt Hill
#
# Bulk Modulus (GPa) = 16.21499 36.64923 26.43211
# Shear Modulus (GPa) = -0.99224 21.63654 10.32215
#
# Velocity S-wave (km/s) = -0.70834 3.30769 2.28463
# Velocity P-wave (km/s) = 2.74415 5.75500 4.50835
#
# Compressibility (1/GPa) = 0.06167132
#
# Stress axis : x y z
#
# Youngs Moduli (GPa) = 56.36318 78.47675 33.81577
#
# Poissons Ratio (x) = -0.25452 0.04008
# Poissons Ratio (y) = -0.18280 0.04230
# Poissons Ratio (z) = 0.06680 0.09816
#
# Static dielectric constant tensor:
#      x y z
#    x 1.700040 0.000000 0.016170 
#    y 0.000000 1.740100 0.000000 
#    z 0.016170 0.000000 1.805520 
# 
# From -- ./inp_files/64653.got.cif
#   From: 2010.05.17/outbox.cif.g08.bks.cpg/sg13_33_cif.got.tgz:64653.got - 2010.06.03 16:44:36.
