data_PCOD9230047
_publ_section_title
;
Structure prediction by ZEFSAII (Michael W. Deem and Ramdas Pophale) SiO2 
 PCOD9230047
Probable space group: P 2/C
;
_chemical_formula_sum "Si O2"
_cell_formula_units_Z 28
_cell_length_a 10.012169
_cell_length_b 13.110946
_cell_length_c 22.251185
_cell_angle_alpha 90.000000
_cell_angle_beta 151.720280
_cell_angle_gamma 90.000000
_cell_volume 1383.849590
_symmetry_space_group_name_H-M "P 2/C"
_symmetry_group_IT_number 13
_symmetry_cell_setting 'monoclinic'
loop_
_space_group_symop_operation_xyz
x,y,z
-x,y,1/2-z
-x,-y,-z
x,-y,1/2+z
loop_
_atom_site_type_symbol
_atom_site_label
_atom_site_fract_x
_atom_site_fract_y
_atom_site_fract_z
Si Si1 0.656962 0.300758 0.249018
Si Si2 0.086404 0.789352 0.372406
Si Si3 0.427967 0.610808 0.537082
Si Si4 0.029409 0.098636 0.095794
Si Si5 0.530500 0.169493 0.577026
Si Si6 0.178922 0.125944 0.620811
Si Si7 0.252368 0.384920 0.455740
O O1 0.500000 0.319099 0.250000
O O2 0.487110 0.329596 0.121870
O O3 0.768258 0.183520 0.295063
O O4 0.934931 0.369886 0.351205
O O5 0.164882 0.669075 0.400390
O O6 0.353295 0.839659 0.444683
O O7 0.808197 0.830981 0.228445
O O8 0.027547 0.814883 0.417314
O O9 0.367583 0.492538 0.524071
O O10 0.685555 0.616119 0.591488
O O11 0.729494 0.095649 0.011639
O O12 0.940035 0.131416 0.993240
O O13 0.173690 0.989697 0.144249
O O14 0.410323 0.283303 0.540129
O O15 0.500000 0.163861 0.750000
#
# Coordination Sequence:
#
# PCOD9230047 Si02
#       7
#     4   4   4   4   4   4   4
#     4  11  22  38  58  85 125 151 189 248 298 344
#     4  10  20  35  59  86 115 149 190 242 291 340
#     4  10  21  38  61  89 114 158 200 237 290 354
#     4  10  22  39  60  85 114 154 196 241 291 352
#     4   9  19  38  58  83 118 146 189 245 289 339
#     4  11  21  37  61  86 113 154 199 235 291 359
#     4   9  21  38  62  85 116 156 200 236 284 356
#
# _framework density 20.233411
#
# number of rings (size 3 to 8) (size 9 to 14) (size 15 to 20)
#    0.000    2.000    1.429    1.714    2.000    2.286 
#    0.000    0.714    6.286    0.000    0.000    0.000 
#    0.000    0.000    0.000    0.000    0.000    0.000 
#
# Total GULP energy -156118.140429 kJ/mol
# GULP energy per Si atom -5575.647872 kJ/mol
# Density = 2.018736 g / cm^3
# Si number density = 20.233411 Si / 1000 Ang^3
#
#
#
# Elastic Constant Matrix: (Units=GPa)
#
#
# Indices 1 2 3 4 5 6 
#
# 1 134.5734 23.2744 38.5700 0.0000 30.8238 0.0000
# 2 23.2744 42.7034 11.2885 0.0000 -1.2793 0.0000
# 3 38.5700 11.2885 52.2768 0.0000 9.5938 0.0000
# 4 0.0000 0.0000 0.0000 -6.2738 0.0000 -9.1876
# 5 30.8238 -1.2793 9.5938 0.0000 24.4615 0.0000
# 6 0.0000 0.0000 0.0000 -9.1876 0.0000 24.1548
#
#
#
# Elastic Compliance Matrix: (Units=1/GPa)
#
#
# Indices 1 2 3 4 5 6 
#
# 1 0.013752 -0.006380 -0.005956 0.000000 -0.015326 0.000000
# 2 -0.006380 0.028104 -0.003348 0.000000 0.010822 0.000000
# 3 -0.005956 -0.003348 0.024677 0.000000 -0.002349 0.000000
# 4 0.000000 0.000000 0.000000 -0.102370 0.000000 -0.038938
# 5 -0.015326 0.010822 -0.002349 0.000000 0.061680 0.000000
# 6 0.000000 0.000000 0.000000 -0.038938 0.000000 0.026589
#
#
# Mechanical properties :
#
#
# Convention : Reuss Voigt Hill
#
# Bulk Modulus (GPa) = 28.43655 41.75773 35.09714
# Shear Modulus (GPa) = 52.34512 18.89653 35.62083
#
# Velocity S-wave (km/s) = 5.09184 3.05934 4.20038
# Velocity P-wave (km/s) = 6.97523 5.75866 6.39594
#
# Compressibility (1/GPa) = 0.03516601
#
# Stress axis : x y z
#
# Youngs Moduli (GPa) = 72.71826 35.58265 40.52350
#
# Poissons Ratio (x) = 0.22701 0.24135
# Poissons Ratio (y) = 0.46393 0.13566
# Poissons Ratio (z) = 0.43309 0.11912
#
# Static dielectric constant tensor:
#      x y z
#    x 1.732390 0.000000 -0.004100 
#    y 0.000000 1.706200 0.000000 
#    z -0.004100 0.000000 1.757930 
# 
# From -- ./inp_files/76736.got.cif
#   From: 2010.05.17/outbox.cif.g08.bks.cpg/sg13_39_cif.got.tgz:76736.got - 2010.06.03 16:44:36.
