data_PCOD9230679
_publ_section_title
;
Structure prediction by ZEFSAII (Michael W. Deem and Ramdas Pophale) SiO2 
 PCOD9230679
Probable space group: P 2/C
;
_chemical_formula_sum "Si O2"
_cell_formula_units_Z 22
_cell_length_a 8.637612
_cell_length_b 7.940383
_cell_length_c 18.537383
_cell_angle_alpha 90.000000
_cell_angle_beta 133.158565
_cell_angle_gamma 90.000000
_cell_volume 927.442777
_symmetry_space_group_name_H-M "P 2/C"
_symmetry_group_IT_number 13
_symmetry_cell_setting 'monoclinic'
loop_
_space_group_symop_operation_xyz
x,y,z
-x,y,1/2-z
-x,-y,-z
x,-y,1/2+z
loop_
_atom_site_type_symbol
_atom_site_label
_atom_site_fract_x
_atom_site_fract_y
_atom_site_fract_z
Si Si1 0.621222 0.976191 0.219954
Si Si2 0.258018 0.374197 0.963476
Si Si3 0.457849 0.640033 0.821476
Si Si4 0.000000 0.457946 0.250000
Si Si5 0.544582 0.832134 0.468646
Si Si6 0.945224 0.009659 0.565972
O O1 0.500000 0.903640 0.250000
O O2 0.513970 0.155194 0.166651
O O3 0.598983 0.849464 0.147475
O O4 0.857512 0.012441 0.318797
O O5 0.475085 0.323723 0.991874
O O6 0.147535 0.194076 0.946716
O O7 0.105810 0.456806 0.855274
O O8 0.353111 0.442181 0.069692
O O9 0.500000 0.595739 0.750000
O O10 0.220880 0.614049 0.780948
O O11 0.500000 0.000000 0.500000
O O12 0.787920 0.853746 0.528383
O O13 0.000000 0.000000 0.500000
#
# Coordination Sequence:
#
# PCOD9230679 Si02
#       6
#     4   4   4   2   4   4
#     4  11  20  37  62  97 133 164 217 273 327 415
#     4  11  24  47  61 100 139 161 227 277 322 413
#     4  11  25  47  68  94 132 177 236 278 317 388
#     4  12  28  46  70  92 130 192 224 278 326 372
#     4  10  20  37  61  93 129 160 196 269 340 390
#     4  11  20  37  67  99 128 167 203 262 355 394
#
# _framework density 23.721139999999998
#
# number of rings (size 3 to 8) (size 9 to 14) (size 15 to 20)
#    0.000    1.091    5.455    2.727    2.545    2.909 
#    3.273    0.000    0.000    0.000    0.000    0.000 
#    0.000    0.000    0.000    0.000    0.000    0.000 
#
# Total GULP energy -122739.262945 kJ/mol
# GULP energy per Si atom -5579.057407 kJ/mol
# Density = 2.366715 g / cm^3
# Si number density = 23.721140 Si / 1000 Ang^3
#
#
#
# Elastic Constant Matrix: (Units=GPa)
#
#
# Indices 1 2 3 4 5 6 
#
# 1 98.8508 24.7902 39.2207 0.0000 -18.3685 0.0000
# 2 24.7902 55.6240 31.3812 0.0000 -14.4138 0.0000
# 3 39.2207 31.3812 209.8207 0.0000 -10.7153 0.0000
# 4 0.0000 0.0000 0.0000 37.9140 0.0000 -0.2193
# 5 -18.3685 -14.4138 -10.7153 0.0000 48.3462 0.0000
# 6 0.0000 0.0000 0.0000 -0.2193 0.0000 27.2792
#
#
#
# Elastic Compliance Matrix: (Units=1/GPa)
#
#
# Indices 1 2 3 4 5 6 
#
# 1 0.012275 -0.003757 -0.001569 0.000000 0.003196 0.000000
# 2 -0.003757 0.022204 -0.002380 0.000000 0.004665 0.000000
# 3 -0.001569 -0.002380 0.005410 0.000000 -0.000107 0.000000
# 4 0.000000 0.000000 0.000000 0.026377 0.000000 0.000212
# 5 0.003196 0.004665 -0.000107 0.000000 0.023265 0.000000
# 6 0.000000 0.000000 0.000000 0.000212 0.000000 0.036660
#
#
# Mechanical properties :
#
#
# Convention : Reuss Voigt Hill
#
# Bulk Modulus (GPa) = 40.85780 61.67555 51.26668
# Shear Modulus (GPa) = 33.38613 40.63477 37.01045
#
# Velocity S-wave (km/s) = 3.75566 4.14335 3.95426
# Velocity P-wave (km/s) = 6.00568 6.99618 6.51977
#
# Compressibility (1/GPa) = 0.02447513
#
# Stress axis : x y z
#
# Youngs Moduli (GPa) = 81.46643 45.03690 184.84705
#
# Poissons Ratio (x) = 0.16921 0.29009
# Poissons Ratio (y) = 0.30608 0.44000
# Poissons Ratio (z) = 0.12785 0.10720
#
# Static dielectric constant tensor:
#      x y z
#    x 1.936710 0.000000 -0.025140 
#    y 0.000000 1.821210 0.000000 
#    z -0.025140 0.000000 1.739440 
# 
# From -- ./inp_files/63956.got.cif
#   From: 2010.05.17/outbox.cif.g08.bks.cpg/sg13_32_cif.got.tgz:63956.got - 2010.06.03 16:44:36.
