data_PCOD9230444
_publ_section_title
;
Structure prediction by ZEFSAII (Michael W. Deem and Ramdas Pophale) SiO2 
 PCOD9230444
Probable space group: P 2/C
;
_chemical_formula_sum "Si O2"
_cell_formula_units_Z 22
_cell_length_a 19.632087
_cell_length_b 5.333185
_cell_length_c 19.247235
_cell_angle_alpha 90.000000
_cell_angle_beta 151.381471
_cell_angle_gamma 90.000000
_cell_volume 965.239327
_symmetry_space_group_name_H-M "P 2/C"
_symmetry_group_IT_number 13
_symmetry_cell_setting 'monoclinic'
loop_
_space_group_symop_operation_xyz
x,y,z
-x,y,1/2-z
-x,-y,-z
x,-y,1/2+z
loop_
_atom_site_type_symbol
_atom_site_label
_atom_site_fract_x
_atom_site_fract_y
_atom_site_fract_z
Si Si1 0.797858 0.883656 0.168392
Si Si2 0.500000 0.257930 0.750000
Si Si3 0.519554 0.583356 0.904771
Si Si4 0.367030 0.191266 0.380989
Si Si5 0.043492 0.465409 0.869616
Si Si6 0.191812 0.963583 0.975611
O O1 0.901847 0.650659 0.277574
O O2 0.770310 0.052789 0.211350
O O3 0.848869 0.025702 0.143890
O O4 0.641553 0.790566 0.005561
O O5 0.501703 0.433311 0.818856
O O6 0.357758 0.096432 0.627265
O O7 0.377124 0.690136 0.813409
O O8 0.590038 0.399445 0.024657
O O9 0.500000 0.000000 0.500000
O O10 0.111597 0.736556 0.943994
O O11 0.000000 0.477626 0.750000
O O12 0.155046 0.235837 0.972844
#
# Coordination Sequence:
#
# PCOD9230444 Si02
#       6
#     4   2   4   4   4   4
#     4  10  20  36  64  86 124 163 209 261 308 352
#     4  12  22  38  60  88 130 160 194 256 322 378
#     4  10  21  36  61  91 124 159 206 254 314 367
#     4   9  19  38  57  92 117 161 214 251 304 360
#     4  10  21  35  56  86 122 154 206 255 297 353
#     4  11  23  35  54  91 122 160 197 250 312 362
#
# _framework density 22.792276000000001
#
# number of rings (size 3 to 8) (size 9 to 14) (size 15 to 20)
#    0.000    1.818    1.818    3.818    2.545    2.909 
#    0.000    0.000    0.000    2.182    0.000    0.000 
#    0.000    0.000    0.000    0.000    0.000    0.000 
#
# Total GULP energy -122858.479613 kJ/mol
# GULP energy per Si atom -5584.476346 kJ/mol
# Density = 2.274040 g / cm^3
# Si number density = 22.792276 Si / 1000 Ang^3
#
#
#
# Elastic Constant Matrix: (Units=GPa)
#
#
# Indices 1 2 3 4 5 6 
#
# 1 98.9939 28.1456 18.3057 0.0000 12.1880 0.0000
# 2 28.1456 103.4869 16.3435 0.0000 8.8783 0.0000
# 3 18.3057 16.3435 55.7098 0.0000 10.0621 0.0000
# 4 0.0000 0.0000 0.0000 17.8067 0.0000 14.6024
# 5 12.1880 8.8783 10.0621 0.0000 25.2295 0.0000
# 6 0.0000 0.0000 0.0000 14.6024 0.0000 41.9961
#
#
#
# Elastic Compliance Matrix: (Units=1/GPa)
#
#
# Indices 1 2 3 4 5 6 
#
# 1 0.011727 -0.002477 -0.002436 0.000000 -0.003822 0.000000
# 2 -0.002477 0.010812 -0.002033 0.000000 -0.001797 0.000000
# 3 -0.002436 -0.002033 0.020481 0.000000 -0.006276 0.000000
# 4 0.000000 0.000000 0.000000 0.078559 0.000000 -0.027316
# 5 -0.003822 -0.001797 -0.006276 0.000000 0.044618 0.000000
# 6 0.000000 0.000000 0.000000 -0.027316 0.000000 0.033310
#
#
# Mechanical properties :
#
#
# Convention : Reuss Voigt Hill
#
# Bulk Modulus (GPa) = 34.33315 42.64227 38.48771
# Shear Modulus (GPa) = 22.41065 30.03284 26.22174
#
# Velocity S-wave (km/s) = 3.13909 3.63392 3.39553
# Velocity P-wave (km/s) = 5.31364 6.02967 5.68294
#
# Compressibility (1/GPa) = 0.02912637
#
# Stress axis : x y z
#
# Youngs Moduli (GPa) = 85.27408 92.48987 48.82622
#
# Poissons Ratio (x) = 0.22907 0.11896
# Poissons Ratio (y) = 0.21120 0.09929
# Poissons Ratio (z) = 0.20777 0.18807
#
# Static dielectric constant tensor:
#      x y z
#    x 1.809250 0.000000 0.063520 
#    y 0.000000 1.979700 0.000000 
#    z 0.063520 0.000000 1.858700 
# 
# From -- ./inp_files/81302.got.cif
#   From: 2010.05.17/outbox.cif.g08.bks.cpg/sg13_41_cif.got.tgz:81302.got - 2010.06.03 16:44:36.
