data_PCOD9230807
_publ_section_title
;
Structure prediction by ZEFSAII (Michael W. Deem and Ramdas Pophale) SiO2 
 PCOD9230807
Probable space group: P 2/C
;
_chemical_formula_sum "Si O2"
_cell_formula_units_Z 18
_cell_length_a 5.186981
_cell_length_b 8.539736
_cell_length_c 17.122149
_cell_angle_alpha 90.000000
_cell_angle_beta 121.943274
_cell_angle_gamma 90.000000
_cell_volume 643.585485
_symmetry_space_group_name_H-M "P 2/C"
_symmetry_group_IT_number 13
_symmetry_cell_setting 'monoclinic'
loop_
_space_group_symop_operation_xyz
x,y,z
-x,y,1/2-z
-x,-y,-z
x,-y,1/2+z
loop_
_atom_site_type_symbol
_atom_site_label
_atom_site_fract_x
_atom_site_fract_y
_atom_site_fract_z
Si Si1 0.284099 0.254622 0.841310
Si Si2 0.077426 0.001091 0.922760
Si Si3 0.312630 0.518098 0.639318
Si Si4 0.500000 0.993326 0.250000
Si Si5 0.803440 0.288088 0.137151
O O1 0.588264 0.358542 0.890286
O O2 0.369445 0.112555 0.797906
O O3 0.000000 0.336106 0.750000
O O4 0.146816 0.169107 0.895224
O O5 0.780631 0.923109 0.832845
O O6 0.298713 0.867371 0.927161
O O7 0.000000 0.000000 0.000000
O O8 0.500000 0.501782 0.750000
O O9 0.984232 0.583660 0.612376
O O10 0.485675 0.643130 0.614918
O O11 0.000000 0.266287 0.250000
#
# Coordination Sequence:
#
# PCOD9230807 Si02
#       5
#     4   4   4   2   4
#     4  10  20  39  66 100 132 181 235 286 348 431
#     4  11  26  44  65 101 142 185 236 292 352 426
#     4  10  20  37  67 102 135 178 234 290 355 419
#     4  10  22  40  74  90 132 176 238 278 358 414
#     4  10  22  39  66 101 137 179 231 292 355 417
#
# _framework density 27.968309999999999
#
# number of rings (size 3 to 8) (size 9 to 14) (size 15 to 20)
#    0.000    1.778    1.111    4.000   10.889    0.889 
#    0.000    2.222    0.000    0.000    0.000    0.000 
#    0.000    0.000    0.000    0.000    0.000    0.000 
#
# Total GULP energy -100704.449412 kJ/mol
# GULP energy per Si atom -5594.691634 kJ/mol
# Density = 2.790465 g / cm^3
# Si number density = 27.968310 Si / 1000 Ang^3
#
#
#
# Elastic Constant Matrix: (Units=GPa)
#
#
# Indices 1 2 3 4 5 6 
#
# 1 122.0308 37.0479 48.6290 0.0000 -61.2753 0.0000
# 2 37.0479 123.2497 55.4182 0.0000 -47.8848 0.0000
# 3 48.6290 55.4182 137.1888 0.0000 -30.3072 0.0000
# 4 0.0000 0.0000 0.0000 14.0303 0.0000 -22.2903
# 5 -61.2753 -47.8848 -30.3072 0.0000 61.7430 0.0000
# 6 0.0000 0.0000 0.0000 -22.2903 0.0000 62.5675
#
#
#
# Elastic Compliance Matrix: (Units=1/GPa)
#
#
# Indices 1 2 3 4 5 6 
#
# 1 0.018054 0.003554 -0.003666 0.000000 0.018874 0.000000
# 2 0.003554 0.013556 -0.004076 0.000000 0.012040 0.000000
# 3 -0.003666 -0.004076 0.009795 0.000000 -0.001991 0.000000
# 4 0.000000 0.000000 0.000000 0.164225 0.000000 0.058507
# 5 0.018874 0.012040 -0.001991 0.000000 0.043288 0.000000
# 6 0.000000 0.000000 0.000000 0.058507 0.000000 0.036826
#
#
# Mechanical properties :
#
#
# Convention : Reuss Voigt Hill
#
# Bulk Modulus (GPa) = 30.27551 73.85106 52.06329
# Shear Modulus (GPa) = 16.38660 43.75978 30.07319
#
# Velocity S-wave (km/s) = 2.42316 3.95982 3.28267
# Velocity P-wave (km/s) = 4.32173 6.88255 5.74660
#
# Compressibility (1/GPa) = 0.03303000
#
# Stress axis : x y z
#
# Youngs Moduli (GPa) = 55.39071 73.77023 102.09004
#
# Poissons Ratio (x) = -0.26221 0.37422
# Poissons Ratio (y) = -0.19688 0.41612
# Poissons Ratio (z) = 0.20304 0.30069
#
# Static dielectric constant tensor:
#      x y z
#    x 2.465340 0.000000 0.102370 
#    y 0.000000 2.256760 0.000000 
#    z 0.102370 0.000000 2.202260 
# 
# From -- ./inp_files/60717.got.cif
#   From: 2010.05.17/outbox.cif.g08.bks.cpg/sg13_31_cif.got.tgz:60717.got - 2010.06.03 16:44:36.
