data_PCOD9230472
_publ_section_title
;
Structure prediction by ZEFSAII (Michael W. Deem and Ramdas Pophale) SiO2 
 PCOD9230472
Probable space group: P 2/C
;
_chemical_formula_sum "Si O2"
_cell_formula_units_Z 24
_cell_length_a 20.162286
_cell_length_b 7.807941
_cell_length_c 9.243692
_cell_angle_alpha 90.000000
_cell_angle_beta 128.118936
_cell_angle_gamma 90.000000
_cell_volume 1144.848585
_symmetry_space_group_name_H-M "P 2/C"
_symmetry_group_IT_number 13
_symmetry_cell_setting 'monoclinic'
loop_
_space_group_symop_operation_xyz
x,y,z
-x,y,1/2-z
-x,-y,-z
x,-y,1/2+z
loop_
_atom_site_type_symbol
_atom_site_label
_atom_site_fract_x
_atom_site_fract_y
_atom_site_fract_z
Si Si1 0.500000 0.168439 0.250000
Si Si2 0.361841 0.112405 0.607164
Si Si3 0.637436 0.667837 0.126148
Si Si4 0.764750 0.149717 0.589806
Si Si5 0.000000 0.030032 0.250000
Si Si6 0.273646 0.303120 0.255955
Si Si7 0.887866 0.884747 0.851503
O O1 0.549911 0.290333 0.427413
O O2 0.567731 0.032857 0.278524
O O3 0.375476 0.275182 0.726203
O O4 0.343222 0.172487 0.418018
O O5 0.276270 0.018311 0.539187
O O6 0.679889 0.483747 0.167170
O O7 0.704374 0.791561 0.137014
O O8 0.755750 0.284661 0.449642
O O9 0.849822 0.075688 0.768839
O O10 0.945655 0.143483 0.289056
O O11 0.058724 0.910971 0.430653
O O12 0.187739 0.251115 0.226088
#
# Coordination Sequence:
#
# PCOD9230472 Si02
#       7
#     2   4   4   4   2   4   4
#     4  10  22  40  62  90 124 156 218 268 310 368
#     4  10  21  39  63  87 118 169 213 258 306 371
#     4  11  23  38  62  92 125 166 206 262 325 363
#     4  10  20  38  60  90 121 167 215 248 297 383
#     4  10  20  36  66 104 120 162 216 256 306 358
#     4  11  22  38  59  92 127 166 206 255 316 374
#     4  10  20  37  65  96 128 163 210 256 297 378
#
# _framework density 20.963473
#
# number of rings (size 3 to 8) (size 9 to 14) (size 15 to 20)
#    0.000    1.667    1.667    4.500    2.333    2.000 
#    0.000    5.000    0.000    6.000    0.000    0.000 
#    0.000    0.000    0.000    0.000    0.000    0.000 
#
# Total GULP energy -133670.649411 kJ/mol
# GULP energy per Si atom -5569.610392 kJ/mol
# Density = 2.091576 g / cm^3
# Si number density = 20.963473 Si / 1000 Ang^3
#
#
#
# Elastic Constant Matrix: (Units=GPa)
#
#
# Indices 1 2 3 4 5 6 
#
# 1 59.2109 16.7139 52.0707 0.0000 0.2749 0.0000
# 2 16.7139 105.9476 53.3229 0.0000 8.3960 0.0000
# 3 52.0707 53.3229 137.1117 0.0000 3.2897 0.0000
# 4 0.0000 0.0000 0.0000 2.1237 0.0000 -4.6311
# 5 0.2749 8.3960 3.2897 0.0000 31.2494 0.0000
# 6 0.0000 0.0000 0.0000 -4.6311 0.0000 22.5383
#
#
#
# Elastic Compliance Matrix: (Units=1/GPa)
#
#
# Indices 1 2 3 4 5 6 
#
# 1 0.025462 0.001010 -0.010076 0.000000 0.000565 0.000000
# 2 0.001010 0.012004 -0.004987 0.000000 -0.002709 0.000000
# 3 -0.010076 -0.004987 0.013058 0.000000 0.000054 0.000000
# 4 0.000000 0.000000 0.000000 0.853146 0.000000 0.175302
# 5 0.000565 -0.002709 0.000054 0.000000 0.032718 0.000000
# 6 0.000000 0.000000 0.000000 0.175302 0.000000 0.080390
#
#
# Mechanical properties :
#
#
# Convention : Reuss Voigt Hill
#
# Bulk Modulus (GPa) = 44.60768 60.72056 52.66412
# Shear Modulus (GPa) = 4.75125 23.19313 13.97219
#
# Velocity S-wave (km/s) = 1.50710 3.32981 2.58447
# Velocity P-wave (km/s) = 4.93492 6.61901 5.83801
#
# Compressibility (1/GPa) = 0.02241766
#
# Stress axis : x y z
#
# Youngs Moduli (GPa) = 39.27424 83.30680 76.58231
#
# Poissons Ratio (x) = -0.08410 0.77163
# Poissons Ratio (y) = -0.03965 0.38189
# Poissons Ratio (z) = 0.39572 0.41542
#
# Static dielectric constant tensor:
#      x y z
#    x 1.812760 0.000000 0.018480 
#    y 0.000000 1.765720 0.000000 
#    z 0.018480 0.000000 1.816270 
# 
# From -- ./inp_files/22734.got.cif
#   From: 2010.05.17/outbox.cif.g08.bks.cpg/sg13_12_cif.got.tgz:22734.got - 2010.06.03 16:44:36.
