data_PCOD9230616
_publ_section_title
;
Structure prediction by ZEFSAII (Michael W. Deem and Ramdas Pophale) SiO2 
 PCOD9230616
Probable space group: P 2/C
;
_chemical_formula_sum "Si O2"
_cell_formula_units_Z 24
_cell_length_a 10.759573
_cell_length_b 14.215555
_cell_length_c 15.941797
_cell_angle_alpha 90.000000
_cell_angle_beta 25.208692
_cell_angle_gamma 90.000000
_cell_volume 1038.533833
_symmetry_space_group_name_H-M "P 2/C"
_symmetry_group_IT_number 13
_symmetry_cell_setting 'monoclinic'
loop_
_space_group_symop_operation_xyz
x,y,z
-x,y,1/2-z
-x,-y,-z
x,-y,1/2+z
loop_
_atom_site_type_symbol
_atom_site_label
_atom_site_fract_x
_atom_site_fract_y
_atom_site_fract_z
Si Si1 0.057126 0.081466 0.615277
Si Si2 0.520015 0.205497 0.917412
Si Si3 0.773587 0.407304 0.761411
Si Si4 0.417229 0.578269 0.924851
Si Si5 0.593744 0.215303 0.313890
Si Si6 0.815674 0.872037 0.017674
O O1 0.320453 0.156183 0.445304
O O2 0.000000 0.068441 0.750000
O O3 0.755969 0.122288 0.763724
O O4 0.132689 0.981815 0.529783
O O5 0.674420 0.302855 0.796861
O O6 0.234632 0.182797 0.038814
O O7 0.450938 0.209784 0.058108
O O8 0.612870 0.485404 0.803906
O O9 0.118398 0.425091 0.555230
O O10 0.672517 0.414448 0.921288
O O11 0.576648 0.674874 0.803298
O O12 0.904977 0.169417 0.106010
O O13 0.500000 0.857385 0.250000
#
# Coordination Sequence:
#
# PCOD9230616 Si02
#       6
#     4   4   4   4   4   4
#     4  10  20  38  61  84 112 146 191 238 285 338
#     4  10  20  37  60  86 116 149 187 232 283 336
#     4   9  17  30  53  89 121 142 173 225 283 335
#     4   9  17  30  53  89 121 142 173 225 283 335
#     4  10  20  37  60  86 116 149 187 232 283 336
#     4  12  26  38  53  82 116 152 197 236 279 336
#
# _framework density 23.109501999999999
#
# number of rings (size 3 to 8) (size 9 to 14) (size 15 to 20)
#    0.000    2.000    1.667    2.500    2.333    5.333 
#    0.000    0.000    0.000    1.000    0.000    0.000 
#    0.000    0.000    0.000    0.000    0.000    0.000 
#
# Total GULP energy -134339.001029 kJ/mol
# GULP energy per Si atom -5597.458376 kJ/mol
# Density = 2.305690 g / cm^3
# Si number density = 23.109502 Si / 1000 Ang^3
#
#
#
# Elastic Constant Matrix: (Units=GPa)
#
#
# Indices 1 2 3 4 5 6 
#
# 1 63.2857 15.6192 24.2077 0.0000 -8.5799 0.0000
# 2 15.6192 137.3348 49.3296 0.0000 -18.7345 0.0000
# 3 24.2077 49.3296 120.9042 0.0000 -17.3992 0.0000
# 4 0.0000 0.0000 0.0000 85.0696 0.0000 -71.5253
# 5 -8.5799 -18.7345 -17.3992 0.0000 40.3380 0.0000
# 6 0.0000 0.0000 0.0000 -71.5253 0.0000 70.2094
#
#
#
# Elastic Compliance Matrix: (Units=1/GPa)
#
#
# Indices 1 2 3 4 5 6 
#
# 1 0.017361 -0.000638 -0.002908 0.000000 0.002142 0.000000
# 2 -0.000638 0.008824 -0.003094 0.000000 0.002628 0.000000
# 3 -0.002908 -0.003094 0.010470 0.000000 0.002460 0.000000
# 4 0.000000 0.000000 0.000000 0.081942 0.000000 0.083477
# 5 0.002142 0.002628 0.002460 0.000000 0.027528 0.000000
# 6 0.000000 0.000000 0.000000 0.083477 0.000000 0.099285
#
#
# Mechanical properties :
#
#
# Convention : Reuss Voigt Hill
#
# Bulk Modulus (GPa) = 42.77976 55.53750 49.15863
# Shear Modulus (GPa) = 18.76304 54.61463 36.68883
#
# Velocity S-wave (km/s) = 2.85251 4.86665 3.98880
# Velocity P-wave (km/s) = 5.42227 7.46080 6.52168
#
# Compressibility (1/GPa) = 0.02337554
#
# Stress axis : x y z
#
# Youngs Moduli (GPa) = 57.59898 113.32787 95.51325
#
# Poissons Ratio (x) = 0.07229 0.27771
# Poissons Ratio (y) = 0.03674 0.29555
# Poissons Ratio (z) = 0.16747 0.35067
#
# Static dielectric constant tensor:
#      x y z
#    x 1.943200 0.000000 0.082700 
#    y 0.000000 1.788250 0.000000 
#    z 0.082700 0.000000 1.830760 
# 
# From -- ./inp_files/12409.got.cif
#   From: 2010.05.17/outbox.cif.g08.bks.cpg/sg13_7_cif.got.tgz:12409.got - 2010.06.03 16:44:36.
