data_PCOD9230763
_publ_section_title
;
Structure prediction by ZEFSAII (Michael W. Deem and Ramdas Pophale) SiO2 
 PCOD9230763
Probable space group: P 2/C
;
_chemical_formula_sum "Si O2"
_cell_formula_units_Z 26
_cell_length_a 9.574639
_cell_length_b 11.022147
_cell_length_c 18.281632
_cell_angle_alpha 90.000000
_cell_angle_beta 42.922019
_cell_angle_gamma 90.000000
_cell_volume 1313.869323
_symmetry_space_group_name_H-M "P 2/C"
_symmetry_group_IT_number 13
_symmetry_cell_setting 'monoclinic'
loop_
_space_group_symop_operation_xyz
x,y,z
-x,y,1/2-z
-x,-y,-z
x,-y,1/2+z
loop_
_atom_site_type_symbol
_atom_site_label
_atom_site_fract_x
_atom_site_fract_y
_atom_site_fract_z
Si Si1 0.162487 0.821643 0.043151
Si Si2 0.739803 0.507740 0.151334
Si Si3 0.415862 0.097847 0.089317
Si Si4 0.833620 0.696732 0.879044
Si Si5 0.012037 0.711546 0.523713
Si Si6 0.075863 0.568953 0.140870
Si Si7 0.000000 0.963642 0.250000
O O1 0.181098 0.682040 0.062193
O O2 0.068666 0.889358 0.150764
O O3 0.385728 0.874967 0.937483
O O4 0.018452 0.812606 0.026673
O O5 0.500000 0.516702 0.250000
O O6 0.808080 0.371999 0.104074
O O7 0.871289 0.535079 0.173639
O O8 0.820274 0.611072 0.065267
O O9 0.356813 0.222731 0.071676
O O10 0.197987 0.043311 0.198272
O O11 0.500000 0.000000 0.000000
O O12 0.792760 0.554104 0.906734
O O13 0.000000 0.699608 0.750000
O O14 0.928627 0.750392 0.917534
O O15 0.000000 0.603646 0.250000
#
# Coordination Sequence:
#
# PCOD9230763 Si02
#       7
#     4   4   4   4   4   4   2
#     4  10  20  37  64  87 119 151 198 245 294 362
#     4   9  18  34  54  83 134 162 178 231 298 361
#     4  10  22  39  63  81 109 165 200 240 296 338
#     4  10  20  38  62  85 128 154 188 247 298 351
#     4   9  20  36  56  91 119 155 198 238 290 353
#     4   9  18  32  56  94 118 150 187 233 296 353
#     4  10  20  42  60  80 122 154 200 252 296 340
#
# _framework density 19.788878
#
# number of rings (size 3 to 8) (size 9 to 14) (size 15 to 20)
#    0.000    2.462    1.538    0.923    0.000    5.538 
#    2.769    3.077    3.385    0.000    0.000    0.000 
#    0.000    0.000    0.000    0.000    0.000    0.000 
#
# Total GULP energy -144851.011619 kJ/mol
# GULP energy per Si atom -5571.192755 kJ/mol
# Density = 1.974384 g / cm^3
# Si number density = 19.788878 Si / 1000 Ang^3
#
#
#
# Elastic Constant Matrix: (Units=GPa)
#
#
# Indices 1 2 3 4 5 6 
#
# 1 57.9541 -7.0020 26.8854 0.0000 18.3817 0.0000
# 2 -7.0020 33.8533 4.3262 0.0000 -13.5975 0.0000
# 3 26.8854 4.3262 59.3729 0.0000 -10.5549 0.0000
# 4 0.0000 0.0000 0.0000 2.8386 0.0000 -1.7201
# 5 18.3817 -13.5975 -10.5549 0.0000 39.2302 0.0000
# 6 0.0000 0.0000 0.0000 -1.7201 0.0000 14.8382
#
#
#
# Elastic Compliance Matrix: (Units=1/GPa)
#
#
# Indices 1 2 3 4 5 6 
#
# 1 0.031864 0.001101 -0.017954 0.000000 -0.019379 0.000000
# 2 0.001101 0.034364 -0.001026 0.000000 0.011119 0.000000
# 3 -0.017954 -0.001026 0.027810 0.000000 0.015539 0.000000
# 4 0.000000 0.000000 0.000000 0.378907 0.000000 0.043923
# 5 -0.019379 0.011119 0.015539 0.000000 0.042605 0.000000
# 6 0.000000 0.000000 0.000000 0.043923 0.000000 0.072485
#
#
# Mechanical properties :
#
#
# Convention : Reuss Voigt Hill
#
# Bulk Modulus (GPa) = 17.15848 22.17771 19.66810
# Shear Modulus (GPa) = 7.77341 19.84612 13.80976
#
# Velocity S-wave (km/s) = 1.98411 3.17028 2.64456
# Velocity P-wave (km/s) = 3.73343 4.96311 4.39152
#
# Compressibility (1/GPa) = 0.05828023
#
# Stress axis : x y z
#
# Youngs Moduli (GPa) = 31.38386 29.10020 35.95860
#
# Poissons Ratio (x) = -0.03204 0.64559
# Poissons Ratio (y) = -0.03456 0.03689
# Poissons Ratio (z) = 0.56346 0.02985
#
# Static dielectric constant tensor:
#      x y z
#    x 1.721470 0.000000 0.028580 
#    y 0.000000 1.731560 0.000000 
#    z 0.028580 0.000000 1.721480 
# 
# From -- ./inp_files/76361.got.cif
#   From: 2010.05.17/outbox.cif.g08.bks.cpg/sg13_39_cif.got.tgz:76361.got - 2010.06.03 16:44:36.
