data_PCOD9230584
_publ_section_title
;
Structure prediction by ZEFSAII (Michael W. Deem and Ramdas Pophale) SiO2 
 PCOD9230584
Probable space group: P 2/C
;
_chemical_formula_sum "Si O2"
_cell_formula_units_Z 24
_cell_length_a 8.481963
_cell_length_b 12.292906
_cell_length_c 12.084949
_cell_angle_alpha 90.000000
_cell_angle_beta 87.549864
_cell_angle_gamma 90.000000
_cell_volume 1258.921194
_symmetry_space_group_name_H-M "P 2/C"
_symmetry_group_IT_number 13
_symmetry_cell_setting 'monoclinic'
loop_
_space_group_symop_operation_xyz
x,y,z
-x,y,1/2-z
-x,-y,-z
x,-y,1/2+z
loop_
_atom_site_type_symbol
_atom_site_label
_atom_site_fract_x
_atom_site_fract_y
_atom_site_fract_z
Si Si1 0.055480 0.080539 0.355825
Si Si2 0.600500 0.442969 0.348345
Si Si3 0.550513 0.859528 0.377283
Si Si4 0.261232 0.946662 0.520469
Si Si5 0.327681 0.358930 0.516101
Si Si6 0.158574 0.683168 0.800839
O O1 0.141116 0.187839 0.310718
O O2 0.000000 0.013450 0.250000
O O3 0.891820 0.110785 0.422130
O O4 0.176862 0.018605 0.428762
O O5 0.500000 0.493603 0.250000
O O6 0.486975 0.388477 0.442491
O O7 0.697117 0.539721 0.401831
O O8 0.702864 0.352310 0.284537
O O9 0.500000 0.851311 0.250000
O O10 0.394577 0.873703 0.459028
O O11 0.644525 0.753516 0.418946
O O12 0.653114 0.968872 0.398328
O O13 0.196061 0.353248 0.424619
O O14 0.000000 0.639001 0.750000
#
# Coordination Sequence:
#
# PCOD9230584 Si02
#       6
#     4   4   4   4   4   4
#     4  10  20  37  59  84 122 158 187 237 290 351
#     4   9  20  38  61  88 114 152 194 245 295 345
#     4  11  22  37  58  88 115 156 198 242 288 349
#     4  10  22  38  57  87 122 154 195 241 287 345
#     4  10  20  38  60  84 119 152 195 246 293 343
#     4  10  21  36  60  88 115 155 197 238 293 351
#
# _framework density 19.063942000000001
#
# number of rings (size 3 to 8) (size 9 to 14) (size 15 to 20)
#    0.000    2.000    1.667    1.500    4.667    0.667 
#    0.000    0.000    3.667    0.000    0.000    0.000 
#    0.000    0.000    0.000    0.000    0.000    0.000 
#
# Total GULP energy -133767.371270 kJ/mol
# GULP energy per Si atom -5573.640470 kJ/mol
# Density = 1.902055 g / cm^3
# Si number density = 19.063942 Si / 1000 Ang^3
#
#
#
# Elastic Constant Matrix: (Units=GPa)
#
#
# Indices 1 2 3 4 5 6 
#
# 1 57.7268 14.3146 23.3357 0.0000 19.2507 0.0000
# 2 14.3146 71.4967 41.7704 0.0000 6.8745 0.0000
# 3 23.3357 41.7704 112.6253 0.0000 29.6232 0.0000
# 4 0.0000 0.0000 0.0000 28.4604 0.0000 -0.2697
# 5 19.2507 6.8745 29.6232 0.0000 36.9328 0.0000
# 6 0.0000 0.0000 0.0000 -0.2697 0.0000 19.7174
#
#
#
# Elastic Compliance Matrix: (Units=1/GPa)
#
#
# Indices 1 2 3 4 5 6 
#
# 1 0.021752 -0.002947 -0.000730 0.000000 -0.010204 0.000000
# 2 -0.002947 0.018442 -0.007262 0.000000 0.003929 0.000000
# 3 -0.000730 -0.007262 0.014281 0.000000 -0.009722 0.000000
# 4 0.000000 0.000000 0.000000 0.035141 0.000000 0.000481
# 5 -0.010204 0.003929 -0.009722 0.000000 0.039461 0.000000
# 6 0.000000 0.000000 0.000000 0.000481 0.000000 0.050723
#
#
# Mechanical properties :
#
#
# Convention : Reuss Voigt Hill
#
# Bulk Modulus (GPa) = 30.67955 44.52113 37.60034
# Shear Modulus (GPa) = 23.52447 27.85066 25.68757
#
# Velocity S-wave (km/s) = 3.51661 3.82633 3.67474
# Velocity P-wave (km/s) = 5.71110 6.55174 6.14581
#
# Compressibility (1/GPa) = 0.03259501
#
# Stress axis : x y z
#
# Youngs Moduli (GPa) = 45.97350 54.22432 70.02377
#
# Poissons Ratio (x) = 0.15982 0.05111
# Poissons Ratio (y) = 0.13550 0.50854
# Poissons Ratio (z) = 0.03356 0.39380
#
# Static dielectric constant tensor:
#      x y z
#    x 1.686370 0.000000 0.023530 
#    y 0.000000 1.645680 0.000000 
#    z 0.023530 0.000000 1.718210 
# 
# From -- ./inp_files/29461.got.cif
#   From: 2010.05.17/outbox.cif.g08.bks.cpg/sg13_15_cif.got.tgz:29461.got - 2010.06.03 16:44:36.
