data_PCOD9230645
_publ_section_title
;
Structure prediction by ZEFSAII (Michael W. Deem and Ramdas Pophale) SiO2 
 PCOD9230645
Probable space group: P 2/C
;
_chemical_formula_sum "Si O2"
_cell_formula_units_Z 24
_cell_length_a 13.946088
_cell_length_b 9.538896
_cell_length_c 12.753374
_cell_angle_alpha 90.000000
_cell_angle_beta 31.189491
_cell_angle_gamma 90.000000
_cell_volume 878.610641
_symmetry_space_group_name_H-M "P 2/C"
_symmetry_group_IT_number 13
_symmetry_cell_setting 'monoclinic'
loop_
_space_group_symop_operation_xyz
x,y,z
-x,y,1/2-z
-x,-y,-z
x,-y,1/2+z
loop_
_atom_site_type_symbol
_atom_site_label
_atom_site_fract_x
_atom_site_fract_y
_atom_site_fract_z
Si Si1 0.866679 0.404303 0.280034
Si Si2 0.613603 0.846228 0.474733
Si Si3 0.508400 0.541207 0.612950
Si Si4 0.633322 0.095695 0.719964
Si Si5 0.991604 0.041205 0.887046
Si Si6 0.886396 0.653773 0.525267
O O1 0.656505 0.428150 0.515024
O O2 0.874967 0.319815 0.162367
O O3 0.000000 0.360709 0.250000
O O4 0.943161 0.555332 0.166638
O O5 0.592230 0.696495 0.547311
O O6 0.443157 0.944665 0.666642
O O7 0.625033 0.819817 0.337633
O O8 0.794066 0.933276 0.339582
O O9 0.500000 0.500000 0.500000
O O10 0.294071 0.566730 0.839578
O O11 0.500000 0.139288 0.750000
O O12 0.843497 0.071850 0.484973
O O13 0.907778 0.196494 0.952681
O O14 0.000000 0.000000 0.000000
#
# Coordination Sequence:
#
# PCOD9230645 Si02
#       6
#     4   4   4   4   4   4
#     4  10  22  38  60  86 113 150 194 235 280 335
#     4  10  20  39  60  80 119 152 186 236 285 334
#     4  10  20  37  61  83 116 155 186 228 292 337
#     4  10  22  38  60  86 113 150 194 235 280 335
#     4  10  20  37  61  83 116 155 186 228 292 337
#     4  10  20  39  60  80 119 152 186 236 285 334
#
# _framework density 27.315850999999999
#
# number of rings (size 3 to 8) (size 9 to 14) (size 15 to 20)
#    0.000    2.000    3.333    0.000    0.000    2.667 
#    0.000    6.667    0.000    0.000    0.000    0.000 
#    0.000    0.000    0.000    0.000    0.000    0.000 
#
# Total GULP energy -134258.193528 kJ/mol
# GULP energy per Si atom -5594.091397 kJ/mol
# Density = 2.725368 g / cm^3
# Si number density = 27.315851 Si / 1000 Ang^3
#
#
#
# Elastic Constant Matrix: (Units=GPa)
#
#
# Indices 1 2 3 4 5 6 
#
# 1 206.9400 0.6943 26.5198 0.0000 8.7921 0.0000
# 2 0.6943 64.9408 7.6754 0.0000 0.9168 0.0000
# 3 26.5198 7.6754 90.6889 0.0000 -45.3801 0.0000
# 4 0.0000 0.0000 0.0000 25.7374 0.0000 -6.7983
# 5 8.7921 0.9168 -45.3801 0.0000 52.0717 0.0000
# 6 0.0000 0.0000 0.0000 -6.7983 0.0000 16.1637
#
#
#
# Elastic Compliance Matrix: (Units=1/GPa)
#
#
# Indices 1 2 3 4 5 6 
#
# 1 0.005489 0.000443 -0.003742 0.000000 -0.004196 0.000000
# 2 0.000443 0.015779 -0.002911 0.000000 -0.002889 0.000000
# 3 -0.003742 -0.002911 0.022537 0.000000 0.020324 0.000000
# 4 0.000000 0.000000 0.000000 0.043710 0.000000 0.018384
# 5 -0.004196 -0.002889 0.020324 0.000000 0.037676 0.000000
# 6 0.000000 0.000000 0.000000 0.018384 0.000000 0.069599
#
#
# Mechanical properties :
#
#
# Convention : Reuss Voigt Hill
#
# Bulk Modulus (GPa) = 31.86212 48.03874 39.95043
# Shear Modulus (GPa) = 22.97039 40.63989 31.80514
#
# Velocity S-wave (km/s) = 2.90300 3.86136 3.41596
# Velocity P-wave (km/s) = 4.78813 6.12410 5.49686
#
# Compressibility (1/GPa) = 0.03138523
#
# Stress axis : x y z
#
# Youngs Moduli (GPa) = 182.19484 63.37655 44.37062
#
# Poissons Ratio (x) = -0.02806 0.16603
# Poissons Ratio (y) = -0.08068 0.12915
# Poissons Ratio (z) = 0.68177 0.18447
#
# Static dielectric constant tensor:
#      x y z
#    x 2.183480 0.000000 0.020000 
#    y 0.000000 2.040030 0.000000 
#    z 0.020000 0.000000 2.102920 
# 
# From -- ./inp_files/53608.got.cif
#   From: 2010.05.17/outbox.cif.g08.bks.cpg/sg13_27_cif.got.tgz:53608.got - 2010.06.03 16:44:36.
