data_PCOD9230726
_publ_section_title
;
Structure prediction by ZEFSAII (Michael W. Deem and Ramdas Pophale) SiO2 
 PCOD9230726
Probable space group: P 2/C
;
_chemical_formula_sum "Si O2"
_cell_formula_units_Z 26
_cell_length_a 21.195255
_cell_length_b 5.258007
_cell_length_c 30.078841
_cell_angle_alpha 90.000000
_cell_angle_beta 19.987087
_cell_angle_gamma 90.000000
_cell_volume 1145.786166
_symmetry_space_group_name_H-M "P 2/C"
_symmetry_group_IT_number 13
_symmetry_cell_setting 'monoclinic'
loop_
_space_group_symop_operation_xyz
x,y,z
-x,y,1/2-z
-x,-y,-z
x,-y,1/2+z
loop_
_atom_site_type_symbol
_atom_site_label
_atom_site_fract_x
_atom_site_fract_y
_atom_site_fract_z
Si Si1 0.141135 0.928940 0.749706
Si Si2 0.171526 0.806856 0.483758
Si Si3 0.142470 0.521325 0.346563
Si Si4 0.835294 0.421595 0.825635
Si Si5 0.440898 0.583838 0.588817
Si Si6 0.195589 0.205382 0.395498
Si Si7 0.500000 0.522389 0.250000
O O1 0.127538 0.687545 0.724855
O O2 0.314120 0.835012 0.665719
O O3 0.947329 0.975937 0.903930
O O4 0.178903 0.185140 0.698512
O O5 0.366842 0.695265 0.368924
O O6 0.019792 0.590337 0.576558
O O7 0.210330 0.935372 0.410231
O O8 0.307909 0.598552 0.205228
O O9 0.216211 0.304050 0.331493
O O10 0.022920 0.728647 0.451716
O O11 0.000000 0.377235 0.750000
O O12 0.638768 0.412055 0.980943
O O13 0.500000 0.500000 0.500000
O O14 0.353370 0.361489 0.318383
#
# Coordination Sequence:
#
# PCOD9230726 Si02
#       7
#     4   4   4   4   4   4   2
#     4  10  23  40  68  88 126 172 217 261 323 389
#     4  10  21  37  60  87 122 164 209 259 320 384
#     4   9  20  38  59  92 115 163 209 268 310 371
#     4  11  23  42  63  95 130 165 213 272 326 382
#     4   9  20  39  63  92 124 164 220 262 319 385
#     4  10  20  37  63  83 127 157 210 260 316 376
#     4  10  22  36  54  90 122 166 204 252 322 390
#
# _framework density 22.691845000000001
#
# number of rings (size 3 to 8) (size 9 to 14) (size 15 to 20)
#    0.000    2.154    0.000    1.846    8.615    1.231 
#    5.538    0.000    0.000    0.000    0.000    0.000 
#    0.000    0.000    0.000    0.000    0.000    0.000 
#
# Total GULP energy -144818.366690 kJ/mol
# GULP energy per Si atom -5569.937180 kJ/mol
# Density = 2.264020 g / cm^3
# Si number density = 22.691845 Si / 1000 Ang^3
#
#
#
# Elastic Constant Matrix: (Units=GPa)
#
#
# Indices 1 2 3 4 5 6 
#
# 1 63.8794 13.1141 54.1357 0.0000 -11.9921 0.0000
# 2 13.1141 77.5572 24.5105 0.0000 -1.3613 0.0000
# 3 54.1357 24.5105 188.8452 0.0000 -20.0486 0.0000
# 4 0.0000 0.0000 0.0000 16.5468 0.0000 -1.1928
# 5 -11.9921 -1.3613 -20.0486 0.0000 39.0488 0.0000
# 6 0.0000 0.0000 0.0000 -1.1928 0.0000 25.6100
#
#
#
# Elastic Compliance Matrix: (Units=1/GPa)
#
#
# Indices 1 2 3 4 5 6 
#
# 1 0.021381 -0.001811 -0.005504 0.000000 0.003677 0.000000
# 2 -0.001811 0.013606 -0.001328 0.000000 -0.000764 0.000000
# 3 -0.005504 -0.001328 0.007257 0.000000 0.001989 0.000000
# 4 0.000000 0.000000 0.000000 0.060638 0.000000 0.002824
# 5 0.003677 -0.000764 0.001989 0.000000 0.027733 0.000000
# 6 0.000000 0.000000 0.000000 0.002824 0.000000 0.039179
#
#
# Mechanical properties :
#
#
# Convention : Reuss Voigt Hill
#
# Bulk Modulus (GPa) = 40.06733 57.08913 48.57823
# Shear Modulus (GPa) = 25.58869 32.14255 28.86562
#
# Velocity S-wave (km/s) = 3.36171 3.76770 3.57048
# Velocity P-wave (km/s) = 5.72395 6.64383 6.20097
#
# Compressibility (1/GPa) = 0.02495799
#
# Stress axis : x y z
#
# Youngs Moduli (GPa) = 46.77065 73.49580 137.80575
#
# Poissons Ratio (x) = 0.13313 0.75844
# Poissons Ratio (y) = 0.08472 0.18298
# Poissons Ratio (z) = 0.25741 0.09759
#
# Static dielectric constant tensor:
#      x y z
#    x 1.928880 0.000000 0.038720 
#    y 0.000000 1.947980 0.000000 
#    z 0.038720 0.000000 1.917340 
# 
# From -- ./inp_files/97438.got.cif
#   From: 2010.05.17/outbox.cif.g08.bks.cpg/sg13_49_cif.got.tgz:97438.got - 2010.06.03 16:44:36.
