data_PCOD9230690
_publ_section_title
;
Structure prediction by ZEFSAII (Michael W. Deem and Ramdas Pophale) SiO2 
 PCOD9230690
Probable space group: P 2/C
;
_chemical_formula_sum "Si O2"
_cell_formula_units_Z 30
_cell_length_a 12.329148
_cell_length_b 12.115339
_cell_length_c 13.857454
_cell_angle_alpha 90.000000
_cell_angle_beta 133.655937
_cell_angle_gamma 90.000000
_cell_volume 1497.578402
_symmetry_space_group_name_H-M "P 2/C"
_symmetry_group_IT_number 13
_symmetry_cell_setting 'monoclinic'
loop_
_space_group_symop_operation_xyz
x,y,z
-x,y,1/2-z
-x,-y,-z
x,-y,1/2+z
loop_
_atom_site_type_symbol
_atom_site_label
_atom_site_fract_x
_atom_site_fract_y
_atom_site_fract_z
Si Si1 0.998371 0.994507 0.863796
Si Si2 0.500000 0.035234 0.750000
Si Si3 0.075376 0.344290 0.606868
Si Si4 0.230224 0.202699 0.254780
Si Si5 0.207139 0.193532 0.020845
Si Si6 0.936345 0.585752 0.818555
Si Si7 0.551320 0.127348 0.461964
Si Si8 0.730989 0.137892 0.765044
O O1 0.880478 0.065066 0.853806
O O2 0.000000 0.010263 0.750000
O O3 0.921932 0.872029 0.827506
O O4 0.148024 0.066559 0.977686
O O5 0.637232 0.111149 0.801858
O O6 0.467010 0.961167 0.635566
O O7 0.099587 0.461512 0.671703
O O8 0.215561 0.263391 0.704409
O O9 0.933724 0.278118 0.567699
O O10 0.037423 0.367113 0.470323
O O11 0.269806 0.204960 0.166254
O O12 0.197172 0.326003 0.267097
O O13 0.383864 0.157829 0.393875
O O14 0.336044 0.214156 0.021634
O O15 0.000000 0.584212 0.750000
O O16 0.642513 0.101220 0.614793
#
# Coordination Sequence:
#
# PCOD9230690 Si02
#       8
#     4   2   4   4   4   4   4   4
#     4  11  20  34  57  90 122 160 216 258 311 390
#     4  12  24  40  58  90 142 172 210 264 318 412
#     4   9  23  43  67  96 123 162 231 273 319 388
#     4  11  22  37  55  93 130 165 212 267 329 387
#     4  10  20  37  62  86 121 166 218 269 314 389
#     4  10  22  42  69  93 124 168 218 282 327 371
#     4  12  22  38  61  94 129 178 213 256 340 396
#     4  11  24  40  64  94 128 175 214 265 331 391
#
# _framework density 20.032340000000001
#
# number of rings (size 3 to 8) (size 9 to 14) (size 15 to 20)
#    0.000    1.333    4.000    1.200    1.867    3.200 
#    0.000    0.667    8.800    0.000    0.000    0.000 
#    0.000    0.000    0.000    0.000    0.000    0.000 
#
# Total GULP energy -167106.595276 kJ/mol
# GULP energy per Si atom -5570.219843 kJ/mol
# Density = 1.998675 g / cm^3
# Si number density = 20.032340 Si / 1000 Ang^3
#
#
#
# Elastic Constant Matrix: (Units=GPa)
#
#
# Indices 1 2 3 4 5 6 
#
# 1 103.1417 54.6458 17.5699 0.0000 -10.6602 0.0000
# 2 54.6458 128.2164 38.0852 0.0000 12.8161 0.0000
# 3 17.5699 38.0852 43.0461 0.0000 5.4172 0.0000
# 4 0.0000 0.0000 0.0000 -10.6766 0.0000 -39.2060
# 5 -10.6602 12.8161 5.4172 0.0000 33.7847 0.0000
# 6 0.0000 0.0000 0.0000 -39.2060 0.0000 -55.3499
#
#
#
# Elastic Compliance Matrix: (Units=1/GPa)
#
#
# Indices 1 2 3 4 5 6 
#
# 1 0.013945 -0.006360 -0.000941 0.000000 0.006964 0.000000
# 2 -0.006360 0.013702 -0.008798 0.000000 -0.005794 0.000000
# 3 -0.000941 -0.008798 0.031656 0.000000 -0.002035 0.000000
# 4 0.000000 0.000000 0.000000 0.058500 0.000000 -0.041437
# 5 0.006964 -0.005794 -0.002035 0.000000 0.034321 0.000000
# 6 0.000000 0.000000 0.000000 -0.041437 0.000000 0.011284
#
#
# Mechanical properties :
#
#
# Convention : Reuss Voigt Hill
#
# Bulk Modulus (GPa) = 36.89472 55.00066 45.94769
# Shear Modulus (GPa) = 24.43302 4.49186 14.46244
#
# Velocity S-wave (km/s) = 3.49618 1.49906 2.68984
# Velocity P-wave (km/s) = 5.89536 5.52375 5.71257
#
# Compressibility (1/GPa) = 0.02710415
#
# Stress axis : x y z
#
# Youngs Moduli (GPa) = 71.71049 72.97970 31.58997
#
# Poissons Ratio (x) = 0.46414 0.02974
# Poissons Ratio (y) = 0.45606 0.27794
# Poissons Ratio (z) = 0.06750 0.64210
#
# Static dielectric constant tensor:
#      x y z
#    x 1.758450 0.000000 0.052100 
#    y 0.000000 1.723130 0.000000 
#    z 0.052100 0.000000 1.766790 
# 
# From -- ./inp_files/51209.got.cif
#   From: 2010.05.17/outbox.cif.g08.bks.cpg/sg13_26_cif.got.tgz:51209.got - 2010.06.03 16:44:36.
