data_PCOD9230899
_publ_section_title
;
Structure prediction by ZEFSAII (Michael W. Deem and Ramdas Pophale) SiO2 
 PCOD9230899
Probable space group: P 2/C
;
_chemical_formula_sum "Si O2"
_cell_formula_units_Z 24
_cell_length_a 12.283037
_cell_length_b 4.927868
_cell_length_c 14.629647
_cell_angle_alpha 90.000000
_cell_angle_beta 94.616590
_cell_angle_gamma 90.000000
_cell_volume 882.647640
_symmetry_space_group_name_H-M "P 2/C"
_symmetry_group_IT_number 13
_symmetry_cell_setting 'monoclinic'
loop_
_space_group_symop_operation_xyz
x,y,z
-x,y,1/2-z
-x,-y,-z
x,-y,1/2+z
loop_
_atom_site_type_symbol
_atom_site_label
_atom_site_fract_x
_atom_site_fract_y
_atom_site_fract_z
Si Si1 0.387948 0.302735 0.157363
Si Si2 0.431991 0.812303 0.063548
Si Si3 0.863686 0.260712 0.429971
Si Si4 0.239224 0.960962 0.925459
Si Si5 0.084393 0.250776 0.674383
Si Si6 0.722176 0.455237 0.689817
O O1 0.453060 0.507099 0.095228
O O2 0.264255 0.290882 0.107409
O O3 0.374931 0.415690 0.257988
O O4 0.427557 0.996775 0.153630
O O5 0.500000 0.000000 0.000000
O O6 0.313452 0.817410 0.006899
O O7 0.858279 0.118192 0.528938
O O8 0.919311 0.546583 0.412310
O O9 0.916305 0.051660 0.362627
O O10 0.303026 0.211528 0.881570
O O11 0.218587 0.713415 0.854531
O O12 0.198922 0.311073 0.732211
O O13 0.000000 0.298588 0.750000
#
# Coordination Sequence:
#
# PCOD9230899 Si02
#       6
#     4   4   4   4   4   4
#     4  10  20  38  60  82 112 156 191 221 281 358
#     4  11  22  39  60  85 114 150 190 233 282 342
#     4  10  20  38  60  82 114 158 194 227 287 363
#     4  11  21  37  59  85 112 148 192 237 283 339
#     4  11  22  39  60  85 115 154 196 240 289 346
#     4  11  21  37  59  85 112 148 193 238 281 340
#
# _framework density 27.190920999999999
#
# number of rings (size 3 to 8) (size 9 to 14) (size 15 to 20)
#    0.000    1.333    0.000   11.000    0.000    0.000 
#    0.000   10.000    0.000    0.000    0.000    0.000 
#    0.000    0.000    0.000    0.000    0.000    0.000 
#
# Total GULP energy -134419.506256 kJ/mol
# GULP energy per Si atom -5600.812761 kJ/mol
# Density = 2.712903 g / cm^3
# Si number density = 27.190921 Si / 1000 Ang^3
#
#
#
# Elastic Constant Matrix: (Units=GPa)
#
#
# Indices 1 2 3 4 5 6 
#
# 1 50.6903 -2.1599 13.6941 0.0000 2.7264 0.0000
# 2 -2.1599 151.8659 25.0284 0.0000 0.5510 0.0000
# 3 13.6941 25.0284 98.8046 0.0000 -3.1879 0.0000
# 4 0.0000 0.0000 0.0000 36.1828 0.0000 -26.0659
# 5 2.7264 0.5510 -3.1879 0.0000 35.3258 0.0000
# 6 0.0000 0.0000 0.0000 -26.0659 0.0000 23.5527
#
#
#
# Elastic Compliance Matrix: (Units=1/GPa)
#
#
# Indices 1 2 3 4 5 6 
#
# 1 0.020713 0.000819 -0.003139 0.000000 -0.001895 0.000000
# 2 0.000819 0.006906 -0.001874 0.000000 -0.000340 0.000000
# 3 -0.003139 -0.001874 0.011072 0.000000 0.001271 0.000000
# 4 0.000000 0.000000 0.000000 0.136323 0.000000 0.150869
# 5 -0.001895 -0.000340 0.001271 0.000000 0.028574 0.000000
# 6 0.000000 0.000000 0.000000 0.150869 0.000000 0.209426
#
#
# Mechanical properties :
#
#
# Convention : Reuss Voigt Hill
#
# Bulk Modulus (GPa) = 33.00114 41.60957 37.30536
# Shear Modulus (GPa) = 11.58741 36.66547 24.12644
#
# Velocity S-wave (km/s) = 2.06658 3.67610 2.98199
# Velocity P-wave (km/s) = 4.22581 5.77532 5.06023
#
# Compressibility (1/GPa) = 0.03030198
#
# Stress axis : x y z
#
# Youngs Moduli (GPa) = 48.27999 144.79165 90.31974
#
# Poissons Ratio (x) = -0.11856 0.28354
# Poissons Ratio (y) = -0.03953 0.16926
# Poissons Ratio (z) = 0.15156 0.27133
#
# Static dielectric constant tensor:
#      x y z
#    x 2.214310 0.000000 0.006940 
#    y 0.000000 1.997340 0.000000 
#    z 0.006940 0.000000 2.171000 
# 
# From -- ./inp_files/52186.got.cif
#   From: 2010.05.17/outbox.cif.g08.bks.cpg/sg13_27_cif.got.tgz:52186.got - 2010.06.03 16:44:36.
