data_PCOD9230091
_publ_section_title
;
Structure prediction by ZEFSAII (Michael W. Deem and Ramdas Pophale) SiO2 
 PCOD9230091
Probable space group: P 2/C
;
_chemical_formula_sum "Si O2"
_cell_formula_units_Z 28
_cell_length_a 24.044731
_cell_length_b 9.631031
_cell_length_c 22.612465
_cell_angle_alpha 90.000000
_cell_angle_beta 162.653505
_cell_angle_gamma 90.000000
_cell_volume 1561.258363
_symmetry_space_group_name_H-M "P 2/C"
_symmetry_group_IT_number 13
_symmetry_cell_setting 'monoclinic'
loop_
_space_group_symop_operation_xyz
x,y,z
-x,y,1/2-z
-x,-y,-z
x,-y,1/2+z
loop_
_atom_site_type_symbol
_atom_site_label
_atom_site_fract_x
_atom_site_fract_y
_atom_site_fract_z
Si Si1 0.304942 0.068489 0.781844
Si Si2 0.292690 0.017503 0.064534
Si Si3 0.920442 0.270506 0.603074
Si Si4 0.818407 0.158896 0.160637
Si Si5 0.389026 0.781926 0.249153
Si Si6 0.083491 0.588671 0.901035
Si Si7 0.957118 0.913855 0.378647
O O1 0.350847 0.183600 0.778730
O O2 0.163730 0.950378 0.612598
O O3 0.184561 0.131145 0.713695
O O4 0.500000 0.000000 0.000000
O O5 0.500000 0.030291 0.250000
O O6 0.289433 0.906960 0.113372
O O7 0.178097 0.942253 0.894443
O O8 0.243378 0.162561 0.045952
O O9 0.905086 0.429343 0.566754
O O10 0.000000 0.281625 0.750000
O O11 0.033804 0.190900 0.667142
O O12 0.876683 0.058971 0.272797
O O13 0.949633 0.294097 0.293815
O O14 0.606264 0.208827 0.953791
O O15 0.290418 0.647943 0.121633
O O16 0.000000 0.587650 0.750000
#
# Coordination Sequence:
#
# PCOD9230091 Si02
#       7
#     4   4   4   4   4   4   4
#     4  11  22  37  61  92 115 151 205 258 291 336
#     4  10  20  35  61  90 115 149 196 246 296 351
#     4  11  22  39  59  89 124 157 189 239 303 364
#     4  11  20  37  63  90 116 150 197 246 298 351
#     4  11  21  38  62  86 118 156 196 248 291 349
#     4  11  23  38  57  88 129 157 188 235 302 369
#     4  11  22  37  64  89 117 151 201 253 292 346
#
# _framework density 17.934251
#
# number of rings (size 3 to 8) (size 9 to 14) (size 15 to 20)
#    0.000    1.143    7.143    0.000    0.000    0.000 
#    5.143    0.714    0.000    1.714    0.000    0.000 
#    0.000    0.000    0.000    0.000    0.000    0.000 
#
# Total GULP energy -155877.100753 kJ/mol
# GULP energy per Si atom -5567.039313 kJ/mol
# Density = 1.789343 g / cm^3
# Si number density = 17.934251 Si / 1000 Ang^3
#
#
#
# Elastic Constant Matrix: (Units=GPa)
#
#
# Indices 1 2 3 4 5 6 
#
# 1 110.0801 33.5989 20.2495 0.0000 4.6681 0.0000
# 2 33.5989 126.3269 28.5782 0.0000 6.2036 0.0000
# 3 20.2495 28.5782 93.5572 0.0000 6.7853 0.0000
# 4 0.0000 0.0000 0.0000 7.5744 0.0000 -4.6409
# 5 4.6681 6.2036 6.7853 0.0000 22.8682 0.0000
# 6 0.0000 0.0000 0.0000 -4.6409 0.0000 14.8436
#
#
#
# Elastic Compliance Matrix: (Units=1/GPa)
#
#
# Indices 1 2 3 4 5 6 
#
# 1 0.010093 -0.002317 -0.001403 0.000000 -0.001015 0.000000
# 2 -0.002317 0.009091 -0.002178 0.000000 -0.001347 0.000000
# 3 -0.001403 -0.002178 0.011849 0.000000 -0.002639 0.000000
# 4 0.000000 0.000000 0.000000 0.163307 0.000000 0.051058
# 5 -0.001015 -0.001347 -0.002639 0.000000 0.045084 0.000000
# 6 0.000000 0.000000 0.000000 0.051058 0.000000 0.083332
#
#
# Mechanical properties :
#
#
# Convention : Reuss Voigt Hill
#
# Bulk Modulus (GPa) = 51.98351 54.97973 53.48162
# Shear Modulus (GPa) = 14.66428 25.55975 20.11202
#
# Velocity S-wave (km/s) = 2.86259 3.77927 3.35241
# Velocity P-wave (km/s) = 6.32254 7.05455 6.69855
#
# Compressibility (1/GPa) = 0.01923687
#
# Stress axis : x y z
#
# Youngs Moduli (GPa) = 99.08189 109.99825 84.39591
#
# Poissons Ratio (x) = 0.25487 0.11841
# Poissons Ratio (y) = 0.22958 0.18380
# Poissons Ratio (z) = 0.13902 0.23955
#
# Static dielectric constant tensor:
#      x y z
#    x 1.648910 0.000000 -0.012500 
#    y 0.000000 1.625290 0.000000 
#    z -0.012500 0.000000 1.676350 
# 
# From -- ./inp_files/82223.got.cif
#   From: 2010.05.17/outbox.cif.g08.bks.cpg/sg13_42_cif.got.tgz:82223.got - 2010.06.03 16:44:36.
