data_PCOD9230490
_publ_section_title
;
Structure prediction by ZEFSAII (Michael W. Deem and Ramdas Pophale) SiO2 
 PCOD9230490
Probable space group: P 2/C
;
_chemical_formula_sum "Si O2"
_cell_formula_units_Z 28
_cell_length_a 9.102130
_cell_length_b 14.202042
_cell_length_c 11.674779
_cell_angle_alpha 90.000000
_cell_angle_beta 116.565945
_cell_angle_gamma 90.000000
_cell_volume 1349.845617
_symmetry_space_group_name_H-M "P 2/C"
_symmetry_group_IT_number 13
_symmetry_cell_setting 'monoclinic'
loop_
_space_group_symop_operation_xyz
x,y,z
-x,y,1/2-z
-x,-y,-z
x,-y,1/2+z
loop_
_atom_site_type_symbol
_atom_site_label
_atom_site_fract_x
_atom_site_fract_y
_atom_site_fract_z
Si Si1 0.138895 0.366326 0.029986
Si Si2 0.108066 0.056011 0.177363
Si Si3 0.780757 0.707584 0.192114
Si Si4 0.229066 0.427978 0.612610
Si Si5 0.595419 0.271608 0.953874
Si Si6 0.186978 0.752882 0.764315
Si Si7 0.158929 0.138638 0.596568
O O1 0.237266 0.463347 0.083480
O O2 0.195416 0.294074 0.144827
O O3 0.152586 0.321835 0.908893
O O4 0.949522 0.391895 0.992884
O O5 0.224359 0.136877 0.265295
O O6 0.000000 0.025813 0.250000
O O7 0.195597 0.964388 0.159079
O O8 0.993878 0.110827 0.042055
O O9 0.774902 0.607943 0.258208
O O10 0.596553 0.746064 0.110556
O O11 0.863085 0.786914 0.305247
O O12 0.369122 0.366010 0.604472
O O13 0.699911 0.188775 0.928883
O O14 0.680823 0.289188 0.104503
O O15 0.000000 0.744370 0.750000
#
# Coordination Sequence:
#
# PCOD9230490 Si02
#       7
#     4   4   4   4   4   4   4
#     4  11  24  39  67  97 126 168 222 277 310 376
#     4  10  20  36  67 100 121 160 224 271 313 375
#     4  11  25  42  63  98 135 170 213 263 331 392
#     4  10  22  40  64  94 125 170 219 267 318 376
#     4  11  22  43  67  89 133 180 207 258 336 393
#     4  11  20  41  65  90 128 170 215 270 323 378
#     4  10  20  38  65  94 126 167 211 264 322 386
#
# _framework density 20.743110999999999
#
# number of rings (size 3 to 8) (size 9 to 14) (size 15 to 20)
#    0.000    1.429    4.286    3.000    2.000    5.714 
#    2.571    0.714    3.143    0.000    0.000    0.000 
#    0.000    0.000    0.000    0.000    0.000    0.000 
#
# Total GULP energy -156155.657867 kJ/mol
# GULP energy per Si atom -5576.987781 kJ/mol
# Density = 2.069590 g / cm^3
# Si number density = 20.743111 Si / 1000 Ang^3
#
#
#
# Elastic Constant Matrix: (Units=GPa)
#
#
# Indices 1 2 3 4 5 6 
#
# 1 39.9097 34.3177 14.4878 0.0000 -1.6550 0.0000
# 2 34.3177 96.7917 18.1113 0.0000 -5.8547 0.0000
# 3 14.4878 18.1113 95.4913 0.0000 -20.3918 0.0000
# 4 0.0000 0.0000 0.0000 23.9464 0.0000 1.9794
# 5 -1.6550 -5.8547 -20.3918 0.0000 34.2792 0.0000
# 6 0.0000 0.0000 0.0000 1.9794 0.0000 1.3060
#
#
#
# Elastic Compliance Matrix: (Units=1/GPa)
#
#
# Indices 1 2 3 4 5 6 
#
# 1 0.037193 -0.012633 -0.003808 0.000000 -0.002627 0.000000
# 2 -0.012633 0.015018 -0.000589 0.000000 0.001605 0.000000
# 3 -0.003808 -0.000589 0.012716 0.000000 0.007280 0.000000
# 4 0.000000 0.000000 0.000000 0.047741 0.000000 -0.072355
# 5 -0.002627 0.001605 0.007280 0.000000 0.033650 0.000000
# 6 0.000000 0.000000 0.000000 -0.072355 0.000000 0.875356
#
#
# Mechanical properties :
#
#
# Convention : Reuss Voigt Hill
#
# Bulk Modulus (GPa) = 32.39705 40.66958 36.53331
# Shear Modulus (GPa) = 4.69033 22.92473 13.80753
#
# Velocity S-wave (km/s) = 1.50534 3.32802 2.58281
# Velocity P-wave (km/s) = 4.32129 5.86656 5.15219
#
# Compressibility (1/GPa) = 0.03086701
#
# Stress axis : x y z
#
# Youngs Moduli (GPa) = 26.88680 66.58731 78.63980
#
# Poissons Ratio (x) = 0.84121 0.29944
# Poissons Ratio (y) = 0.33967 0.04632
# Poissons Ratio (z) = 0.10238 0.03922
#
# Static dielectric constant tensor:
#      x y z
#    x 1.776300 0.000000 -0.007810 
#    y 0.000000 1.736110 0.000000 
#    z -0.007810 0.000000 1.809900 
# 
# From -- ./inp_files/30479.got.cif
#   From: 2010.05.17/outbox.cif.g08.bks.cpg/sg13_16_cif.got.tgz:30479.got - 2010.06.03 16:44:36.
