data_PCOD9230331
_publ_section_title
;
Structure prediction by ZEFSAII (Michael W. Deem and Ramdas Pophale) SiO2 
 PCOD9230331
Probable space group: P 2/C
;
_chemical_formula_sum "Si O2"
_cell_formula_units_Z 28
_cell_length_a 17.188512
_cell_length_b 6.305132
_cell_length_c 12.626372
_cell_angle_alpha 90.000000
_cell_angle_beta 68.026762
_cell_angle_gamma 90.000000
_cell_volume 1268.991778
_symmetry_space_group_name_H-M "P 2/C"
_symmetry_group_IT_number 13
_symmetry_cell_setting 'monoclinic'
loop_
_space_group_symop_operation_xyz
x,y,z
-x,y,1/2-z
-x,-y,-z
x,-y,1/2+z
loop_
_atom_site_type_symbol
_atom_site_label
_atom_site_fract_x
_atom_site_fract_y
_atom_site_fract_z
Si Si1 0.135476 0.824078 0.546849
Si Si2 0.089294 0.472502 0.893061
Si Si3 0.780719 0.198418 0.086415
Si Si4 0.424227 0.459939 0.621637
Si Si5 0.500000 0.778406 0.750000
Si Si6 0.631481 0.891955 0.189477
Si Si7 0.000000 0.610584 0.750000
Si Si8 0.705985 0.568333 0.985860
O O1 0.130844 0.726709 0.430316
O O2 0.208567 0.699256 0.570731
O O3 0.050210 0.764623 0.646777
O O4 0.159838 0.065304 0.522451
O O5 0.155515 0.664079 0.875281
O O6 0.062970 0.465678 0.785050
O O7 0.000000 0.500000 0.000000
O O8 0.727778 0.360462 0.042156
O O9 0.715651 0.029418 0.170834
O O10 0.500000 0.500000 0.500000
O O11 0.447833 0.629941 0.698916
O O12 0.408286 0.234811 0.689880
O O13 0.340876 0.515164 0.598290
O O14 0.432109 0.940938 0.830749
O O15 0.651196 0.716000 0.091396
#
# Coordination Sequence:
#
# PCOD9230331 Si02
#       8
#     4   4   4   4   2   4   2   4
#     4   9  21  39  61  89 124 164 209 262 319 374
#     4   9  20  39  59  86 127 163 203 263 315 373
#     4  10  21  41  64  90 127 167 211 263 317 379
#     4  12  25  42  65  96 131 165 209 264 320 380
#     4  12  26  44  64  92 130 168 210 258 316 382
#     4  11  24  42  66  93 125 169 213 262 321 380
#     4  10  20  36  60  90 124 164 210 258 318 382
#     4  10  23  43  65  92 127 166 213 265 317 378
#
# _framework density 22.064758999999999
#
# number of rings (size 3 to 8) (size 9 to 14) (size 15 to 20)
#    0.000    1.714    0.000    3.857    0.000   12.571 
#    0.000   10.000    0.000    0.000    0.000    0.000 
#    0.000    0.000    0.000    0.000    0.000    0.000 
#
# Total GULP energy -156297.698466 kJ/mol
# GULP energy per Si atom -5582.060659 kJ/mol
# Density = 2.201454 g / cm^3
# Si number density = 22.064759 Si / 1000 Ang^3
#
#
#
# Elastic Constant Matrix: (Units=GPa)
#
#
# Indices 1 2 3 4 5 6 
#
# 1 142.3539 54.0420 28.2492 0.0000 33.9391 0.0000
# 2 54.0420 103.4145 35.6017 0.0000 18.2090 0.0000
# 3 28.2492 35.6017 62.8551 0.0000 7.4703 0.0000
# 4 0.0000 0.0000 0.0000 -0.0807 0.0000 -15.3808
# 5 33.9391 18.2090 7.4703 0.0000 36.8480 0.0000
# 6 0.0000 0.0000 0.0000 -15.3808 0.0000 19.7989
#
#
#
# Elastic Compliance Matrix: (Units=1/GPa)
#
#
# Indices 1 2 3 4 5 6 
#
# 1 0.010542 -0.003543 -0.001829 0.000000 -0.007588 0.000000
# 2 -0.003543 0.014042 -0.006070 0.000000 -0.002445 0.000000
# 3 -0.001829 -0.006070 0.020097 0.000000 0.000610 0.000000
# 4 0.000000 0.000000 0.000000 -0.083131 0.000000 -0.064580
# 5 -0.007588 -0.002445 0.000610 0.000000 0.035212 0.000000
# 6 0.000000 0.000000 0.000000 -0.064580 0.000000 0.000339
#
#
# Mechanical properties :
#
#
# Convention : Reuss Voigt Hill
#
# Bulk Modulus (GPa) = 45.88067 60.48992 53.18530
# Shear Modulus (GPa) = 183.47433 24.02861 103.75147
#
# Velocity S-wave (km/s) = 9.12870 3.30359 6.86465
# Velocity P-wave (km/s) = 11.48694 6.48273 9.32672
#
# Compressibility (1/GPa) = 0.02179567
#
# Stress axis : x y z
#
# Youngs Moduli (GPa) = 94.85958 71.21664 49.75747
#
# Poissons Ratio (x) = 0.25233 0.09102
# Poissons Ratio (y) = 0.33610 0.30204
# Poissons Ratio (z) = 0.17352 0.43231
#
# Static dielectric constant tensor:
#      x y z
#    x 1.842210 0.000000 -0.025520 
#    y 0.000000 1.804310 0.000000 
#    z -0.025520 0.000000 1.852740 
# 
# From -- ./inp_files/54456.got.cif
#   From: 2010.05.17/outbox.cif.g08.bks.cpg/sg13_28_cif.got.tgz:54456.got - 2010.06.03 16:44:36.
