data_PCOD9230813
_publ_section_title
;
Structure prediction by ZEFSAII (Michael W. Deem and Ramdas Pophale) SiO2 
 PCOD9230813
Probable space group: P 2/C
;
_chemical_formula_sum "Si O2"
_cell_formula_units_Z 30
_cell_length_a 22.320514
_cell_length_b 5.167530
_cell_length_c 20.021168
_cell_angle_alpha 90.000000
_cell_angle_beta 147.854062
_cell_angle_gamma 90.000000
_cell_volume 1228.716210
_symmetry_space_group_name_H-M "P 2/C"
_symmetry_group_IT_number 13
_symmetry_cell_setting 'monoclinic'
loop_
_space_group_symop_operation_xyz
x,y,z
-x,y,1/2-z
-x,-y,-z
x,-y,1/2+z
loop_
_atom_site_type_symbol
_atom_site_label
_atom_site_fract_x
_atom_site_fract_y
_atom_site_fract_z
Si Si1 0.122338 0.601224 0.331005
Si Si2 0.050241 0.763095 0.118206
Si Si3 0.726097 0.894107 0.520999
Si Si4 0.606865 0.401296 0.227741
Si Si5 0.828605 0.466978 0.378660
Si Si6 0.759211 0.103510 0.203540
Si Si7 0.500000 0.671125 0.250000
Si Si8 0.588870 0.118695 0.633509
O O1 0.099435 0.609712 0.228948
O O2 0.185752 0.337503 0.409657
O O3 0.000000 0.628481 0.250000
O O4 0.207966 0.836898 0.428738
O O5 0.092087 0.670133 0.084452
O O6 0.109823 0.037212 0.184288
O O7 0.916980 0.739183 0.992211
O O8 0.702467 0.879387 0.578596
O O9 0.607888 0.842223 0.373428
O O10 0.735570 0.512806 0.347238
O O11 0.542991 0.478916 0.233322
O O12 0.553232 0.599338 0.123388
O O13 0.603501 0.098798 0.205527
O O14 0.757144 0.342141 0.250954
O O15 0.701150 0.883624 0.194205
O O16 0.500000 0.000000 0.500000
#
# Coordination Sequence:
#
# PCOD9230813 Si02
#       8
#     4   4   4   4   4   4   2   4
#     4  11  25  47  72 107 141 194 244 305 372 451
#     4  10  20  37  68  97 141 174 230 295 369 429
#     4  11  26  46  74  99 148 193 249 304 365 447
#     4  11  26  44  67 102 142 188 239 302 361 444
#     4  10  20  39  64 105 132 181 225 300 361 438
#     4  10  20  40  65 100 136 180 236 298 368 430
#     4  12  30  52  72 108 152 210 256 302 374 454
#     4  11  23  42  71 100 135 177 241 301 371 431
#
# _framework density 24.415725999999999
#
# number of rings (size 3 to 8) (size 9 to 14) (size 15 to 20)
#    0.000    1.333    2.667    2.000    1.867    6.400 
#    2.400    0.000    0.000    0.000    0.000    0.000 
#    0.000    0.000    0.000    0.000    0.000    0.000 
#
# Total GULP energy -167612.074747 kJ/mol
# GULP energy per Si atom -5587.069158 kJ/mol
# Density = 2.436015 g / cm^3
# Si number density = 24.415726 Si / 1000 Ang^3
#
#
#
# Elastic Constant Matrix: (Units=GPa)
#
#
# Indices 1 2 3 4 5 6 
#
# 1 90.1475 14.2335 60.2917 0.0000 24.1270 0.0000
# 2 14.2335 102.8470 25.5165 0.0000 0.2721 0.0000
# 3 60.2917 25.5165 92.3181 0.0000 0.9088 0.0000
# 4 0.0000 0.0000 0.0000 26.9041 0.0000 13.4356
# 5 24.1270 0.2721 0.9088 0.0000 28.8557 0.0000
# 6 0.0000 0.0000 0.0000 13.4356 0.0000 15.3613
#
#
#
# Elastic Compliance Matrix: (Units=1/GPa)
#
#
# Indices 1 2 3 4 5 6 
#
# 1 0.031736 0.000811 -0.020695 0.000000 -0.025891 0.000000
# 2 0.000811 0.010460 -0.003414 0.000000 -0.000669 0.000000
# 3 -0.020695 -0.003414 0.025129 0.000000 0.016545 0.000000
# 4 0.000000 0.000000 0.000000 0.065995 0.000000 -0.057722
# 5 -0.025891 -0.000669 0.016545 0.000000 0.055789 0.000000
# 6 0.000000 0.000000 0.000000 -0.057722 0.000000 0.115584
#
#
# Mechanical properties :
#
#
# Convention : Reuss Voigt Hill
#
# Bulk Modulus (GPa) = 48.24592 53.93290 51.08941
# Shear Modulus (GPa) = 13.95876 26.57561 20.26718
#
# Velocity S-wave (km/s) = 2.39364 3.30277 2.88425
# Velocity P-wave (km/s) = 5.23855 6.05654 5.66234
#
# Compressibility (1/GPa) = 0.02072714
#
# Stress axis : x y z
#
# Youngs Moduli (GPa) = 31.51031 95.60451 39.79496
#
# Poissons Ratio (x) = -0.07754 0.82357
# Poissons Ratio (y) = -0.02556 0.13587
# Poissons Ratio (z) = 0.65212 0.32641
#
# Static dielectric constant tensor:
#      x y z
#    x 2.013450 0.000000 0.051190 
#    y 0.000000 2.005510 0.000000 
#    z 0.051190 0.000000 2.066100 
# 
# From -- ./inp_files/81976.got.cif
#   From: 2010.05.17/outbox.cif.g08.bks.cpg/sg13_41_cif.got.tgz:81976.got - 2010.06.03 16:44:36.
