data_PCOD9230138
_publ_section_title
;
Structure prediction by ZEFSAII (Michael W. Deem and Ramdas Pophale) SiO2 
 PCOD9230138
Probable space group: P 2/C
;
_chemical_formula_sum "Si O2"
_cell_formula_units_Z 24
_cell_length_a 11.693451
_cell_length_b 22.160346
_cell_length_c 5.281278
_cell_angle_alpha 90.000000
_cell_angle_beta 127.948527
_cell_angle_gamma 90.000000
_cell_volume 1079.182647
_symmetry_space_group_name_H-M "P 2/C"
_symmetry_group_IT_number 13
_symmetry_cell_setting 'monoclinic'
loop_
_space_group_symop_operation_xyz
x,y,z
-x,y,1/2-z
-x,-y,-z
x,-y,1/2+z
loop_
_atom_site_type_symbol
_atom_site_label
_atom_site_fract_x
_atom_site_fract_y
_atom_site_fract_z
Si Si1 0.500000 0.039805 0.750000
Si Si2 0.826145 0.041013 0.181698
Si Si3 0.000000 0.727496 0.750000
Si Si4 0.327350 0.210102 0.018359
Si Si5 0.836594 0.668835 0.149271
Si Si6 0.823090 0.465326 0.508582
Si Si7 0.169434 0.169602 0.279019
O O1 0.340233 0.067009 0.545491
O O2 0.500000 0.000000 0.500000
O O3 0.906398 0.104388 0.317392
O O4 0.846303 0.996681 0.449435
O O5 0.052493 0.775783 0.612577
O O6 0.874217 0.682244 0.494746
O O7 0.500000 0.206225 0.250000
O O8 0.262622 0.169520 0.151715
O O9 0.274739 0.276530 0.040964
O O10 0.259683 0.188918 0.656264
O O11 0.778296 0.603409 0.001995
O O12 0.000000 0.672038 0.250000
O O13 0.776643 0.491740 0.176072
O O14 0.000000 0.465053 0.750000
#
# Coordination Sequence:
#
# PCOD9230138 Si02
#       7
#     2   4   2   4   4   4   4
#     4   8  16  28  46  68  94 130 168 210 262 332
#     4  10  20  36  53  77 108 142 184 231 293 351
#     4  10  22  38  60  88 112 158 200 236 288 350
#     4  11  24  39  60  89 118 155 196 242 292 342
#     4  10  20  37  61  83 122 155 195 238 289 343
#     4   9  19  30  51  85 117 147 189 238 284 328
#     4  11  23  40  61  84 118 148 195 244 291 353
#
# _framework density 22.239052999999998
#
# number of rings (size 3 to 8) (size 9 to 14) (size 15 to 20)
#    0.000    2.000    1.667    1.500    8.167    0.000 
#    3.000    0.833    0.000    1.000    0.000    0.000 
#    0.000    0.000    0.000    0.000    0.000    0.000 
#
# Total GULP energy -133752.448929 kJ/mol
# GULP energy per Si atom -5573.018705 kJ/mol
# Density = 2.218844 g / cm^3
# Si number density = 22.239053 Si / 1000 Ang^3
#
#
#
# Elastic Constant Matrix: (Units=GPa)
#
#
# Indices 1 2 3 4 5 6 
#
# 1 78.9997 9.4807 13.0874 0.0000 -16.0461 0.0000
# 2 9.4807 161.1453 28.5848 0.0000 -26.6534 0.0000
# 3 13.0874 28.5848 76.6011 0.0000 -24.5120 0.0000
# 4 0.0000 0.0000 0.0000 20.0033 0.0000 -10.7914
# 5 -16.0461 -26.6534 -24.5120 0.0000 36.1700 0.0000
# 6 0.0000 0.0000 0.0000 -10.7914 0.0000 18.3749
#
#
#
# Elastic Compliance Matrix: (Units=1/GPa)
#
#
# Indices 1 2 3 4 5 6 
#
# 1 0.013938 0.000273 -0.000562 0.000000 0.006003 0.000000
# 2 0.000273 0.007166 -0.001267 0.000000 0.004543 0.000000
# 3 -0.000562 -0.001267 0.016913 0.000000 0.010279 0.000000
# 4 0.000000 0.000000 0.000000 0.073177 0.000000 0.042976
# 5 0.006003 0.004543 0.010279 0.000000 0.040624 0.000000
# 6 0.000000 0.000000 0.000000 0.042976 0.000000 0.079661
#
#
# Mechanical properties :
#
#
# Convention : Reuss Voigt Hill
#
# Bulk Modulus (GPa) = 28.65031 46.56133 37.60582
# Shear Modulus (GPa) = 20.30663 32.61585 26.46124
#
# Velocity S-wave (km/s) = 3.02504 3.83378 3.45317
# Velocity P-wave (km/s) = 5.01119 6.37019 5.73112
#
# Compressibility (1/GPa) = 0.03490364
#
# Stress axis : x y z
#
# Youngs Moduli (GPa) = 71.74606 139.55512 59.12782
#
# Poissons Ratio (x) = -0.03805 0.03323
# Poissons Ratio (y) = -0.01956 0.07491
# Poissons Ratio (z) = 0.04032 0.17680
#
# Static dielectric constant tensor:
#      x y z
#    x 1.999350 0.000000 -0.008990 
#    y 0.000000 1.786240 0.000000 
#    z -0.008990 0.000000 1.917730 
# 
# From -- ./inp_files/4019.got.cif
#   From: 2010.05.17/outbox.cif.g08.bks.cpg/sg13_3_cif.got.tgz:4019.got - 2010.06.03 16:44:36.
