data_PCOD9230172
_publ_section_title
;
Structure prediction by ZEFSAII (Michael W. Deem and Ramdas Pophale) SiO2 
 PCOD9230172
Probable space group: P 2/C
;
_chemical_formula_sum "Si O2"
_cell_formula_units_Z 32
_cell_length_a 8.662264
_cell_length_b 19.994990
_cell_length_c 13.566211
_cell_angle_alpha 90.000000
_cell_angle_beta 129.681389
_cell_angle_gamma 90.000000
_cell_volume 1808.340397
_symmetry_space_group_name_H-M "P 2/C"
_symmetry_group_IT_number 13
_symmetry_cell_setting 'monoclinic'
loop_
_space_group_symop_operation_xyz
x,y,z
-x,y,1/2-z
-x,-y,-z
x,-y,1/2+z
loop_
_atom_site_type_symbol
_atom_site_label
_atom_site_fract_x
_atom_site_fract_y
_atom_site_fract_z
Si Si1 0.426105 0.799751 0.610591
Si Si2 0.297584 0.051726 0.112272
Si Si3 0.926960 0.051726 0.112272
Si Si4 0.795077 0.799751 0.610591
Si Si5 0.295286 0.704811 0.109753
Si Si6 0.297223 0.450419 0.611278
Si Si7 0.074667 0.450419 0.888722
Si Si8 0.075779 0.704811 0.390247
O O1 0.500000 0.779694 0.750000
O O2 0.342348 0.875155 0.586658
O O3 0.614673 0.799473 0.614673
O O4 0.254424 0.751340 0.500124
O O5 0.500000 0.029201 0.250000
O O6 0.120081 0.057666 0.120081
O O7 0.224441 0.000000 1.000000
O O8 0.830968 0.124845 0.086658
O O9 0.000000 0.029201 0.250000
O O10 0.745824 0.751340 0.500124
O O11 0.000000 0.779694 0.750000
O O12 0.500000 0.723180 0.250000
O O13 0.315789 0.626972 0.086761
O O14 0.110248 0.709865 0.110248
O O15 0.500000 0.469695 0.750000
O O16 0.240171 0.500000 0.500000
O O17 0.115905 0.453210 0.615905
O O18 0.142267 0.373028 0.913239
O O19 0.000000 0.469694 0.750000
O O20 0.000000 0.723180 0.250000
#
# Coordination Sequence:
#
# PCOD9230172 Si02
#       8
#     4   4   4   4   4   4   4   4
#     4  11  22  37  57  80 109 143 180 222 268 318
#     4  10  21  37  57  81 109 140 177 220 265 316
#     4  10  21  37  57  81 109 140 177 220 265 316
#     4  11  22  37  57  80 109 143 180 222 268 318
#     4  10  20  36  56  79 109 142 180 223 268 319
#     4   9  19  35  54  78 107 139 176 219 265 315
#     4   9  19  35  54  78 107 139 176 219 265 315
#     4  10  20  36  56  79 109 142 180 223 268 319
#
# _framework density 17.695784
#
# number of rings (size 3 to 8) (size 9 to 14) (size 15 to 20)
#    0.000    2.000    0.000    5.250    0.000    5.500 
#    0.000    5.000    0.000    0.000    0.000    0.000 
#    0.000    0.000    0.000    0.000    0.000    0.000 
#
# Total GULP energy -178704.203683 kJ/mol
# GULP energy per Si atom -5584.506365 kJ/mol
# Density = 1.765551 g / cm^3
# Si number density = 17.695784 Si / 1000 Ang^3
#
#
#
# Elastic Constant Matrix: (Units=GPa)
#
#
# Indices 1 2 3 4 5 6 
#
# 1 85.3264 52.3665 73.6231 0.0000 3.9523 0.0000
# 2 52.3665 97.1700 130.4661 0.0000 5.0345 0.0000
# 3 73.6231 130.4661 207.3922 0.0000 3.9164 0.0000
# 4 0.0000 0.0000 0.0000 43.5220 0.0000 7.2436
# 5 3.9523 5.0345 3.9164 0.0000 36.5052 0.0000
# 6 0.0000 0.0000 0.0000 7.2436 0.0000 -68.8481
#
#
#
# Elastic Compliance Matrix: (Units=1/GPa)
#
#
# Indices 1 2 3 4 5 6 
#
# 1 0.017637 -0.006942 -0.001880 0.000000 -0.000750 0.000000
# 2 -0.006942 0.069778 -0.041348 0.000000 -0.004436 0.000000
# 3 -0.001880 -0.041348 0.031452 0.000000 0.002532 0.000000
# 4 0.000000 0.000000 0.000000 0.022581 0.000000 0.002376
# 5 -0.000750 -0.004436 0.002532 0.000000 0.027815 0.000000
# 6 0.000000 0.000000 0.000000 0.002376 0.000000 -0.014275
#
#
# Mechanical properties :
#
#
# Convention : Reuss Voigt Hill
#
# Bulk Modulus (GPa) = 53.97215 100.31110 77.14162
# Shear Modulus (GPa) = 19.12014 11.13138 15.12576
#
# Velocity S-wave (km/s) = 3.29065 2.51079 2.92681
# Velocity P-wave (km/s) = 6.70851 8.07558 7.42358
#
# Compressibility (1/GPa) = 0.01852807
#
# Stress axis : x y z
#
# Youngs Moduli (GPa) = 56.69953 14.33109 31.79420
#
# Poissons Ratio (x) = 0.09949 0.05976
# Poissons Ratio (y) = 0.39362 1.31462
# Poissons Ratio (z) = 0.10657 0.59256
#
# Static dielectric constant tensor:
#      x y z
#    x 1.592580 0.000000 -0.001070 
#    y 0.000000 1.588620 0.000000 
#    z -0.001070 0.000000 1.575970 
# 
# From -- ./inp_files/30817.got.cif
#   From: 2010.05.17/outbox.cif.g08.bks.cpg/sg13_16_cif.got.tgz:30817.got - 2010.06.03 16:44:36.
