data_PCOD9230192
_publ_section_title
;
Structure prediction by ZEFSAII (Michael W. Deem and Ramdas Pophale) SiO2 
 PCOD9230192
Probable space group: P 2/C
;
_chemical_formula_sum "Si O2"
_cell_formula_units_Z 18
_cell_length_a 10.167990
_cell_length_b 14.256166
_cell_length_c 10.482461
_cell_angle_alpha 90.000000
_cell_angle_beta 36.349727
_cell_angle_gamma 90.000000
_cell_volume 900.627363
_symmetry_space_group_name_H-M "P 2/C"
_symmetry_group_IT_number 13
_symmetry_cell_setting 'monoclinic'
loop_
_space_group_symop_operation_xyz
x,y,z
-x,y,1/2-z
-x,-y,-z
x,-y,1/2+z
loop_
_atom_site_type_symbol
_atom_site_label
_atom_site_fract_x
_atom_site_fract_y
_atom_site_fract_z
Si Si1 0.500000 0.609487 0.250000
Si Si2 0.927500 0.654315 0.060578
Si Si3 0.973452 0.140080 0.923308
Si Si4 0.359353 0.986175 0.237384
Si Si5 0.792943 0.518477 0.818836
O O1 0.721793 0.665280 0.120270
O O2 0.419545 0.545023 0.431286
O O3 0.012293 0.752195 0.046910
O O4 0.815827 0.587282 0.253020
O O5 0.137026 0.593523 0.844505
O O6 0.168177 0.086480 0.847433
O O7 0.000000 0.130691 0.750000
O O8 0.752416 0.084887 0.136144
O O9 0.500000 0.953610 0.250000
O O10 0.500000 0.000000 0.000000
O O11 0.000000 0.530138 0.750000
#
# Coordination Sequence:
#
# PCOD9230192 Si02
#       5
#     2   4   4   4   4
#     4  10  20  36  56  90 122 174 212 246 314 376
#     4  10  21  37  60  88 127 162 210 260 312 370
#     4  11  24  42  68  99 125 165 218 265 323 387
#     4  11  24  47  69  94 130 167 211 271 335 391
#     4   9  19  38  58  84 126 168 206 259 308 367
#
# _framework density 19.986069000000001
#
# number of rings (size 3 to 8) (size 9 to 14) (size 15 to 20)
#    0.000    1.778    2.222    1.333    1.556    1.778 
#    8.000    2.222    2.444    0.000    0.000    0.000 
#    0.000    0.000    0.000    0.000    0.000    0.000 
#
# Total GULP energy -100382.818213 kJ/mol
# GULP energy per Si atom -5576.823234 kJ/mol
# Density = 1.994058 g / cm^3
# Si number density = 19.986069 Si / 1000 Ang^3
#
#
#
# Elastic Constant Matrix: (Units=GPa)
#
#
# Indices 1 2 3 4 5 6 
#
# 1 88.1434 38.2817 21.2705 0.0000 11.5229 0.0000
# 2 38.2817 138.7643 46.1128 0.0000 11.7615 0.0000
# 3 21.2705 46.1128 99.5907 0.0000 18.4994 0.0000
# 4 0.0000 0.0000 0.0000 4.9620 0.0000 5.9320
# 5 11.5229 11.7615 18.4994 0.0000 33.0714 0.0000
# 6 0.0000 0.0000 0.0000 5.9320 0.0000 26.8353
#
#
#
# Elastic Compliance Matrix: (Units=1/GPa)
#
#
# Indices 1 2 3 4 5 6 
#
# 1 0.013307 -0.003139 -0.000820 0.000000 -0.003061 0.000000
# 2 -0.003139 0.009283 -0.003591 0.000000 -0.000199 0.000000
# 3 -0.000820 -0.003591 0.012932 0.000000 -0.005671 0.000000
# 4 0.000000 0.000000 0.000000 0.273921 0.000000 -0.060551
# 5 -0.003061 -0.000199 -0.005671 0.000000 0.034547 0.000000
# 6 0.000000 0.000000 0.000000 -0.060551 0.000000 0.050649
#
#
# Mechanical properties :
#
#
# Convention : Reuss Voigt Hill
#
# Bulk Modulus (GPa) = 48.96635 59.75870 54.36252
# Shear Modulus (GPa) = 12.00350 27.69597 19.84973
#
# Velocity S-wave (km/s) = 2.45336 3.72662 3.15489
# Velocity P-wave (km/s) = 5.70778 6.96291 6.36635
#
# Compressibility (1/GPa) = 0.02042219
#
# Stress axis : x y z
#
# Youngs Moduli (GPa) = 75.15121 107.72948 77.32613
#
# Poissons Ratio (x) = 0.33816 0.06340
# Poissons Ratio (y) = 0.23590 0.27765
# Poissons Ratio (z) = 0.06162 0.38682
#
# Static dielectric constant tensor:
#      x y z
#    x 1.709580 0.000000 -0.075510 
#    y 0.000000 1.663360 0.000000 
#    z -0.075510 0.000000 1.725230 
# 
# From -- ./inp_files/25675.got.cif
#   From: 2010.05.17/outbox.cif.g08.bks.cpg/sg13_13_cif.got.tgz:25675.got - 2010.06.03 16:44:36.
