data_PCOD9230735
_publ_section_title
;
Structure prediction by ZEFSAII (Michael W. Deem and Ramdas Pophale) SiO2 
 PCOD9230735
Probable space group: P 2/C
;
_chemical_formula_sum "Si O2"
_cell_formula_units_Z 20
_cell_length_a 11.148365
_cell_length_b 10.208428
_cell_length_c 14.065527
_cell_angle_alpha 90.000000
_cell_angle_beta 31.355498
_cell_angle_gamma 90.000000
_cell_volume 832.949572
_symmetry_space_group_name_H-M "P 2/C"
_symmetry_group_IT_number 13
_symmetry_cell_setting 'monoclinic'
loop_
_space_group_symop_operation_xyz
x,y,z
-x,y,1/2-z
-x,-y,-z
x,-y,1/2+z
loop_
_atom_site_type_symbol
_atom_site_label
_atom_site_fract_x
_atom_site_fract_y
_atom_site_fract_z
Si Si1 0.038283 0.367585 0.854338
Si Si2 0.458265 0.031063 0.669504
Si Si3 0.850170 0.068001 0.269529
Si Si4 0.611009 0.732262 0.535113
Si Si5 0.907962 0.342294 0.150427
O O1 0.783947 0.319993 0.998108
O O2 0.232647 0.291704 0.664074
O O3 0.053718 0.522025 0.821958
O O4 0.058750 0.348889 0.952799
O O5 0.500000 0.074620 0.750000
O O6 0.212004 0.015292 0.782339
O O7 0.549172 0.881114 0.602725
O O8 0.617241 0.103825 0.484797
O O9 0.962023 0.205017 0.164159
O O10 0.000000 0.999480 0.250000
O O11 0.364966 0.662810 0.689581
#
# Coordination Sequence:
#
# PCOD9230735 Si02
#       5
#     4   4   4   4   4
#     4  10  21  35  65  90 118 171 215 248 321 377
#     4  10  22  44  66  91 125 170 216 257 321 385
#     4  10  23  41  64  93 131 161 206 273 320 369
#     4  10  20  37  63  88 122 160 215 264 301 383
#     4  10  21  41  57  91 129 161 209 264 317 376
#
# _framework density 24.011057999999998
#
# number of rings (size 3 to 8) (size 9 to 14) (size 15 to 20)
#    0.000    2.000    0.000    3.600    5.600    0.800 
#   10.800    0.000    0.000    0.000    0.000    0.000 
#    0.000    0.000    0.000    0.000    0.000    0.000 
#
# Total GULP energy -111754.223765 kJ/mol
# GULP energy per Si atom -5587.711188 kJ/mol
# Density = 2.395641 g / cm^3
# Si number density = 24.011058 Si / 1000 Ang^3
#
#
#
# Elastic Constant Matrix: (Units=GPa)
#
#
# Indices 1 2 3 4 5 6 
#
# 1 133.4970 5.1086 33.8616 0.0000 15.7885 0.0000
# 2 5.1086 64.9786 -7.1950 0.0000 13.3307 0.0000
# 3 33.8616 -7.1950 64.6230 0.0000 20.9972 0.0000
# 4 0.0000 0.0000 0.0000 -42.2543 0.0000 168.0910
# 5 15.7885 13.3307 20.9972 0.0000 48.2143 0.0000
# 6 0.0000 0.0000 0.0000 168.0910 0.0000 -355.0830
#
#
#
# Elastic Compliance Matrix: (Units=1/GPa)
#
#
# Indices 1 2 3 4 5 6 
#
# 1 0.008746 -0.001061 -0.004503 0.000000 -0.000610 0.000000
# 2 -0.001061 0.017297 0.004569 0.000000 -0.006425 0.000000
# 3 -0.004503 0.004569 0.021286 0.000000 -0.009059 0.000000
# 4 0.000000 0.000000 0.000000 0.026797 0.000000 0.012685
# 5 -0.000610 -0.006425 -0.009059 0.000000 0.026662 0.000000
# 6 0.000000 0.000000 0.000000 0.012685 0.000000 0.003189
#
#
# Mechanical properties :
#
#
# Convention : Reuss Voigt Hill
#
# Bulk Modulus (GPa) = 22.05560 36.29435 29.17498
# Shear Modulus (GPa) = 41.29559 -54.40303 -6.55372
#
# Velocity S-wave (km/s) = 4.15162 -4.76515 -1.65390
# Velocity P-wave (km/s) = 5.67334 3.88935 2.92059
#
# Compressibility (1/GPa) = 0.04533996
#
# Stress axis : x y z
#
# Youngs Moduli (GPa) = 114.34313 57.81288 46.97964
#
# Poissons Ratio (x) = 0.06134 0.21153
# Poissons Ratio (y) = 0.12133 -0.21467
# Poissons Ratio (z) = 0.51485 -0.26417
#
# Static dielectric constant tensor:
#      x y z
#    x 2.029990 0.000000 -0.031630 
#    y 0.000000 1.891140 0.000000 
#    z -0.031630 0.000000 1.940290 
# 
# From -- ./inp_files/50723.got.cif
#   From: 2010.05.17/outbox.cif.g08.bks.cpg/sg13_26_cif.got.tgz:50723.got - 2010.06.03 16:44:36.
