data_PCOD9230912
_publ_section_title
;
Structure prediction by ZEFSAII (Michael W. Deem and Ramdas Pophale) SiO2 
 PCOD9230912
Probable space group: P 2/C
;
_chemical_formula_sum "Si O2"
_cell_formula_units_Z 20
_cell_length_a 8.420910
_cell_length_b 23.624979
_cell_length_c 9.529064
_cell_angle_alpha 90.000000
_cell_angle_beta 148.590913
_cell_angle_gamma 90.000000
_cell_volume 987.959800
_symmetry_space_group_name_H-M "P 2/C"
_symmetry_group_IT_number 13
_symmetry_cell_setting 'monoclinic'
loop_
_space_group_symop_operation_xyz
x,y,z
-x,y,1/2-z
-x,-y,-z
x,-y,1/2+z
loop_
_atom_site_type_symbol
_atom_site_label
_atom_site_fract_x
_atom_site_fract_y
_atom_site_fract_z
Si Si1 0.193137 0.774187 0.112971
Si Si2 0.700327 0.535846 0.260766
Si Si3 0.148430 0.350169 0.513518
Si Si4 0.551925 0.173423 0.122835
Si Si5 0.641691 0.047998 0.509413
O O1 0.500000 0.781968 0.250000
O O2 0.041891 0.711742 0.980168
O O3 0.330114 0.784819 0.370293
O O4 0.910243 0.815342 0.865435
O O5 0.500000 0.537203 0.250000
O O6 0.833862 0.600310 0.356145
O O7 0.000000 0.500000 0.500000
O O8 0.500000 0.500000 0.000000
O O9 0.500000 0.338961 0.750000
O O10 0.000000 0.367366 0.250000
O O11 0.500000 0.179453 0.250000
O O12 0.449556 0.110198 0.003575
O O13 0.000000 0.044301 0.750000
O O14 0.500000 0.000000 0.500000
O O15 0.500000 0.042376 0.250000
#
# Coordination Sequence:
#
# PCOD9230912 Si02
#       5
#     4   4   4   4   4
#     4  11  22  39  64  91 114 157 214 251 287 366
#     4  11  22  39  61  87 119 158 198 246 302 359
#     4  10  20  38  60  86 120 159 199 250 305 356
#     4  11  23  41  60  88 128 161 188 248 326 366
#     4  11  24  43  64  90 124 165 207 253 307 367
#
# _framework density 20.243738
#
# number of rings (size 3 to 8) (size 9 to 14) (size 15 to 20)
#    0.000    1.200    0.000    9.600    0.000    2.400 
#    0.000    6.000    0.000    0.000    0.000    0.000 
#    0.000    0.000    0.000    0.000    0.000    0.000 
#
# Total GULP energy -111440.809975 kJ/mol
# GULP energy per Si atom -5572.040499 kJ/mol
# Density = 2.019766 g / cm^3
# Si number density = 20.243738 Si / 1000 Ang^3
#
#
#
# Elastic Constant Matrix: (Units=GPa)
#
#
# Indices 1 2 3 4 5 6 
#
# 1 55.9532 49.6659 21.4507 0.0000 19.7450 0.0000
# 2 49.6659 125.1802 39.2901 0.0000 6.3823 0.0000
# 3 21.4507 39.2901 155.0428 0.0000 16.0181 0.0000
# 4 0.0000 0.0000 0.0000 38.2054 0.0000 -3.6242
# 5 19.7450 6.3823 16.0181 0.0000 48.5576 0.0000
# 6 0.0000 0.0000 0.0000 -3.6242 0.0000 76.8620
#
#
#
# Elastic Compliance Matrix: (Units=1/GPa)
#
#
# Indices 1 2 3 4 5 6 
#
# 1 0.033223 -0.012515 -0.000206 0.000000 -0.011796 0.000000
# 2 -0.012515 0.013402 -0.002079 0.000000 0.004013 0.000000
# 3 -0.000206 -0.002079 0.007214 0.000000 -0.002023 0.000000
# 4 0.000000 0.000000 0.000000 0.026292 0.000000 0.001240
# 5 -0.011796 0.004013 -0.002023 0.000000 0.025531 0.000000
# 6 0.000000 0.000000 0.000000 0.001240 0.000000 0.013069
#
#
# Mechanical properties :
#
#
# Convention : Reuss Voigt Hill
#
# Bulk Modulus (GPa) = 41.25838 61.88773 51.57306
# Shear Modulus (GPa) = 31.96707 47.77631 39.87169
#
# Velocity S-wave (km/s) = 3.97811 4.86331 4.44281
# Velocity P-wave (km/s) = 6.44403 7.88501 7.20066
#
# Compressibility (1/GPa) = 0.02423750
#
# Stress axis : x y z
#
# Youngs Moduli (GPa) = 30.09985 74.61595 138.61392
#
# Poissons Ratio (x) = 0.93383 0.02858
# Poissons Ratio (y) = 0.37670 0.28823
# Poissons Ratio (z) = 0.00621 0.15516
#
# Static dielectric constant tensor:
#      x y z
#    x 1.837730 0.000000 0.136830 
#    y 0.000000 1.870580 0.000000 
#    z 0.136830 0.000000 1.873400 
# 
# From -- ./inp_files/13831.got.cif
#   From: 2010.05.17/outbox.cif.g08.bks.cpg/sg13_7_cif.got.tgz:13831.got - 2010.06.03 16:44:36.
