data_PCOD9230708
_publ_section_title
;
Structure prediction by ZEFSAII (Michael W. Deem and Ramdas Pophale) SiO2 
 PCOD9230708
Probable space group: P 2/C
;
_chemical_formula_sum "Si O2"
_cell_formula_units_Z 28
_cell_length_a 19.596016
_cell_length_b 7.539455
_cell_length_c 22.609179
_cell_angle_alpha 90.000000
_cell_angle_beta 19.042679
_cell_angle_gamma 90.000000
_cell_volume 1089.865310
_symmetry_space_group_name_H-M "P 2/C"
_symmetry_group_IT_number 13
_symmetry_cell_setting 'monoclinic'
loop_
_space_group_symop_operation_xyz
x,y,z
-x,y,1/2-z
-x,-y,-z
x,-y,1/2+z
loop_
_atom_site_type_symbol
_atom_site_label
_atom_site_fract_x
_atom_site_fract_y
_atom_site_fract_z
Si Si1 0.977470 0.867971 0.105575
Si Si2 0.358827 0.381330 0.421455
Si Si3 0.082311 0.339082 0.093690
Si Si4 0.374177 0.391801 0.016502
Si Si5 0.064234 0.749946 0.910329
Si Si6 0.811952 0.968492 0.450483
Si Si7 0.446261 0.257671 0.525101
O O1 0.744926 0.875567 0.325087
O O2 0.130273 0.863665 0.036232
O O3 0.012802 0.056884 0.046743
O O4 0.008626 0.730917 0.025399
O O5 0.500000 0.397804 0.250000
O O6 0.148204 0.483102 0.573592
O O7 0.449152 0.509482 0.397548
O O8 0.346429 0.174200 0.449001
O O9 0.847282 0.297761 0.308575
O O10 0.048430 0.360274 0.050533
O O11 0.224698 0.170890 0.997427
O O12 0.347370 0.558195 0.083228
O O13 0.526159 0.263234 0.926413
O O14 0.319093 0.751656 0.693451
O O15 0.000000 0.971901 0.250000
#
# Coordination Sequence:
#
# PCOD9230708 Si02
#       7
#     4   4   4   4   4   4   4
#     4  10  20  37  62  91 128 166 208 265 316 376
#     4  12  26  39  62  95 129 164 210 265 319 382
#     4  10  22  45  67  89 125 170 211 264 319 377
#     4  10  22  41  60  93 122 162 215 257 311 386
#     4   9  21  37  61  95 125 163 215 259 316 382
#     4  11  23  42  67  91 122 171 214 259 320 381
#     4  10  20  37  64  89 127 167 208 262 316 377
#
# _framework density 25.691247000000001
#
# number of rings (size 3 to 8) (size 9 to 14) (size 15 to 20)
#    0.000    1.714    0.000    4.286    4.000    0.571 
#    0.000    4.286    0.000    0.000    0.000    0.000 
#    0.000    0.000    0.000    0.000    0.000    0.000 
#
# Total GULP energy -156150.089933 kJ/mol
# GULP energy per Si atom -5576.788926 kJ/mol
# Density = 2.563277 g / cm^3
# Si number density = 25.691247 Si / 1000 Ang^3
#
#
#
# Elastic Constant Matrix: (Units=GPa)
#
#
# Indices 1 2 3 4 5 6 
#
# 1 68.2524 15.1342 25.6045 0.0000 30.0185 0.0000
# 2 15.1342 68.1727 3.3626 0.0000 12.7971 0.0000
# 3 25.6045 3.3626 68.5881 0.0000 13.6934 0.0000
# 4 0.0000 0.0000 0.0000 0.2865 0.0000 24.4139
# 5 30.0185 12.7971 13.6934 0.0000 29.0729 0.0000
# 6 0.0000 0.0000 0.0000 24.4139 0.0000 7.1535
#
#
#
# Elastic Compliance Matrix: (Units=1/GPa)
#
#
# Indices 1 2 3 4 5 6 
#
# 1 0.028532 -0.001103 -0.005312 0.000000 -0.026472 0.000000
# 2 -0.001103 0.016062 0.000892 0.000000 -0.006352 0.000000
# 3 -0.005312 0.000892 0.017112 0.000000 -0.002968 0.000000
# 4 0.000000 0.000000 0.000000 -0.012043 0.000000 0.041102
# 5 -0.026472 -0.006352 -0.002968 0.000000 0.065923 0.000000
# 6 0.000000 0.000000 0.000000 0.041102 0.000000 -0.000482
#
#
# Mechanical properties :
#
#
# Convention : Reuss Voigt Hill
#
# Bulk Modulus (GPa) = 19.73932 32.57954 26.15943
# Shear Modulus (GPa) = 34.95668 18.03004 26.49336
#
# Velocity S-wave (km/s) = 3.69269 2.65202 3.21475
# Velocity P-wave (km/s) = 5.08737 4.69961 4.89733
#
# Compressibility (1/GPa) = 0.05066032
#
# Stress axis : x y z
#
# Youngs Moduli (GPa) = 35.04868 62.25985 58.44017
#
# Poissons Ratio (x) = 0.06865 0.31043
# Poissons Ratio (y) = 0.03865 -0.05215
# Poissons Ratio (z) = 0.18618 -0.05555
#
# Static dielectric constant tensor:
#      x y z
#    x 2.157080 0.000000 -0.017680 
#    y 0.000000 2.104580 0.000000 
#    z -0.017680 0.000000 2.148010 
# 
# From -- ./inp_files/88467.got.cif
#   From: 2010.05.17/outbox.cif.g08.bks.cpg/sg13_45_cif.got.tgz:88467.got - 2010.06.03 16:44:36.
