data_PCOD9230504
_publ_section_title
;
Structure prediction by ZEFSAII (Michael W. Deem and Ramdas Pophale) SiO2 
 PCOD9230504
Probable space group: P 2/C
;
_chemical_formula_sum "Si O2"
_cell_formula_units_Z 22
_cell_length_a 10.685224
_cell_length_b 8.623232
_cell_length_c 14.579509
_cell_angle_alpha 90.000000
_cell_angle_beta 45.857806
_cell_angle_gamma 90.000000
_cell_volume 964.022722
_symmetry_space_group_name_H-M "P 2/C"
_symmetry_group_IT_number 13
_symmetry_cell_setting 'monoclinic'
loop_
_space_group_symop_operation_xyz
x,y,z
-x,y,1/2-z
-x,-y,-z
x,-y,1/2+z
loop_
_atom_site_type_symbol
_atom_site_label
_atom_site_fract_x
_atom_site_fract_y
_atom_site_fract_z
Si Si1 0.840117 0.591052 0.696866
Si Si2 0.739678 0.931668 0.791944
Si Si3 0.000000 0.131734 0.750000
Si Si4 0.294106 0.625208 0.077540
Si Si5 0.448649 0.831194 0.432125
Si Si6 0.750328 0.422423 0.561309
O O1 0.771021 0.766479 0.730362
O O2 0.788395 0.510890 0.818514
O O3 0.758070 0.483723 0.659967
O O4 0.048606 0.591379 0.574933
O O5 0.584779 0.037500 0.831474
O O6 0.685399 0.903904 0.926318
O O7 0.915731 0.030248 0.712279
O O8 0.148971 0.244343 0.635896
O O9 0.443581 0.708934 0.059556
O O10 0.342010 0.549610 0.956713
O O11 0.347709 0.738126 0.405881
#
# Coordination Sequence:
#
# PCOD9230504 Si02
#       6
#     4   4   2   4   4   4
#     4  11  23  39  70  95 128 169 228 264 322 389
#     4  10  21  39  65 101 125 176 214 270 333 390
#     4  10  20  36  70  84 130 174 214 260 334 378
#     4  11  21  41  65  92 126 174 216 271 317 395
#     4  10  22  39  68  93 134 166 218 267 339 381
#     4  11  22  39  67 100 125 174 220 270 317 393
#
# _framework density 22.82104
#
# number of rings (size 3 to 8) (size 9 to 14) (size 15 to 20)
#    0.000    1.455    3.636    1.636    0.000    0.727 
#    0.000    0.909   40.000    0.000    0.000    0.000 
#    0.000    0.000    0.000    0.000    0.000    0.000 
#
# Total GULP energy -123174.393038 kJ/mol
# GULP energy per Si atom -5598.836047 kJ/mol
# Density = 2.276910 g / cm^3
# Si number density = 22.821040 Si / 1000 Ang^3
#
#
#
# Elastic Constant Matrix: (Units=GPa)
#
#
# Indices 1 2 3 4 5 6 
#
# 1 102.1455 64.6948 33.4345 0.0000 -3.6791 0.0000
# 2 64.6948 135.3223 17.9977 0.0000 -13.2261 0.0000
# 3 33.4345 17.9977 48.5455 0.0000 -9.3705 0.0000
# 4 0.0000 0.0000 0.0000 27.1743 0.0000 -1.3138
# 5 -3.6791 -13.2261 -9.3705 0.0000 28.6973 0.0000
# 6 0.0000 0.0000 0.0000 -1.3138 0.0000 48.7523
#
#
#
# Elastic Compliance Matrix: (Units=1/GPa)
#
#
# Indices 1 2 3 4 5 6 
#
# 1 0.017819 -0.007592 -0.010344 0.000000 -0.004592 0.000000
# 2 -0.007592 0.011227 0.002003 0.000000 0.004855 0.000000
# 3 -0.010344 0.002003 0.028713 0.000000 0.008973 0.000000
# 4 0.000000 0.000000 0.000000 0.036848 0.000000 0.000993
# 5 -0.004592 0.004855 0.008973 0.000000 0.039425 0.000000
# 6 0.000000 0.000000 0.000000 0.000993 0.000000 0.020539
#
#
# Mechanical properties :
#
#
# Convention : Reuss Voigt Hill
#
# Bulk Modulus (GPa) = 38.61904 57.58525 48.10215
# Shear Modulus (GPa) = 25.63231 32.25052 28.94141
#
# Velocity S-wave (km/s) = 3.35503 3.76332 3.56503
# Velocity P-wave (km/s) = 5.65399 6.64618 6.17006
#
# Compressibility (1/GPa) = 0.02589396
#
# Stress axis : x y z
#
# Youngs Moduli (GPa) = 56.12069 89.06805 34.82791
#
# Poissons Ratio (x) = 0.67619 0.36026
# Poissons Ratio (y) = 0.42606 -0.06978
# Poissons Ratio (z) = 0.58051 -0.17845
#
# Static dielectric constant tensor:
#      x y z
#    x 1.842840 0.000000 -0.044160 
#    y 0.000000 1.845770 0.000000 
#    z -0.044160 0.000000 1.853680 
# 
# From -- ./inp_files/65869.got.cif
#   From: 2010.05.17/outbox.cif.g08.bks.cpg/sg13_33_cif.got.tgz:65869.got - 2010.06.03 16:44:36.
