data_PCOD9230948
_publ_section_title
;
Structure prediction by ZEFSAII (Michael W. Deem and Ramdas Pophale) SiO2 
 PCOD9230948
Probable space group: P 2/C
;
_chemical_formula_sum "Si O2"
_cell_formula_units_Z 32
_cell_length_a 9.037146
_cell_length_b 5.398180
_cell_length_c 27.507901
_cell_angle_alpha 90.000000
_cell_angle_beta 116.979596
_cell_angle_gamma 90.000000
_cell_volume 1195.902477
_symmetry_space_group_name_H-M "P 2/C"
_symmetry_group_IT_number 13
_symmetry_cell_setting 'monoclinic'
loop_
_space_group_symop_operation_xyz
x,y,z
-x,y,1/2-z
-x,-y,-z
x,-y,1/2+z
loop_
_atom_site_type_symbol
_atom_site_label
_atom_site_fract_x
_atom_site_fract_y
_atom_site_fract_z
Si Si1 0.006006 0.369331 0.203165
Si Si2 0.530956 0.729448 0.563874
Si Si3 0.205795 0.839780 0.658834
Si Si4 0.331213 0.765298 0.016762
Si Si5 0.848959 0.426895 0.921331
Si Si6 0.085497 0.760230 0.386453
Si Si7 0.534428 0.226139 0.809460
Si Si8 0.282656 0.996953 0.838973
O O1 0.181778 0.314700 0.204924
O O2 0.926273 0.513226 0.146734
O O3 0.000000 0.537183 0.250000
O O4 0.883554 0.145583 0.199992
O O5 0.669056 0.738278 0.541474
O O6 0.456815 0.456435 0.549683
O O7 0.592178 0.780410 0.627105
O O8 0.398216 0.954419 0.535192
O O9 0.155305 0.708111 0.600328
O O10 0.385851 0.953433 0.685269
O O11 0.066378 0.051413 0.647357
O O12 0.182006 0.685484 0.030019
O O13 0.028427 0.318325 0.931327
O O14 0.684756 0.340725 0.864638
O O15 0.245903 0.880353 0.386362
O O16 0.500000 0.324654 0.750000
O O17 0.366678 0.185300 0.814801
#
# Coordination Sequence:
#
# PCOD9230948 Si02
#       8
#     4   4   4   4   4   4   4   4
#     4  10  21  37  58  80 115 166 208 257 312 378
#     4  10  22  39  65 100 129 162 208 261 329 383
#     4   9  20  38  54  76 113 156 205 244 308 371
#     4  10  21  40  66  96 130 165 206 261 324 393
#     4  10  20  38  61  82 118 165 207 253 314 378
#     4   9  22  37  55  82 116 161 206 249 308 373
#     4  11  22  34  55  89 120 156 203 261 311 373
#     4  11  22  37  60  91 127 161 204 267 316 374
#
# _framework density 26.758036000000001
#
# number of rings (size 3 to 8) (size 9 to 14) (size 15 to 20)
#    0.000    2.000    1.250    1.500    3.500    6.500 
#    0.000    0.625    0.000    6.750    0.000    0.000 
#    0.000    0.000    0.000    0.000    0.000    0.000 
#
# Total GULP energy -178382.160848 kJ/mol
# GULP energy per Si atom -5574.442526 kJ/mol
# Density = 2.669713 g / cm^3
# Si number density = 26.758036 Si / 1000 Ang^3
#
#
#
# Elastic Constant Matrix: (Units=GPa)
#
#
# Indices 1 2 3 4 5 6 
#
# 1 123.2769 40.4810 37.4321 0.0000 -34.8383 0.0000
# 2 40.4810 71.4000 20.9143 0.0000 3.1543 0.0000
# 3 37.4321 20.9143 79.9571 0.0000 -17.4693 0.0000
# 4 0.0000 0.0000 0.0000 0.6276 0.0000 6.1433
# 5 -34.8383 3.1543 -17.4693 0.0000 35.6642 0.0000
# 6 0.0000 0.0000 0.0000 6.1433 0.0000 40.5195
#
#
#
# Elastic Compliance Matrix: (Units=1/GPa)
#
#
# Indices 1 2 3 4 5 6 
#
# 1 0.016159 -0.009373 -0.001661 0.000000 0.015801 0.000000
# 2 -0.009373 0.021048 -0.003947 0.000000 -0.012951 0.000000
# 3 -0.001661 -0.003947 0.015721 0.000000 0.006427 0.000000
# 4 0.000000 0.000000 0.000000 -3.291340 0.000000 0.499010
# 5 0.015801 -0.012951 0.006427 0.000000 0.047768 0.000000
# 6 0.000000 0.000000 0.000000 0.499010 0.000000 -0.050977
#
#
# Mechanical properties :
#
#
# Convention : Reuss Voigt Hill
#
# Bulk Modulus (GPa) = 43.54323 52.47654 48.00988
# Shear Modulus (GPa) = -1.56055 27.08269 12.76107
#
# Velocity S-wave (km/s) = -0.76451 3.18485 2.18619
# Velocity P-wave (km/s) = 3.94068 5.76008 4.93495
#
# Compressibility (1/GPa) = 0.02296568
#
# Stress axis : x y z
#
# Youngs Moduli (GPa) = 61.88338 47.51004 63.60914
#
# Poissons Ratio (x) = 0.44532 0.10567
# Poissons Ratio (y) = 0.58005 0.25107
# Poissons Ratio (z) = 0.10280 0.18753
#
# Static dielectric constant tensor:
#      x y z
#    x 13.423760 0.000000 -13.534550 
#    y 0.000000 2.267790 0.000000 
#    z -13.534550 0.000000 18.375030 
# 
# From -- ./inp_files/95678.got.cif
#   From: 2010.05.17/outbox.cif.g08.bks.cpg/sg13_48_cif.got.tgz:95678.got - 2010.06.03 16:44:36.
