data_PCOD9230598
_publ_section_title
;
Structure prediction by ZEFSAII (Michael W. Deem and Ramdas Pophale) SiO2 
 PCOD9230598
Probable space group: P 2/C
;
_chemical_formula_sum "Si O2"
_cell_formula_units_Z 16
_cell_length_a 17.849872
_cell_length_b 8.031103
_cell_length_c 13.334261
_cell_angle_alpha 90.000000
_cell_angle_beta 20.735319
_cell_angle_gamma 90.000000
_cell_volume 676.776995
_symmetry_space_group_name_H-M "P 2/C"
_symmetry_group_IT_number 13
_symmetry_cell_setting 'monoclinic'
loop_
_space_group_symop_operation_xyz
x,y,z
-x,y,1/2-z
-x,-y,-z
x,-y,1/2+z
loop_
_atom_site_type_symbol
_atom_site_label
_atom_site_fract_x
_atom_site_fract_y
_atom_site_fract_z
Si Si1 0.345877 0.960505 0.603493
Si Si2 0.866899 0.550674 0.789071
Si Si3 0.484795 0.594352 0.125461
Si Si4 0.931432 0.780106 0.127430
O O1 0.444526 0.786336 0.444238
O O2 0.500000 0.000000 0.500000
O O3 0.289454 0.119541 0.604712
O O4 0.110688 0.912191 0.933338
O O5 0.969610 0.370137 0.656840
O O6 0.001994 0.693053 0.563238
O O7 0.664752 0.510478 0.968776
O O8 0.754488 0.589058 0.034070
O O9 0.500000 0.500000 0.000000
#
# Coordination Sequence:
#
# PCOD9230598 Si02
#       4
#     4   4   4   4
#     4  10  20  37  59  89 123 155 201 253 305 367
#     4   9  19  39  62  85 120 162 202 254 307 360
#     4  10  20  37  61  88 121 163 204 245 305 373
#     4   9  19  39  63  86 119 158 201 256 308 357
#
# _framework density 23.641465
#
# number of rings (size 3 to 8) (size 9 to 14) (size 15 to 20)
#    0.000    2.500    0.000    1.500    0.000    0.000 
#    0.000   50.000    0.000    3.000    0.000    0.000 
#    0.000    0.000    0.000    0.000    0.000    0.000 
#
# Total GULP energy -89067.954136 kJ/mol
# GULP energy per Si atom -5566.747133 kJ/mol
# Density = 2.358766 g / cm^3
# Si number density = 23.641465 Si / 1000 Ang^3
#
#
#
# Elastic Constant Matrix: (Units=GPa)
#
#
# Indices 1 2 3 4 5 6 
#
# 1 71.9253 19.8026 20.4379 0.0000 -6.3473 0.0000
# 2 19.8026 136.2289 34.9631 0.0000 -2.4405 0.0000
# 3 20.4379 34.9631 96.1769 0.0000 15.1963 0.0000
# 4 0.0000 0.0000 0.0000 26.9427 0.0000 -22.7958
# 5 -6.3473 -2.4405 15.1963 0.0000 38.3601 0.0000
# 6 0.0000 0.0000 0.0000 -22.7958 0.0000 18.0911
#
#
#
# Elastic Compliance Matrix: (Units=1/GPa)
#
#
# Indices 1 2 3 4 5 6 
#
# 1 0.015584 -0.001312 -0.003444 0.000000 0.003860 0.000000
# 2 -0.001312 0.008324 -0.002983 0.000000 0.001494 0.000000
# 3 -0.003444 -0.002983 0.013158 0.000000 -0.005972 0.000000
# 4 0.000000 0.000000 0.000000 -0.561373 0.000000 -0.707361
# 5 0.003860 0.001494 -0.005972 0.000000 0.029168 0.000000
# 6 0.000000 0.000000 0.000000 -0.707361 0.000000 -0.836039
#
#
# Mechanical properties :
#
#
# Convention : Reuss Voigt Hill
#
# Bulk Modulus (GPa) = 46.32713 50.52648 48.42681
# Shear Modulus (GPa) = -3.82116 31.95395 14.06640
#
# Velocity S-wave (km/s) = -1.27272 3.68041 2.44188
# Velocity P-wave (km/s) = 4.18073 6.28322 5.33654
#
# Compressibility (1/GPa) = 0.02158562
#
# Stress axis : x y z
#
# Youngs Moduli (GPa) = 64.16862 120.13855 76.00199
#
# Poissons Ratio (x) = 0.15764 0.26179
# Poissons Ratio (y) = 0.08420 0.22673
# Poissons Ratio (z) = 0.22103 0.35839
#
# Static dielectric constant tensor:
#      x y z
#    x 2.008620 0.000000 0.007620 
#    y 0.000000 2.551980 0.000000 
#    z 0.007620 0.000000 1.871240 
# 
# From -- ./inp_files/56960.got.cif
#   From: 2010.05.17/outbox.cif.g08.bks.cpg/sg13_29_cif.got.tgz:56960.got - 2010.06.03 16:44:36.
