data_PCOD9230261
_publ_section_title
;
Structure prediction by ZEFSAII (Michael W. Deem and Ramdas Pophale) SiO2 
 PCOD9230261
Probable space group: P 2/C
;
_chemical_formula_sum "Si O2"
_cell_formula_units_Z 22
_cell_length_a 20.690424
_cell_length_b 9.490658
_cell_length_c 8.646452
_cell_angle_alpha 90.000000
_cell_angle_beta 40.947943
_cell_angle_gamma 90.000000
_cell_volume 1112.736236
_symmetry_space_group_name_H-M "P 2/C"
_symmetry_group_IT_number 13
_symmetry_cell_setting 'monoclinic'
loop_
_space_group_symop_operation_xyz
x,y,z
-x,y,1/2-z
-x,-y,-z
x,-y,1/2+z
loop_
_atom_site_type_symbol
_atom_site_label
_atom_site_fract_x
_atom_site_fract_y
_atom_site_fract_z
Si Si1 0.288594 0.862950 0.491945
Si Si2 0.224028 0.686909 0.142590
Si Si3 0.000000 0.746064 0.250000
Si Si4 0.894138 0.936676 0.223392
Si Si5 0.188116 0.610727 0.849029
Si Si6 0.384384 0.119441 0.489614
O O1 0.255222 0.716478 0.627239
O O2 0.189948 0.947473 0.618907
O O3 0.342292 0.965930 0.517183
O O4 0.355825 0.849935 0.218607
O O5 0.143094 0.810379 0.319783
O O6 0.209723 0.550698 0.272002
O O7 0.210910 0.637450 0.989083
O O8 0.326423 0.766255 0.989987
O O9 0.083727 0.852659 0.159745
O O10 0.927895 0.645074 0.477875
O O11 0.000000 0.000000 0.000000
O O12 0.500000 0.124129 0.250000
#
# Coordination Sequence:
#
# PCOD9230261 Si02
#       6
#     4   4   2   4   4   4
#     4  11  22  39  65  94 128 162 206 265 307 373
#     4  10  24  41  61  89 127 167 207 264 308 376
#     4  10  20  36  58  88 128 166 208 244 302 380
#     4  10  20  36  58  89 124 163 204 245 306 370
#     4  11  22  42  60  90 131 163 210 253 314 371
#     4  11  23  43  66  94 122 164 213 264 321 369
#
# _framework density 19.771080999999999
#
# number of rings (size 3 to 8) (size 9 to 14) (size 15 to 20)
#    0.000    1.455    1.818    4.909    2.545    2.909 
#    3.273    4.545    0.000    0.000    0.000    0.000 
#    0.000    0.000    0.000    0.000    0.000    0.000 
#
# Total GULP energy -122696.751207 kJ/mol
# GULP energy per Si atom -5577.125055 kJ/mol
# Density = 1.972608 g / cm^3
# Si number density = 19.771081 Si / 1000 Ang^3
#
#
#
# Elastic Constant Matrix: (Units=GPa)
#
#
# Indices 1 2 3 4 5 6 
#
# 1 45.7688 19.6128 20.4334 0.0000 -10.7190 0.0000
# 2 19.6128 116.8371 37.2206 0.0000 -16.9185 0.0000
# 3 20.4334 37.2206 120.8007 0.0000 -16.9431 0.0000
# 4 0.0000 0.0000 0.0000 23.8162 0.0000 10.5734
# 5 -10.7190 -16.9185 -16.9431 0.0000 41.0179 0.0000
# 6 0.0000 0.0000 0.0000 10.5734 0.0000 25.2685
#
#
#
# Elastic Compliance Matrix: (Units=1/GPa)
#
#
# Indices 1 2 3 4 5 6 
#
# 1 0.025290 -0.002717 -0.002835 0.000000 0.004317 0.000000
# 2 -0.002717 0.010112 -0.002304 0.000000 0.002509 0.000000
# 3 -0.002835 -0.002304 0.009798 0.000000 0.002356 0.000000
# 4 0.000000 0.000000 0.000000 0.051568 0.000000 -0.021578
# 5 0.004317 0.002509 0.002356 0.000000 0.027516 0.000000
# 6 0.000000 0.000000 0.000000 -0.021578 0.000000 0.048604
#
#
# Mechanical properties :
#
#
# Convention : Reuss Voigt Hill
#
# Bulk Modulus (GPa) = 33.91244 48.66001 41.28622
# Shear Modulus (GPa) = 25.19770 31.76318 28.48044
#
# Velocity S-wave (km/s) = 3.57385 4.01252 3.79952
# Velocity P-wave (km/s) = 5.84976 6.79207 6.33845
#
# Compressibility (1/GPa) = 0.02948771
#
# Stress axis : x y z
#
# Youngs Moduli (GPa) = 39.54130 98.88825 102.06085
#
# Poissons Ratio (x) = 0.26868 0.28936
# Poissons Ratio (y) = 0.10743 0.23518
# Poissons Ratio (z) = 0.11211 0.22787
#
# Static dielectric constant tensor:
#      x y z
#    x 1.796140 0.000000 0.048680 
#    y 0.000000 1.718770 0.000000 
#    z 0.048680 0.000000 1.706590 
# 
# From -- ./inp_files/17989.got.cif
#   From: 2010.05.17/outbox.cif.g08.bks.cpg/sg13_9_cif.got.tgz:17989.got - 2010.06.03 16:44:36.
