data_PCOD9230955
_publ_section_title
;
Structure prediction by ZEFSAII (Michael W. Deem and Ramdas Pophale) SiO2 
 PCOD9230955
Probable space group: P 2/C
;
_chemical_formula_sum "Si O2"
_cell_formula_units_Z 22
_cell_length_a 11.315084
_cell_length_b 11.832126
_cell_length_c 11.723541
_cell_angle_alpha 90.000000
_cell_angle_beta 44.135145
_cell_angle_gamma 90.000000
_cell_volume 1092.971724
_symmetry_space_group_name_H-M "P 2/C"
_symmetry_group_IT_number 13
_symmetry_cell_setting 'monoclinic'
loop_
_space_group_symop_operation_xyz
x,y,z
-x,y,1/2-z
-x,-y,-z
x,-y,1/2+z
loop_
_atom_site_type_symbol
_atom_site_label
_atom_site_fract_x
_atom_site_fract_y
_atom_site_fract_z
Si Si1 0.820875 0.737112 0.348830
Si Si2 0.134833 0.347392 0.938283
Si Si3 0.561035 0.783563 0.870051
Si Si4 0.771525 0.404852 0.107632
Si Si5 0.655791 0.191072 0.563361
Si Si6 0.500000 0.029392 0.250000
O O1 0.824889 0.691563 0.217927
O O2 0.642076 0.798364 0.483758
O O3 0.811620 0.640904 0.453053
O O4 0.000000 0.798434 0.250000
O O5 0.242141 0.460703 0.888126
O O6 0.180907 0.248950 0.994471
O O7 0.936094 0.378773 0.072675
O O8 0.620475 0.668992 0.766222
O O9 0.607806 0.890772 0.759805
O O10 0.632369 0.782462 0.947532
O O11 0.500000 0.237720 0.750000
O O12 0.628662 0.056850 0.598197
#
# Coordination Sequence:
#
# PCOD9230955 Si02
#       6
#     4   4   4   4   4   2
#     4  10  20  38  61  87 124 163 199 252 306 370
#     4  10  22  42  57  93 130 160 201 245 321 363
#     4  12  21  41  66  92 118 162 215 250 311 363
#     4  10  23  37  65  91 125 163 201 257 295 382
#     4  10  23  38  64  87 125 163 197 262 310 365
#     4  10  22  42  62  88 120 160 214 266 304 358
#
# _framework density 20.128609999999998
#
# number of rings (size 3 to 8) (size 9 to 14) (size 15 to 20)
#    0.545    1.091    3.636    0.545    2.545    2.909 
#    0.000    0.909    8.000    0.000    0.000    0.000 
#    0.000    0.000    0.000    0.000    0.000    0.000 
#
# Total GULP energy -122598.527510 kJ/mol
# GULP energy per Si atom -5572.660341 kJ/mol
# Density = 2.008280 g / cm^3
# Si number density = 20.128610 Si / 1000 Ang^3
#
#
#
# Elastic Constant Matrix: (Units=GPa)
#
#
# Indices 1 2 3 4 5 6 
#
# 1 104.9975 29.6521 29.7096 0.0000 29.9613 0.0000
# 2 29.6521 67.6572 10.8343 0.0000 9.2162 0.0000
# 3 29.7096 10.8343 64.5985 0.0000 12.0794 0.0000
# 4 0.0000 0.0000 0.0000 8.0264 0.0000 -4.4020
# 5 29.9613 9.2162 12.0794 0.0000 45.0091 0.0000
# 6 0.0000 0.0000 0.0000 -4.4020 0.0000 -36.4856
#
#
#
# Elastic Compliance Matrix: (Units=1/GPa)
#
#
# Indices 1 2 3 4 5 6 
#
# 1 0.014113 -0.004490 -0.004372 0.000000 -0.007302 0.000000
# 2 -0.004490 0.016901 -0.000717 0.000000 -0.000279 0.000000
# 3 -0.004372 -0.000717 0.017940 0.000000 -0.001757 0.000000
# 4 0.000000 0.000000 0.000000 0.116857 0.000000 -0.014099
# 5 -0.007302 -0.000279 -0.001757 0.000000 0.027607 0.000000
# 6 0.000000 0.000000 0.000000 -0.014099 0.000000 -0.025707
#
#
# Mechanical properties :
#
#
# Convention : Reuss Voigt Hill
#
# Bulk Modulus (GPa) = 33.56343 41.96058 37.76201
# Shear Modulus (GPa) = 25.40625 14.44712 19.92668
#
# Velocity S-wave (km/s) = 3.55659 2.68197 3.14979
# Velocity P-wave (km/s) = 5.79452 5.52106 5.65945
#
# Compressibility (1/GPa) = 0.02979433
#
# Stress axis : x y z
#
# Youngs Moduli (GPa) = 70.85740 59.16699 55.74146
#
# Poissons Ratio (x) = 0.26569 0.24371
# Poissons Ratio (y) = 0.31818 0.03998
# Poissons Ratio (z) = 0.30980 0.04244
#
# Static dielectric constant tensor:
#      x y z
#    x 1.739020 0.000000 -0.039020 
#    y 0.000000 1.687590 0.000000 
#    z -0.039020 0.000000 1.732630 
# 
# From -- ./inp_files/33097.got.cif
#   From: 2010.05.17/outbox.cif.g08.bks.cpg/sg13_17_cif.got.tgz:33097.got - 2010.06.03 16:44:36.
