data_PCOD9230195
_publ_section_title
;
Structure prediction by ZEFSAII (Michael W. Deem and Ramdas Pophale) SiO2 
 PCOD9230195
Probable space group: P 2/C
;
_chemical_formula_sum "Si O2"
_cell_formula_units_Z 30
_cell_length_a 30.312130
_cell_length_b 9.374467
_cell_length_c 17.883941
_cell_angle_alpha 90.000000
_cell_angle_beta 161.109659
_cell_angle_gamma 90.000000
_cell_volume 1645.305960
_symmetry_space_group_name_H-M "P 2/C"
_symmetry_group_IT_number 13
_symmetry_cell_setting 'monoclinic'
loop_
_space_group_symop_operation_xyz
x,y,z
-x,y,1/2-z
-x,-y,-z
x,-y,1/2+z
loop_
_atom_site_type_symbol
_atom_site_label
_atom_site_fract_x
_atom_site_fract_y
_atom_site_fract_z
Si Si1 0.341563 0.617826 0.589390
Si Si2 0.478209 0.163078 0.050877
Si Si3 0.320322 0.100295 0.652550
Si Si4 0.714964 0.189565 0.060398
Si Si5 0.729976 0.870117 0.145632
Si Si6 0.500000 0.386177 0.750000
Si Si7 0.100233 0.586349 0.712746
Si Si8 0.016744 0.817860 0.687828
O O1 0.434036 0.696145 0.797589
O O2 0.294663 0.739500 0.452888
O O3 0.433850 0.495483 0.701142
O O4 0.214971 0.528868 0.416530
O O5 0.591725 0.042336 0.217176
O O6 0.373408 0.167882 0.814310
O O7 0.391153 0.136330 0.987022
O O8 0.353415 0.191156 0.631708
O O9 0.154882 0.091296 0.390334
O O10 0.848309 0.282257 0.257370
O O11 0.727675 0.025083 0.102595
O O12 0.621545 0.278741 0.966998
O O13 0.876182 0.862149 0.421738
O O14 0.045689 0.661913 0.699413
O O15 0.000000 0.500000 0.500000
O O16 0.000000 0.818337 0.750000
#
# Coordination Sequence:
#
# PCOD9230195 Si02
#       8
#     4   4   4   4   4   2   4   4
#     4  11  21  37  64  97 119 165 216 254 312 381
#     4  11  21  37  63  93 129 157 209 263 315 372
#     4  10  22  38  59  93 127 161 198 269 317 364
#     4  10  22  36  59  93 121 157 207 258 308 362
#     4  12  21  38  71  93 121 165 215 267 306 378
#     4  10  20  36  56  90 132 152 202 252 308 376
#     4  10  22  40  61  88 125 166 207 259 309 382
#     4  11  23  42  64  91 127 170 211 255 328 381
#
# _framework density 18.233689999999999
#
# number of rings (size 3 to 8) (size 9 to 14) (size 15 to 20)
#    0.000    1.333    5.333    0.800    0.000    3.200 
#    0.000    7.333    5.867    0.000    0.000    0.000 
#    0.000    0.000    0.000    0.000    0.000    0.000 
#
# Total GULP energy -167074.657814 kJ/mol
# GULP energy per Si atom -5569.155260 kJ/mol
# Density = 1.819219 g / cm^3
# Si number density = 18.233690 Si / 1000 Ang^3
#
#
#
# Elastic Constant Matrix: (Units=GPa)
#
#
# Indices 1 2 3 4 5 6 
#
# 1 51.3768 36.0555 30.9150 0.0000 0.8933 0.0000
# 2 36.0555 117.4291 32.0755 0.0000 0.0930 0.0000
# 3 30.9150 32.0755 74.8790 0.0000 6.3578 0.0000
# 4 0.0000 0.0000 0.0000 21.2330 0.0000 -6.1399
# 5 0.8933 0.0930 6.3578 0.0000 23.6316 0.0000
# 6 0.0000 0.0000 0.0000 -6.1399 0.0000 13.3552
#
#
#
# Elastic Compliance Matrix: (Units=1/GPa)
#
#
# Indices 1 2 3 4 5 6 
#
# 1 0.029818 -0.006522 -0.009644 0.000000 0.001493 0.000000
# 2 -0.006522 0.011099 -0.002127 0.000000 0.000775 0.000000
# 3 -0.009644 -0.002127 0.018642 0.000000 -0.004642 0.000000
# 4 0.000000 0.000000 0.000000 0.054317 0.000000 0.024972
# 5 0.001493 0.000775 -0.004642 0.000000 0.043506 0.000000
# 6 0.000000 0.000000 0.000000 0.024972 0.000000 0.086358
#
#
# Mechanical properties :
#
#
# Convention : Reuss Voigt Hill
#
# Bulk Modulus (GPa) = 43.53102 49.08633 46.30868
# Shear Modulus (GPa) = 17.36205 21.28655 19.32430
#
# Velocity S-wave (km/s) = 3.08912 3.42047 3.25901
# Velocity P-wave (km/s) = 6.05387 6.52523 6.29396
#
# Compressibility (1/GPa) = 0.02297212
#
# Stress axis : x y z
#
# Youngs Moduli (GPa) = 33.53636 90.09910 53.64256
#
# Poissons Ratio (x) = 0.58767 0.51732
# Poissons Ratio (y) = 0.21874 0.11411
# Poissons Ratio (z) = 0.32342 0.19167
#
# Static dielectric constant tensor:
#      x y z
#    x -0.725510 0.000000 3.515290 
#    y 0.000000 1.644750 0.000000 
#    z 3.515290 0.000000 -3.420750 
# 
# From -- ./inp_files/72421.got.cif
#   From: 2010.05.17/outbox.cif.g08.bks.cpg/sg13_37_cif.got.tgz:72421.got - 2010.06.03 16:44:36.
