data_PCOD9230173
_publ_section_title
;
Structure prediction by ZEFSAII (Michael W. Deem and Ramdas Pophale) SiO2 
 PCOD9230173
Probable space group: P 2/C
;
_chemical_formula_sum "Si O2"
_cell_formula_units_Z 28
_cell_length_a 19.205251
_cell_length_b 13.120312
_cell_length_c 15.651899
_cell_angle_alpha 90.000000
_cell_angle_beta 159.334647
_cell_angle_gamma 90.000000
_cell_volume 1391.855209
_symmetry_space_group_name_H-M "P 2/C"
_symmetry_group_IT_number 13
_symmetry_cell_setting 'monoclinic'
loop_
_space_group_symop_operation_xyz
x,y,z
-x,y,1/2-z
-x,-y,-z
x,-y,1/2+z
loop_
_atom_site_type_symbol
_atom_site_label
_atom_site_fract_x
_atom_site_fract_y
_atom_site_fract_z
Si Si1 0.975626 0.214159 0.620354
Si Si2 0.206499 0.818293 0.877989
Si Si3 0.216031 0.380476 0.799408
Si Si4 0.567907 0.689388 0.589673
Si Si5 0.082389 0.990329 0.941620
Si Si6 0.825552 0.599747 0.739599
Si Si7 0.587562 0.139001 0.710761
O O1 0.761823 0.260159 0.353211
O O2 0.975443 0.098216 0.585010
O O3 0.000000 0.213446 0.750000
O O4 0.142271 0.285408 0.770368
O O5 0.193499 0.700329 0.839078
O O6 0.264592 0.824137 0.044135
O O7 0.380990 0.868713 0.022678
O O8 0.019188 0.887619 0.640964
O O9 0.210386 0.488955 0.841808
O O10 0.044626 0.394335 0.531089
O O11 0.423818 0.360673 0.992876
O O12 0.662536 0.613747 0.627665
O O13 0.444899 0.776708 0.398715
O O14 0.000000 0.998673 0.750000
O O15 0.314646 0.965950 0.208203
#
# Coordination Sequence:
#
# PCOD9230173 Si02
#       7
#     4   4   4   4   4   4   4
#     4  10  23  40  54  77 109 144 189 226 260 323
#     4   9  17  33  55  81 110 137 172 222 273 321
#     4  10  20  37  58  79 110 149 179 218 273 316
#     4  10  20  36  56  80 111 142 180 225 270 323
#     4   9  18  34  55  77 108 143 175 220 273 321
#     4   9  19  36  57  84 113 139 177 221 267 326
#     4   9  18  32  53  82 108 135 176 221 272 326
#
# _framework density 20.117034
#
# number of rings (size 3 to 8) (size 9 to 14) (size 15 to 20)
#    0.000    2.571    0.000    1.286    0.000    2.286 
#    0.000   25.000    0.000    0.000    0.000    0.000 
#    0.000    0.000    0.000    0.000    0.000    0.000 
#
# Total GULP energy -156110.457454 kJ/mol
# GULP energy per Si atom -5575.373481 kJ/mol
# Density = 2.007125 g / cm^3
# Si number density = 20.117034 Si / 1000 Ang^3
#
#
#
# Elastic Constant Matrix: (Units=GPa)
#
#
# Indices 1 2 3 4 5 6 
#
# 1 36.2842 39.7807 13.6040 0.0000 5.8632 0.0000
# 2 39.7807 141.0601 30.1671 0.0000 21.5913 0.0000
# 3 13.6040 30.1671 52.7645 0.0000 15.0838 0.0000
# 4 0.0000 0.0000 0.0000 15.5317 0.0000 -9.2987
# 5 5.8632 21.5913 15.0838 0.0000 23.3900 0.0000
# 6 0.0000 0.0000 0.0000 -9.2987 0.0000 25.2315
#
#
#
# Elastic Compliance Matrix: (Units=1/GPa)
#
#
# Indices 1 2 3 4 5 6 
#
# 1 0.040988 -0.010928 -0.005231 0.000000 0.003187 0.000000
# 2 -0.010928 0.011609 -0.001887 0.000000 -0.006760 0.000000
# 3 -0.005231 -0.001887 0.025142 0.000000 -0.013160 0.000000
# 4 0.000000 0.000000 0.000000 0.082612 0.000000 0.030446
# 5 0.003187 -0.006760 -0.013160 0.000000 0.056682 0.000000
# 6 0.000000 0.000000 0.000000 0.030446 0.000000 0.050853
#
#
# Mechanical properties :
#
#
# Convention : Reuss Voigt Hill
#
# Bulk Modulus (GPa) = 24.01152 44.13470 34.07311
# Shear Modulus (GPa) = 15.73016 22.60110 19.16563
#
# Velocity S-wave (km/s) = 2.79934 3.35547 3.08994
# Velocity P-wave (km/s) = 4.73394 6.08267 5.45019
#
# Compressibility (1/GPa) = 0.04164667
#
# Stress axis : x y z
#
# Youngs Moduli (GPa) = 24.39758 86.13678 39.77429
#
# Poissons Ratio (x) = 0.94132 0.20804
# Poissons Ratio (y) = 0.26662 0.07507
# Poissons Ratio (z) = 0.12761 0.16257
#
# Static dielectric constant tensor:
#      x y z
#    x 1.733030 0.000000 0.003780 
#    y 0.000000 1.750870 0.000000 
#    z 0.003780 0.000000 1.709660 
# 
# From -- ./inp_files/70730.got.cif
#   From: 2010.05.17/outbox.cif.g08.bks.cpg/sg13_36_cif.got.tgz:70730.got - 2010.06.03 16:44:36.
