data_PCOD9230883
_publ_section_title
;
Structure prediction by ZEFSAII (Michael W. Deem and Ramdas Pophale) SiO2 
 PCOD9230883
Probable space group: P 2/C
;
_chemical_formula_sum "Si O2"
_cell_formula_units_Z 28
_cell_length_a 14.934245
_cell_length_b 12.571638
_cell_length_c 9.299981
_cell_angle_alpha 90.000000
_cell_angle_beta 116.864486
_cell_angle_gamma 90.000000
_cell_volume 1557.614311
_symmetry_space_group_name_H-M "P 2/C"
_symmetry_group_IT_number 13
_symmetry_cell_setting 'monoclinic'
loop_
_space_group_symop_operation_xyz
x,y,z
-x,y,1/2-z
-x,-y,-z
x,-y,1/2+z
loop_
_atom_site_type_symbol
_atom_site_label
_atom_site_fract_x
_atom_site_fract_y
_atom_site_fract_z
Si Si1 0.117682 0.288371 0.355308
Si Si2 0.382103 0.975553 0.394510
Si Si3 0.926627 0.474995 0.579059
Si Si4 0.117267 0.074304 0.857746
Si Si5 0.380999 0.153368 0.181365
Si Si6 0.195032 0.725801 0.592383
Si Si7 0.212575 0.886143 0.114716
O O1 0.114916 0.413673 0.390756
O O2 0.172576 0.265854 0.245167
O O3 0.173768 0.223703 0.520644
O O4 0.000000 0.256816 0.250000
O O5 0.355218 0.922266 0.526776
O O6 0.331926 0.897690 0.237620
O O7 0.500000 0.000000 0.500000
O O8 0.349909 0.089033 0.303889
O O9 0.843742 0.389589 0.480265
O O10 0.000000 0.424590 0.750000
O O11 0.000000 0.500000 0.500000
O O12 0.163291 0.091784 0.733626
O O13 0.000000 0.053113 0.750000
O O14 0.135627 0.179899 0.966702
O O15 0.169802 0.975597 0.976038
O O16 0.500000 0.173568 0.250000
O O17 0.310347 0.255035 0.133018
#
# Coordination Sequence:
#
# PCOD9230883 Si02
#       7
#     4   4   4   4   4   4   4
#     4  11  24  40  60  91 126 167 209 256 307 380
#     4  10  20  38  59  88 122 158 206 253 305 370
#     4  11  23  42  63  92 124 164 212 258 310 378
#     4  12  24  35  55  87 125 167 198 245 309 376
#     4  10  22  39  62  92 120 164 207 259 311 367
#     4  12  22  39  65  87 125 162 206 262 312 369
#     4  12  22  38  56  87 126 162 203 249 311 375
#
# _framework density 17.976209000000001
#
# number of rings (size 3 to 8) (size 9 to 14) (size 15 to 20)
#    0.000    0.857    5.714    3.000    4.000    0.000 
#    0.000    0.000    0.000    0.857    0.000    0.000 
#    0.000    0.000    0.000    0.000    0.000    0.000 
#
# Total GULP energy -156091.239769 kJ/mol
# GULP energy per Si atom -5574.687135 kJ/mol
# Density = 1.793529 g / cm^3
# Si number density = 17.976209 Si / 1000 Ang^3
#
#
#
# Elastic Constant Matrix: (Units=GPa)
#
#
# Indices 1 2 3 4 5 6 
#
# 1 104.4441 41.0774 47.9456 0.0000 7.6340 0.0000
# 2 41.0774 85.7044 36.7778 0.0000 4.2091 0.0000
# 3 47.9456 36.7778 111.2942 0.0000 0.4664 0.0000
# 4 0.0000 0.0000 0.0000 34.1408 0.0000 4.7952
# 5 7.6340 4.2091 0.4664 0.0000 44.2886 0.0000
# 6 0.0000 0.0000 0.0000 4.7952 0.0000 33.2568
#
#
#
# Elastic Compliance Matrix: (Units=1/GPa)
#
#
# Indices 1 2 3 4 5 6 
#
# 1 0.013458 -0.004515 -0.004298 0.000000 -0.001845 0.000000
# 2 -0.004515 0.015180 -0.003068 0.000000 -0.000632 0.000000
# 3 -0.004298 -0.003068 0.011847 0.000000 0.000908 0.000000
# 4 0.000000 0.000000 0.000000 0.029896 0.000000 -0.004311
# 5 -0.001845 -0.000632 0.000908 0.000000 0.022948 0.000000
# 6 0.000000 0.000000 0.000000 -0.004311 0.000000 0.030691
#
#
# Mechanical properties :
#
#
# Convention : Reuss Voigt Hill
#
# Bulk Modulus (GPa) = 59.80295 61.44937 60.62616
# Shear Modulus (GPa) = 32.60370 34.04673 33.32521
#
# Velocity S-wave (km/s) = 4.26339 4.35672 4.31031
# Velocity P-wave (km/s) = 7.58785 7.71790 7.65315
#
# Compressibility (1/GPa) = 0.01672158
#
# Stress axis : x y z
#
# Youngs Moduli (GPa) = 74.30369 65.87617 84.41016
#
# Poissons Ratio (x) = 0.29746 0.36279
# Poissons Ratio (y) = 0.33552 0.25900
# Poissons Ratio (z) = 0.31935 0.20213
#
# Static dielectric constant tensor:
#      x y z
#    x 1.667670 0.000000 0.017310 
#    y 0.000000 1.605810 0.000000 
#    z 0.017310 0.000000 1.646690 
# 
# From -- ./inp_files/18829.got.cif
#   From: 2010.05.17/outbox.cif.g08.bks.cpg/sg13_10_cif.got.tgz:18829.got - 2010.06.03 16:44:36.
