data_PCOD9230486
_publ_section_title
;
Structure prediction by ZEFSAII (Michael W. Deem and Ramdas Pophale) SiO2 
 PCOD9230486
Probable space group: P 2/C
;
_chemical_formula_sum "Si O2"
_cell_formula_units_Z 16
_cell_length_a 8.839781
_cell_length_b 8.540408
_cell_length_c 17.605382
_cell_angle_alpha 90.000000
_cell_angle_beta 33.621736
_cell_angle_gamma 90.000000
_cell_volume 735.946045
_symmetry_space_group_name_H-M "P 2/C"
_symmetry_group_IT_number 13
_symmetry_cell_setting 'monoclinic'
loop_
_space_group_symop_operation_xyz
x,y,z
-x,y,1/2-z
-x,-y,-z
x,-y,1/2+z
loop_
_atom_site_type_symbol
_atom_site_label
_atom_site_fract_x
_atom_site_fract_y
_atom_site_fract_z
Si Si1 0.495771 0.248729 0.386705
Si Si2 0.090841 0.175087 0.828347
Si Si3 0.500000 0.998729 0.250000
Si Si4 0.000000 0.907051 0.750000
Si Si5 0.696675 0.456159 0.847245
O O1 0.477885 0.114710 0.330670
O O2 0.718850 0.187336 0.355072
O O3 0.614856 0.418845 0.316349
O O4 0.184467 0.270616 0.542522
O O5 0.291317 0.280922 0.692246
O O6 0.245377 0.113779 0.838000
O O7 0.987382 0.022161 0.826949
O O8 0.000000 0.486562 0.750000
O O9 0.500000 0.500000 0.000000
#
# Coordination Sequence:
#
# PCOD9230486 Si02
#       5
#     4   4   2   2   4
#     4  11  22  41  65  96 133 172 221 269 328 392
#     4  11  22  43  65  96 133 172 222 270 328 392
#     4  10  26  44  62  98 132 180 216 266 332 394
#     4  10  20  36  66  96 126 170 220 280 320 384
#     4  12  23  42  68 102 131 170 221 280 330 383
#
# _framework density 21.740725999999999
#
# number of rings (size 3 to 8) (size 9 to 14) (size 15 to 20)
#    0.000    1.000    5.000    1.500    0.000    3.000 
#    4.500    2.500    0.000    0.000    0.000    0.000 
#    0.000    0.000    0.000    0.000    0.000    0.000 
#
# Total GULP energy -89232.132399 kJ/mol
# GULP energy per Si atom -5577.008275 kJ/mol
# Density = 2.169124 g / cm^3
# Si number density = 21.740726 Si / 1000 Ang^3
#
#
#
# Elastic Constant Matrix: (Units=GPa)
#
#
# Indices 1 2 3 4 5 6 
#
# 1 128.2812 42.0467 36.4222 0.0000 -26.7434 0.0000
# 2 42.0467 102.4966 30.0719 0.0000 -5.1290 0.0000
# 3 36.4222 30.0719 87.5195 0.0000 -15.9687 0.0000
# 4 0.0000 0.0000 0.0000 31.6314 0.0000 -1.4201
# 5 -26.7434 -5.1290 -15.9687 0.0000 19.2392 0.0000
# 6 0.0000 0.0000 0.0000 -1.4201 0.0000 43.9094
#
#
#
# Elastic Compliance Matrix: (Units=1/GPa)
#
#
# Indices 1 2 3 4 5 6 
#
# 1 0.012717 -0.004136 -0.000998 0.000000 0.015746 0.000000
# 2 -0.004136 0.012196 -0.003447 0.000000 -0.005359 0.000000
# 3 -0.000998 -0.003447 0.014855 0.000000 0.010023 0.000000
# 4 0.000000 0.000000 0.000000 0.031660 0.000000 0.001024
# 5 0.015746 -0.005359 0.010023 0.000000 0.080756 0.000000
# 6 0.000000 0.000000 0.000000 0.001024 0.000000 0.022807
#
#
# Mechanical properties :
#
#
# Convention : Reuss Voigt Hill
#
# Bulk Modulus (GPa) = 44.23751 59.48653 51.86202
# Shear Modulus (GPa) = 25.03885 32.93978 28.98931
#
# Velocity S-wave (km/s) = 3.39736 3.89668 3.65555
# Velocity P-wave (km/s) = 5.98175 6.90410 6.45941
#
# Compressibility (1/GPa) = 0.02260525
#
# Stress axis : x y z
#
# Youngs Moduli (GPa) = 78.63378 81.99154 67.31884
#
# Poissons Ratio (x) = 0.33913 0.06719
# Poissons Ratio (y) = 0.32524 0.23206
# Poissons Ratio (z) = 0.07849 0.28264
#
# Static dielectric constant tensor:
#      x y z
#    x 1.806390 0.000000 0.040670 
#    y 0.000000 1.841380 0.000000 
#    z 0.040670 0.000000 1.833340 
# 
# From -- ./inp_files/10882.got.cif
#   From: 2010.05.17/outbox.cif.g08.bks.cpg/sg13_6_cif.got.tgz:10882.got - 2010.06.03 16:44:36.
