data_PCOD9230358
_publ_section_title
;
Structure prediction by ZEFSAII (Michael W. Deem and Ramdas Pophale) SiO2 
 PCOD9230358
Probable space group: P 2/C
;
_chemical_formula_sum "Si O2"
_cell_formula_units_Z 26
_cell_length_a 8.431977
_cell_length_b 9.518643
_cell_length_c 21.006493
_cell_angle_alpha 90.000000
_cell_angle_beta 134.097210
_cell_angle_gamma 90.000000
_cell_volume 1210.819284
_symmetry_space_group_name_H-M "P 2/C"
_symmetry_group_IT_number 13
_symmetry_cell_setting 'monoclinic'
loop_
_space_group_symop_operation_xyz
x,y,z
-x,y,1/2-z
-x,-y,-z
x,-y,1/2+z
loop_
_atom_site_type_symbol
_atom_site_label
_atom_site_fract_x
_atom_site_fract_y
_atom_site_fract_z
Si Si1 0.468528 0.736224 0.501694
Si Si2 0.007458 0.843650 0.144803
Si Si3 0.000000 0.376531 0.250000
Si Si4 0.451495 0.252256 0.809715
Si Si5 0.891261 0.153202 0.969548
Si Si6 0.531000 0.498802 0.602682
Si Si7 0.950519 0.829394 0.625970
O O1 0.248402 0.809802 0.416026
O O2 0.425269 0.647759 0.554660
O O3 0.528272 0.615173 0.467538
O O4 0.687704 0.828968 0.569205
O O5 0.190679 0.776882 0.242289
O O6 0.050440 0.789215 0.084082
O O7 0.037968 0.012035 0.155528
O O8 0.791288 0.468726 0.172786
O O9 0.056841 0.276099 0.206202
O O10 0.500000 0.222810 0.750000
O O11 0.623276 0.154721 0.896269
O O12 0.510796 0.412248 0.844913
O O13 0.971263 0.219722 0.058249
O O14 0.000000 0.000000 0.000000
#
# Coordination Sequence:
#
# PCOD9230358 Si02
#       7
#     4   4   2   4   4   4   4
#     4  10  20  36  61  85 112 158 195 238 289 348
#     4  10  21  36  61  91 110 151 198 240 294 350
#     4  10  22  36  56  86 120 154 196 246 288 344
#     4  10  20  38  59  86 117 153 199 242 291 349
#     4   9  19  39  60  82 117 154 183 237 295 348
#     4  10  20  37  56  81 122 153 197 236 290 343
#     4  10  20  39  58  84 122 150 190 244 296 343
#
# _framework density 21.473064000000001
#
# number of rings (size 3 to 8) (size 9 to 14) (size 15 to 20)
#    0.000    2.154    1.538    1.385    0.000    1.231 
#   13.846    1.538    0.000    0.000    0.000    0.000 
#    0.000    0.000    0.000    0.000    0.000    0.000 
#
# Total GULP energy -144828.244454 kJ/mol
# GULP energy per Si atom -5570.317094 kJ/mol
# Density = 2.142419 g / cm^3
# Si number density = 21.473064 Si / 1000 Ang^3
#
#
#
# Elastic Constant Matrix: (Units=GPa)
#
#
# Indices 1 2 3 4 5 6 
#
# 1 33.5659 6.5386 8.0990 0.0000 3.7424 0.0000
# 2 6.5386 50.5470 21.3640 0.0000 -2.4274 0.0000
# 3 8.0990 21.3640 89.5265 0.0000 -7.9269 0.0000
# 4 0.0000 0.0000 0.0000 14.9339 0.0000 -0.4793
# 5 3.7424 -2.4274 -7.9269 0.0000 33.6912 0.0000
# 6 0.0000 0.0000 0.0000 -0.4793 0.0000 25.9064
#
#
#
# Elastic Compliance Matrix: (Units=1/GPa)
#
#
# Indices 1 2 3 4 5 6 
#
# 1 0.031497 -0.003243 -0.002457 0.000000 -0.004310 0.000000
# 2 -0.003243 0.022341 -0.004967 0.000000 0.000801 0.000000
# 3 -0.002457 -0.004967 0.012837 0.000000 0.002935 0.000000
# 4 0.000000 0.000000 0.000000 0.067001 0.000000 0.001240
# 5 -0.004310 0.000801 0.002935 0.000000 0.030909 0.000000
# 6 0.000000 0.000000 0.000000 0.001240 0.000000 0.038623
#
#
# Mechanical properties :
#
#
# Convention : Reuss Voigt Hill
#
# Bulk Modulus (GPa) = 22.05486 27.29363 24.67424
# Shear Modulus (GPa) = 20.86316 24.08215 22.47266
#
# Velocity S-wave (km/s) = 3.12043 3.35252 3.23855
# Velocity P-wave (km/s) = 4.82452 5.26537 5.04976
#
# Compressibility (1/GPa) = 0.04534149
#
# Stress axis : x y z
#
# Youngs Moduli (GPa) = 31.74876 44.76109 77.89763
#
# Poissons Ratio (x) = 0.14515 0.19141
# Poissons Ratio (y) = 0.10296 0.38692
# Poissons Ratio (z) = 0.07801 0.22233
#
# Static dielectric constant tensor:
#      x y z
#    x 1.848060 0.000000 -0.041750 
#    y 0.000000 1.760250 0.000000 
#    z -0.041750 0.000000 1.831830 
# 
# From -- ./inp_files/76007.got.cif
#   From: 2010.05.17/outbox.cif.g08.bks.cpg/sg13_39_cif.got.tgz:76007.got - 2010.06.03 16:44:36.
