data_PCOD9230736
_publ_section_title
;
Structure prediction by ZEFSAII (Michael W. Deem and Ramdas Pophale) SiO2 
 PCOD9230736
Probable space group: P 2/C
;
_chemical_formula_sum "Si O2"
_cell_formula_units_Z 26
_cell_length_a 19.521672
_cell_length_b 9.207389
_cell_length_c 8.202735
_cell_angle_alpha 90.000000
_cell_angle_beta 54.566717
_cell_angle_gamma 90.000000
_cell_volume 1201.319400
_symmetry_space_group_name_H-M "P 2/C"
_symmetry_group_IT_number 13
_symmetry_cell_setting 'monoclinic'
loop_
_space_group_symop_operation_xyz
x,y,z
-x,y,1/2-z
-x,-y,-z
x,-y,1/2+z
loop_
_atom_site_type_symbol
_atom_site_label
_atom_site_fract_x
_atom_site_fract_y
_atom_site_fract_z
Si Si1 0.887853 0.381252 0.694582
Si Si2 0.776392 0.791912 0.551911
Si Si3 0.366728 0.199240 0.841315
Si Si4 0.712034 0.538513 0.852576
Si Si5 0.544944 0.636029 0.520760
Si Si6 0.000000 0.600723 0.750000
Si Si7 0.706788 0.976287 0.352412
O O1 0.800471 0.458864 0.762157
O O2 0.941034 0.500285 0.718872
O O3 0.938232 0.324943 0.466685
O O4 0.864333 0.258054 0.856871
O O5 0.728127 0.646920 0.677678
O O6 0.730065 0.872198 0.468003
O O7 0.776690 0.905524 0.700745
O O8 0.449434 0.244556 0.628809
O O9 0.312298 0.120711 0.776954
O O10 0.321589 0.345897 0.966919
O O11 0.368654 0.082165 0.983925
O O12 0.638301 0.422208 0.932189
O O13 0.500000 0.680397 0.750000
O O14 0.500000 0.500000 0.500000
#
# Coordination Sequence:
#
# PCOD9230736 Si02
#       7
#     4   4   4   4   4   2   4
#     4  11  21  40  61  99 127 161 199 257 326 372
#     4  10  20  37  63  88 123 160 216 248 294 379
#     4  10  21  40  61  90 121 161 216 253 303 368
#     4  11  22  38  66  94 121 167 204 256 320 370
#     4  12  25  40  61  96 130 158 203 267 320 359
#     4  10  24  36  60 102 132 154 192 260 336 366
#     4   9  21  38  63  90 116 171 223 246 287 368
#
# _framework density 21.642869999999998
#
# number of rings (size 3 to 8) (size 9 to 14) (size 15 to 20)
#    0.000    1.538    3.077    1.846    4.308    0.000 
#    0.000    0.769    0.000    2.769    0.000    0.000 
#    0.000    0.000    0.000    0.000    0.000    0.000 
#
# Total GULP energy -145100.428254 kJ/mol
# GULP energy per Si atom -5580.785702 kJ/mol
# Density = 2.159361 g / cm^3
# Si number density = 21.642870 Si / 1000 Ang^3
#
#
#
# Elastic Constant Matrix: (Units=GPa)
#
#
# Indices 1 2 3 4 5 6 
#
# 1 62.0814 4.9037 6.5930 0.0000 -8.3081 0.0000
# 2 4.9037 67.1579 43.1420 0.0000 0.3692 0.0000
# 3 6.5930 43.1420 188.8751 0.0000 13.7842 0.0000
# 4 0.0000 0.0000 0.0000 40.7764 0.0000 8.7230
# 5 -8.3081 0.3692 13.7842 0.0000 26.9316 0.0000
# 6 0.0000 0.0000 0.0000 8.7230 0.0000 12.3495
#
#
#
# Elastic Compliance Matrix: (Units=1/GPa)
#
#
# Indices 1 2 3 4 5 6 
#
# 1 0.017017 -0.000733 -0.000842 0.000000 0.005690 0.000000
# 2 -0.000733 0.017574 -0.004108 0.000000 0.001635 0.000000
# 3 -0.000842 -0.004108 0.006521 0.000000 -0.003541 0.000000
# 4 0.000000 0.000000 0.000000 0.028889 0.000000 -0.020406
# 5 0.005690 0.001635 -0.003541 0.000000 0.040676 0.000000
# 6 0.000000 0.000000 0.000000 -0.020406 0.000000 0.095389
#
#
# Mechanical properties :
#
#
# Convention : Reuss Voigt Hill
#
# Bulk Modulus (GPa) = 33.61849 47.48797 40.55323
# Shear Modulus (GPa) = 21.99293 33.57655 27.78474
#
# Velocity S-wave (km/s) = 3.19121 3.94304 3.58688
# Velocity P-wave (km/s) = 5.39865 6.53601 5.99436
#
# Compressibility (1/GPa) = 0.02974554
#
# Stress axis : x y z
#
# Youngs Moduli (GPa) = 58.76578 56.90325 153.36021
#
# Poissons Ratio (x) = 0.04171 0.12911
# Poissons Ratio (y) = 0.04308 0.62998
# Poissons Ratio (z) = 0.04947 0.23375
#
# Static dielectric constant tensor:
#      x y z
#    x 1.846460 0.000000 -0.022960 
#    y 0.000000 1.829040 0.000000 
#    z -0.022960 0.000000 1.914100 
# 
# From -- ./inp_files/22939.got.cif
#   From: 2010.05.17/outbox.cif.g08.bks.cpg/sg13_12_cif.got.tgz:22939.got - 2010.06.03 16:44:36.
