data_PCOD9230738
_publ_section_title
;
Structure prediction by ZEFSAII (Michael W. Deem and Ramdas Pophale) SiO2 
 PCOD9230738
Probable space group: P 2/C
;
_chemical_formula_sum "Si O2"
_cell_formula_units_Z 24
_cell_length_a 12.940654
_cell_length_b 16.973130
_cell_length_c 11.794600
_cell_angle_alpha 90.000000
_cell_angle_beta 23.007083
_cell_angle_gamma 90.000000
_cell_volume 1012.525224
_symmetry_space_group_name_H-M "P 2/C"
_symmetry_group_IT_number 13
_symmetry_cell_setting 'monoclinic'
loop_
_space_group_symop_operation_xyz
x,y,z
-x,y,1/2-z
-x,-y,-z
x,-y,1/2+z
loop_
_atom_site_type_symbol
_atom_site_label
_atom_site_fract_x
_atom_site_fract_y
_atom_site_fract_z
Si Si1 0.500000 0.230434 0.250000
Si Si2 0.134575 0.177425 0.869956
Si Si3 0.000000 0.449620 0.750000
Si Si4 0.500000 0.965270 0.250000
Si Si5 0.743507 0.536506 0.821319
Si Si6 0.669684 0.893192 0.726047
Si Si7 0.000000 0.141066 0.250000
Si Si8 0.217795 0.677638 0.854094
O O1 0.285234 0.163992 0.430402
O O2 0.536642 0.287396 0.321213
O O3 0.934483 0.109214 0.030270
O O4 0.103214 0.187249 0.036031
O O5 0.999813 0.255170 0.950250
O O6 0.426780 0.148927 0.538736
O O7 0.214995 0.505438 0.593489
O O8 0.112634 0.389193 0.544333
O O9 0.248335 0.912839 0.534045
O O10 0.414789 0.022343 0.233431
O O11 0.723058 0.630189 0.820703
O O12 0.000000 0.500000 0.500000
O O13 0.500000 0.500000 0.000000
#
# Coordination Sequence:
#
# PCOD9230738 Si02
#       8
#     2   4   2   2   4   4   2   4
#     4   9  18  34  62  92 119 154 202 258 311 368
#     4  11  24  40  61  90 123 162 209 255 304 375
#     4  10  20  37  63  90 120 158 208 256 306 372
#     4  11  24  42  66  92 125 162 198 260 319 366
#     4  10  22  37  58  90 121 155 201 247 305 373
#     4  10  22  40  64  93 119 155 212 257 304 370
#     4  12  26  41  59  88 126 168 210 250 316 384
#     4  10  20  37  63  88 124 162 199 259 316 357
#
# _framework density 23.703115
#
# number of rings (size 3 to 8) (size 9 to 14) (size 15 to 20)
#    0.000    1.667    0.000    4.000    0.000   15.333 
#    0.000    0.000    0.000   12.000    0.000    0.000 
#    0.000    0.000    0.000    0.000    0.000    0.000 
#
# Total GULP energy -133845.021645 kJ/mol
# GULP energy per Si atom -5576.875902 kJ/mol
# Density = 2.364917 g / cm^3
# Si number density = 23.703115 Si / 1000 Ang^3
#
#
#
# Elastic Constant Matrix: (Units=GPa)
#
#
# Indices 1 2 3 4 5 6 
#
# 1 111.5289 36.1988 25.2658 0.0000 -1.8039 0.0000
# 2 36.1988 74.7040 18.0147 0.0000 -1.4468 0.0000
# 3 25.2658 18.0147 124.0865 0.0000 -13.1579 0.0000
# 4 0.0000 0.0000 0.0000 13.2419 0.0000 -15.5303
# 5 -1.8039 -1.4468 -13.1579 0.0000 35.5610 0.0000
# 6 0.0000 0.0000 0.0000 -15.5303 0.0000 -36.8511
#
#
#
# Elastic Compliance Matrix: (Units=1/GPa)
#
#
# Indices 1 2 3 4 5 6 
#
# 1 0.010906 -0.004920 -0.001529 0.000000 -0.000213 0.000000
# 2 -0.004920 0.016093 -0.001344 0.000000 -0.000092 0.000000
# 3 -0.001529 -0.001344 0.008901 0.000000 0.003161 0.000000
# 4 0.000000 0.000000 0.000000 0.050538 0.000000 -0.021299
# 5 -0.000213 -0.000092 0.003161 0.000000 0.029276 0.000000
# 6 0.000000 0.000000 0.000000 -0.021299 0.000000 -0.018160
#
#
# Mechanical properties :
#
#
# Convention : Reuss Voigt Hill
#
# Bulk Modulus (GPa) = 49.23023 52.14200 50.68611
# Shear Modulus (GPa) = 41.69767 17.77971 29.73869
#
# Velocity S-wave (km/s) = 4.19879 2.74177 3.54592
# Velocity P-wave (km/s) = 6.65741 5.66293 6.18020
#
# Compressibility (1/GPa) = 0.02031272
#
# Stress axis : x y z
#
# Youngs Moduli (GPa) = 91.69162 62.14008 112.35258
#
# Poissons Ratio (x) = 0.30574 0.17178
# Poissons Ratio (y) = 0.45114 0.15103
# Poissons Ratio (z) = 0.14019 0.08353
#
# Static dielectric constant tensor:
#      x y z
#    x 2.125250 0.000000 0.129240 
#    y 0.000000 1.957840 0.000000 
#    z 0.129240 0.000000 1.986740 
# 
# From -- ./inp_files/34755.got.cif
#   From: 2010.05.17/outbox.cif.g08.bks.cpg/sg13_18_cif.got.tgz:34755.got - 2010.06.03 16:44:36.
