data_PCOD9230818
_publ_section_title
;
Structure prediction by ZEFSAII (Michael W. Deem and Ramdas Pophale) SiO2 
 PCOD9230818
Probable space group: P 2/C
;
_chemical_formula_sum "Si O2"
_cell_formula_units_Z 32
_cell_length_a 22.427987
_cell_length_b 12.481942
_cell_length_c 11.377718
_cell_angle_alpha 90.000000
_cell_angle_beta 146.197010
_cell_angle_gamma 90.000000
_cell_volume 1772.013847
_symmetry_space_group_name_H-M "P 2/C"
_symmetry_group_IT_number 13
_symmetry_cell_setting 'monoclinic'
loop_
_space_group_symop_operation_xyz
x,y,z
-x,y,1/2-z
-x,-y,-z
x,-y,1/2+z
loop_
_atom_site_type_symbol
_atom_site_label
_atom_site_fract_x
_atom_site_fract_y
_atom_site_fract_z
Si Si1 0.607301 0.742080 0.647010
Si Si2 0.360803 0.218389 0.673500
Si Si3 0.969222 0.867364 0.571094
Si Si4 0.046964 0.115929 0.949216
Si Si5 0.630269 0.590638 0.469255
Si Si6 0.274824 0.845815 0.269447
Si Si7 0.696515 0.083500 0.143420
Si Si8 0.373955 0.349852 0.066409
O O1 0.479626 0.762991 0.421580
O O2 0.648706 0.655665 0.619146
O O3 0.660677 0.854668 0.701840
O O4 0.637009 0.694771 0.820587
O O5 0.328577 0.334272 0.568873
O O6 0.281384 0.169078 0.639666
O O7 0.361551 0.140255 0.561830
O O8 0.841793 0.856192 0.365183
O O9 0.000000 0.821091 0.750000
O O10 0.014596 0.828700 0.519771
O O11 0.999953 0.994029 0.624654
O O12 0.000000 0.163343 0.750000
O O13 0.175544 0.102911 0.157289
O O14 0.500000 0.588425 0.250000
O O15 0.670319 0.469446 0.526661
O O16 0.327584 0.739361 0.405435
O O17 0.330031 0.958380 0.391831
O O18 0.500000 0.357744 0.250000
#
# Coordination Sequence:
#
# PCOD9230818 Si02
#       8
#     4   4   4   4   4   4   4   4
#     4  10  21  37  53  76 111 146 181 213 262 320
#     4  10  20  38  52  77 109 148 181 210 261 321
#     4   9  18  34  52  75 101 136 179 227 266 309
#     4   9  18  32  53  74 102 137 179 224 268 309
#     4   8  19  35  57  72 100 142 183 231 262 296
#     4  11  23  32  54  81 112 139 179 217 266 328
#     4  10  22  35  53  77 112 150 172 211 267 331
#     4  11  22  34  53  82 108 140 184 227 263 303
#
# _framework density 18.05855
#
# number of rings (size 3 to 8) (size 9 to 14) (size 15 to 20)
#    0.000    2.250    1.250    1.875    5.250    5.000 
#    0.000    0.000    0.000    0.000    0.000   11.375 
#    0.000    0.000    0.000    0.000    0.000    0.000 
#
# Total GULP energy -178235.770747 kJ/mol
# GULP energy per Si atom -5569.867836 kJ/mol
# Density = 1.801745 g / cm^3
# Si number density = 18.058550 Si / 1000 Ang^3
#
#
#
# Elastic Constant Matrix: (Units=GPa)
#
#
# Indices 1 2 3 4 5 6 
#
# 1 91.7272 14.3169 4.3659 0.0000 -12.9526 0.0000
# 2 14.3169 107.9099 3.2501 0.0000 -5.5634 0.0000
# 3 4.3659 3.2501 20.8579 0.0000 -11.4989 0.0000
# 4 0.0000 0.0000 0.0000 -8.5616 0.0000 -5.3827
# 5 -12.9526 -5.5634 -11.4989 0.0000 24.6429 0.0000
# 6 0.0000 0.0000 0.0000 -5.3827 0.0000 14.3374
#
#
#
# Elastic Compliance Matrix: (Units=1/GPa)
#
#
# Indices 1 2 3 4 5 6 
#
# 1 0.011975 -0.001287 0.001351 0.000000 0.006634 0.000000
# 2 -0.001287 0.009517 -0.000541 0.000000 0.001219 0.000000
# 3 0.001351 -0.000541 0.064718 0.000000 0.030787 0.000000
# 4 0.000000 0.000000 0.000000 -0.094496 0.000000 -0.035477
# 5 0.006634 0.001219 0.030787 0.000000 0.058708 0.000000
# 6 0.000000 0.000000 0.000000 -0.035477 0.000000 0.056428
#
#
# Mechanical properties :
#
#
# Convention : Reuss Voigt Hill
#
# Bulk Modulus (GPa) = 11.72946 29.37340 20.55143
# Shear Modulus (GPa) = 36.70459 19.32122 28.01290
#
# Velocity S-wave (km/s) = 4.51325 3.27451 3.94283
# Velocity P-wave (km/s) = 5.80247 5.53150 5.66860
#
# Compressibility (1/GPa) = 0.08525542
#
# Stress axis : x y z
#
# Youngs Moduli (GPa) = 83.50487 105.07543 15.45176
#
# Poissons Ratio (x) = 0.13528 -0.02088
# Poissons Ratio (y) = 0.10751 0.00836
# Poissons Ratio (z) = -0.11286 0.05687
#
# Static dielectric constant tensor:
#      x y z
#    x 1.655610 0.000000 -0.016480 
#    y 0.000000 1.617880 0.000000 
#    z -0.016480 0.000000 1.637500 
# 
# From -- ./inp_files/40704.got.cif
#   From: 2010.05.17/outbox.cif.g08.bks.cpg/sg13_21_cif.got.tgz:40704.got - 2010.06.03 16:44:36.
