data_PCOD9230898
_publ_section_title
;
Structure prediction by ZEFSAII (Michael W. Deem and Ramdas Pophale) SiO2 
 PCOD9230898
Probable space group: P 2/C
;
_chemical_formula_sum "Si O2"
_cell_formula_units_Z 18
_cell_length_a 11.787487
_cell_length_b 8.092492
_cell_length_c 15.446914
_cell_angle_alpha 90.000000
_cell_angle_beta 39.369035
_cell_angle_gamma 90.000000
_cell_volume 934.649358
_symmetry_space_group_name_H-M "P 2/C"
_symmetry_group_IT_number 13
_symmetry_cell_setting 'monoclinic'
loop_
_space_group_symop_operation_xyz
x,y,z
-x,y,1/2-z
-x,-y,-z
x,-y,1/2+z
loop_
_atom_site_type_symbol
_atom_site_label
_atom_site_fract_x
_atom_site_fract_y
_atom_site_fract_z
Si Si1 0.838539 0.125880 0.579816
Si Si2 0.500000 0.903357 0.750000
Si Si3 0.586400 0.624720 0.568665
Si Si4 0.279729 0.624866 0.200253
Si Si5 0.935702 0.546342 0.940935
O O1 0.784084 0.228084 0.698956
O O2 0.889590 0.261344 0.477081
O O3 0.671491 0.018431 0.649636
O O4 0.000000 0.000000 0.500000
O O5 0.506847 0.781123 0.664561
O O6 0.643120 0.673900 0.438223
O O7 0.435544 0.482342 0.653777
O O8 0.761186 0.555021 0.515117
O O9 0.108283 0.506681 0.284312
O O10 0.000000 0.500000 0.000000
#
# Coordination Sequence:
#
# PCOD9230898 Si02
#       5
#     4   2   4   4   4
#     4  11  22  37  58  86 119 151 185 238 296 343
#     4  12  22  36  60  88 120 150 186 240 298 344
#     4  11  22  39  62  85 114 156 199 238 279 341
#     4  10  22  40  61  84 115 155 199 237 279 342
#     4  10  20  38  60  82 112 152 197 233 275 341
#
# _framework density 19.258559000000002
#
# number of rings (size 3 to 8) (size 9 to 14) (size 15 to 20)
#    0.000    1.333    0.000    8.667    0.000    0.889 
#    0.000    4.444    0.000    0.000    0.000    0.000 
#    0.000    0.000    0.000    0.000    0.000    0.000 
#
# Total GULP energy -100551.317267 kJ/mol
# GULP energy per Si atom -5586.184293 kJ/mol
# Density = 1.921473 g / cm^3
# Si number density = 19.258559 Si / 1000 Ang^3
#
#
#
# Elastic Constant Matrix: (Units=GPa)
#
#
# Indices 1 2 3 4 5 6 
#
# 1 58.3896 16.1105 9.9845 0.0000 -10.8104 0.0000
# 2 16.1105 80.5493 22.6924 0.0000 15.7642 0.0000
# 3 9.9845 22.6924 80.2174 0.0000 4.4457 0.0000
# 4 0.0000 0.0000 0.0000 49.6353 0.0000 -9.8612
# 5 -10.8104 15.7642 4.4457 0.0000 46.3303 0.0000
# 6 0.0000 0.0000 0.0000 -9.8612 0.0000 12.6699
#
#
#
# Elastic Compliance Matrix: (Units=1/GPa)
#
#
# Indices 1 2 3 4 5 6 
#
# 1 0.019898 -0.004824 -0.001468 0.000000 0.006425 0.000000
# 2 -0.004824 0.015545 -0.003460 0.000000 -0.006083 0.000000
# 3 -0.001468 -0.003460 0.013654 0.000000 -0.000476 0.000000
# 4 0.000000 0.000000 0.000000 0.023832 0.000000 0.018549
# 5 0.006425 -0.006083 -0.000476 0.000000 0.025199 0.000000
# 6 0.000000 0.000000 0.000000 0.018549 0.000000 0.093364
#
#
# Mechanical properties :
#
#
# Convention : Reuss Voigt Hill
#
# Bulk Modulus (GPa) = 33.79156 35.19237 34.49196
# Shear Modulus (GPa) = 22.63889 33.08503 27.86196
#
# Velocity S-wave (km/s) = 3.43231 4.14930 3.80772
# Velocity P-wave (km/s) = 5.76992 6.42409 6.10577
#
# Compressibility (1/GPa) = 0.02959319
#
# Stress axis : x y z
#
# Youngs Moduli (GPa) = 50.25679 64.33089 73.23875
#
# Poissons Ratio (x) = 0.31030 0.10753
# Poissons Ratio (y) = 0.24241 0.25340
# Poissons Ratio (z) = 0.07379 0.22258
#
# Static dielectric constant tensor:
#      x y z
#    x 1.669650 0.000000 0.016160 
#    y 0.000000 1.658700 0.000000 
#    z 0.016160 0.000000 1.689240 
# 
# From -- ./inp_files/65827.got.cif
#   From: 2010.05.17/outbox.cif.g08.bks.cpg/sg13_33_cif.got.tgz:65827.got - 2010.06.03 16:44:36.
