data_PCOD9230865
_publ_section_title
;
Structure prediction by ZEFSAII (Michael W. Deem and Ramdas Pophale) SiO2 
 PCOD9230865
Probable space group: P 2/C
;
_chemical_formula_sum "Si O2"
_cell_formula_units_Z 18
_cell_length_a 5.214552
_cell_length_b 22.540245
_cell_length_c 9.201419
_cell_angle_alpha 90.000000
_cell_angle_beta 50.915587
_cell_angle_gamma 90.000000
_cell_volume 839.487288
_symmetry_space_group_name_H-M "P 2/C"
_symmetry_group_IT_number 13
_symmetry_cell_setting 'monoclinic'
loop_
_space_group_symop_operation_xyz
x,y,z
-x,y,1/2-z
-x,-y,-z
x,-y,1/2+z
loop_
_atom_site_type_symbol
_atom_site_label
_atom_site_fract_x
_atom_site_fract_y
_atom_site_fract_z
Si Si1 0.000000 0.999881 0.250000
Si Si2 0.605208 0.913806 0.546764
Si Si3 0.613444 0.677124 0.375756
Si Si4 0.384484 0.791276 0.624713
Si Si5 0.607360 0.559660 0.879442
O O1 0.940844 0.950809 0.399763
O O2 0.300847 0.044210 0.109839
O O3 0.500000 0.904981 0.750000
O O4 0.591859 0.847543 0.489495
O O5 0.500000 0.670477 0.250000
O O6 0.428353 0.731958 0.516726
O O7 0.546220 0.616641 0.486656
O O8 0.000000 0.690394 0.250000
O O9 0.500000 0.779452 0.750000
O O10 0.000000 0.808979 0.750000
O O11 0.500000 0.557358 0.750000
O O12 0.000000 0.565063 0.750000
O O13 0.500000 0.500000 0.000000
#
# Coordination Sequence:
#
# PCOD9230865 Si02
#       5
#     2   4   4   4   4
#     4  10  20  38  58  90 116 162 210 266 330 400
#     4  10  21  37  60  85 123 160 214 264 334 394
#     4  12  25  43  66  98 131 171 221 270 321 388
#     4  11  23  43  64  90 126 170 214 267 329 389
#     4  12  24  43  69 100 137 178 218 269 322 381
#
# _framework density 21.441658
#
# number of rings (size 3 to 8) (size 9 to 14) (size 15 to 20)
#    0.000    0.889    1.111    6.667    1.556    0.000 
#    0.000    1.111    0.000    0.000    0.000    0.000 
#    0.000    0.000    0.000    0.000    0.000    0.000 
#
# Total GULP energy -100428.187193 kJ/mol
# GULP energy per Si atom -5579.343733 kJ/mol
# Density = 2.139286 g / cm^3
# Si number density = 21.441658 Si / 1000 Ang^3
#
#
#
# Elastic Constant Matrix: (Units=GPa)
#
#
# Indices 1 2 3 4 5 6 
#
# 1 107.4108 -4.3199 20.9569 0.0000 29.5426 0.0000
# 2 -4.3199 169.2165 36.6956 0.0000 31.4177 0.0000
# 3 20.9569 36.6956 63.4223 0.0000 28.5575 0.0000
# 4 0.0000 0.0000 0.0000 52.2072 0.0000 -5.5363
# 5 29.5426 31.4177 28.5575 0.0000 40.2096 0.0000
# 6 0.0000 0.0000 0.0000 -5.5363 0.0000 29.2073
#
#
#
# Elastic Compliance Matrix: (Units=1/GPa)
#
#
# Indices 1 2 3 4 5 6 
#
# 1 0.012447 0.002438 -0.000806 0.000000 -0.010478 0.000000
# 2 0.002438 0.007627 -0.002541 0.000000 -0.005945 0.000000
# 3 -0.000806 -0.002541 0.024027 0.000000 -0.014487 0.000000
# 4 0.000000 0.000000 0.000000 0.019547 0.000000 0.003705
# 5 -0.010478 -0.005945 -0.014487 0.000000 0.047502 0.000000
# 6 0.000000 0.000000 0.000000 0.003705 0.000000 0.034940
#
#
# Mechanical properties :
#
#
# Convention : Reuss Voigt Hill
#
# Bulk Modulus (GPa) = 23.65032 49.63498 36.64265
# Shear Modulus (GPa) = 30.86364 43.43927 37.15146
#
# Velocity S-wave (km/s) = 3.79809 4.50591 4.16706
# Velocity P-wave (km/s) = 5.50345 7.09014 6.34658
#
# Compressibility (1/GPa) = 0.04228273
#
# Stress axis : x y z
#
# Youngs Moduli (GPa) = 80.34007 131.11711 41.61998
#
# Poissons Ratio (x) = -0.31964 0.03353
# Poissons Ratio (y) = -0.19585 0.10577
# Poissons Ratio (z) = 0.06472 0.33320
#
# Static dielectric constant tensor:
#      x y z
#    x 1.800960 0.000000 0.013330 
#    y 0.000000 1.716790 0.000000 
#    z 0.013330 0.000000 1.806500 
# 
# From -- ./inp_files/9870.got.cif
#   From: 2010.05.17/outbox.cif.g08.bks.cpg/sg13_5_cif.got.tgz:9870.got - 2010.06.03 16:44:36.
