data_PCOD9230412
_publ_section_title
;
Structure prediction by ZEFSAII (Michael W. Deem and Ramdas Pophale) SiO2 
 PCOD9230412
Probable space group: P 2/C
;
_chemical_formula_sum "Si O2"
_cell_formula_units_Z 32
_cell_length_a 16.081965
_cell_length_b 9.622613
_cell_length_c 25.062035
_cell_angle_alpha 90.000000
_cell_angle_beta 26.004126
_cell_angle_gamma 90.000000
_cell_volume 1700.413493
_symmetry_space_group_name_H-M "P 2/C"
_symmetry_group_IT_number 13
_symmetry_cell_setting 'monoclinic'
loop_
_space_group_symop_operation_xyz
x,y,z
-x,y,1/2-z
-x,-y,-z
x,-y,1/2+z
loop_
_atom_site_type_symbol
_atom_site_label
_atom_site_fract_x
_atom_site_fract_y
_atom_site_fract_z
Si Si1 0.635602 0.617569 0.082911
Si Si2 0.005884 0.328527 0.054691
Si Si3 0.357251 0.822027 0.185861
Si Si4 0.014961 0.350411 0.923011
Si Si5 0.421510 0.323285 0.352252
Si Si6 0.514405 0.724794 0.983182
Si Si7 0.223370 0.498240 0.111048
Si Si8 0.335221 0.145500 0.207591
O O1 0.501375 0.740158 0.141139
O O2 0.520800 0.484400 0.171205
O O3 0.740539 0.555612 0.969885
O O4 0.787101 0.672091 0.038116
O O5 0.935074 0.485891 0.107493
O O6 0.863468 0.217862 0.162394
O O7 0.014752 0.310854 0.985813
O O8 0.161246 0.740014 0.305524
O O9 0.435286 0.802103 0.080934
O O10 0.334584 0.981046 0.215423
O O11 0.805045 0.328059 0.020989
O O12 0.500000 0.278195 0.250000
O O13 0.509286 0.223914 0.345760
O O14 0.344148 0.636815 0.053985
O O15 0.676121 0.616270 0.909104
O O16 0.608476 0.823563 0.885622
O O17 0.000000 0.513749 0.250000
#
# Coordination Sequence:
#
# PCOD9230412 Si02
#       8
#     4   4   4   4   4   4   4   4
#     4  10  22  39  62  93 120 159 208 259 309 362
#     4  10  22  39  68  89 121 161 210 257 308 361
#     4  11  26  40  60  92 133 164 205 250 310 384
#     4  10  23  41  63  95 121 160 209 260 303 366
#     4  11  22  41  65  90 121 159 210 258 309 362
#     4  10  23  39  62  89 124 164 209 253 309 367
#     4  10  20  36  62  94 119 152 209 270 304 351
#     4  12  23  43  62  90 128 172 201 252 313 378
#
# _framework density 18.818951999999999
#
# number of rings (size 3 to 8) (size 9 to 14) (size 15 to 20)
#    0.000    1.500    2.500    1.875   10.500    1.500 
#    2.250    0.000    0.000    4.500    0.000    0.000 
#    0.000    0.000    0.000    0.000    0.000    0.000 
#
# Total GULP energy -178823.122565 kJ/mol
# GULP energy per Si atom -5588.222580 kJ/mol
# Density = 1.877612 g / cm^3
# Si number density = 18.818952 Si / 1000 Ang^3
#
#
#
# Elastic Constant Matrix: (Units=GPa)
#
#
# Indices 1 2 3 4 5 6 
#
# 1 37.5587 0.3746 0.8995 0.0000 2.1386 0.0000
# 2 0.3746 73.2454 24.6945 0.0000 11.1172 0.0000
# 3 0.8995 24.6945 56.1888 0.0000 -5.0733 0.0000
# 4 0.0000 0.0000 0.0000 -4.0379 0.0000 8.2429
# 5 2.1386 11.1172 -5.0733 0.0000 27.9063 0.0000
# 6 0.0000 0.0000 0.0000 8.2429 0.0000 0.7412
#
#
#
# Elastic Compliance Matrix: (Units=1/GPa)
#
#
# Indices 1 2 3 4 5 6 
#
# 1 0.026779 0.000527 -0.000879 0.000000 -0.002422 0.000000
# 2 0.000527 0.017899 -0.008664 0.000000 -0.008746 0.000000
# 3 -0.000879 -0.008664 0.022303 0.000000 0.007574 0.000000
# 4 0.000000 0.000000 0.000000 -0.010449 0.000000 0.116198
# 5 -0.002422 -0.008746 0.007574 0.000000 0.040881 0.000000
# 6 0.000000 0.000000 0.000000 0.116198 0.000000 0.056922
#
#
# Mechanical properties :
#
#
# Convention : Reuss Voigt Hill
#
# Bulk Modulus (GPa) = 20.43005 24.32557 22.37781
# Shear Modulus (GPa) = 26.49956 14.32356 20.41156
#
# Velocity S-wave (km/s) = 3.75658 2.76184 3.29694
# Velocity P-wave (km/s) = 5.44936 4.80880 5.13907
#
# Compressibility (1/GPa) = 0.04894752
#
# Stress axis : x y z
#
# Youngs Moduli (GPa) = 37.34317 55.87003 44.83712
#
# Poissons Ratio (x) = -0.02944 0.03941
# Poissons Ratio (y) = -0.01968 0.38849
# Poissons Ratio (z) = 0.03282 0.48408
#
# Static dielectric constant tensor:
#      x y z
#    x 1.657580 0.000000 0.012560 
#    y 0.000000 1.623270 0.000000 
#    z 0.012560 0.000000 1.653920 
# 
# From -- ./inp_files/87401.got.cif
#   From: 2010.05.17/outbox.cif.g08.bks.cpg/sg13_44_cif.got.tgz:87401.got - 2010.06.03 16:44:36.
