data_PCOD9230115
_publ_section_title
;
Structure prediction by ZEFSAII (Michael W. Deem and Ramdas Pophale) SiO2 
 PCOD9230115
Probable space group: P 2/C
;
_chemical_formula_sum "Si O2"
_cell_formula_units_Z 32
_cell_length_a 13.672831
_cell_length_b 12.251639
_cell_length_c 16.346886
_cell_angle_alpha 90.000000
_cell_angle_beta 151.900623
_cell_angle_gamma 90.000000
_cell_volume 1289.765303
_symmetry_space_group_name_H-M "P 2/C"
_symmetry_group_IT_number 13
_symmetry_cell_setting 'monoclinic'
loop_
_space_group_symop_operation_xyz
x,y,z
-x,y,1/2-z
-x,-y,-z
x,-y,1/2+z
loop_
_atom_site_type_symbol
_atom_site_label
_atom_site_fract_x
_atom_site_fract_y
_atom_site_fract_z
Si Si1 0.957525 0.641179 0.559034
Si Si2 0.451003 0.097595 0.902858
Si Si3 0.434553 0.342210 0.106678
Si Si4 0.181859 0.993484 0.065481
Si Si5 0.297080 0.199474 0.540091
Si Si6 0.312802 0.521198 0.273651
Si Si7 0.838417 0.768780 0.922695
Si Si8 0.812500 0.285868 0.717323
O O1 0.846974 0.694202 0.554963
O O2 0.800815 0.565305 0.391727
O O3 0.163271 0.566452 0.709621
O O4 0.003724 0.748516 0.536030
O O5 0.375530 0.041476 0.763475
O O6 0.632051 0.174839 0.000396
O O7 0.269214 0.170445 0.808744
O O8 0.500000 0.000000 0.000000
O O9 0.500000 0.346865 0.250000
O O10 0.483915 0.460845 0.107160
O O11 0.621987 0.260391 0.220611
O O12 0.234866 0.297493 0.912739
O O13 0.180286 0.908787 0.989924
O O14 0.197829 0.120119 0.055157
O O15 0.000000 0.000000 0.000000
O O16 0.500000 0.219099 0.750000
O O17 0.332561 0.625148 0.345135
O O18 0.957612 0.692312 0.076654
#
# Coordination Sequence:
#
# PCOD9230115 Si02
#       8
#     4   4   4   4   4   4   4   4
#     4   9  17  35  62  97 125 164 218 264 335 410
#     4  11  24  40  62  97 134 172 225 284 337 405
#     4  11  25  40  62  93 126 168 220 271 330 406
#     4  11  18  36  65  90 124 170 214 268 343 406
#     4  10  20  35  63  98 126 168 224 274 334 407
#     4   9  19  37  66  93 126 169 212 276 344 401
#     4  10  20  38  65  89 127 173 211 265 336 403
#     4  11  22  43  67  90 129 175 220 271 341 402
#
# _framework density 24.810715999999999
#
# number of rings (size 3 to 8) (size 9 to 14) (size 15 to 20)
#    0.000    1.750    2.500    4.125    0.000    4.500 
#    0.000    0.625    0.000   10.500    0.000    0.000 
#    0.000    0.000    0.000    0.000    0.000    0.000 
#
# Total GULP energy -178355.795820 kJ/mol
# GULP energy per Si atom -5573.618619 kJ/mol
# Density = 2.475425 g / cm^3
# Si number density = 24.810716 Si / 1000 Ang^3
#
#
#
# Elastic Constant Matrix: (Units=GPa)
#
#
# Indices 1 2 3 4 5 6 
#
# 1 70.9688 12.9971 6.9062 0.0000 -6.6457 0.0000
# 2 12.9971 103.2554 3.3455 0.0000 0.9579 0.0000
# 3 6.9062 3.3455 85.4526 0.0000 -13.7205 0.0000
# 4 0.0000 0.0000 0.0000 18.7393 0.0000 3.9449
# 5 -6.6457 0.9579 -13.7205 0.0000 24.8706 0.0000
# 6 0.0000 0.0000 0.0000 3.9449 0.0000 34.3390
#
#
#
# Elastic Compliance Matrix: (Units=1/GPa)
#
#
# Indices 1 2 3 4 5 6 
#
# 1 0.014838 -0.001886 -0.000523 0.000000 0.003749 0.000000
# 2 -0.001886 0.009946 -0.000416 0.000000 -0.001117 0.000000
# 3 -0.000523 -0.000416 0.012882 0.000000 0.006983 0.000000
# 4 0.000000 0.000000 0.000000 0.054686 0.000000 -0.006282
# 5 0.003749 -0.001117 0.006983 0.000000 0.045105 0.000000
# 6 0.000000 0.000000 0.000000 -0.006282 0.000000 0.029843
#
#
# Mechanical properties :
#
#
# Convention : Reuss Voigt Hill
#
# Bulk Modulus (GPa) = 31.23480 34.01937 32.62709
# Shear Modulus (GPa) = 27.22966 31.35163 29.29064
#
# Velocity S-wave (km/s) = 3.31644 3.55862 3.43966
# Velocity P-wave (km/s) = 5.22318 5.53411 5.38089
#
# Compressibility (1/GPa) = 0.03201557
#
# Stress axis : x y z
#
# Youngs Moduli (GPa) = 67.39462 100.54384 77.62643
#
# Poissons Ratio (x) = 0.18958 0.04063
# Poissons Ratio (y) = 0.12707 0.03231
# Poissons Ratio (z) = 0.03528 0.04185
#
# Static dielectric constant tensor:
#      x y z
#    x 2.112480 0.000000 0.090760 
#    y 0.000000 2.040150 0.000000 
#    z 0.090760 0.000000 2.041970 
# 
# From -- ./inp_files/68702.got.cif
#   From: 2010.05.17/outbox.cif.g08.bks.cpg/sg13_35_cif.got.tgz:68702.got - 2010.06.03 16:44:36.
