data_PCOD9230284
_publ_section_title
;
Structure prediction by ZEFSAII (Michael W. Deem and Ramdas Pophale) SiO2 
 PCOD9230284
Probable space group: P 2/C
;
_chemical_formula_sum "Si O2"
_cell_formula_units_Z 26
_cell_length_a 15.300224
_cell_length_b 9.557969
_cell_length_c 14.146088
_cell_angle_alpha 90.000000
_cell_angle_beta 42.310739
_cell_angle_gamma 90.000000
_cell_volume 1392.554953
_symmetry_space_group_name_H-M "P 2/C"
_symmetry_group_IT_number 13
_symmetry_cell_setting 'monoclinic'
loop_
_space_group_symop_operation_xyz
x,y,z
-x,y,1/2-z
-x,-y,-z
x,-y,1/2+z
loop_
_atom_site_type_symbol
_atom_site_label
_atom_site_fract_x
_atom_site_fract_y
_atom_site_fract_z
Si Si1 0.326799 0.943565 0.711186
Si Si2 0.071545 0.331670 0.564742
Si Si3 0.834226 0.320043 0.223284
Si Si4 0.210543 0.412679 0.637766
Si Si5 0.000000 0.803517 0.750000
Si Si6 0.187811 0.029443 0.510287
Si Si7 0.608777 0.850021 0.507677
O O1 0.245614 0.823023 0.723930
O O2 0.455805 0.866612 0.647180
O O3 0.364435 0.066778 0.610564
O O4 0.240638 0.004322 0.864471
O O5 0.115644 0.357226 0.421890
O O6 0.158496 0.418470 0.570877
O O7 0.100366 0.169141 0.567606
O O8 0.919717 0.359478 0.703582
O O9 0.755479 0.442852 0.337995
O O10 0.950390 0.288935 0.202914
O O11 0.328403 0.303447 0.548144
O O12 0.110487 0.905618 0.621105
O O13 0.309162 0.072507 0.477393
#
# Coordination Sequence:
#
# PCOD9230284 Si02
#       7
#     4   4   4   4   2   4   4
#     4  10  22  37  59  84 112 151 197 241 285 339
#     4   9  20  36  57  82 117 153 190 228 298 359
#     4  11  23  36  56  88 117 149 192 241 293 346
#     4  10  20  37  58  81 117 154 188 238 287 353
#     4  12  22  34  58  90 124 146 190 256 294 344
#     4  10  20  36  59  87 114 148 193 238 296 339
#     4  10  20  39  58  82 112 154 196 236 283 348
#
# _framework density 18.670717
#
# number of rings (size 3 to 8) (size 9 to 14) (size 15 to 20)
#    0.000    1.846    1.538    3.692    2.154    1.846 
#    0.000    0.000    0.000    0.000    0.000    0.000 
#    0.000    0.000    0.000    0.000    0.000    0.000 
#
# Total GULP energy -145121.107819 kJ/mol
# GULP energy per Si atom -5581.581070 kJ/mol
# Density = 1.862822 g / cm^3
# Si number density = 18.670717 Si / 1000 Ang^3
#
#
#
# Elastic Constant Matrix: (Units=GPa)
#
#
# Indices 1 2 3 4 5 6 
#
# 1 79.5080 27.1760 23.9816 0.0000 10.1880 0.0000
# 2 27.1760 32.6397 14.6042 0.0000 18.6515 0.0000
# 3 23.9816 14.6042 65.4528 0.0000 19.5319 0.0000
# 4 0.0000 0.0000 0.0000 19.3922 0.0000 6.0726
# 5 10.1880 18.6515 19.5319 0.0000 30.3253 0.0000
# 6 0.0000 0.0000 0.0000 6.0726 0.0000 19.7137
#
#
#
# Elastic Compliance Matrix: (Units=1/GPa)
#
#
# Indices 1 2 3 4 5 6 
#
# 1 0.019520 -0.018607 -0.005519 0.000000 0.008441 0.000000
# 2 -0.018607 0.065262 0.002932 0.000000 -0.035777 0.000000
# 3 -0.005519 0.002932 0.020588 0.000000 -0.013209 0.000000
# 4 0.000000 0.000000 0.000000 0.057072 0.000000 -0.017581
# 5 0.008441 -0.035777 -0.013209 0.000000 0.060652 0.000000
# 6 0.000000 0.000000 0.000000 -0.017581 0.000000 0.056142
#
#
# Mechanical properties :
#
#
# Convention : Reuss Voigt Hill
#
# Bulk Modulus (GPa) = 15.87753 34.34713 25.11233
# Shear Modulus (GPa) = 14.59346 21.34214 17.96780
#
# Velocity S-wave (km/s) = 2.79879 3.38462 3.10555
# Velocity P-wave (km/s) = 4.35508 5.80606 5.13211
#
# Compressibility (1/GPa) = 0.06298209
#
# Stress axis : x y z
#
# Youngs Moduli (GPa) = 51.22859 15.32288 48.57173
#
# Poissons Ratio (x) = 0.28511 0.26809
# Poissons Ratio (y) = 0.95319 -0.14241
# Poissons Ratio (z) = 0.28275 -0.04493
#
# Static dielectric constant tensor:
#      x y z
#    x 1.652300 0.000000 0.006800 
#    y 0.000000 1.647950 0.000000 
#    z 0.006800 0.000000 1.631880 
# 
# From -- ./inp_files/49635.got.cif
#   From: 2010.05.17/outbox.cif.g08.bks.cpg/sg13_25_cif.got.tgz:49635.got - 2010.06.03 16:44:36.
