data_PCOD9230723
_publ_section_title
;
Structure prediction by ZEFSAII (Michael W. Deem and Ramdas Pophale) SiO2 
 PCOD9230723
Probable space group: P 2/C
;
_chemical_formula_sum "Si O2"
_cell_formula_units_Z 26
_cell_length_a 8.311546
_cell_length_b 21.229775
_cell_length_c 8.478557
_cell_angle_alpha 90.000000
_cell_angle_beta 125.362151
_cell_angle_gamma 90.000000
_cell_volume 1220.052702
_symmetry_space_group_name_H-M "P 2/C"
_symmetry_group_IT_number 13
_symmetry_cell_setting 'monoclinic'
loop_
_space_group_symop_operation_xyz
x,y,z
-x,y,1/2-z
-x,-y,-z
x,-y,1/2+z
loop_
_atom_site_type_symbol
_atom_site_label
_atom_site_fract_x
_atom_site_fract_y
_atom_site_fract_z
Si Si1 0.793188 0.341403 0.572173
Si Si2 0.471363 0.569642 0.049310
Si Si3 0.788806 0.326404 0.194705
Si Si4 0.500000 0.020239 0.250000
Si Si5 0.770398 0.934259 0.624268
Si Si6 0.209139 0.195111 0.935373
Si Si7 0.649403 0.191890 0.121561
O O1 0.622544 0.383645 0.547193
O O2 0.781466 0.337968 0.377245
O O3 0.787232 0.268147 0.617245
O O4 0.000000 0.367984 0.750000
O O5 0.500000 0.567036 0.250000
O O6 0.500000 0.500000 0.000000
O O7 0.267762 0.606558 0.909773
O O8 0.657013 0.265241 0.077749
O O9 0.000000 0.307564 0.250000
O O10 0.345779 0.057854 0.274249
O O11 0.641624 0.976591 0.435263
O O12 0.758278 0.859857 0.578250
O O13 0.000000 0.953411 0.750000
O O14 0.000000 0.168710 0.750000
O O15 0.420462 0.169758 0.996567
O O16 0.241167 0.192680 0.143822
#
# Coordination Sequence:
#
# PCOD9230723 Si02
#       7
#     4   4   4   2   4   4   4
#     4  10  20  39  63  87 119 163 209 259 323 388
#     4  12  25  42  63  90 121 165 213 262 319 389
#     4  11  22  40  62  92 131 166 205 271 330 386
#     4  10  24  44  66  94 134 176 228 272 326 390
#     4  11  23  43  67  97 132 180 223 276 329 394
#     4   9  18  34  61  92 129 174 208 261 333 387
#     4  10  20  37  62  97 134 166 217 271 326 391
#
# _framework density 21.310554
#
# number of rings (size 3 to 8) (size 9 to 14) (size 15 to 20)
#    0.000    1.538    1.538    4.154    0.000    1.846 
#    1.385    6.923    0.000    0.000    0.000    0.000 
#    0.000    0.000    0.000    0.000    0.000    0.000 
#
# Total GULP energy -145040.110934 kJ/mol
# GULP energy per Si atom -5578.465805 kJ/mol
# Density = 2.126205 g / cm^3
# Si number density = 21.310554 Si / 1000 Ang^3
#
#
#
# Elastic Constant Matrix: (Units=GPa)
#
#
# Indices 1 2 3 4 5 6 
#
# 1 109.4090 22.9087 38.4941 0.0000 15.8015 0.0000
# 2 22.9087 104.8099 27.5995 0.0000 -0.6629 0.0000
# 3 38.4941 27.5995 80.2950 0.0000 21.8800 0.0000
# 4 0.0000 0.0000 0.0000 57.7542 0.0000 -47.8164
# 5 15.8015 -0.6629 21.8800 0.0000 43.7482 0.0000
# 6 0.0000 0.0000 0.0000 -47.8164 0.0000 92.4265
#
#
#
# Elastic Compliance Matrix: (Units=1/GPa)
#
#
# Indices 1 2 3 4 5 6 
#
# 1 0.011242 -0.001301 -0.004435 0.000000 -0.001862 0.000000
# 2 -0.001301 0.010840 -0.003792 0.000000 0.002531 0.000000
# 3 -0.004435 -0.003792 0.017902 0.000000 -0.007409 0.000000
# 4 0.000000 0.000000 0.000000 0.030288 0.000000 0.015669
# 5 -0.001862 0.002531 -0.007409 0.000000 0.027275 0.000000
# 6 0.000000 0.000000 0.000000 0.015669 0.000000 0.018926
#
#
# Mechanical properties :
#
#
# Convention : Reuss Voigt Hill
#
# Bulk Modulus (GPa) = 47.78089 52.50206 50.14147
# Shear Modulus (GPa) = 35.08677 52.48656 43.78666
#
# Velocity S-wave (km/s) = 4.06205 4.96818 4.53779
# Velocity P-wave (km/s) = 6.66860 7.58951 7.14391
#
# Compressibility (1/GPa) = 0.02092887
#
# Stress axis : x y z
#
# Youngs Moduli (GPa) = 88.95465 92.25121 55.85829
#
# Poissons Ratio (x) = 0.12003 0.24771
# Poissons Ratio (y) = 0.11574 0.21180
# Poissons Ratio (z) = 0.39449 0.34980
#
# Static dielectric constant tensor:
#      x y z
#    x 1.816300 0.000000 0.035360 
#    y 0.000000 1.811700 0.000000 
#    z 0.035360 0.000000 1.794200 
# 
# From -- ./inp_files/13688.got.cif
#   From: 2010.05.17/outbox.cif.g08.bks.cpg/sg13_7_cif.got.tgz:13688.got - 2010.06.03 16:44:36.
