data_PCOD9230508
_publ_section_title
;
Structure prediction by ZEFSAII (Michael W. Deem and Ramdas Pophale) SiO2 
 PCOD9230508
Probable space group: P 2/C
;
_chemical_formula_sum "Si O2"
_cell_formula_units_Z 28
_cell_length_a 19.746100
_cell_length_b 15.432372
_cell_length_c 8.919564
_cell_angle_alpha 90.000000
_cell_angle_beta 148.657425
_cell_angle_gamma 90.000000
_cell_volume 1413.804944
_symmetry_space_group_name_H-M "P 2/C"
_symmetry_group_IT_number 13
_symmetry_cell_setting 'monoclinic'
loop_
_space_group_symop_operation_xyz
x,y,z
-x,y,1/2-z
-x,-y,-z
x,-y,1/2+z
loop_
_atom_site_type_symbol
_atom_site_label
_atom_site_fract_x
_atom_site_fract_y
_atom_site_fract_z
Si Si1 0.573547 0.092390 0.660707
Si Si2 0.429407 0.380194 0.874120
Si Si3 0.215298 0.139901 0.198394
Si Si4 0.000000 0.197402 0.250000
Si Si5 0.359528 0.244554 0.253262
Si Si6 0.500000 0.480959 0.750000
Si Si7 0.279204 0.226021 0.754416
Si Si8 0.958416 0.095286 0.884675
O O1 0.462796 0.165935 0.471222
O O2 0.663177 0.133403 0.695604
O O3 0.500000 0.000000 0.500000
O O4 0.672057 0.096228 0.989210
O O5 0.400554 0.423124 0.659663
O O6 0.352020 0.299949 0.796857
O O7 0.570722 0.336866 0.112535
O O8 0.432618 0.455454 0.003245
O O9 0.262597 0.228711 0.209508
O O10 0.082220 0.142750 0.042316
O O11 0.166151 0.089226 0.957890
O O12 0.063753 0.140458 0.500505
O O13 0.127922 0.243245 0.432651
O O14 0.307302 0.235370 0.984523
O O15 0.000000 0.000000 0.000000
#
# Coordination Sequence:
#
# PCOD9230508 Si02
#       8
#     4   4   4   2   4   2   4   4
#     4  11  25  39  61  88 126 167 216 263 325 377
#     4  10  21  39  63 104 129 162 204 252 323 391
#     4  11  24  41  59  88 115 167 218 268 325 371
#     4  12  22  42  68  80 114 182 206 268 322 366
#     4  11  23  39  62  90 134 158 201 271 316 382
#     4  10  20  36  70  98 132 170 192 244 328 406
#     4  11  23  44  62  91 130 165 217 262 315 383
#     4  11  25  41  60  80 120 161 234 283 304 366
#
# _framework density 19.804713
#
# number of rings (size 3 to 8) (size 9 to 14) (size 15 to 20)
#    0.000    1.143    4.286    2.571    6.000    4.571 
#    0.000    0.000    0.000    0.857    0.000    0.000 
#    0.000    0.000    0.000    0.000    0.000    0.000 
#
# Total GULP energy -156045.986740 kJ/mol
# GULP energy per Si atom -5573.070955 kJ/mol
# Density = 1.975964 g / cm^3
# Si number density = 19.804713 Si / 1000 Ang^3
#
#
#
# Elastic Constant Matrix: (Units=GPa)
#
#
# Indices 1 2 3 4 5 6 
#
# 1 101.8160 41.1739 30.1346 0.0000 -9.0546 0.0000
# 2 41.1739 85.6759 39.9074 0.0000 -8.5593 0.0000
# 3 30.1346 39.9074 117.0772 0.0000 -16.1643 0.0000
# 4 0.0000 0.0000 0.0000 0.0687 0.0000 33.0131
# 5 -9.0546 -8.5593 -16.1643 0.0000 37.3033 0.0000
# 6 0.0000 0.0000 0.0000 33.0131 0.0000 -105.9213
#
#
#
# Elastic Compliance Matrix: (Units=1/GPa)
#
#
# Indices 1 2 3 4 5 6 
#
# 1 0.012431 -0.005276 -0.001225 0.000000 0.001276 0.000000
# 2 -0.005276 0.016165 -0.004060 0.000000 0.000669 0.000000
# 3 -0.001225 -0.004060 0.010712 0.000000 0.003413 0.000000
# 4 0.000000 0.000000 0.000000 0.096543 0.000000 0.030090
# 5 0.001276 0.000669 0.003413 0.000000 0.028749 0.000000
# 6 0.000000 0.000000 0.000000 0.030090 0.000000 -0.000063
#
#
# Mechanical properties :
#
#
# Convention : Reuss Voigt Hill
#
# Bulk Modulus (GPa) = 54.98595 58.55566 56.77080
# Shear Modulus (GPa) = 26.07946 -0.81965 12.62990
#
# Velocity S-wave (km/s) = 3.63275 -0.64402 2.52806
# Velocity P-wave (km/s) = 6.73945 5.39237 6.10319
#
# Compressibility (1/GPa) = 0.01818646
#
# Stress axis : x y z
#
# Youngs Moduli (GPa) = 80.44185 61.86069 93.35574
#
# Poissons Ratio (x) = 0.32638 0.11437
# Poissons Ratio (y) = 0.42442 0.37900
# Poissons Ratio (z) = 0.09855 0.25114
#
# Static dielectric constant tensor:
#      x y z
#    x 1.738520 0.000000 0.091690 
#    y 0.000000 1.708080 0.000000 
#    z 0.091690 0.000000 1.625760 
# 
# From -- ./inp_files/23637.got.cif
#   From: 2010.05.17/outbox.cif.g08.bks.cpg/sg13_12_cif.got.tgz:23637.got - 2010.06.03 16:44:36.
