data_PCOD9230441
_publ_section_title
;
Structure prediction by ZEFSAII (Michael W. Deem and Ramdas Pophale) SiO2 
 PCOD9230441
Probable space group: P 2/C
;
_chemical_formula_sum "Si O2"
_cell_formula_units_Z 22
_cell_length_a 9.918229
_cell_length_b 7.752327
_cell_length_c 25.916897
_cell_angle_alpha 90.000000
_cell_angle_beta 28.567816
_cell_angle_gamma 90.000000
_cell_volume 952.922370
_symmetry_space_group_name_H-M "P 2/C"
_symmetry_group_IT_number 13
_symmetry_cell_setting 'monoclinic'
loop_
_space_group_symop_operation_xyz
x,y,z
-x,y,1/2-z
-x,-y,-z
x,-y,1/2+z
loop_
_atom_site_type_symbol
_atom_site_label
_atom_site_fract_x
_atom_site_fract_y
_atom_site_fract_z
Si Si1 0.152153 0.687972 0.025526
Si Si2 0.387160 0.772277 0.347820
Si Si3 0.228326 0.396770 0.072698
Si Si4 0.334327 0.434827 0.207330
Si Si5 0.142760 0.077398 0.030039
Si Si6 0.500000 0.210993 0.250000
O O1 0.460212 0.631490 0.905818
O O2 0.162005 0.881789 0.043790
O O3 0.063004 0.532989 0.091889
O O4 0.922268 0.692367 0.057618
O O5 0.500000 0.802479 0.250000
O O6 0.589436 0.634666 0.307521
O O7 0.311398 0.911345 0.418463
O O8 0.984545 0.378888 0.196559
O O9 0.500000 0.500000 0.000000
O O10 0.266114 0.221645 0.027575
O O11 0.444094 0.328212 0.219631
O O12 0.804511 0.116064 0.139187
#
# Coordination Sequence:
#
# PCOD9230441 Si02
#       6
#     4   4   4   4   4   2
#     4  12  24  41  68 100 139 171 221 276 346 410
#     4  12  21  38  66 103 137 173 216 273 349 414
#     4  11  26  47  69  91 133 185 237 281 328 397
#     4  11  21  39  66  96 131 180 218 274 332 400
#     4  11  25  41  67 105 138 177 222 278 349 409
#     4  10  20  36  64 102 140 168 214 268 338 422
#
# _framework density 23.086876
#
# number of rings (size 3 to 8) (size 9 to 14) (size 15 to 20)
#    0.000    0.727    6.364    2.182    1.273    2.909 
#    0.000    0.000    4.000    0.000    0.000    0.000 
#    0.000    0.000    0.000    0.000    0.000    0.000 
#
# Total GULP energy -122699.994574 kJ/mol
# GULP energy per Si atom -5577.272481 kJ/mol
# Density = 2.303433 g / cm^3
# Si number density = 23.086876 Si / 1000 Ang^3
#
#
#
# Elastic Constant Matrix: (Units=GPa)
#
#
# Indices 1 2 3 4 5 6 
#
# 1 48.6571 5.1832 6.6993 0.0000 2.3963 0.0000
# 2 5.1832 98.4206 -2.4614 0.0000 21.1092 0.0000
# 3 6.6993 -2.4614 131.3256 0.0000 5.0921 0.0000
# 4 0.0000 0.0000 0.0000 122.6187 0.0000 -2.0796
# 5 2.3963 21.1092 5.0921 0.0000 39.9178 0.0000
# 6 0.0000 0.0000 0.0000 -2.0796 0.0000 21.5975
#
#
#
# Elastic Compliance Matrix: (Units=1/GPa)
#
#
# Indices 1 2 3 4 5 6 
#
# 1 0.020833 -0.000997 -0.001059 0.000000 -0.000588 0.000000
# 2 -0.000997 0.011535 0.000504 0.000000 -0.006104 0.000000
# 3 -0.001059 0.000504 0.007724 0.000000 -0.001188 0.000000
# 4 0.000000 0.000000 0.000000 0.008169 0.000000 0.000787
# 5 -0.000588 -0.006104 -0.001188 0.000000 0.028466 0.000000
# 6 0.000000 0.000000 0.000000 0.000787 0.000000 0.046377
#
#
# Mechanical properties :
#
#
# Convention : Reuss Voigt Hill
#
# Bulk Modulus (GPa) = 27.03635 33.02728 30.03182
# Shear Modulus (GPa) = 36.09109 54.75893 45.42501
#
# Velocity S-wave (km/s) = 3.95811 4.87546 4.44054
# Velocity P-wave (km/s) = 5.71183 6.78456 6.27117
#
# Compressibility (1/GPa) = 0.03698724
#
# Stress axis : x y z
#
# Youngs Moduli (GPa) = 48.00081 86.69393 129.46360
#
# Poissons Ratio (x) = 0.08648 0.13706
# Poissons Ratio (y) = 0.04788 -0.06522
# Poissons Ratio (z) = 0.05082 -0.04367
#
# Static dielectric constant tensor:
#      x y z
#    x 1.895780 0.000000 0.057740 
#    y 0.000000 1.929450 0.000000 
#    z 0.057740 0.000000 2.000480 
# 
# From -- ./inp_files/96585.got.cif
#   From: 2010.05.17/outbox.cif.g08.bks.cpg/sg13_49_cif.got.tgz:96585.got - 2010.06.03 16:44:36.
