data_PCOD9230352
_publ_section_title
;
Structure prediction by ZEFSAII (Michael W. Deem and Ramdas Pophale) SiO2 
 PCOD9230352
Probable space group: P 2/C
;
_chemical_formula_sum "Si O2"
_cell_formula_units_Z 18
_cell_length_a 8.482408
_cell_length_b 20.802541
_cell_length_c 8.674654
_cell_angle_alpha 90.000000
_cell_angle_beta 146.571412
_cell_angle_gamma 90.000000
_cell_volume 843.253765
_symmetry_space_group_name_H-M "P 2/C"
_symmetry_group_IT_number 13
_symmetry_cell_setting 'monoclinic'
loop_
_space_group_symop_operation_xyz
x,y,z
-x,y,1/2-z
-x,-y,-z
x,-y,1/2+z
loop_
_atom_site_type_symbol
_atom_site_label
_atom_site_fract_x
_atom_site_fract_y
_atom_site_fract_z
Si Si1 0.286351 0.170894 0.721271
Si Si2 0.816007 0.693218 0.442897
Si Si3 0.000000 0.985222 0.250000
Si Si4 0.265097 0.912886 0.751163
Si Si5 0.174769 0.553218 0.047414
O O1 0.500000 0.171993 0.750000
O O2 0.192692 0.244525 0.673779
O O3 0.001241 0.134591 0.441284
O O4 0.453145 0.129562 0.986837
O O5 0.500000 0.685960 0.250000
O O6 0.861703 0.623549 0.403138
O O7 0.000000 0.705501 0.750000
O O8 0.183836 0.944824 0.521910
O O9 0.223638 0.030279 0.341229
O O10 0.500000 0.538842 0.250000
O O11 0.000000 0.562157 0.750000
O O12 0.000000 0.500000 0.000000
#
# Coordination Sequence:
#
# PCOD9230352 Si02
#       5
#     4   4   2   4   4
#     4  11  19  35  57  86 108 148 196 244 295 350
#     4   9  18  32  56  87 119 151 202 252 293 356
#     4  10  24  40  54  84 112 150 192 246 302 366
#     4  11  23  37  58  79 114 146 193 243 300 359
#     4  10  20  36  60  95 131 167 209 261 314 369
#
# _framework density 21.345886
#
# number of rings (size 3 to 8) (size 9 to 14) (size 15 to 20)
#    0.000    1.778    2.222    3.333    0.000    6.222 
#    0.000    0.000    2.444    0.000   17.333    0.000 
#    0.000    0.000    0.000    0.000    0.000    0.000 
#
# Total GULP energy -100383.378829 kJ/mol
# GULP energy per Si atom -5576.854379 kJ/mol
# Density = 2.129730 g / cm^3
# Si number density = 21.345886 Si / 1000 Ang^3
#
#
#
# Elastic Constant Matrix: (Units=GPa)
#
#
# Indices 1 2 3 4 5 6 
#
# 1 56.9699 62.4260 18.4754 0.0000 0.8886 0.0000
# 2 62.4260 200.7619 41.4029 0.0000 -13.1247 0.0000
# 3 18.4754 41.4029 118.8711 0.0000 14.3033 0.0000
# 4 0.0000 0.0000 0.0000 31.3462 0.0000 6.6142
# 5 0.8886 -13.1247 14.3033 0.0000 33.7263 0.0000
# 6 0.0000 0.0000 0.0000 6.6142 0.0000 12.9367
#
#
#
# Elastic Compliance Matrix: (Units=1/GPa)
#
#
# Indices 1 2 3 4 5 6 
#
# 1 0.027235 -0.008543 -0.000813 0.000000 -0.003697 0.000000
# 2 -0.008543 0.008358 -0.002110 0.000000 0.004372 0.000000
# 3 -0.000813 -0.002110 0.009874 0.000000 -0.004987 0.000000
# 4 0.000000 0.000000 0.000000 0.035760 0.000000 -0.018283
# 5 -0.003697 0.004372 -0.004987 0.000000 0.033564 0.000000
# 6 0.000000 0.000000 0.000000 -0.018283 0.000000 0.086647
#
#
# Mechanical properties :
#
#
# Convention : Reuss Voigt Hill
#
# Bulk Modulus (GPa) = 44.37122 69.02351 56.69736
# Shear Modulus (GPa) = 21.56279 32.55507 27.05893
#
# Velocity S-wave (km/s) = 3.18175 3.90952 3.56426
# Velocity P-wave (km/s) = 5.85918 7.26533 6.59981
#
# Compressibility (1/GPa) = 0.02253713
#
# Stress axis : x y z
#
# Youngs Moduli (GPa) = 36.71703 119.64202 101.28024
#
# Poissons Ratio (x) = 1.02208 0.08231
# Poissons Ratio (y) = 0.31367 0.21366
# Poissons Ratio (z) = 0.02984 0.25239
#
# Static dielectric constant tensor:
#      x y z
#    x 1.777540 0.000000 -0.029190 
#    y 0.000000 1.938530 0.000000 
#    z -0.029190 0.000000 1.719910 
# 
# From -- ./inp_files/13387.got.cif
#   From: 2010.05.17/outbox.cif.g08.bks.cpg/sg13_7_cif.got.tgz:13387.got - 2010.06.03 16:44:36.
