data_PCOD9230319
_publ_section_title
;
Structure prediction by ZEFSAII (Michael W. Deem and Ramdas Pophale) SiO2 
 PCOD9230319
Probable space group: P 2/C
;
_chemical_formula_sum "Si O2"
_cell_formula_units_Z 30
_cell_length_a 13.347845
_cell_length_b 8.942559
_cell_length_c 22.119871
_cell_angle_alpha 90.000000
_cell_angle_beta 146.510476
_cell_angle_gamma 90.000000
_cell_volume 1456.884295
_symmetry_space_group_name_H-M "P 2/C"
_symmetry_group_IT_number 13
_symmetry_cell_setting 'monoclinic'
loop_
_space_group_symop_operation_xyz
x,y,z
-x,y,1/2-z
-x,-y,-z
x,-y,1/2+z
loop_
_atom_site_type_symbol
_atom_site_label
_atom_site_fract_x
_atom_site_fract_y
_atom_site_fract_z
Si Si1 0.405500 0.981149 0.517309
Si Si2 0.260491 0.356985 0.120713
Si Si3 0.500000 0.354940 0.750000
Si Si4 0.429653 0.766412 0.814925
Si Si5 0.192288 0.314022 0.878060
Si Si6 0.970284 0.519093 0.092323
Si Si7 0.318790 0.274274 0.541677
Si Si8 0.360854 0.521253 0.350601
O O1 0.541117 0.924742 0.638774
O O2 0.273809 0.842609 0.439203
O O3 0.500000 0.000000 0.500000
O O4 0.310183 0.129140 0.495200
O O5 0.342128 0.519493 0.181163
O O6 0.398566 0.284453 0.140536
O O7 0.268204 0.256916 0.184847
O O8 0.077098 0.392506 0.992903
O O9 0.418666 0.253507 0.656355
O O10 0.408181 0.650870 0.860021
O O11 0.148826 0.405778 0.915465
O O12 0.309578 0.414976 0.890619
O O13 0.000000 0.285037 0.750000
O O14 0.175144 0.537010 0.218031
O O15 0.874474 0.355259 0.043561
O O16 0.468149 0.384221 0.586331
#
# Coordination Sequence:
#
# PCOD9230319 Si02
#       8
#     4   4   2   4   4   4   4   4
#     4  12  24  37  60  85 119 167 190 236 306 358
#     4   9  16  36  63  86 114 147 201 243 289 349
#     4   8  16  34  58  84 116 146 186 256 280 332
#     4  10  20  36  60  88 114 156 198 239 294 351
#     4  10  22  40  57  84 117 158 202 243 291 354
#     4  10  21  38  64  89 110 156 201 245 305 330
#     4  11  21  39  56  90 122 146 199 241 295 358
#     4  11  20  37  65  86 117 151 202 255 281 347
#
# _framework density 20.591889999999999
#
# number of rings (size 3 to 8) (size 9 to 14) (size 15 to 20)
#    0.000    1.867    6.667    0.000    1.867    2.667 
#    2.400    0.000    0.000    0.800    0.000    0.000 
#    0.000    0.000    0.000    0.000    0.000    0.000 
#
# Total GULP energy -167143.644649 kJ/mol
# GULP energy per Si atom -5571.454822 kJ/mol
# Density = 2.054502 g / cm^3
# Si number density = 20.591890 Si / 1000 Ang^3
#
#
#
# Elastic Constant Matrix: (Units=GPa)
#
#
# Indices 1 2 3 4 5 6 
#
# 1 69.9446 9.2897 24.9443 0.0000 -10.6055 0.0000
# 2 9.2897 64.1650 27.9462 0.0000 -6.4089 0.0000
# 3 24.9443 27.9462 100.4439 0.0000 -14.8812 0.0000
# 4 0.0000 0.0000 0.0000 24.1758 0.0000 -15.5224
# 5 -10.6055 -6.4089 -14.8812 0.0000 35.8682 0.0000
# 6 0.0000 0.0000 0.0000 -15.5224 0.0000 27.9471
#
#
#
# Elastic Compliance Matrix: (Units=1/GPa)
#
#
# Indices 1 2 3 4 5 6 
#
# 1 0.016060 -0.000538 -0.003356 0.000000 0.003260 0.000000
# 2 -0.000538 0.017800 -0.004657 0.000000 0.001089 0.000000
# 3 -0.003356 -0.004657 0.012588 0.000000 0.003398 0.000000
# 4 0.000000 0.000000 0.000000 0.064291 0.000000 0.035708
# 5 0.003260 0.001089 0.003398 0.000000 0.030448 0.000000
# 6 0.000000 0.000000 0.000000 0.035708 0.000000 0.055615
#
#
# Mechanical properties :
#
#
# Convention : Reuss Voigt Hill
#
# Bulk Modulus (GPa) = 34.07625 39.87932 36.97779
# Shear Modulus (GPa) = 22.35276 29.08976 25.72126
#
# Velocity S-wave (km/s) = 3.29829 3.76264 3.53809
# Velocity P-wave (km/s) = 5.57577 6.18750 5.88959
#
# Compressibility (1/GPa) = 0.02934595
#
# Stress axis : x y z
#
# Youngs Moduli (GPa) = 62.26838 56.17979 79.43790
#
# Poissons Ratio (x) = 0.03022 0.26656
# Poissons Ratio (y) = 0.03350 0.36998
# Poissons Ratio (z) = 0.20894 0.26166
#
# Static dielectric constant tensor:
#      x y z
#    x 1.791310 0.000000 -0.011060 
#    y 0.000000 1.735960 0.000000 
#    z -0.011060 0.000000 1.812240 
# 
# From -- ./inp_files/87335.got.cif
#   From: 2010.05.17/outbox.cif.g08.bks.cpg/sg13_44_cif.got.tgz:87335.got - 2010.06.03 16:44:36.
