data_PCOD9230134
_publ_section_title
;
Structure prediction by ZEFSAII (Michael W. Deem and Ramdas Pophale) SiO2 
 PCOD9230134
Probable space group: P 2/C
;
_chemical_formula_sum "Si O2"
_cell_formula_units_Z 20
_cell_length_a 10.102899
_cell_length_b 18.986839
_cell_length_c 5.493201
_cell_angle_alpha 90.000000
_cell_angle_beta 60.228246
_cell_angle_gamma 90.000000
_cell_volume 914.637646
_symmetry_space_group_name_H-M "P 2/C"
_symmetry_group_IT_number 13
_symmetry_cell_setting 'monoclinic'
loop_
_space_group_symop_operation_xyz
x,y,z
-x,y,1/2-z
-x,-y,-z
x,-y,1/2+z
loop_
_atom_site_type_symbol
_atom_site_label
_atom_site_fract_x
_atom_site_fract_y
_atom_site_fract_z
Si Si1 0.264900 0.831803 0.089309
Si Si2 0.500000 0.223379 0.750000
Si Si3 0.669710 0.694845 0.711517
Si Si4 0.691730 0.036357 0.213799
Si Si5 0.000000 0.072778 0.750000
Si Si6 0.685928 0.536168 0.598099
O O1 0.393859 0.823436 0.173197
O O2 0.332601 0.880990 0.810693
O O3 0.113543 0.874847 0.299072
O O4 0.233991 0.754631 0.012290
O O5 0.626206 0.275704 0.515274
O O6 0.500000 0.696053 0.750000
O O7 0.728554 0.616296 0.626204
O O8 0.876297 0.033248 0.027788
O O9 0.642212 0.996737 0.011501
O O10 0.500000 0.533235 0.750000
O O11 0.736170 0.511353 0.283033
#
# Coordination Sequence:
#
# PCOD9230134 Si02
#       6
#     4   2   4   4   2   4
#     4   9  21  34  57  80 110 147 188 226 284 338
#     4  10  20  36  52  76 114 154 182 228 278 342
#     4   9  19  33  51  74 113 150 181 223 282 329
#     4  10  21  38  60  84 111 143 185 243 289 327
#     4   8  20  36  60  84 108 140 188 240 278 338
#     4   9  18  28  48  77 108 142 184 227 270 324
#
# _framework density 21.866582999999999
#
# number of rings (size 3 to 8) (size 9 to 14) (size 15 to 20)
#    1.200    1.600    0.000    0.600   12.600    0.000 
#    3.600    1.000    0.000    0.000    0.000    1.400 
#    0.000    0.000    0.000    0.000    0.000    0.000 
#
# Total GULP energy -111363.761209 kJ/mol
# GULP energy per Si atom -5568.188060 kJ/mol
# Density = 2.181681 g / cm^3
# Si number density = 21.866583 Si / 1000 Ang^3
#
#
#
# Elastic Constant Matrix: (Units=GPa)
#
#
# Indices 1 2 3 4 5 6 
#
# 1 67.4222 25.7268 40.2353 0.0000 2.3079 0.0000
# 2 25.7268 120.1295 49.1116 0.0000 16.1892 0.0000
# 3 40.2353 49.1116 112.6358 0.0000 7.0943 0.0000
# 4 0.0000 0.0000 0.0000 33.3140 0.0000 5.2799
# 5 2.3079 16.1892 7.0943 0.0000 25.1527 0.0000
# 6 0.0000 0.0000 0.0000 5.2799 0.0000 22.9321
#
#
#
# Elastic Compliance Matrix: (Units=1/GPa)
#
#
# Indices 1 2 3 4 5 6 
#
# 1 0.019122 -0.001730 -0.006145 0.000000 0.001092 0.000000
# 2 -0.001730 0.011053 -0.003831 0.000000 -0.005875 0.000000
# 3 -0.006145 -0.003831 0.012780 0.000000 -0.000575 0.000000
# 4 0.000000 0.000000 0.000000 0.031154 0.000000 -0.007173
# 5 0.001092 -0.005875 -0.000575 0.000000 0.043600 0.000000
# 6 0.000000 0.000000 0.000000 -0.007173 0.000000 0.045259
#
#
# Mechanical properties :
#
#
# Convention : Reuss Voigt Hill
#
# Bulk Modulus (GPa) = 51.17204 58.92611 55.04908
# Shear Modulus (GPa) = 25.92091 28.62069 27.27080
#
# Velocity S-wave (km/s) = 3.44672 3.62177 3.53533
# Velocity P-wave (km/s) = 6.26838 6.67054 6.47258
#
# Compressibility (1/GPa) = 0.01954192
#
# Stress axis : x y z
#
# Youngs Moduli (GPa) = 52.29619 90.47434 78.24722
#
# Poissons Ratio (x) = 0.15653 0.48084
# Poissons Ratio (y) = 0.09048 0.29979
# Poissons Ratio (z) = 0.32136 0.34663
#
# Static dielectric constant tensor:
#      x y z
#    x 1.834650 0.000000 0.002360 
#    y 0.000000 1.821820 0.000000 
#    z 0.002360 0.000000 1.910310 
# 
# From -- ./inp_files/3317.got.cif
#   From: 2010.05.17/outbox.cif.g08.bks.cpg/sg13_2_cif.got.tgz:3317.got - 2010.06.03 16:44:36.
