data_PCOD9230057
_publ_section_title
;
Structure prediction by ZEFSAII (Michael W. Deem and Ramdas Pophale) SiO2 
 PCOD9230057
Probable space group: P 2/C
;
_chemical_formula_sum "Si O2"
_cell_formula_units_Z 28
_cell_length_a 12.296845
_cell_length_b 21.202095
_cell_length_c 5.554846
_cell_angle_alpha 90.000000
_cell_angle_beta 102.489888
_cell_angle_gamma 90.000000
_cell_volume 1413.979121
_symmetry_space_group_name_H-M "P 2/C"
_symmetry_group_IT_number 13
_symmetry_cell_setting 'monoclinic'
loop_
_space_group_symop_operation_xyz
x,y,z
-x,y,1/2-z
-x,-y,-z
x,-y,1/2+z
loop_
_atom_site_type_symbol
_atom_site_label
_atom_site_fract_x
_atom_site_fract_y
_atom_site_fract_z
Si Si1 0.874532 0.400188 0.683026
Si Si2 0.867263 0.036779 0.683354
Si Si3 0.321177 0.129603 0.006518
Si Si4 0.318857 0.491671 0.410404
Si Si5 0.792212 0.355654 0.144164
Si Si6 0.500000 0.961448 0.750000
Si Si7 0.500000 0.835432 0.250000
Si Si8 0.612431 0.253107 0.197121
O O1 0.784599 0.457645 0.639251
O O2 0.861403 0.361280 0.427076
O O3 0.000000 0.426197 0.750000
O O4 0.853461 0.358074 0.913755
O O5 0.797688 0.100405 0.606358
O O6 0.000000 0.047463 0.750000
O O7 0.840735 0.993681 0.433370
O O8 0.391213 0.083796 0.215373
O O9 0.328831 0.202180 0.096588
O O10 0.399847 0.125513 0.811755
O O11 0.379637 0.500198 0.689395
O O12 0.273058 0.421425 0.389606
O O13 0.703515 0.299900 0.134673
O O14 0.500000 0.000000 0.500000
O O15 0.556893 0.790845 0.471572
O O16 0.500000 0.285976 0.250000
#
# Coordination Sequence:
#
# PCOD9230057 Si02
#       8
#     4   4   4   4   4   2   2   4
#     4  10  20  35  59  89 123 157 196 254 317 363
#     4  10  23  42  65  93 125 167 206 239 294 374
#     4  11  22  39  62  94 125 160 202 256 311 366
#     4   8  16  30  51  82 114 148 191 242 304 355
#     4  10  21  35  58  87 116 159 203 246 293 368
#     4  12  23  34  58  96 128 147 184 258 322 350
#     4  10  21  40  64  88 118 159 208 250 316 360
#     4  10  23  40  62  85 117 165 206 252 306 373
#
# _framework density 19.802271999999999
#
# number of rings (size 3 to 8) (size 9 to 14) (size 15 to 20)
#    0.000    2.000    2.143    1.714    6.000    5.143 
#    0.000    0.714    3.143    7.714    0.000    0.000 
#    0.000    0.000    0.000    0.000    0.000    0.000 
#
# Total GULP energy -155927.502513 kJ/mol
# GULP energy per Si atom -5568.839375 kJ/mol
# Density = 1.975720 g / cm^3
# Si number density = 19.802272 Si / 1000 Ang^3
#
#
#
# Elastic Constant Matrix: (Units=GPa)
#
#
# Indices 1 2 3 4 5 6 
#
# 1 93.5428 60.1236 50.8822 0.0000 14.3425 0.0000
# 2 60.1236 94.3665 64.7048 0.0000 10.3961 0.0000
# 3 50.8822 64.7048 159.5483 0.0000 -8.4004 0.0000
# 4 0.0000 0.0000 0.0000 20.1746 0.0000 11.5606
# 5 14.3425 10.3961 -8.4004 0.0000 34.3841 0.0000
# 6 0.0000 0.0000 0.0000 11.5606 0.0000 50.5349
#
#
#
# Elastic Compliance Matrix: (Units=1/GPa)
#
#
# Indices 1 2 3 4 5 6 
#
# 1 0.019300 -0.010054 -0.002372 0.000000 -0.005590 0.000000
# 2 -0.010054 0.021235 -0.005594 0.000000 -0.003593 0.000000
# 3 -0.002372 -0.005594 0.009557 0.000000 0.005016 0.000000
# 4 0.000000 0.000000 0.000000 0.057045 0.000000 -0.013050
# 5 -0.005590 -0.003593 0.005016 0.000000 0.033727 0.000000
# 6 0.000000 0.000000 0.000000 -0.013050 0.000000 0.022774
#
#
# Mechanical properties :
#
#
# Convention : Reuss Voigt Hill
#
# Bulk Modulus (GPa) = 71.17239 77.65317 74.41278
# Shear Modulus (GPa) = 24.46639 32.46852 28.46746
#
# Velocity S-wave (km/s) = 3.51883 4.05363 3.79566
# Velocity P-wave (km/s) = 7.24770 7.82360 7.54115
#
# Compressibility (1/GPa) = 0.01405039
#
# Stress axis : x y z
#
# Youngs Moduli (GPa) = 51.81396 47.09265 104.63544
#
# Poissons Ratio (x) = 0.47349 0.24817
# Poissons Ratio (y) = 0.52096 0.58538
# Poissons Ratio (z) = 0.12289 0.26346
#
# Static dielectric constant tensor:
#      x y z
#    x 1.698930 0.000000 -0.052580 
#    y 0.000000 1.685510 0.000000 
#    z -0.052580 0.000000 1.806500 
# 
# From -- ./inp_files/4179.got.cif
#   From: 2010.05.17/outbox.cif.g08.bks.cpg/sg13_3_cif.got.tgz:4179.got - 2010.06.03 16:44:36.
