data_PCOD9230606
_publ_section_title
;
Structure prediction by ZEFSAII (Michael W. Deem and Ramdas Pophale) SiO2 
 PCOD9230606
Probable space group: P 2/C
;
_chemical_formula_sum "Si O2"
_cell_formula_units_Z 26
_cell_length_a 10.508564
_cell_length_b 9.703431
_cell_length_c 17.605014
_cell_angle_alpha 90.000000
_cell_angle_beta 128.794542
_cell_angle_gamma 90.000000
_cell_volume 1399.149634
_symmetry_space_group_name_H-M "P 2/C"
_symmetry_group_IT_number 13
_symmetry_cell_setting 'monoclinic'
loop_
_space_group_symop_operation_xyz
x,y,z
-x,y,1/2-z
-x,-y,-z
x,-y,1/2+z
loop_
_atom_site_type_symbol
_atom_site_label
_atom_site_fract_x
_atom_site_fract_y
_atom_site_fract_z
Si Si1 0.000000 0.766472 0.250000
Si Si2 0.336522 0.586248 0.009353
Si Si3 0.391783 0.282553 0.097295
Si Si4 0.099532 0.113226 0.943542
Si Si5 0.296150 0.441151 0.839778
Si Si6 0.269748 0.316272 0.223614
Si Si7 0.059530 0.207200 0.460318
O O1 0.018874 0.853890 0.333229
O O2 0.155907 0.667983 0.300186
O O3 0.290014 0.556089 0.904576
O O4 0.208639 0.687209 0.002072
O O5 0.346852 0.431768 0.047039
O O6 0.525993 0.629927 0.087859
O O7 0.334417 0.295050 0.162736
O O8 0.585102 0.252393 0.170627
O O9 0.283287 0.170511 0.014981
O O10 0.101885 0.950691 0.958377
O O11 0.005564 0.195193 0.976751
O O12 0.269920 0.525354 0.751868
O O13 0.088600 0.255248 0.150508
#
# Coordination Sequence:
#
# PCOD9230606 Si02
#       7
#     2   4   4   4   4   4   4
#     4  12  22  38  58  84 120 152 184 248 290 350
#     4  10  20  37  60  83 120 148 193 244 297 341
#     4   9  18  37  57  85 113 152 187 242 285 344
#     4  10  23  39  59  84 123 152 199 233 297 342
#     4  10  21  35  57  93 114 149 193 253 292 345
#     4   9  19  33  62  82 113 148 198 230 291 338
#     4  10  22  41  59  86 114 161 197 241 279 365
#
# _framework density 18.582715
#
# number of rings (size 3 to 8) (size 9 to 14) (size 15 to 20)
#    0.000    2.154    1.538    0.923    2.154    2.462 
#    2.769    0.769    0.000    0.000    0.000    0.000 
#    0.000    0.000    0.000    0.000    0.000    0.000 
#
# Total GULP energy -144857.543984 kJ/mol
# GULP energy per Si atom -5571.443999 kJ/mol
# Density = 1.854042 g / cm^3
# Si number density = 18.582715 Si / 1000 Ang^3
#
#
#
# Elastic Constant Matrix: (Units=GPa)
#
#
# Indices 1 2 3 4 5 6 
#
# 1 50.8897 28.3799 49.7104 0.0000 24.0739 0.0000
# 2 28.3799 52.9584 51.8016 0.0000 16.8346 0.0000
# 3 49.7104 51.8016 114.2679 0.0000 7.4184 0.0000
# 4 0.0000 0.0000 0.0000 4.5680 0.0000 -13.4849
# 5 24.0739 16.8346 7.4184 0.0000 34.4378 0.0000
# 6 0.0000 0.0000 0.0000 -13.4849 0.0000 0.1276
#
#
#
# Elastic Compliance Matrix: (Units=1/GPa)
#
#
# Indices 1 2 3 4 5 6 
#
# 1 0.061646 0.006198 -0.027011 0.000000 -0.040305 0.000000
# 2 0.006198 0.042065 -0.020435 0.000000 -0.020494 0.000000
# 3 -0.027011 -0.020435 0.028287 0.000000 0.022779 0.000000
# 4 0.000000 0.000000 0.000000 -0.000704 0.000000 -0.074395
# 5 -0.040305 -0.020494 0.022779 0.000000 0.062325 0.000000
# 6 0.000000 0.000000 0.000000 -0.074395 0.000000 -0.025201
#
#
# Mechanical properties :
#
#
# Convention : Reuss Voigt Hill
#
# Bulk Modulus (GPa) = 20.20149 53.09999 36.65074
# Shear Modulus (GPa) = 18.69749 13.70828 16.20288
#
# Velocity S-wave (km/s) = 3.17547 2.71899 2.95605
# Velocity P-wave (km/s) = 4.93351 6.20437 5.60507
#
# Compressibility (1/GPa) = 0.04950129
#
# Stress axis : x y z
#
# Youngs Moduli (GPa) = 16.22168 23.77273 35.35135
#
# Poissons Ratio (x) = -0.14735 0.95488
# Poissons Ratio (y) = -0.10054 0.72242
# Poissons Ratio (z) = 0.43817 0.48581
#
# Static dielectric constant tensor:
#      x y z
#    x 1.699860 0.000000 -0.003810 
#    y 0.000000 1.598850 0.000000 
#    z -0.003810 0.000000 1.667260 
# 
# From -- ./inp_files/78326.got.cif
#   From: 2010.05.17/outbox.cif.g08.bks.cpg/sg13_40_cif.got.tgz:78326.got - 2010.06.03 16:44:36.
