data_PCOD9230167
_publ_section_title
;
Structure prediction by ZEFSAII (Michael W. Deem and Ramdas Pophale) SiO2 
 PCOD9230167
Probable space group: P 2/C
;
_chemical_formula_sum "Si O2"
_cell_formula_units_Z 24
_cell_length_a 11.184141
_cell_length_b 12.320694
_cell_length_c 25.470969
_cell_angle_alpha 90.000000
_cell_angle_beta 157.703446
_cell_angle_gamma 90.000000
_cell_volume 1331.622688
_symmetry_space_group_name_H-M "P 2/C"
_symmetry_group_IT_number 13
_symmetry_cell_setting 'monoclinic'
loop_
_space_group_symop_operation_xyz
x,y,z
-x,y,1/2-z
-x,-y,-z
x,-y,1/2+z
loop_
_atom_site_type_symbol
_atom_site_label
_atom_site_fract_x
_atom_site_fract_y
_atom_site_fract_z
Si Si1 0.068828 0.436484 0.863465
Si Si2 0.172743 0.889908 0.086169
Si Si3 0.857103 0.222030 0.554376
Si Si4 0.627946 0.947502 0.605564
Si Si5 0.471563 0.840316 0.369454
Si Si6 0.504355 0.623446 0.063479
O O1 0.133527 0.351330 0.936181
O O2 0.292027 0.394628 0.906416
O O3 0.717657 0.426399 0.697435
O O4 0.186129 0.555519 0.926562
O O5 0.500000 0.913468 0.250000
O O6 0.276228 0.830809 0.074728
O O7 0.958002 0.820423 0.038296
O O8 0.000000 0.000000 0.000000
O O9 0.542950 0.163112 0.446839
O O10 0.130730 0.183467 0.705843
O O11 0.000000 0.933828 0.750000
O O12 0.500000 0.000000 0.500000
O O13 0.541876 0.038574 0.613847
O O14 0.534318 0.749880 0.439042
#
# Coordination Sequence:
#
# PCOD9230167 Si02
#       6
#     4   4   4   4   4   4
#     4   9  18  35  54  77 106 139 175 221 269 318
#     4  10  20  36  56  77 105 148 184 216 262 316
#     4  10  20  37  55  78 110 143 179 221 265 321
#     4  12  22  33  52  81 110 142 174 217 273 323
#     4  10  20  36  57  77 109 146 178 216 273 321
#     4   9  18  34  55  76 105 139 177 218 269 319
#
# _framework density 18.023122999999998
#
# number of rings (size 3 to 8) (size 9 to 14) (size 15 to 20)
#    0.000    2.000    3.333    1.000    2.333    0.000 
#    9.000    0.833    0.000    0.000    0.000    0.000 
#    0.000    0.000    0.000    0.000    0.000    0.000 
#
# Total GULP energy -133875.916449 kJ/mol
# GULP energy per Si atom -5578.163185 kJ/mol
# Density = 1.798210 g / cm^3
# Si number density = 18.023123 Si / 1000 Ang^3
#
#
#
# Elastic Constant Matrix: (Units=GPa)
#
#
# Indices 1 2 3 4 5 6 
#
# 1 74.5720 8.9353 17.9800 0.0000 5.0696 0.0000
# 2 8.9353 43.5381 2.3108 0.0000 -1.6842 0.0000
# 3 17.9800 2.3108 43.2143 0.0000 14.5034 0.0000
# 4 0.0000 0.0000 0.0000 27.0973 0.0000 -7.0154
# 5 5.0696 -1.6842 14.5034 0.0000 16.2641 0.0000
# 6 0.0000 0.0000 0.0000 -7.0154 0.0000 25.1751
#
#
#
# Elastic Compliance Matrix: (Units=1/GPa)
#
#
# Indices 1 2 3 4 5 6 
#
# 1 0.015243 -0.002760 -0.006428 0.000000 0.000695 0.000000
# 2 -0.002760 0.023819 -0.001772 0.000000 0.004907 0.000000
# 3 -0.006428 -0.001772 0.036104 0.000000 -0.030376 0.000000
# 4 0.000000 0.000000 0.000000 0.039774 0.000000 0.011084
# 5 0.000695 0.004907 -0.030376 0.000000 0.088864 0.000000
# 6 0.000000 0.000000 0.000000 0.011084 0.000000 0.042810
#
#
# Mechanical properties :
#
#
# Convention : Reuss Voigt Hill
#
# Bulk Modulus (GPa) = 18.78085 24.41963 21.60024
# Shear Modulus (GPa) = 17.46525 22.51384 19.98955
#
# Velocity S-wave (km/s) = 3.11633 3.53819 3.33394
# Velocity P-wave (km/s) = 4.83650 5.50183 5.17986
#
# Compressibility (1/GPa) = 0.05324573
#
# Stress axis : x y z
#
# Youngs Moduli (GPa) = 65.60319 41.98371 27.69773
#
# Poissons Ratio (x) = 0.11589 0.17803
# Poissons Ratio (y) = 0.18109 0.04908
# Poissons Ratio (z) = 0.42168 0.07440
#
# Static dielectric constant tensor:
#      x y z
#    x 1.625000 0.000000 -0.006210 
#    y 0.000000 1.617470 0.000000 
#    z -0.006210 0.000000 1.618960 
# 
# From -- ./inp_files/15841.got.cif
#   From: 2010.05.17/outbox.cif.g08.bks.cpg/sg13_8_cif.got.tgz:15841.got - 2010.06.03 16:44:36.
