data_PCOD9230151
_publ_section_title
;
Structure prediction by ZEFSAII (Michael W. Deem and Ramdas Pophale) SiO2 
 PCOD9230151
Probable space group: P 2/C
;
_chemical_formula_sum "Si O2"
_cell_formula_units_Z 20
_cell_length_a 10.280201
_cell_length_b 10.000186
_cell_length_c 7.896263
_cell_angle_alpha 90.000000
_cell_angle_beta 73.447906
_cell_angle_gamma 90.000000
_cell_volume 778.128090
_symmetry_space_group_name_H-M "P 2/C"
_symmetry_group_IT_number 13
_symmetry_cell_setting 'monoclinic'
loop_
_space_group_symop_operation_xyz
x,y,z
-x,y,1/2-z
-x,-y,-z
x,-y,1/2+z
loop_
_atom_site_type_symbol
_atom_site_label
_atom_site_fract_x
_atom_site_fract_y
_atom_site_fract_z
Si Si1 0.335786 0.333165 0.799581
Si Si2 0.500000 0.329969 0.250000
Si Si3 0.765961 0.422256 0.299525
Si Si4 0.000000 0.955082 0.250000
Si Si5 0.859579 0.834634 0.607677
Si Si6 0.398833 0.123973 0.530302
O O1 0.500000 0.360279 0.750000
O O2 0.237562 0.416454 0.703094
O O3 0.337857 0.180700 0.727826
O O4 0.266403 0.363078 0.005026
O O5 0.635895 0.410026 0.223697
O O6 0.491880 0.242307 0.420425
O O7 0.866742 0.317079 0.173613
O O8 0.971221 0.866697 0.424442
O O9 0.120063 0.059743 0.248492
O O10 0.719118 0.872928 0.567050
O O11 0.500000 0.000000 0.500000
#
# Coordination Sequence:
#
# PCOD9230151 Si02
#       6
#     4   2   4   2   4   4
#     4  12  23  40  65  99 152 194 221 274 349 442
#     4  10  20  36  54  94 142 176 226 266 332 418
#     4  11  22  41  66  98 139 189 234 277 344 420
#     4  10  24  50  72  94 138 188 244 302 352 404
#     4  10  25  45  72 101 136 186 242 295 353 417
#     4  11  26  39  64 107 146 180 225 285 355 430
#
# _framework density 25.702708999999999
#
# number of rings (size 3 to 8) (size 9 to 14) (size 15 to 20)
#    0.000    1.200    3.000    3.000    7.000    3.200 
#    0.000    1.000    0.000   14.400    0.000    0.000 
#    0.000    0.000    0.000    0.000    0.000    0.000 
#
# Total GULP energy -111626.271189 kJ/mol
# GULP energy per Si atom -5581.313559 kJ/mol
# Density = 2.564421 g / cm^3
# Si number density = 25.702709 Si / 1000 Ang^3
#
#
#
# Elastic Constant Matrix: (Units=GPa)
#
#
# Indices 1 2 3 4 5 6 
#
# 1 70.8433 29.4328 -0.2253 0.0000 17.4153 0.0000
# 2 29.4328 105.9991 42.6851 0.0000 5.6678 0.0000
# 3 -0.2253 42.6851 120.1414 0.0000 22.8702 0.0000
# 4 0.0000 0.0000 0.0000 48.4392 0.0000 -3.7782
# 5 17.4153 5.6678 22.8702 0.0000 27.4795 0.0000
# 6 0.0000 0.0000 0.0000 -3.7782 0.0000 24.1366
#
#
#
# Elastic Compliance Matrix: (Units=1/GPa)
#
#
# Indices 1 2 3 4 5 6 
#
# 1 0.021368 -0.007400 0.005890 0.000000 -0.016917 0.000000
# 2 -0.007400 0.013604 -0.006186 0.000000 0.007032 0.000000
# 3 0.005890 -0.006186 0.013071 0.000000 -0.013335 0.000000
# 4 0.000000 0.000000 0.000000 0.020900 0.000000 0.003271
# 5 -0.016917 0.007032 -0.013335 0.000000 0.056760 0.000000
# 6 0.000000 0.000000 0.000000 0.003271 0.000000 0.041943
#
#
# Mechanical properties :
#
#
# Convention : Reuss Voigt Hill
#
# Bulk Modulus (GPa) = 30.62834 48.97432 39.80133
# Shear Modulus (GPa) = 25.78363 35.01715 30.40039
#
# Velocity S-wave (km/s) = 3.17069 3.69506 3.44287
# Velocity P-wave (km/s) = 5.03454 6.10739 5.59673
#
# Compressibility (1/GPa) = 0.03264950
#
# Stress axis : x y z
#
# Youngs Moduli (GPa) = 46.79948 73.50838 76.50599
#
# Poissons Ratio (x) = 0.54399 -0.45060
# Poissons Ratio (y) = 0.34633 0.47326
# Poissons Ratio (z) = -0.27564 0.45472
#
# Static dielectric constant tensor:
#      x y z
#    x 2.120260 0.000000 0.106100 
#    y 0.000000 2.354590 0.000000 
#    z 0.106100 0.000000 2.337210 
# 
# From -- ./inp_files/15535.got.cif
#   From: 2010.05.17/outbox.cif.g08.bks.cpg/sg13_8_cif.got.tgz:15535.got - 2010.06.03 16:44:36.
