data_PCOD9230995
_publ_section_title
;
Structure prediction by ZEFSAII (Michael W. Deem and Ramdas Pophale) SiO2 
 PCOD9230995
Probable space group: P 2/C
;
_chemical_formula_sum "Si O2"
_cell_formula_units_Z 28
_cell_length_a 6.643550
_cell_length_b 8.725814
_cell_length_c 29.611728
_cell_angle_alpha 90.000000
_cell_angle_beta 57.231547
_cell_angle_gamma 90.000000
_cell_volume 1443.431080
_symmetry_space_group_name_H-M "P 2/C"
_symmetry_group_IT_number 13
_symmetry_cell_setting 'monoclinic'
loop_
_space_group_symop_operation_xyz
x,y,z
-x,y,1/2-z
-x,-y,-z
x,-y,1/2+z
loop_
_atom_site_type_symbol
_atom_site_label
_atom_site_fract_x
_atom_site_fract_y
_atom_site_fract_z
Si Si1 0.948622 0.351669 0.809143
Si Si2 0.523843 0.145554 0.621569
Si Si3 0.271378 0.924941 0.305738
Si Si4 0.812633 0.067790 0.393210
Si Si5 0.744902 0.429474 0.407548
Si Si6 0.962199 0.880664 0.464945
Si Si7 0.767173 0.565016 0.505655
O O1 0.695874 0.260515 0.843627
O O2 0.908695 0.489833 0.849648
O O3 0.000000 0.389417 0.750000
O O4 0.156585 0.235906 0.801875
O O5 0.617418 0.087494 0.658178
O O6 0.777380 0.201007 0.571071
O O7 0.412965 0.012388 0.603576
O O8 0.500000 0.974363 0.250000
O O9 0.046141 0.038294 0.333736
O O10 0.782096 0.247404 0.404141
O O11 0.873905 0.972286 0.431326
O O12 0.774658 0.495904 0.454338
O O13 0.464000 0.467676 0.435574
O O14 0.777100 0.747904 0.498446
O O15 0.000000 0.000000 0.500000
O O16 0.000000 0.500000 0.500000
#
# Coordination Sequence:
#
# PCOD9230995 Si02
#       7
#     4   4   4   4   4   4   4
#     4  11  22  40  64  88 119 164 206 252 306 372
#     4  10  20  38  62  88 116 154 207 253 295 361
#     4  10  20  40  65  87 112 156 211 249 299 360
#     4  10  23  38  60  91 126 158 200 258 307 363
#     4  11  24  41  58  93 130 159 205 251 311 371
#     4  11  22  38  64  93 121 163 208 249 306 366
#     4  11  23  40  65  89 126 168 202 253 307 367
#
# _framework density 19.398226000000001
#
# number of rings (size 3 to 8) (size 9 to 14) (size 15 to 20)
#    0.000    1.429    1.429    5.143    0.000    5.714 
#    2.571    0.714    0.000    0.000    0.000    0.000 
#    0.000    0.000    0.000    0.000    0.000    0.000 
#
# Total GULP energy -156138.270875 kJ/mol
# GULP energy per Si atom -5576.366817 kJ/mol
# Density = 1.935407 g / cm^3
# Si number density = 19.398226 Si / 1000 Ang^3
#
#
#
# Elastic Constant Matrix: (Units=GPa)
#
#
# Indices 1 2 3 4 5 6 
#
# 1 96.3838 22.2622 22.5759 0.0000 1.7378 0.0000
# 2 22.2622 93.0572 34.6811 0.0000 11.9673 0.0000
# 3 22.5759 34.6811 100.8852 0.0000 -1.5387 0.0000
# 4 0.0000 0.0000 0.0000 21.0732 0.0000 2.1185
# 5 1.7378 11.9673 -1.5387 0.0000 25.9662 0.0000
# 6 0.0000 0.0000 0.0000 2.1185 0.0000 23.2750
#
#
#
# Elastic Compliance Matrix: (Units=1/GPa)
#
#
# Indices 1 2 3 4 5 6 
#
# 1 0.011269 -0.002025 -0.001825 0.000000 0.000071 0.000000
# 2 -0.002025 0.013677 -0.004346 0.000000 -0.006425 0.000000
# 3 -0.001825 -0.004346 0.011858 0.000000 0.002828 0.000000
# 4 0.000000 0.000000 0.000000 0.047892 0.000000 -0.004359
# 5 0.000071 -0.006425 0.002828 0.000000 0.041636 0.000000
# 6 0.000000 0.000000 0.000000 -0.004359 0.000000 0.043361
#
#
# Mechanical properties :
#
#
# Convention : Reuss Voigt Hill
#
# Bulk Modulus (GPa) = 48.99201 49.92941 49.46071
# Shear Modulus (GPa) = 25.92173 28.11669 27.01921
#
# Velocity S-wave (km/s) = 3.65950 3.81129 3.73617
# Velocity P-wave (km/s) = 6.57014 6.72034 6.64566
#
# Compressibility (1/GPa) = 0.02041149
#
# Stress axis : x y z
#
# Youngs Moduli (GPa) = 88.73904 73.11699 84.33235
#
# Poissons Ratio (x) = 0.14807 0.15387
# Poissons Ratio (y) = 0.17970 0.36655
# Poissons Ratio (z) = 0.16191 0.31780
#
# Static dielectric constant tensor:
#      x y z
#    x 1.670700 0.000000 -0.003910 
#    y 0.000000 1.630800 0.000000 
#    z -0.003910 0.000000 1.719150 
# 
# From -- ./inp_files/94973.got.cif
#   From: 2010.05.17/outbox.cif.g08.bks.cpg/sg13_48_cif.got.tgz:94973.got - 2010.06.03 16:44:36.
