data_PCOD9230954
_publ_section_title
;
Structure prediction by ZEFSAII (Michael W. Deem and Ramdas Pophale) SiO2 
 PCOD9230954
Probable space group: P 2/C
;
_chemical_formula_sum "Si O2"
_cell_formula_units_Z 20
_cell_length_a 9.746796
_cell_length_b 7.087723
_cell_length_c 24.280357
_cell_angle_alpha 90.000000
_cell_angle_beta 35.561755
_cell_angle_gamma 90.000000
_cell_volume 975.513344
_symmetry_space_group_name_H-M "P 2/C"
_symmetry_group_IT_number 13
_symmetry_cell_setting 'monoclinic'
loop_
_space_group_symop_operation_xyz
x,y,z
-x,y,1/2-z
-x,-y,-z
x,-y,1/2+z
loop_
_atom_site_type_symbol
_atom_site_label
_atom_site_fract_x
_atom_site_fract_y
_atom_site_fract_z
Si Si1 0.592220 0.792796 0.572491
Si Si2 0.776466 0.527039 0.860406
Si Si3 0.036516 0.332838 0.865985
Si Si4 0.608815 0.798223 0.338852
Si Si5 0.268113 0.512196 0.391270
O O1 0.426578 0.677045 0.584323
O O2 0.604956 0.673443 0.625572
O O3 0.856527 0.790485 0.461143
O O4 0.479492 0.995442 0.618130
O O5 0.684788 0.326888 0.866458
O O6 0.000000 0.583507 0.750000
O O7 0.877308 0.490835 0.887783
O O8 0.171957 0.213705 0.775261
O O9 0.230782 0.439896 0.839534
O O10 0.398797 0.685138 0.377776
O O11 0.000000 0.500000 0.500000
#
# Coordination Sequence:
#
# PCOD9230954 Si02
#       5
#     4   4   4   4   4
#     4  10  21  39  62  85 115 156 195 235 292 350
#     4   9  20  38  59  84 118 152 191 241 289 345
#     4  10  20  38  61  85 118 154 191 243 291 336
#     4  10  21  39  57  86 122 149 192 244 284 344
#     4   9  20  39  60  83 114 150 192 240 288 342
#
# _framework density 20.502026000000001
#
# number of rings (size 3 to 8) (size 9 to 14) (size 15 to 20)
#    0.000    2.400    0.000    1.200    0.000    6.400 
#    0.000   34.000    0.000    0.000    0.000    0.000 
#    0.000    0.000    0.000    0.000    0.000    0.000 
#
# Total GULP energy -111631.293695 kJ/mol
# GULP energy per Si atom -5581.564685 kJ/mol
# Density = 2.045536 g / cm^3
# Si number density = 20.502026 Si / 1000 Ang^3
#
#
#
# Elastic Constant Matrix: (Units=GPa)
#
#
# Indices 1 2 3 4 5 6 
#
# 1 133.5481 34.1548 10.5433 0.0000 -18.2285 0.0000
# 2 34.1548 120.2044 43.8985 0.0000 -11.3319 0.0000
# 3 10.5433 43.8985 86.9503 0.0000 -16.1647 0.0000
# 4 0.0000 0.0000 0.0000 21.6697 0.0000 -7.7633
# 5 -18.2285 -11.3319 -16.1647 0.0000 30.9330 0.0000
# 6 0.0000 0.0000 0.0000 -7.7633 0.0000 4.5119
#
#
#
# Elastic Compliance Matrix: (Units=1/GPa)
#
#
# Indices 1 2 3 4 5 6 
#
# 1 0.008670 -0.002395 0.001046 0.000000 0.004779 0.000000
# 2 -0.002395 0.010899 -0.005241 0.000000 -0.000158 0.000000
# 3 0.001046 -0.005241 0.015260 0.000000 0.006671 0.000000
# 4 0.000000 0.000000 0.000000 0.120308 0.000000 0.207004
# 5 0.004779 -0.000158 0.006671 0.000000 0.038572 0.000000
# 6 0.000000 0.000000 0.000000 0.207004 0.000000 0.577809
#
#
# Mechanical properties :
#
#
# Convention : Reuss Voigt Hill
#
# Bulk Modulus (GPa) = 46.19175 57.54402 51.86789
# Shear Modulus (GPa) = 6.31380 28.23002 17.27191
#
# Velocity S-wave (km/s) = 1.75678 3.71474 2.90565
# Velocity P-wave (km/s) = 5.16665 6.82110 6.05069
#
# Compressibility (1/GPa) = 0.02164889
#
# Stress axis : x y z
#
# Youngs Moduli (GPa) = 115.33850 91.75135 65.52906
#
# Poissons Ratio (x) = 0.21976 -0.06856
# Poissons Ratio (y) = 0.27625 0.34347
# Poissons Ratio (z) = -0.12068 0.48091
#
# Static dielectric constant tensor:
#      x y z
#    x 1.776290 0.000000 0.025170 
#    y 0.000000 1.674720 0.000000 
#    z 0.025170 0.000000 1.798240 
# 
# From -- ./inp_files/96297.got.cif
#   From: 2010.05.17/outbox.cif.g08.bks.cpg/sg13_49_cif.got.tgz:96297.got - 2010.06.03 16:44:36.
