data_PCOD9230217
_publ_section_title
;
Structure prediction by ZEFSAII (Michael W. Deem and Ramdas Pophale) SiO2 
 PCOD9230217
Probable space group: P 2/C
;
_chemical_formula_sum "Si O2"
_cell_formula_units_Z 24
_cell_length_a 9.664719
_cell_length_b 9.005887
_cell_length_c 21.689663
_cell_angle_alpha 90.000000
_cell_angle_beta 36.591137
_cell_angle_gamma 90.000000
_cell_volume 1125.351379
_symmetry_space_group_name_H-M "P 2/C"
_symmetry_group_IT_number 13
_symmetry_cell_setting 'monoclinic'
loop_
_space_group_symop_operation_xyz
x,y,z
-x,y,1/2-z
-x,-y,-z
x,-y,1/2+z
loop_
_atom_site_type_symbol
_atom_site_label
_atom_site_fract_x
_atom_site_fract_y
_atom_site_fract_z
Si Si1 0.389389 0.197456 0.463589
Si Si2 0.779807 0.205929 0.422714
Si Si3 0.954185 0.932543 0.194409
Si Si4 0.421324 0.923854 0.378381
Si Si5 0.181556 0.501518 0.024134
Si Si6 0.255731 0.664769 0.368045
O O1 0.615848 0.167868 0.423715
O O2 0.376164 0.373276 0.460484
O O3 0.161332 0.146134 0.583079
O O4 0.391504 0.099580 0.400497
O O5 0.648908 0.144462 0.530240
O O6 0.821855 0.379176 0.420794
O O7 0.009521 0.107858 0.332176
O O8 0.692581 0.888561 0.271184
O O9 0.000000 0.903775 0.250000
O O10 0.266370 0.839951 0.382955
O O11 0.946483 0.596693 0.101117
O O12 0.223134 0.414923 0.945576
O O13 0.500000 0.628196 0.250000
#
# Coordination Sequence:
#
# PCOD9230217 Si02
#       6
#     4   4   4   4   4   4
#     4  11  20  35  59  90 118 151 192 244 304 359
#     4  10  20  36  57  87 123 150 184 243 308 361
#     4  11  18  34  58  86 119 152 190 245 296 347
#     4  10  20  36  60  83 113 153 195 247 296 344
#     4  10  23  39  59  83 119 161 193 239 299 358
#     4  10  22  43  58  77 114 158 205 245 285 347
#
# _framework density 21.326671000000001
#
# number of rings (size 3 to 8) (size 9 to 14) (size 15 to 20)
#    0.000    1.667    3.333    2.500    0.000    2.000 
#    0.000    5.000    0.000    0.000    0.000    0.000 
#    0.000    0.000    0.000    0.000    0.000    0.000 
#
# Total GULP energy -133974.427901 kJ/mol
# GULP energy per Si atom -5582.267829 kJ/mol
# Density = 2.127813 g / cm^3
# Si number density = 21.326671 Si / 1000 Ang^3
#
#
#
# Elastic Constant Matrix: (Units=GPa)
#
#
# Indices 1 2 3 4 5 6 
#
# 1 39.8353 29.1322 26.0901 0.0000 -0.6615 0.0000
# 2 29.1322 109.2487 -0.5555 0.0000 2.7339 0.0000
# 3 26.0901 -0.5555 72.8294 0.0000 -8.3692 0.0000
# 4 0.0000 0.0000 0.0000 21.1822 0.0000 -5.7054
# 5 -0.6615 2.7339 -8.3692 0.0000 15.5454 0.0000
# 6 0.0000 0.0000 0.0000 -5.7054 0.0000 13.0734
#
#
#
# Elastic Compliance Matrix: (Units=1/GPa)
#
#
# Indices 1 2 3 4 5 6 
#
# 1 0.044577 -0.011847 -0.016631 0.000000 -0.004973 0.000000
# 2 -0.011847 0.012343 0.004297 0.000000 -0.000362 0.000000
# 3 -0.016631 0.004297 0.020843 0.000000 0.009758 0.000000
# 4 0.000000 0.000000 0.000000 0.053498 0.000000 0.023347
# 5 -0.004973 -0.000362 0.009758 0.000000 0.069433 0.000000
# 6 0.000000 0.000000 0.000000 0.023347 0.000000 0.086680
#
#
# Mechanical properties :
#
#
# Convention : Reuss Voigt Hill
#
# Bulk Modulus (GPa) = 34.01317 36.80524 35.40920
# Shear Modulus (GPa) = 14.47020 21.10997 17.79009
#
# Velocity S-wave (km/s) = 2.60763 3.14958 2.89133
# Velocity P-wave (km/s) = 5.00496 5.52466 5.27122
#
# Compressibility (1/GPa) = 0.02940037
#
# Stress axis : x y z
#
# Youngs Moduli (GPa) = 22.43300 81.01462 47.97851
#
# Poissons Ratio (x) = 0.95978 0.79793
# Poissons Ratio (y) = 0.26576 -0.20615
# Poissons Ratio (z) = 0.37308 -0.34809
#
# Static dielectric constant tensor:
#      x y z
#    x 1.785240 0.000000 -0.007460 
#    y 0.000000 1.842890 0.000000 
#    z -0.007460 0.000000 1.750400 
# 
# From -- ./inp_files/86283.got.cif
#   From: 2010.05.17/outbox.cif.g08.bks.cpg/sg13_44_cif.got.tgz:86283.got - 2010.06.03 16:44:36.
