data_PCOD9230551
_publ_section_title
;
Structure prediction by ZEFSAII (Michael W. Deem and Ramdas Pophale) SiO2 
 PCOD9230551
Probable space group: P 2/C
;
_chemical_formula_sum "Si O2"
_cell_formula_units_Z 20
_cell_length_a 7.300348
_cell_length_b 21.592771
_cell_length_c 8.383116
_cell_angle_alpha 90.000000
_cell_angle_beta 129.750353
_cell_angle_gamma 90.000000
_cell_volume 1015.996466
_symmetry_space_group_name_H-M "P 2/C"
_symmetry_group_IT_number 13
_symmetry_cell_setting 'monoclinic'
loop_
_space_group_symop_operation_xyz
x,y,z
-x,y,1/2-z
-x,-y,-z
x,-y,1/2+z
loop_
_atom_site_type_symbol
_atom_site_label
_atom_site_fract_x
_atom_site_fract_y
_atom_site_fract_z
Si Si1 0.273165 0.546502 0.383997
Si Si2 0.500000 0.969997 0.750000
Si Si3 0.500000 0.821557 0.250000
Si Si4 0.276169 0.279661 0.400479
Si Si5 0.500000 0.619318 0.250000
Si Si6 0.250564 0.074302 0.801232
Si Si7 0.500000 0.645253 0.750000
O O1 0.500000 0.500000 0.500000
O O2 0.303153 0.579515 0.231080
O O3 0.337928 0.598664 0.552898
O O4 0.000000 0.523247 0.250000
O O5 0.427129 0.931752 0.552506
O O6 0.298214 0.016353 0.708939
O O7 0.591710 0.778335 0.445059
O O8 0.695806 0.866255 0.278158
O O9 0.352521 0.337305 0.551754
O O10 0.346813 0.307072 0.269308
O O11 0.000000 0.266026 0.250000
O O12 0.000000 0.074430 0.750000
#
# Coordination Sequence:
#
# PCOD9230551 Si02
#       7
#     4   2   2   4   2   4   2
#     4  11  23  38  59  88 119 149 187 236 291 351
#     4   9  20  36  58  86 112 152 197 222 272 346
#     4  10  24  36  53  89 114 142 192 238 280 338
#     4  10  21  40  60  79 110 149 191 237 284 335
#     4   9  21  39  58  82 113 147 191 234 278 344
#     4  10  20  37  58  83 118 151 186 234 282 328
#     4  10  23  39  61  83 107 153 196 230 288 350
#
# _framework density 19.685106999999999
#
# number of rings (size 3 to 8) (size 9 to 14) (size 15 to 20)
#    0.000    2.000    0.000    2.400    0.000   10.400 
#    0.000    4.000    0.000    0.000    0.000    0.000 
#    0.000    0.000    0.000    0.000    0.000    0.000 
#
# Total GULP energy -111395.632319 kJ/mol
# GULP energy per Si atom -5569.781616 kJ/mol
# Density = 1.964030 g / cm^3
# Si number density = 19.685107 Si / 1000 Ang^3
#
#
#
# Elastic Constant Matrix: (Units=GPa)
#
#
# Indices 1 2 3 4 5 6 
#
# 1 129.5107 49.4532 29.4337 0.0000 3.0085 0.0000
# 2 49.4532 80.2960 13.8796 0.0000 1.9451 0.0000
# 3 29.4337 13.8796 35.2076 0.0000 1.9203 0.0000
# 4 0.0000 0.0000 0.0000 -19.1514 0.0000 15.6613
# 5 3.0085 1.9451 1.9203 0.0000 39.5078 0.0000
# 6 0.0000 0.0000 0.0000 15.6613 0.0000 4.3307
#
#
#
# Elastic Compliance Matrix: (Units=1/GPa)
#
#
# Indices 1 2 3 4 5 6 
#
# 1 0.011663 -0.005896 -0.007413 0.000000 -0.000238 0.000000
# 2 -0.005896 0.016352 -0.001502 0.000000 -0.000283 0.000000
# 3 -0.007413 -0.001502 0.035251 0.000000 -0.001075 0.000000
# 4 0.000000 0.000000 0.000000 -0.013195 0.000000 0.047717
# 5 -0.000238 -0.000283 -0.001075 0.000000 0.025396 0.000000
# 6 0.000000 0.000000 0.000000 0.047717 0.000000 0.058350
#
#
# Mechanical properties :
#
#
# Convention : Reuss Voigt Hill
#
# Bulk Modulus (GPa) = 29.72284 47.83859 38.78071
# Shear Modulus (GPa) = 28.62822 15.08727 21.85774
#
# Velocity S-wave (km/s) = 3.81768 2.77145 3.33584
# Velocity P-wave (km/s) = 5.87918 5.88183 5.88051
#
# Compressibility (1/GPa) = 0.03364416
#
# Stress axis : x y z
#
# Youngs Moduli (GPa) = 85.74133 61.15616 28.36806
#
# Poissons Ratio (x) = 0.36057 0.21029
# Poissons Ratio (y) = 0.50553 0.04260
# Poissons Ratio (z) = 0.63561 0.09184
#
# Static dielectric constant tensor:
#      x y z
#    x 0.870910 0.000000 0.695260 
#    y 0.000000 1.693890 0.000000 
#    z 0.695260 0.000000 1.109220 
# 
# From -- ./inp_files/9943.got.cif
#   From: 2010.05.17/outbox.cif.g08.bks.cpg/sg13_5_cif.got.tgz:9943.got - 2010.06.03 16:44:36.
