data_PCOD9230083
_publ_section_title
;
Structure prediction by ZEFSAII (Michael W. Deem and Ramdas Pophale) SiO2 
 PCOD9230083
Probable space group: P 2/C
;
_chemical_formula_sum "Si O2"
_cell_formula_units_Z 24
_cell_length_a 13.549473
_cell_length_b 9.395657
_cell_length_c 13.939022
_cell_angle_alpha 90.000000
_cell_angle_beta 141.351900
_cell_angle_gamma 90.000000
_cell_volume 1108.253132
_symmetry_space_group_name_H-M "P 2/C"
_symmetry_group_IT_number 13
_symmetry_cell_setting 'monoclinic'
loop_
_space_group_symop_operation_xyz
x,y,z
-x,y,1/2-z
-x,-y,-z
x,-y,1/2+z
loop_
_atom_site_type_symbol
_atom_site_label
_atom_site_fract_x
_atom_site_fract_y
_atom_site_fract_z
Si Si1 0.503486 0.964070 0.867486
Si Si2 0.242665 0.262404 0.186653
Si Si3 0.949363 0.768335 0.606484
Si Si4 0.281779 0.156905 0.815842
Si Si5 0.051352 0.908202 0.394637
Si Si6 0.819668 0.568724 0.362026
O O1 0.500000 0.970904 0.750000
O O2 0.390563 0.836050 0.815986
O O3 0.419303 0.103477 0.848455
O O4 0.664538 0.914489 0.042141
O O5 0.284045 0.427869 0.212893
O O6 0.109439 0.238373 0.165738
O O7 0.165701 0.203780 0.030380
O O8 0.824175 0.667925 0.459082
O O9 0.000000 0.720409 0.750000
O O10 0.888834 0.930303 0.565352
O O11 0.110136 0.088296 0.665068
O O12 0.237798 0.323876 0.766096
O O13 0.000000 0.860629 0.250000
O O14 0.000000 0.500000 0.500000
#
# Coordination Sequence:
#
# PCOD9230083 Si02
#       6
#     4   4   4   4   4   4
#     4  11  25  43  64  92 127 174 218 259 311 376
#     4  11  21  41  61  91 130 159 209 264 310 381
#     4  10  20  35  60  95 126 157 205 262 325 370
#     4  11  22  43  63  92 132 164 213 265 313 376
#     4  11  20  35  67  94 117 163 210 269 317 364
#     4  10  21  39  64  93 129 165 199 268 325 375
#
# _framework density 21.655702000000002
#
# number of rings (size 3 to 8) (size 9 to 14) (size 15 to 20)
#    0.000    1.333    5.000    2.500    0.000    2.667 
#    6.000    0.833    0.000    0.000    0.000    0.000 
#    0.000    0.000    0.000    0.000    0.000    0.000 
#
# Total GULP energy -133889.286602 kJ/mol
# GULP energy per Si atom -5578.720275 kJ/mol
# Density = 2.160641 g / cm^3
# Si number density = 21.655702 Si / 1000 Ang^3
#
#
#
# Elastic Constant Matrix: (Units=GPa)
#
#
# Indices 1 2 3 4 5 6 
#
# 1 57.5551 9.1305 18.5151 0.0000 -18.5799 0.0000
# 2 9.1305 132.4780 29.7471 0.0000 -1.0338 0.0000
# 3 18.5151 29.7471 87.1053 0.0000 -8.2641 0.0000
# 4 0.0000 0.0000 0.0000 32.5129 0.0000 -3.6877
# 5 -18.5799 -1.0338 -8.2641 0.0000 42.2942 0.0000
# 6 0.0000 0.0000 0.0000 -3.6877 0.0000 4.6112
#
#
#
# Elastic Compliance Matrix: (Units=1/GPa)
#
#
# Indices 1 2 3 4 5 6 
#
# 1 0.021414 -0.000619 -0.003514 0.000000 0.008705 0.000000
# 2 -0.000619 0.008198 -0.002726 0.000000 -0.000604 0.000000
# 3 -0.003514 -0.002726 0.013251 0.000000 0.000979 0.000000
# 4 0.000000 0.000000 0.000000 0.033825 0.000000 0.027051
# 5 0.008705 -0.000604 0.000979 0.000000 0.027645 0.000000
# 6 0.000000 0.000000 0.000000 0.027051 0.000000 0.238498
#
#
# Mechanical properties :
#
#
# Convention : Reuss Voigt Hill
#
# Bulk Modulus (GPa) = 34.31071 43.54708 38.92889
# Shear Modulus (GPa) = 13.65136 30.53338 22.09237
#
# Velocity S-wave (km/s) = 2.51346 3.75900 3.19747
# Velocity P-wave (km/s) = 4.92965 6.24440 5.62557
#
# Compressibility (1/GPa) = 0.02914542
#
# Stress axis : x y z
#
# Youngs Moduli (GPa) = 46.69930 121.97556 75.46578
#
# Poissons Ratio (x) = 0.07547 0.26522
# Poissons Ratio (y) = 0.02890 0.20569
# Poissons Ratio (z) = 0.16412 0.33245
#
# Static dielectric constant tensor:
#      x y z
#    x 1.862800 0.000000 0.007330 
#    y 0.000000 1.817080 0.000000 
#    z 0.007330 0.000000 1.854020 
# 
# From -- ./inp_files/53170.got.cif
#   From: 2010.05.17/outbox.cif.g08.bks.cpg/sg13_27_cif.got.tgz:53170.got - 2010.06.03 16:44:36.
