data_PCOD9230228
_publ_section_title
;
Structure prediction by ZEFSAII (Michael W. Deem and Ramdas Pophale) SiO2 
 PCOD9230228
Probable space group: P 2/C
;
_chemical_formula_sum "Si O2"
_cell_formula_units_Z 22
_cell_length_a 6.554260
_cell_length_b 11.178015
_cell_length_c 13.777953
_cell_angle_alpha 90.000000
_cell_angle_beta 107.699932
_cell_angle_gamma 90.000000
_cell_volume 961.638456
_symmetry_space_group_name_H-M "P 2/C"
_symmetry_group_IT_number 13
_symmetry_cell_setting 'monoclinic'
loop_
_space_group_symop_operation_xyz
x,y,z
-x,y,1/2-z
-x,-y,-z
x,-y,1/2+z
loop_
_atom_site_type_symbol
_atom_site_label
_atom_site_fract_x
_atom_site_fract_y
_atom_site_fract_z
Si Si1 0.335893 0.072250 0.045041
Si Si2 0.600186 0.495481 0.121773
Si Si3 0.008939 0.989985 0.642278
Si Si4 0.672469 0.697960 0.350452
Si Si5 0.000000 0.652290 0.250000
Si Si6 0.301680 0.239199 0.418589
O O1 0.246075 0.020584 0.132489
O O2 0.468170 0.190115 0.082723
O O3 0.500000 0.000000 0.000000
O O4 0.125636 0.074230 0.948726
O O5 0.398820 0.556921 0.149655
O O6 0.707162 0.363946 0.140174
O O7 0.798781 0.581209 0.175161
O O8 0.500000 0.500000 0.000000
O O9 0.000000 0.033003 0.750000
O O10 0.885054 0.859695 0.624495
O O11 0.500000 0.752686 0.250000
O O12 0.679694 0.744131 0.461606
O O13 0.893469 0.714303 0.327003
#
# Coordination Sequence:
#
# PCOD9230228 Si02
#       6
#     4   4   4   4   2   4
#     4   9  21  43  61  84 125 155 195 253 310 369
#     4   9  20  36  57  84 120 163 202 249 298 354
#     4  10  22  41  64  93 119 154 202 250 317 373
#     4   9  20  39  56  87 125 165 208 245 299 361
#     4  10  20  36  58  82 128 170 202 254 306 352
#     4  10  21  37  61  89 119 157 205 250 299 368
#
# _framework density 22.877617999999998
#
# number of rings (size 3 to 8) (size 9 to 14) (size 15 to 20)
#    0.000    2.545    0.000    0.000    1.273   11.636 
#   16.364    0.000    2.000    0.000    0.000    0.000 
#    0.000    0.000    0.000    0.000    0.000    0.000 
#
# Total GULP energy -122505.816651 kJ/mol
# GULP energy per Si atom -5568.446211 kJ/mol
# Density = 2.282555 g / cm^3
# Si number density = 22.877618 Si / 1000 Ang^3
#
#
#
# Elastic Constant Matrix: (Units=GPa)
#
#
# Indices 1 2 3 4 5 6 
#
# 1 145.5387 25.8281 24.1890 0.0000 -35.0334 0.0000
# 2 25.8281 51.0598 -9.3667 0.0000 3.9386 0.0000
# 3 24.1890 -9.3667 79.3148 0.0000 -22.2963 0.0000
# 4 0.0000 0.0000 0.0000 29.3507 0.0000 -2.5428
# 5 -35.0334 3.9386 -22.2963 0.0000 38.2541 0.0000
# 6 0.0000 0.0000 0.0000 -2.5428 0.0000 27.3111
#
#
#
# Elastic Compliance Matrix: (Units=1/GPa)
#
#
# Indices 1 2 3 4 5 6 
#
# 1 0.010482 -0.006268 -0.001264 0.000000 0.009508 0.000000
# 2 -0.006268 0.023788 0.002893 0.000000 -0.006503 0.000000
# 3 -0.001264 0.002893 0.015459 0.000000 0.007555 0.000000
# 4 0.000000 0.000000 0.000000 0.034348 0.000000 0.003198
# 5 0.009508 -0.006503 0.007555 0.000000 0.039921 0.000000
# 6 0.000000 0.000000 0.000000 0.003198 0.000000 0.036913
#
#
# Mechanical properties :
#
#
# Convention : Reuss Voigt Hill
#
# Bulk Modulus (GPa) = 24.72180 39.69046 32.20613
# Shear Modulus (GPa) = 27.22238 34.66738 30.94488
#
# Velocity S-wave (km/s) = 3.45325 3.89696 3.68180
# Velocity P-wave (km/s) = 5.17006 6.13475 5.67295
#
# Compressibility (1/GPa) = 0.04045012
#
# Stress axis : x y z
#
# Youngs Moduli (GPa) = 95.39996 42.03872 64.68817
#
# Poissons Ratio (x) = 0.26348 0.08177
# Poissons Ratio (y) = 0.59793 -0.18711
# Poissons Ratio (z) = 0.12060 -0.12160
#
# Static dielectric constant tensor:
#      x y z
#    x 1.908780 0.000000 -0.017320 
#    y 0.000000 1.985370 0.000000 
#    z -0.017320 0.000000 1.862280 
# 
# From -- ./inp_files/43752.got.cif
#   From: 2010.05.17/outbox.cif.g08.bks.cpg/sg13_22_cif.got.tgz:43752.got - 2010.06.03 16:44:36.
