data_PCOD9230383
_publ_section_title
;
Structure prediction by ZEFSAII (Michael W. Deem and Ramdas Pophale) SiO2 
 PCOD9230383
Probable space group: P 2/C
;
_chemical_formula_sum "Si O2"
_cell_formula_units_Z 20
_cell_length_a 6.469038
_cell_length_b 10.311631
_cell_length_c 14.360778
_cell_angle_alpha 90.000000
_cell_angle_beta 55.446460
_cell_angle_gamma 90.000000
_cell_volume 788.968299
_symmetry_space_group_name_H-M "P 2/C"
_symmetry_group_IT_number 13
_symmetry_cell_setting 'monoclinic'
loop_
_space_group_symop_operation_xyz
x,y,z
-x,y,1/2-z
-x,-y,-z
x,-y,1/2+z
loop_
_atom_site_type_symbol
_atom_site_label
_atom_site_fract_x
_atom_site_fract_y
_atom_site_fract_z
Si Si1 0.000000 0.492459 0.250000
Si Si2 0.000000 0.987914 0.250000
Si Si3 0.533957 0.401348 0.075892
Si Si4 0.771956 0.117748 0.628611
Si Si5 0.522681 0.126733 0.133715
Si Si6 0.221488 0.603460 0.367069
O O1 0.748670 0.407796 0.309782
O O2 0.975400 0.582664 0.165435
O O3 0.251270 0.072494 0.174934
O O4 0.044380 0.905480 0.331680
O O5 0.589984 0.250535 0.054987
O O6 0.743757 0.472449 0.083831
O O7 0.500000 0.500000 0.000000
O O8 0.500000 0.123582 0.750000
O O9 0.815488 0.258566 0.572270
O O10 0.726661 0.989415 0.578519
O O11 0.500000 0.165258 0.250000
O O12 0.500000 0.614175 0.250000
#
# Coordination Sequence:
#
# PCOD9230383 Si02
#       6
#     2   2   4   4   4   4
#     4  10  20  36  62  80 106 146 182 226 276 322
#     4   8  14  26  52  80 100 132 182 220 266 322
#     4  11  23  37  55  82 114 146 184 226 268 323
#     4   8  15  28  51  79 106 136 176 223 267 320
#     4   9  17  31  52  76 105 140 178 222 269 318
#     4   9  18  34  55  82 110 141 182 225 274 326
#
# _framework density 25.34956
#
# number of rings (size 3 to 8) (size 9 to 14) (size 15 to 20)
#    0.000    3.200    0.000    3.000    0.000    4.000 
#    0.000    1.000    0.000    2.400    0.000    0.000 
#    0.000    0.000    0.000    0.000    0.000    0.000 
#
# Total GULP energy -111750.648208 kJ/mol
# GULP energy per Si atom -5587.532410 kJ/mol
# Density = 2.529186 g / cm^3
# Si number density = 25.349560 Si / 1000 Ang^3
#
#
#
# Elastic Constant Matrix: (Units=GPa)
#
#
# Indices 1 2 3 4 5 6 
#
# 1 176.2645 56.9885 21.1996 0.0000 4.7149 0.0000
# 2 56.9885 199.6415 5.6589 0.0000 4.1788 0.0000
# 3 21.1996 5.6589 37.6938 0.0000 -3.4934 0.0000
# 4 0.0000 0.0000 0.0000 7.6554 0.0000 -7.6810
# 5 4.7149 4.1788 -3.4934 0.0000 37.3122 0.0000
# 6 0.0000 0.0000 0.0000 -7.6810 0.0000 -8.6921
#
#
#
# Elastic Compliance Matrix: (Units=1/GPa)
#
#
# Indices 1 2 3 4 5 6 
#
# 1 0.006712 -0.001793 -0.003597 0.000000 -0.000984 0.000000
# 2 -0.001793 0.005525 0.000144 0.000000 -0.000379 0.000000
# 3 -0.003597 0.000144 0.028822 0.000000 0.003137 0.000000
# 4 0.000000 0.000000 0.000000 0.069239 0.000000 -0.061184
# 5 -0.000984 -0.000379 0.003137 0.000000 0.027261 0.000000
# 6 0.000000 0.000000 0.000000 -0.061184 0.000000 -0.060980
#
#
# Mechanical properties :
#
#
# Convention : Reuss Voigt Hill
#
# Bulk Modulus (GPa) = 32.71608 64.58820 48.65214
# Shear Modulus (GPa) = 51.40899 29.23861 40.32380
#
# Velocity S-wave (km/s) = 4.50822 3.39988 3.99270
# Velocity P-wave (km/s) = 6.32714 6.39895 6.36315
#
# Compressibility (1/GPa) = 0.03056601
#
# Stress axis : x y z
#
# Youngs Moduli (GPa) = 148.98550 181.00335 34.69616
#
# Poissons Ratio (x) = 0.32462 0.12480
# Poissons Ratio (y) = 0.26720 -0.00500
# Poissons Ratio (z) = 0.53589 -0.02609
#
# Static dielectric constant tensor:
#      x y z
#    x 1.963700 0.000000 -0.092800 
#    y 0.000000 2.021450 0.000000 
#    z -0.092800 0.000000 2.286060 
# 
# From -- ./inp_files/43627.got.cif
#   From: 2010.05.17/outbox.cif.g08.bks.cpg/sg13_22_cif.got.tgz:43627.got - 2010.06.03 16:44:36.
