data_PCOD9230790
_publ_section_title
;
Structure prediction by ZEFSAII (Michael W. Deem and Ramdas Pophale) SiO2 
 PCOD9230790
Probable space group: P 2/C
;
_chemical_formula_sum "Si O2"
_cell_formula_units_Z 30
_cell_length_a 14.840244
_cell_length_b 19.839592
_cell_length_c 14.858028
_cell_angle_alpha 90.000000
_cell_angle_beta 19.271284
_cell_angle_gamma 90.000000
_cell_volume 1443.787501
_symmetry_space_group_name_H-M "P 2/C"
_symmetry_group_IT_number 13
_symmetry_cell_setting 'monoclinic'
loop_
_space_group_symop_operation_xyz
x,y,z
-x,y,1/2-z
-x,-y,-z
x,-y,1/2+z
loop_
_atom_site_type_symbol
_atom_site_label
_atom_site_fract_x
_atom_site_fract_y
_atom_site_fract_z
Si Si1 0.822114 0.334555 0.732380
Si Si2 0.600415 0.856368 0.553218
Si Si3 0.085589 0.937671 0.481637
Si Si4 0.000000 0.393335 0.750000
Si Si5 0.564602 0.494913 0.596605
Si Si6 0.274222 0.584509 0.730577
Si Si7 0.626035 0.984263 0.031951
Si Si8 0.949119 0.190381 0.995174
O O1 0.971374 0.345723 0.689110
O O2 0.974150 0.387325 0.525038
O O3 0.909721 0.261083 0.617038
O O4 0.506115 0.357520 0.028280
O O5 0.500000 0.849531 0.750000
O O6 0.898090 0.833024 0.241016
O O7 0.598282 0.936441 0.534889
O O8 0.375468 0.812321 0.712468
O O9 0.410219 0.941220 0.179378
O O10 0.005710 0.866808 0.515305
O O11 0.000000 0.000000 0.500000
O O12 0.922316 0.956222 0.726845
O O13 0.244985 0.445146 0.542732
O O14 0.328623 0.531953 0.761016
O O15 0.696459 0.449934 0.394076
O O16 0.500000 0.455931 0.750000
O O17 0.500000 0.978719 0.250000
#
# Coordination Sequence:
#
# PCOD9230790 Si02
#       8
#     4   4   4   2   4   4   4   4
#     4  11  24  41  55  91 128 168 194 244 302 372
#     4  11  22  36  55  88 120 155 199 250 306 367
#     4  12  21  38  61  88 117 155 213 258 299 358
#     4  10  22  36  64  90 128 154 204 232 300 376
#     4  10  20  37  65  95 117 161 199 248 299 350
#     4  10  23  39  62  87 132 152 203 250 292 356
#     4  11  22  38  60  87 120 146 199 274 315 338
#     4  12  24  38  60  83 121 173 198 242 306 368
#
# _framework density 20.778680999999999
#
# number of rings (size 3 to 8) (size 9 to 14) (size 15 to 20)
#    0.000    1.067    4.000    2.800    3.733    3.733 
#    0.000    0.000    0.000    4.800    0.000    0.000 
#    0.000    0.000    0.000    0.000    0.000    0.000 
#
# Total GULP energy -167353.186621 kJ/mol
# GULP energy per Si atom -5578.439554 kJ/mol
# Density = 2.073139 g / cm^3
# Si number density = 20.778681 Si / 1000 Ang^3
#
#
#
# Elastic Constant Matrix: (Units=GPa)
#
#
# Indices 1 2 3 4 5 6 
#
# 1 79.1714 15.1656 9.9117 0.0000 24.7572 0.0000
# 2 15.1656 67.4119 2.4483 0.0000 8.1383 0.0000
# 3 9.9117 2.4483 74.8103 0.0000 4.8119 0.0000
# 4 0.0000 0.0000 0.0000 287.5999 0.0000 6.0009
# 5 24.7572 8.1383 4.8119 0.0000 39.2475 0.0000
# 6 0.0000 0.0000 0.0000 6.0009 0.0000 16.7120
#
#
#
# Elastic Compliance Matrix: (Units=1/GPa)
#
#
# Indices 1 2 3 4 5 6 
#
# 1 0.016280 -0.002453 -0.001460 0.000000 -0.009582 0.000000
# 2 -0.002453 0.015591 -0.000077 0.000000 -0.001676 0.000000
# 3 -0.001460 -0.000077 0.013610 0.000000 -0.000731 0.000000
# 4 0.000000 0.000000 0.000000 0.003503 0.000000 -0.001258
# 5 -0.009582 -0.001676 -0.000731 0.000000 0.031961 0.000000
# 6 0.000000 0.000000 0.000000 -0.001258 0.000000 0.060289
#
#
# Mechanical properties :
#
#
# Convention : Reuss Voigt Hill
#
# Bulk Modulus (GPa) = 26.66661 30.71609 28.69135
# Shear Modulus (GPa) = 30.91865 81.63641 56.27753
#
# Velocity S-wave (km/s) = 3.86164 6.27486 5.20990
# Velocity P-wave (km/s) = 5.72229 8.20445 7.07310
#
# Compressibility (1/GPa) = 0.03750008
#
# Stress axis : x y z
#
# Youngs Moduli (GPa) = 61.42641 64.13900 73.47431
#
# Poissons Ratio (x) = 0.15731 0.10730
# Poissons Ratio (y) = 0.15066 0.00569
# Poissons Ratio (z) = 0.08970 0.00497
#
# Static dielectric constant tensor:
#      x y z
#    x 1.798400 0.000000 0.024860 
#    y 0.000000 1.754550 0.000000 
#    z 0.024860 0.000000 1.783680 
# 
# From -- ./inp_files/53958.got.cif
#   From: 2010.05.17/outbox.cif.g08.bks.cpg/sg13_27_cif.got.tgz:53958.got - 2010.06.03 16:44:36.
