data_PCOD9230238
_publ_section_title
;
Structure prediction by ZEFSAII (Michael W. Deem and Ramdas Pophale) SiO2 
 PCOD9230238
Probable space group: P 2/C
;
_chemical_formula_sum "Si O2"
_cell_formula_units_Z 22
_cell_length_a 9.089089
_cell_length_b 16.407014
_cell_length_c 9.195269
_cell_angle_alpha 90.000000
_cell_angle_beta 46.811124
_cell_angle_gamma 90.000000
_cell_volume 999.775169
_symmetry_space_group_name_H-M "P 2/C"
_symmetry_group_IT_number 13
_symmetry_cell_setting 'monoclinic'
loop_
_space_group_symop_operation_xyz
x,y,z
-x,y,1/2-z
-x,-y,-z
x,-y,1/2+z
loop_
_atom_site_type_symbol
_atom_site_label
_atom_site_fract_x
_atom_site_fract_y
_atom_site_fract_z
Si Si1 0.000000 0.980093 0.250000
Si Si2 0.500000 0.484118 0.250000
Si Si3 0.000000 0.311865 0.250000
Si Si4 0.724799 0.336295 0.958234
Si Si5 0.336473 0.239369 0.206319
Si Si6 0.698077 0.057238 0.200951
Si Si7 0.853883 0.421976 0.606862
O O1 0.169843 0.022319 0.248138
O O2 0.861778 0.933855 0.460699
O O3 0.343492 0.423605 0.432127
O O4 0.369788 0.541231 0.235060
O O5 0.160368 0.254150 0.214697
O O6 0.891851 0.371005 0.437105
O O7 0.874260 0.359366 0.726494
O O8 0.527237 0.291968 0.025162
O O9 0.743115 0.278302 0.087476
O O10 0.381614 0.144921 0.193876
O O11 0.500000 0.016927 0.250000
O O12 0.000000 0.500000 0.500000
#
# Coordination Sequence:
#
# PCOD9230238 Si02
#       7
#     2   2   2   4   4   4   4
#     4  10  25  38  76 113 142 178 234 282 314 433
#     4  10  20  36  58  84 114 152 212 272 326 396
#     4  12  25  36  56  89 126 158 216 282 324 397
#     4  10  21  40  61  82 115 167 215 260 329 405
#     4  10  22  42  63  88 127 171 213 270 329 409
#     4  11  21  46  70 104 147 186 225 276 350 395
#     4  12  23  38  59  87 120 165 216 280 342 393
#
# _framework density 22.004947999999999
#
# number of rings (size 3 to 8) (size 9 to 14) (size 15 to 20)
#    0.000    1.455    1.818    6.000    0.000    3.636 
#    0.000    0.000    8.000    0.000    0.000    0.000 
#    0.000    0.000    0.000    0.000    0.000    0.000 
#
# Total GULP energy -122514.704909 kJ/mol
# GULP energy per Si atom -5568.850223 kJ/mol
# Density = 2.195486 g / cm^3
# Si number density = 22.004948 Si / 1000 Ang^3
#
#
#
# Elastic Constant Matrix: (Units=GPa)
#
#
# Indices 1 2 3 4 5 6 
#
# 1 151.2972 13.8555 -13.9300 0.0000 9.3400 0.0000
# 2 13.8555 41.9876 -2.1060 0.0000 2.9492 0.0000
# 3 -13.9300 -2.1060 79.3095 0.0000 16.1757 0.0000
# 4 0.0000 0.0000 0.0000 -39.9648 0.0000 83.1141
# 5 9.3400 2.9492 16.1757 0.0000 27.9848 0.0000
# 6 0.0000 0.0000 0.0000 83.1141 0.0000 -128.5021
#
#
#
# Elastic Compliance Matrix: (Units=1/GPa)
#
#
# Indices 1 2 3 4 5 6 
#
# 1 0.007170 -0.002043 0.001870 0.000000 -0.003258 0.000000
# 2 -0.002043 0.024697 0.000781 0.000000 -0.002372 0.000000
# 3 0.001870 0.000781 0.014853 0.000000 -0.009292 0.000000
# 4 0.000000 0.000000 0.000000 0.072502 0.000000 0.046894
# 5 -0.003258 -0.002372 -0.009292 0.000000 0.042442 0.000000
# 6 0.000000 0.000000 0.000000 0.046894 0.000000 0.022548
#
#
# Mechanical properties :
#
#
# Convention : Reuss Voigt Hill
#
# Bulk Modulus (GPa) = 20.86226 29.80368 25.33297
# Shear Modulus (GPa) = 25.12871 -9.77811 7.67530
#
# Velocity S-wave (km/s) = 3.38295 -2.11027 1.86964
# Velocity P-wave (km/s) = 4.97599 2.76330 4.02469
#
# Compressibility (1/GPa) = 0.04793344
#
# Stress axis : x y z
#
# Youngs Moduli (GPa) = 139.47160 40.49142 67.32630
#
# Poissons Ratio (x) = 0.08274 -0.12588
# Poissons Ratio (y) = 0.28499 -0.05256
# Poissons Ratio (z) = -0.26076 -0.03161
#
# Static dielectric constant tensor:
#      x y z
#    x 2.004970 0.000000 -0.043820 
#    y 0.000000 1.637380 0.000000 
#    z -0.043820 0.000000 1.793640 
# 
# From -- ./inp_files/13067.got.cif
#   From: 2010.05.17/outbox.cif.g08.bks.cpg/sg13_7_cif.got.tgz:13067.got - 2010.06.03 16:44:36.
