data_PCOD9230175
_publ_section_title
;
Structure prediction by ZEFSAII (Michael W. Deem and Ramdas Pophale) SiO2 
 PCOD9230175
Probable space group: P 2/C
;
_chemical_formula_sum "Si O2"
_cell_formula_units_Z 28
_cell_length_a 23.096499
_cell_length_b 7.287545
_cell_length_c 24.658587
_cell_angle_alpha 90.000000
_cell_angle_beta 161.258976
_cell_angle_gamma 90.000000
_cell_volume 1333.503947
_symmetry_space_group_name_H-M "P 2/C"
_symmetry_group_IT_number 13
_symmetry_cell_setting 'monoclinic'
loop_
_space_group_symop_operation_xyz
x,y,z
-x,y,1/2-z
-x,-y,-z
x,-y,1/2+z
loop_
_atom_site_type_symbol
_atom_site_label
_atom_site_fract_x
_atom_site_fract_y
_atom_site_fract_z
Si Si1 0.376236 0.613301 0.690552
Si Si2 0.920537 0.325265 0.238530
Si Si3 0.197939 0.721789 0.082606
Si Si4 0.737166 0.963224 0.636167
Si Si5 0.900985 0.182782 0.391779
Si Si6 0.618410 0.103535 0.221487
Si Si7 0.985620 0.260486 0.799997
O O1 0.500000 0.560719 0.750000
O O2 0.337005 0.438950 0.693536
O O3 0.461713 0.777469 0.800874
O O4 0.184501 0.692131 0.498949
O O5 0.885016 0.542337 0.210801
O O6 0.000000 0.288580 0.250000
O O7 0.072804 0.273401 0.417923
O O8 0.753478 0.198964 0.106187
O O9 0.289346 0.917768 0.174689
O O10 0.058309 0.686548 0.008484
O O11 0.540288 0.047905 0.459494
O O12 0.882209 0.115885 0.745779
O O13 0.787127 0.877683 0.738161
O O14 0.766534 0.226739 0.321373
O O15 0.000000 0.000000 0.500000
O O16 0.000000 0.198049 0.750000
#
# Coordination Sequence:
#
# PCOD9230175 Si02
#       7
#     4   4   4   4   4   4   4
#     4  11  23  38  59  87 116 149 191 235 283 341
#     4   9  19  35  56  80 110 152 193 231 284 343
#     4   9  21  39  60  83 115 154 191 237 285 333
#     4  11  21  35  58  84 114 149 187 236 287 338
#     4   9  19  40  62  81 110 151 195 235 282 336
#     4  11  23  37  58  87 117 149 189 236 284 339
#     4  10  20  36  56  80 114 152 190 235 286 339
#
# _framework density 20.997312999999998
#
# number of rings (size 3 to 8) (size 9 to 14) (size 15 to 20)
#    0.000    2.000    0.000    4.286    0.000    6.857 
#    0.000    4.286    0.000   12.857    0.000    0.000 
#    0.000    0.000    0.000    0.000    0.000    0.000 
#
# Total GULP energy -156341.533538 kJ/mol
# GULP energy per Si atom -5583.626198 kJ/mol
# Density = 2.094952 g / cm^3
# Si number density = 20.997313 Si / 1000 Ang^3
#
#
#
# Elastic Constant Matrix: (Units=GPa)
#
#
# Indices 1 2 3 4 5 6 
#
# 1 71.6882 29.5280 -5.9300 0.0000 9.7763 0.0000
# 2 29.5280 74.7243 11.6268 0.0000 14.5015 0.0000
# 3 -5.9300 11.6268 28.4031 0.0000 9.2151 0.0000
# 4 0.0000 0.0000 0.0000 12.2946 0.0000 8.1114
# 5 9.7763 14.5015 9.2151 0.0000 29.7403 0.0000
# 6 0.0000 0.0000 0.0000 8.1114 0.0000 26.8493
#
#
#
# Elastic Compliance Matrix: (Units=1/GPa)
#
#
# Indices 1 2 3 4 5 6 
#
# 1 0.018514 -0.007687 0.008639 0.000000 -0.005015 0.000000
# 2 -0.007687 0.018421 -0.007839 0.000000 -0.004026 0.000000
# 3 0.008639 -0.007839 0.044361 0.000000 -0.012763 0.000000
# 4 0.000000 0.000000 0.000000 0.101584 0.000000 -0.030689
# 5 -0.005015 -0.004026 -0.012763 0.000000 0.041191 0.000000
# 6 0.000000 0.000000 0.000000 -0.030689 0.000000 0.046516
#
#
# Mechanical properties :
#
#
# Convention : Reuss Voigt Hill
#
# Bulk Modulus (GPa) = 14.81015 27.25171 21.03093
# Shear Modulus (GPa) = 16.29362 23.08290 19.68826
#
# Velocity S-wave (km/s) = 2.78867 3.31921 3.06544
# Velocity P-wave (km/s) = 4.17584 5.26273 4.75047
#
# Compressibility (1/GPa) = 0.06752127
#
# Stress axis : x y z
#
# Youngs Moduli (GPa) = 54.01318 54.28500 22.54241
#
# Poissons Ratio (x) = 0.41729 -0.19474
# Poissons Ratio (y) = 0.41520 0.17672
# Poissons Ratio (z) = -0.46662 0.42556
#
# Static dielectric constant tensor:
#      x y z
#    x 1.768300 0.000000 0.023810 
#    y 0.000000 1.751690 0.000000 
#    z 0.023810 0.000000 1.788300 
# 
# From -- ./inp_files/88538.got.cif
#   From: 2010.05.17/outbox.cif.g08.bks.cpg/sg13_45_cif.got.tgz:88538.got - 2010.06.03 16:44:36.
