data_PCOD9230208
_publ_section_title
;
Structure prediction by ZEFSAII (Michael W. Deem and Ramdas Pophale) SiO2 
 PCOD9230208
Probable space group: P 2/C
;
_chemical_formula_sum "Si O2"
_cell_formula_units_Z 32
_cell_length_a 15.974742
_cell_length_b 21.215579
_cell_length_c 15.187493
_cell_angle_alpha 90.000000
_cell_angle_beta 18.195428
_cell_angle_gamma 90.000000
_cell_volume 1607.274129
_symmetry_space_group_name_H-M "P 2/C"
_symmetry_group_IT_number 13
_symmetry_cell_setting 'monoclinic'
loop_
_space_group_symop_operation_xyz
x,y,z
-x,y,1/2-z
-x,-y,-z
x,-y,1/2+z
loop_
_atom_site_type_symbol
_atom_site_label
_atom_site_fract_x
_atom_site_fract_y
_atom_site_fract_z
Si Si1 0.893956 0.054108 0.040496
Si Si2 0.522917 0.607338 0.005039
Si Si3 0.020520 0.579704 0.397927
Si Si4 0.576786 0.253889 0.381342
Si Si5 0.238473 0.947197 0.451943
Si Si6 0.077158 0.280583 0.771480
Si Si7 0.370666 0.120901 0.637287
Si Si8 0.246685 0.536551 0.561548
O O1 0.118739 0.107852 0.824468
O O2 0.614581 0.079528 0.355962
O O3 0.848006 0.016436 0.996572
O O4 0.000000 0.000000 0.000000
O O5 0.551382 0.682328 0.963365
O O6 0.626036 0.584826 0.995863
O O7 0.721027 0.575604 0.734813
O O8 0.222769 0.587684 0.278657
O O9 0.043902 0.644155 0.319100
O O10 0.116777 0.521443 0.244488
O O11 0.378095 0.263497 0.497013
O O12 0.474583 0.192178 0.532962
O O13 0.874594 0.250165 0.044825
O O14 0.500000 0.952000 0.250000
O O15 0.294952 0.904374 0.309796
O O16 0.000000 0.920934 0.750000
O O17 0.000000 0.263136 0.750000
O O18 0.000000 0.562956 0.750000
O O19 0.500000 0.514744 0.250000
#
# Coordination Sequence:
#
# PCOD9230208 Si02
#       8
#     4   4   4   4   4   4   4   4
#     4  10  20  37  60  83 112 147 179 225 287 339
#     4  10  21  39  58  80 113 155 193 232 282 348
#     4  10  20  36  59  82 109 148 191 234 292 356
#     4  10  22  38  60  81 112 159 195 222 273 344
#     4  11  21  36  59  89 118 147 189 244 286 324
#     4  10  20  36  57  83 113 144 187 243 288 329
#     4  11  21  39  61  83 114 156 195 225 274 347
#     4  12  23  35  56  87 117 146 187 245 297 341
#
# _framework density 19.909483999999999
#
# number of rings (size 3 to 8) (size 9 to 14) (size 15 to 20)
#    0.000    1.500    0.000    7.500    0.000    2.000 
#    0.000    6.875    0.000    3.000    0.000    0.000 
#    0.000    0.000    0.000    0.000    0.000    0.000 
#
# Total GULP energy -178860.925288 kJ/mol
# GULP energy per Si atom -5589.403915 kJ/mol
# Density = 1.986417 g / cm^3
# Si number density = 19.909484 Si / 1000 Ang^3
#
#
#
# Elastic Constant Matrix: (Units=GPa)
#
#
# Indices 1 2 3 4 5 6 
#
# 1 88.5924 38.7275 12.6012 0.0000 -5.4698 0.0000
# 2 38.7275 101.7521 23.5239 0.0000 12.7474 0.0000
# 3 12.6012 23.5239 82.2626 0.0000 -4.7450 0.0000
# 4 0.0000 0.0000 0.0000 28.7641 0.0000 -6.0085
# 5 -5.4698 12.7474 -4.7450 0.0000 29.8581 0.0000
# 6 0.0000 0.0000 0.0000 -6.0085 0.0000 14.1404
#
#
#
# Elastic Compliance Matrix: (Units=1/GPa)
#
#
# Indices 1 2 3 4 5 6 
#
# 1 0.014271 -0.006042 -0.000160 0.000000 0.005168 0.000000
# 2 -0.006042 0.013883 -0.003482 0.000000 -0.007587 0.000000
# 3 -0.000160 -0.003482 0.013383 0.000000 0.003584 0.000000
# 4 0.000000 0.000000 0.000000 0.038152 0.000000 0.016212
# 5 0.005168 -0.007587 0.003584 0.000000 0.038247 0.000000
# 6 0.000000 0.000000 0.000000 0.016212 0.000000 0.077608
#
#
# Mechanical properties :
#
#
# Convention : Reuss Voigt Hill
#
# Bulk Modulus (GPa) = 45.10917 46.92359 46.01638
# Shear Modulus (GPa) = 22.49189 27.73616 25.11403
#
# Velocity S-wave (km/s) = 3.36476 3.73649 3.55549
# Velocity P-wave (km/s) = 6.14832 6.49883 6.32600
#
# Compressibility (1/GPa) = 0.02216844
#
# Stress axis : x y z
#
# Youngs Moduli (GPa) = 70.07342 72.03058 74.72050
#
# Poissons Ratio (x) = 0.43521 0.01196
# Poissons Ratio (y) = 0.42338 0.26019
# Poissons Ratio (z) = 0.01122 0.25082
#
# Static dielectric constant tensor:
#      x y z
#    x 1.697290 0.000000 -0.008040 
#    y 0.000000 1.704010 0.000000 
#    z -0.008040 0.000000 1.703770 
# 
# From -- ./inp_files/53989.got.cif
#   From: 2010.05.17/outbox.cif.g08.bks.cpg/sg13_27_cif.got.tgz:53989.got - 2010.06.03 16:44:36.
