data_PCOD9230470
_publ_section_title
;
Structure prediction by ZEFSAII (Michael W. Deem and Ramdas Pophale) SiO2 
 PCOD9230470
Probable space group: P 2/C
;
_chemical_formula_sum "Si O2"
_cell_formula_units_Z 20
_cell_length_a 8.449355
_cell_length_b 20.966901
_cell_length_c 5.268483
_cell_angle_alpha 90.000000
_cell_angle_beta 119.152512
_cell_angle_gamma 90.000000
_cell_volume 815.116787
_symmetry_space_group_name_H-M "P 2/C"
_symmetry_group_IT_number 13
_symmetry_cell_setting 'monoclinic'
loop_
_space_group_symop_operation_xyz
x,y,z
-x,y,1/2-z
-x,-y,-z
x,-y,1/2+z
loop_
_atom_site_type_symbol
_atom_site_label
_atom_site_fract_x
_atom_site_fract_y
_atom_site_fract_z
Si Si1 0.784990 0.969205 0.140375
Si Si2 0.218651 0.467050 0.897802
Si Si3 0.168933 0.651573 0.030859
Si Si4 0.500000 0.274105 0.750000
Si Si5 0.326840 0.166081 0.963995
Si Si6 0.000000 0.242509 0.750000
O O1 0.751050 0.897991 0.219527
O O2 0.000000 0.976444 0.250000
O O3 0.712530 0.016479 0.300687
O O4 0.287155 0.515638 0.731919
O O5 0.245818 0.397110 0.800997
O O6 0.000000 0.472131 0.750000
O O7 0.340550 0.680563 0.016873
O O8 0.072223 0.710723 0.091528
O O9 0.000000 0.619926 0.750000
O O10 0.404749 0.225252 0.866042
O O11 0.158671 0.197493 0.980038
O O12 0.500000 0.143468 0.250000
#
# Coordination Sequence:
#
# PCOD9230470 Si02
#       6
#     4   4   4   2   4   2
#     4  10  23  44  70 100 132 174 222 273 330 398
#     4  10  20  36  65  99 128 171 228 275 328 400
#     4  11  21  40  65  90 129 173 218 274 336 392
#     4  10  26  42  60 100 130 168 228 274 324 400
#     4  11  23  42  65  94 131 170 224 275 326 399
#     4  10  22  40  62  92 122 178 216 268 340 390
#
# _framework density 24.536360999999999
#
# number of rings (size 3 to 8) (size 9 to 14) (size 15 to 20)
#    0.000    1.600    2.000    3.000    2.800    0.800 
#    0.000    1.000    0.000    0.000    0.000    1.400 
#    0.000    0.000    0.000    0.000    0.000    0.000 
#
# Total GULP energy -111612.949998 kJ/mol
# GULP energy per Si atom -5580.647500 kJ/mol
# Density = 2.448051 g / cm^3
# Si number density = 24.536361 Si / 1000 Ang^3
#
#
#
# Elastic Constant Matrix: (Units=GPa)
#
#
# Indices 1 2 3 4 5 6 
#
# 1 100.6771 52.1319 30.6654 0.0000 2.0934 0.0000
# 2 52.1319 126.1622 10.0920 0.0000 -2.4427 0.0000
# 3 30.6654 10.0920 56.3103 0.0000 -12.1789 0.0000
# 4 0.0000 0.0000 0.0000 26.7911 0.0000 -7.0573
# 5 2.0934 -2.4427 -12.1789 0.0000 24.0061 0.0000
# 6 0.0000 0.0000 0.0000 -7.0573 0.0000 22.3030
#
#
#
# Elastic Compliance Matrix: (Units=1/GPa)
#
#
# Indices 1 2 3 4 5 6 
#
# 1 0.015912 -0.005981 -0.009014 0.000000 -0.006569 0.000000
# 2 -0.005981 0.010290 0.001968 0.000000 0.002567 0.000000
# 3 -0.009014 0.001968 0.025305 0.000000 0.013824 0.000000
# 4 0.000000 0.000000 0.000000 0.040720 0.000000 0.012885
# 5 -0.006569 0.002567 0.013824 0.000000 0.049504 0.000000
# 6 0.000000 0.000000 0.000000 0.012885 0.000000 0.048914
#
#
# Mechanical properties :
#
#
# Convention : Reuss Voigt Hill
#
# Bulk Modulus (GPa) = 39.28861 52.10313 45.69587
# Shear Modulus (GPa) = 22.20409 27.30404 24.75407
#
# Velocity S-wave (km/s) = 3.01150 3.33948 3.17972
# Velocity P-wave (km/s) = 5.30465 6.01255 5.66966
#
# Compressibility (1/GPa) = 0.02545267
#
# Stress axis : x y z
#
# Youngs Moduli (GPa) = 62.84489 97.18087 39.51798
#
# Poissons Ratio (x) = 0.58126 0.35623
# Poissons Ratio (y) = 0.37589 -0.07778
# Poissons Ratio (z) = 0.56650 -0.19128
#
# Static dielectric constant tensor:
#      x y z
#    x 1.969820 0.000000 0.042160 
#    y 0.000000 1.927020 0.000000 
#    z 0.042160 0.000000 2.048520 
# 
# From -- ./inp_files/2230.got.cif
#   From: 2010.05.17/outbox.cif.g08.bks.cpg/sg13_2_cif.got.tgz:2230.got - 2010.06.03 16:44:36.
