data_PCOD9230716
_publ_section_title
;
Structure prediction by ZEFSAII (Michael W. Deem and Ramdas Pophale) SiO2 
 PCOD9230716
Probable space group: P 2/C
;
_chemical_formula_sum "Si O2"
_cell_formula_units_Z 26
_cell_length_a 10.566337
_cell_length_b 9.216662
_cell_length_c 13.367598
_cell_angle_alpha 90.000000
_cell_angle_beta 65.990133
_cell_angle_gamma 90.000000
_cell_volume 1189.182067
_symmetry_space_group_name_H-M "P 2/C"
_symmetry_group_IT_number 13
_symmetry_cell_setting 'monoclinic'
loop_
_space_group_symop_operation_xyz
x,y,z
-x,y,1/2-z
-x,-y,-z
x,-y,1/2+z
loop_
_atom_site_type_symbol
_atom_site_label
_atom_site_fract_x
_atom_site_fract_y
_atom_site_fract_z
Si Si1 0.867350 0.535755 0.471822
Si Si2 0.500000 0.716156 0.250000
Si Si3 0.122076 0.171432 0.827200
Si Si4 0.301689 0.880717 0.461810
Si Si5 0.848414 0.291640 0.317840
Si Si6 0.246728 0.469954 0.796267
Si Si7 0.808728 0.144491 0.910011
O O1 0.882328 0.428391 0.376295
O O2 0.747221 0.488011 0.586391
O O3 0.821722 0.691491 0.445364
O O4 0.000000 0.500000 0.500000
O O5 0.430019 0.814806 0.359258
O O6 0.611320 0.614033 0.270835
O O7 0.182839 0.141662 0.916081
O O8 0.128446 0.347452 0.810733
O O9 0.211099 0.122767 0.702639
O O10 0.970806 0.102121 0.872169
O O11 0.254397 0.802775 0.580258
O O12 0.297783 0.049386 0.492816
O O13 0.781625 0.373723 0.243826
O O14 0.000000 0.221014 0.250000
#
# Coordination Sequence:
#
# PCOD9230716 Si02
#       7
#     4   2   4   4   4   4   4
#     4  12  20  37  63 102 134 161 213 277 332 389
#     4  10  24  48  64  86 134 190 222 268 328 382
#     4  10  20  37  62  93 132 167 205 268 345 383
#     4  11  25  43  62  93 138 176 219 269 323 408
#     4  12  22  36  66 102 129 164 218 282 339 385
#     4  11  22  40  66  96 130 174 223 274 321 391
#     4  11  22  36  64  98 131 169 209 265 347 391
#
# _framework density 21.863766999999999
#
# number of rings (size 3 to 8) (size 9 to 14) (size 15 to 20)
#    0.000    0.923    7.692    0.462    2.154    1.846 
#    0.000    3.846    0.000    0.000    0.000    0.000 
#    0.000    0.000    0.000    0.000    0.000    0.000 
#
# Total GULP energy -144813.209765 kJ/mol
# GULP energy per Si atom -5569.738837 kJ/mol
# Density = 2.181400 g / cm^3
# Si number density = 21.863767 Si / 1000 Ang^3
#
#
#
# Elastic Constant Matrix: (Units=GPa)
#
#
# Indices 1 2 3 4 5 6 
#
# 1 27.5127 -3.2713 4.1549 0.0000 -11.9330 0.0000
# 2 -3.2713 76.3088 25.7648 0.0000 -10.9265 0.0000
# 3 4.1549 25.7648 114.2326 0.0000 -10.3580 0.0000
# 4 0.0000 0.0000 0.0000 49.9721 0.0000 7.6028
# 5 -11.9330 -10.9265 -10.3580 0.0000 35.0494 0.0000
# 6 0.0000 0.0000 0.0000 7.6028 0.0000 0.1079
#
#
#
# Elastic Compliance Matrix: (Units=1/GPa)
#
#
# Indices 1 2 3 4 5 6 
#
# 1 0.044043 0.004588 -0.001179 0.000000 0.016077 0.000000
# 2 0.004588 0.015112 -0.003089 0.000000 0.005360 0.000000
# 3 -0.001179 -0.003089 0.009628 0.000000 0.001481 0.000000
# 4 0.000000 0.000000 0.000000 -0.002059 0.000000 0.145063
# 5 0.016077 0.005360 0.001481 0.000000 0.036113 0.000000
# 6 0.000000 0.000000 0.000000 0.145063 0.000000 -0.953477
#
#
# Mechanical properties :
#
#
# Convention : Reuss Voigt Hill
#
# Bulk Modulus (GPa) = 14.40441 30.15010 22.27726
# Shear Modulus (GPa) = -6.03764 29.78625 11.87431
#
# Velocity S-wave (km/s) = -1.66357 3.69502 2.33299
# Velocity P-wave (km/s) = 1.70663 5.65899 4.17952
#
# Compressibility (1/GPa) = 0.06942317
#
# Stress axis : x y z
#
# Youngs Moduli (GPa) = 22.70486 66.17292 103.86366
#
# Poissons Ratio (x) = -0.30362 0.12246
# Poissons Ratio (y) = -0.10418 0.32086
# Poissons Ratio (z) = 0.02677 0.20443
#
# Static dielectric constant tensor:
#      x y z
#    x 1.878200 0.000000 -0.003590 
#    y 0.000000 2.112460 0.000000 
#    z -0.003590 0.000000 1.965920 
# 
# From -- ./inp_files/49883.got.cif
#   From: 2010.05.17/outbox.cif.g08.bks.cpg/sg13_25_cif.got.tgz:49883.got - 2010.06.03 16:44:36.
