data_PCOD9230576
_publ_section_title
;
Structure prediction by ZEFSAII (Michael W. Deem and Ramdas Pophale) SiO2 
 PCOD9230576
Probable space group: P 2/C
;
_chemical_formula_sum "Si O2"
_cell_formula_units_Z 16
_cell_length_a 15.012755
_cell_length_b 11.226497
_cell_length_c 9.814467
_cell_angle_alpha 90.000000
_cell_angle_beta 21.848540
_cell_angle_gamma 90.000000
_cell_volume 615.594061
_symmetry_space_group_name_H-M "P 2/C"
_symmetry_group_IT_number 13
_symmetry_cell_setting 'monoclinic'
loop_
_space_group_symop_operation_xyz
x,y,z
-x,y,1/2-z
-x,-y,-z
x,-y,1/2+z
loop_
_atom_site_type_symbol
_atom_site_label
_atom_site_fract_x
_atom_site_fract_y
_atom_site_fract_z
Si Si1 0.858702 0.672952 0.817646
Si Si2 0.377256 0.167592 0.283045
Si Si3 0.290133 0.085068 0.935340
Si Si4 0.645161 0.613456 0.853915
O O1 0.000000 0.623619 0.750000
O O2 0.903411 0.815219 0.743986
O O3 0.841173 0.605571 0.697314
O O4 0.585531 0.674406 0.252078
O O5 0.500000 0.200910 0.250000
O O6 0.210367 0.052435 0.541490
O O7 0.583851 0.119365 0.886767
O O8 0.271480 0.289813 0.373940
O O9 0.500000 0.084403 0.750000
O O10 0.500000 0.500000 0.000000
#
# Coordination Sequence:
#
# PCOD9230576 Si02
#       4
#     4   4   4   4
#     4  10  20  37  59  82 110 148 193 238 290 341
#     4   9  17  28  58  82 107 143 189 236 280 334
#     4   9  15  33  55  81 107 145 184 231 291 343
#     4  10  21  37  58  80 112 157 196 228 283 341
#
# _framework density 25.991154999999999
#
# number of rings (size 3 to 8) (size 9 to 14) (size 15 to 20)
#    0.000    2.500    5.000    0.000    3.500    1.000 
#    0.000    1.250    0.000    0.000    0.000    0.000 
#    0.000    0.000    0.000    0.000    0.000    0.000 
#
# Total GULP energy -89092.919826 kJ/mol
# GULP energy per Si atom -5568.307489 kJ/mol
# Density = 2.593200 g / cm^3
# Si number density = 25.991155 Si / 1000 Ang^3
#
#
#
# Elastic Constant Matrix: (Units=GPa)
#
#
# Indices 1 2 3 4 5 6 
#
# 1 293.2362 88.1467 31.2252 0.0000 -14.2367 0.0000
# 2 88.1467 190.4648 3.9715 0.0000 1.3216 0.0000
# 3 31.2252 3.9715 39.2745 0.0000 -11.1759 0.0000
# 4 0.0000 0.0000 0.0000 -3.7745 0.0000 -2.7847
# 5 -14.2367 1.3216 -11.1759 0.0000 37.0302 0.0000
# 6 0.0000 0.0000 0.0000 -2.7847 0.0000 17.0785
#
#
#
# Elastic Compliance Matrix: (Units=1/GPa)
#
#
# Indices 1 2 3 4 5 6 
#
# 1 0.004363 -0.001962 -0.003034 0.000000 0.000832 0.000000
# 2 -0.001962 0.006148 0.000723 0.000000 -0.000755 0.000000
# 3 -0.003034 0.000723 0.030042 0.000000 0.007874 0.000000
# 4 0.000000 0.000000 0.000000 -0.236485 0.000000 -0.038560
# 5 0.000832 -0.000755 0.007874 0.000000 0.029728 0.000000
# 6 0.000000 0.000000 0.000000 -0.038560 0.000000 0.052266
#
#
# Mechanical properties :
#
#
# Convention : Reuss Voigt Hill
#
# Bulk Modulus (GPa) = 31.24235 85.51801 58.38018
# Shear Modulus (GPa) = -52.78596 36.70897 -8.03850
#
# Velocity S-wave (km/s) = -4.51146 3.76222 -1.76054
# Velocity P-wave (km/s) = 3.88475 7.20046 4.28692
#
# Compressibility (1/GPa) = 0.03200784
#
# Stress axis : x y z
#
# Youngs Moduli (GPa) = 229.17737 162.64289 33.28714
#
# Poissons Ratio (x) = 0.31909 0.10099
# Poissons Ratio (y) = 0.44962 -0.02407
# Poissons Ratio (z) = 0.69533 -0.11761
#
# Static dielectric constant tensor:
#      x y z
#    x 2.139300 0.000000 -0.005610 
#    y 0.000000 2.427610 0.000000 
#    z -0.005610 0.000000 2.076830 
# 
# From -- ./inp_files/15429.got.cif
#   From: 2010.05.17/outbox.cif.g08.bks.cpg/sg13_8_cif.got.tgz:15429.got - 2010.06.03 16:44:36.
