data_PCOD9230038
_publ_section_title
;
Structure prediction by ZEFSAII (Michael W. Deem and Ramdas Pophale) SiO2 
 PCOD9230038
Probable space group: P 2/C
;
_chemical_formula_sum "Si O2"
_cell_formula_units_Z 16
_cell_length_a 10.194330
_cell_length_b 9.452653
_cell_length_c 21.307051
_cell_angle_alpha 90.000000
_cell_angle_beta 155.092102
_cell_angle_gamma 90.000000
_cell_volume 864.736387
_symmetry_space_group_name_H-M "P 2/C"
_symmetry_group_IT_number 13
_symmetry_cell_setting 'monoclinic'
loop_
_space_group_symop_operation_xyz
x,y,z
-x,y,1/2-z
-x,-y,-z
x,-y,1/2+z
loop_
_atom_site_type_symbol
_atom_site_label
_atom_site_fract_x
_atom_site_fract_y
_atom_site_fract_z
Si Si1 0.269267 0.079908 0.817538
Si Si2 0.160354 0.874031 0.133166
Si Si3 0.132038 0.646843 0.583100
Si Si4 0.957658 0.142497 0.108671
O O1 0.000000 0.110406 0.750000
O O2 0.214986 0.917272 0.769301
O O3 0.215452 0.167451 0.729934
O O4 0.617433 0.114916 0.990034
O O5 0.500000 0.889000 0.250000
O O6 0.960598 0.761353 0.009521
O O7 0.991150 0.024915 0.067648
O O8 0.500000 0.637194 0.750000
O O9 0.000000 0.500000 0.500000
O O10 0.003276 0.708976 0.593769
#
# Coordination Sequence:
#
# PCOD9230038 Si02
#       4
#     4   4   4   4
#     4  10  21  34  60  89 120 147 190 234 288 336
#     4  10  20  36  60  86 116 148 187 242 287 333
#     4  12  23  36  57  87 116 148 189 236 288 337
#     4  10  20  35  59  83 121 143 192 232 289 331
#
# _framework density 18.502749000000001
#
# number of rings (size 3 to 8) (size 9 to 14) (size 15 to 20)
#    1.500    0.000    2.500    4.500    0.000    0.000 
#    0.000    0.000    0.000    3.000    0.000    0.000 
#    0.000    0.000    0.000    0.000    0.000    0.000 
#
# Total GULP energy -89093.349329 kJ/mol
# GULP energy per Si atom -5568.334333 kJ/mol
# Density = 1.846064 g / cm^3
# Si number density = 18.502749 Si / 1000 Ang^3
#
#
#
# Elastic Constant Matrix: (Units=GPa)
#
#
# Indices 1 2 3 4 5 6 
#
# 1 94.5826 12.2939 20.7016 0.0000 32.2214 0.0000
# 2 12.2939 71.6830 30.9224 0.0000 16.9918 0.0000
# 3 20.7016 30.9224 108.6905 0.0000 25.3947 0.0000
# 4 0.0000 0.0000 0.0000 22.9367 0.0000 -2.2711
# 5 32.2214 16.9918 25.3947 0.0000 33.2657 0.0000
# 6 0.0000 0.0000 0.0000 -2.2711 0.0000 8.8155
#
#
#
# Elastic Compliance Matrix: (Units=1/GPa)
#
#
# Indices 1 2 3 4 5 6 
#
# 1 0.015870 0.000903 0.000511 0.000000 -0.016224 0.000000
# 2 0.000903 0.016888 -0.003355 0.000000 -0.006940 0.000000
# 3 0.000511 -0.003355 0.011894 0.000000 -0.007861 0.000000
# 4 0.000000 0.000000 0.000000 0.044740 0.000000 0.011526
# 5 -0.016224 -0.006940 -0.007861 0.000000 0.055321 0.000000
# 6 0.000000 0.000000 0.000000 0.011526 0.000000 0.116407
#
#
# Mechanical properties :
#
#
# Convention : Reuss Voigt Hill
#
# Bulk Modulus (GPa) = 24.52751 44.75469 34.64110
# Shear Modulus (GPa) = 17.94742 27.07279 22.51010
#
# Velocity S-wave (km/s) = 3.11784 3.82930 3.49174
# Velocity P-wave (km/s) = 5.12310 6.61755 5.91769
#
# Compressibility (1/GPa) = 0.04077054
#
# Stress axis : x y z
#
# Youngs Moduli (GPa) = 63.01037 59.21450 84.07358
#
# Poissons Ratio (x) = -0.05350 -0.04294
# Poissons Ratio (y) = -0.05693 0.28208
# Poissons Ratio (z) = -0.03218 0.19868
#
# Static dielectric constant tensor:
#      x y z
#    x 1.774380 0.000000 -0.152570 
#    y 0.000000 1.616090 0.000000 
#    z -0.152570 0.000000 1.844160 
# 
# From -- ./inp_files/14468.got.cif
#   From: 2010.05.17/outbox.cif.g08.bks.cpg/sg13_8_cif.got.tgz:14468.got - 2010.06.03 16:44:36.
