data_PCOD9230920
_publ_section_title
;
Structure prediction by ZEFSAII (Michael W. Deem and Ramdas Pophale) SiO2 
 PCOD9230920
Probable space group: P 2/C
;
_chemical_formula_sum "Si O2"
_cell_formula_units_Z 26
_cell_length_a 20.039369
_cell_length_b 5.278842
_cell_length_c 13.406185
_cell_angle_alpha 90.000000
_cell_angle_beta 117.782713
_cell_angle_gamma 90.000000
_cell_volume 1254.684605
_symmetry_space_group_name_H-M "P 2/C"
_symmetry_group_IT_number 13
_symmetry_cell_setting 'monoclinic'
loop_
_space_group_symop_operation_xyz
x,y,z
-x,y,1/2-z
-x,-y,-z
x,-y,1/2+z
loop_
_atom_site_type_symbol
_atom_site_label
_atom_site_fract_x
_atom_site_fract_y
_atom_site_fract_z
Si Si1 0.794411 0.732303 0.449796
Si Si2 0.500000 0.086965 0.750000
Si Si3 0.159495 0.236010 0.748770
Si Si4 0.412715 0.554041 0.050547
Si Si5 0.911859 0.742326 0.711244
Si Si6 0.725060 0.773408 0.989702
Si Si7 0.546956 0.800434 0.598677
O O1 0.816336 0.761008 0.349694
O O2 0.865521 0.757711 0.574716
O O3 0.760635 0.454296 0.448358
O O4 0.737996 0.957549 0.445479
O O5 0.564326 0.247140 0.850482
O O6 0.551453 0.931911 0.707799
O O7 0.116767 0.494102 0.749812
O O8 0.108620 0.992364 0.739789
O O9 0.230311 0.217343 0.873929
O O10 0.357534 0.331190 0.043063
O O11 0.493904 0.433027 0.087603
O O12 0.388695 0.695886 0.930722
O O13 0.000000 0.726993 0.750000
O O14 0.500000 0.000000 0.500000
#
# Coordination Sequence:
#
# PCOD9230920 Si02
#       7
#     4   2   4   4   4   4   4
#     4  10  22  41  61  91 127 166 210 253 305 375
#     4  10  20  38  60  88 118 150 198 264 318 386
#     4  10  21  41  60  89 132 162 208 256 302 370
#     4  10  21  40  59  87 118 156 204 262 316 376
#     4  10  21  37  64  95 127 165 206 257 307 360
#     4  10  23  41  62  88 123 164 210 257 308 374
#     4   9  20  38  59  81 118 150 193 262 318 370
#
# _framework density 20.722339999999999
#
# number of rings (size 3 to 8) (size 9 to 14) (size 15 to 20)
#    0.000    2.154    0.000    1.846    4.308    1.231 
#   11.077    0.000    0.000    0.000    0.000    0.000 
#    0.000    0.000    0.000    0.000    0.000    0.000 
#
# Total GULP energy -145056.553838 kJ/mol
# GULP energy per Si atom -5579.098225 kJ/mol
# Density = 2.067518 g / cm^3
# Si number density = 20.722340 Si / 1000 Ang^3
#
#
#
# Elastic Constant Matrix: (Units=GPa)
#
#
# Indices 1 2 3 4 5 6 
#
# 1 72.4252 26.2216 57.4053 0.0000 -9.8128 0.0000
# 2 26.2216 119.3127 56.4338 0.0000 -14.0074 0.0000
# 3 57.4053 56.4338 113.0704 0.0000 -42.5849 0.0000
# 4 0.0000 0.0000 0.0000 15.6048 0.0000 -3.7405
# 5 -9.8128 -14.0074 -42.5849 0.0000 28.4227 0.0000
# 6 0.0000 0.0000 0.0000 -3.7405 0.0000 25.7688
#
#
#
# Elastic Compliance Matrix: (Units=1/GPa)
#
#
# Indices 1 2 3 4 5 6 
#
# 1 0.032237 0.003464 -0.030435 0.000000 -0.032763 0.000000
# 2 0.003464 0.011879 -0.011550 0.000000 -0.010254 0.000000
# 3 -0.030435 -0.011550 0.054988 0.000000 0.066187 0.000000
# 4 0.000000 0.000000 0.000000 0.066393 0.000000 0.009637
# 5 -0.032763 -0.010254 0.066187 0.000000 0.117985 0.000000
# 6 0.000000 0.000000 0.000000 0.009637 0.000000 0.040205
#
#
# Mechanical properties :
#
#
# Convention : Reuss Voigt Hill
#
# Bulk Modulus (GPa) = 45.32369 64.99217 55.15793
# Shear Modulus (GPa) = 12.25244 24.94245 18.59745
#
# Velocity S-wave (km/s) = 2.43424 3.47313 2.99901
# Velocity P-wave (km/s) = 5.46077 6.89311 6.21832
#
# Compressibility (1/GPa) = 0.02206351
#
# Stress axis : x y z
#
# Youngs Moduli (GPa) = 31.01991 84.18229 18.18587
#
# Poissons Ratio (x) = -0.29163 0.55349
# Poissons Ratio (y) = -0.10746 0.21004
# Poissons Ratio (z) = 0.94409 0.97227
#
# Static dielectric constant tensor:
#      x y z
#    x 1.739260 0.000000 -0.021440 
#    y 0.000000 2.038530 0.000000 
#    z -0.021440 0.000000 1.840060 
# 
# From -- ./inp_files/54305.got.cif
#   From: 2010.05.17/outbox.cif.g08.bks.cpg/sg13_28_cif.got.tgz:54305.got - 2010.06.03 16:44:36.
