data_PCOD9230841
_publ_section_title
;
Structure prediction by ZEFSAII (Michael W. Deem and Ramdas Pophale) SiO2 
 PCOD9230841
Probable space group: P 2/C
;
_chemical_formula_sum "Si O2"
_cell_formula_units_Z 30
_cell_length_a 12.043358
_cell_length_b 6.066219
_cell_length_c 18.936442
_cell_angle_alpha 90.000000
_cell_angle_beta 116.613839
_cell_angle_gamma 90.000000
_cell_volume 1236.869719
_symmetry_space_group_name_H-M "P 2/C"
_symmetry_group_IT_number 13
_symmetry_cell_setting 'monoclinic'
loop_
_space_group_symop_operation_xyz
x,y,z
-x,y,1/2-z
-x,-y,-z
x,-y,1/2+z
loop_
_atom_site_type_symbol
_atom_site_label
_atom_site_fract_x
_atom_site_fract_y
_atom_site_fract_z
Si Si1 0.705474 0.021488 0.037175
Si Si2 0.443064 0.474339 0.167221
Si Si3 0.790389 0.073987 0.203795
Si Si4 0.472374 0.687257 0.436184
Si Si5 0.904353 0.561848 0.839239
Si Si6 0.000000 0.292815 0.750000
Si Si7 0.291772 0.170833 0.699058
Si Si8 0.800606 0.802961 0.932750
O O1 0.759293 0.163818 0.117404
O O2 0.637240 0.830515 0.062528
O O3 0.804488 0.915413 0.011165
O O4 0.595761 0.156896 0.966913
O O5 0.500000 0.345758 0.250000
O O6 0.544958 0.546062 0.139776
O O7 0.395456 0.704382 0.185208
O O8 0.325613 0.345476 0.101936
O O9 0.884057 0.871663 0.219018
O O10 0.681760 0.968901 0.222334
O O11 0.856373 0.250672 0.272386
O O12 0.500000 0.500000 0.500000
O O13 0.800587 0.372832 0.812468
O O14 0.905833 0.662918 0.919630
O O15 0.010669 0.440874 0.824177
O O16 0.225289 0.003258 0.627362
#
# Coordination Sequence:
#
# PCOD9230841 Si02
#       8
#     4   4   4   4   4   2   4   4
#     4  11  23  39  58  86 126 168 204 249 315 361
#     4  11  21  34  55  81 114 160 211 254 298 347
#     4  10  21  38  65  89 119 156 200 251 310 370
#     4  11  23  38  56  84 126 167 212 256 298 362
#     4   9  20  38  63  89 117 150 194 247 303 360
#     4  10  20  40  66  98 118 146 202 262 302 372
#     4   9  19  37  55  82 111 153 201 246 294 351
#     4  10  20  38  57  85 120 161 195 252 302 365
#
# _framework density 24.254776
#
# number of rings (size 3 to 8) (size 9 to 14) (size 15 to 20)
#    0.000    1.867    2.667    1.200    0.000    5.867 
#    0.000    0.667    0.000   11.200    0.000    0.000 
#    0.000    0.000    0.000    0.000    0.000    0.000 
#
# Total GULP energy -167339.816330 kJ/mol
# GULP energy per Si atom -5577.993878 kJ/mol
# Density = 2.419957 g / cm^3
# Si number density = 24.254776 Si / 1000 Ang^3
#
#
#
# Elastic Constant Matrix: (Units=GPa)
#
#
# Indices 1 2 3 4 5 6 
#
# 1 54.2022 27.3663 24.0921 0.0000 -31.7080 0.0000
# 2 27.3663 89.4396 15.1743 0.0000 -16.8432 0.0000
# 3 24.0921 15.1743 106.8549 0.0000 -43.8402 0.0000
# 4 0.0000 0.0000 0.0000 29.6701 0.0000 -16.9664
# 5 -31.7080 -16.8432 -43.8402 0.0000 38.4014 0.0000
# 6 0.0000 0.0000 0.0000 -16.9664 0.0000 32.2687
#
#
#
# Elastic Compliance Matrix: (Units=1/GPa)
#
#
# Indices 1 2 3 4 5 6 
#
# 1 0.042552 -0.006555 0.008601 0.000000 0.042080 0.000000
# 2 -0.006555 0.013240 -0.000452 0.000000 -0.000121 0.000000
# 3 0.008601 -0.000452 0.019405 0.000000 0.029057 0.000000
# 4 0.000000 0.000000 0.000000 0.048194 0.000000 0.025340
# 5 0.042080 -0.000121 0.029057 0.000000 0.093905 0.000000
# 6 0.000000 0.000000 0.000000 0.025340 0.000000 0.044313
#
#
# Mechanical properties :
#
#
# Convention : Reuss Voigt Hill
#
# Bulk Modulus (GPa) = 12.75735 42.64025 27.69880
# Shear Modulus (GPa) = 17.57162 32.32563 24.94863
#
# Velocity S-wave (km/s) = 2.69450 3.65465 3.21067
# Velocity P-wave (km/s) = 3.86673 5.95205 5.01889
#
# Compressibility (1/GPa) = 0.07838616
#
# Stress axis : x y z
#
# Youngs Moduli (GPa) = 23.50053 75.52736 51.53360
#
# Poissons Ratio (x) = 0.49506 -0.44325
# Poissons Ratio (y) = 0.15404 0.02329
# Poissons Ratio (z) = -0.20213 0.03414
#
# Static dielectric constant tensor:
#      x y z
#    x 2.018740 0.000000 0.017590 
#    y 0.000000 1.900010 0.000000 
#    z 0.017590 0.000000 2.071450 
# 
# From -- ./inp_files/67595.got.cif
#   From: 2010.05.17/outbox.cif.g08.bks.cpg/sg13_34_cif.got.tgz:67595.got - 2010.06.03 16:44:36.
