data_PCOD9230103
_publ_section_title
;
Structure prediction by ZEFSAII (Michael W. Deem and Ramdas Pophale) SiO2 
 PCOD9230103
Probable space group: P 2/C
;
_chemical_formula_sum "Si O2"
_cell_formula_units_Z 24
_cell_length_a 11.935397
_cell_length_b 10.255389
_cell_length_c 9.823877
_cell_angle_alpha 90.000000
_cell_angle_beta 61.834479
_cell_angle_gamma 90.000000
_cell_volume 1060.077036
_symmetry_space_group_name_H-M "P 2/C"
_symmetry_group_IT_number 13
_symmetry_cell_setting 'monoclinic'
loop_
_space_group_symop_operation_xyz
x,y,z
-x,y,1/2-z
-x,-y,-z
x,-y,1/2+z
loop_
_atom_site_type_symbol
_atom_site_label
_atom_site_fract_x
_atom_site_fract_y
_atom_site_fract_z
Si Si1 0.498807 0.164717 0.104972
Si Si2 0.239372 0.964131 0.031995
Si Si3 0.065232 0.365545 0.501615
Si Si4 0.441792 0.609103 0.133603
Si Si5 0.179202 0.695300 0.213730
Si Si6 0.801065 0.145736 0.227423
O O1 0.500000 0.240528 0.250000
O O2 0.351582 0.135789 0.174960
O O3 0.603965 0.049388 0.065903
O O4 0.530251 0.255007 0.959580
O O5 0.215920 0.837433 0.138562
O O6 0.168416 0.083203 0.145459
O O7 0.177766 0.939475 0.920477
O O8 0.149404 0.380536 0.589631
O O9 0.142408 0.286600 0.342783
O O10 0.000000 0.500000 0.500000
O O11 0.944156 0.284525 0.624081
O O12 0.500000 0.601242 0.250000
O O13 0.288621 0.614470 0.226868
O O14 0.500000 0.500000 0.000000
#
# Coordination Sequence:
#
# PCOD9230103 Si02
#       6
#     4   4   4   4   4   4
#     4   9  19  37  59  90 131 170 216 269 344 398
#     4   9  19  37  60  91 129 168 214 279 332 399
#     4  10  22  40  66  87 126 182 224 279 327 400
#     4  11  24  37  63  94 128 170 216 281 338 413
#     4   9  22  42  59  90 128 167 221 276 340 391
#     4  10  20  35  62  94 128 174 218 273 340 403
#
# _framework density 22.639865
#
# number of rings (size 3 to 8) (size 9 to 14) (size 15 to 20)
#    0.000    2.333    0.000    2.000    4.667    3.333 
#    0.000    4.167    0.000    0.000    0.000    0.000 
#    0.000    0.000    0.000    0.000    0.000    0.000 
#
# Total GULP energy -133713.408504 kJ/mol
# GULP energy per Si atom -5571.392021 kJ/mol
# Density = 2.258834 g / cm^3
# Si number density = 22.639865 Si / 1000 Ang^3
#
#
#
# Elastic Constant Matrix: (Units=GPa)
#
#
# Indices 1 2 3 4 5 6 
#
# 1 74.1578 14.3329 26.5308 0.0000 0.1177 0.0000
# 2 14.3329 54.7283 42.8252 0.0000 8.3346 0.0000
# 3 26.5308 42.8252 95.9337 0.0000 1.7001 0.0000
# 4 0.0000 0.0000 0.0000 35.5744 0.0000 0.8075
# 5 0.1177 8.3346 1.7001 0.0000 28.5112 0.0000
# 6 0.0000 0.0000 0.0000 0.8075 0.0000 10.6621
#
#
#
# Elastic Compliance Matrix: (Units=1/GPa)
#
#
# Indices 1 2 3 4 5 6 
#
# 1 0.015011 -0.001154 -0.003645 0.000000 0.000493 0.000000
# 2 -0.001154 0.029854 -0.012867 0.000000 -0.007955 0.000000
# 3 -0.003645 -0.012867 0.017127 0.000000 0.002755 0.000000
# 4 0.000000 0.000000 0.000000 0.028159 0.000000 -0.002133
# 5 0.000493 -0.007955 0.002755 0.000000 0.037233 0.000000
# 6 0.000000 0.000000 0.000000 -0.002133 0.000000 0.093951
#
#
# Mechanical properties :
#
#
# Convention : Reuss Voigt Hill
#
# Bulk Modulus (GPa) = 37.50893 43.57750 40.54322
# Shear Modulus (GPa) = 18.82856 24.35827 21.59342
#
# Velocity S-wave (km/s) = 2.88697 3.28365 3.09168
# Velocity P-wave (km/s) = 5.26464 5.80228 5.53998
#
# Compressibility (1/GPa) = 0.02666032
#
# Stress axis : x y z
#
# Youngs Moduli (GPa) = 66.61765 33.49593 58.38769
#
# Poissons Ratio (x) = 0.03866 0.21281
# Poissons Ratio (y) = 0.07689 0.75127
# Poissons Ratio (z) = 0.24281 0.43099
#
# Static dielectric constant tensor:
#      x y z
#    x 1.906500 0.000000 0.075160 
#    y 0.000000 1.886620 0.000000 
#    z 0.075160 0.000000 1.916090 
# 
# From -- ./inp_files/15795.got.cif
#   From: 2010.05.17/outbox.cif.g08.bks.cpg/sg13_8_cif.got.tgz:15795.got - 2010.06.03 16:44:36.
