data_PCOD9230132
_publ_section_title
;
Structure prediction by ZEFSAII (Michael W. Deem and Ramdas Pophale) SiO2 
 PCOD9230132
Probable space group: P 2/C
;
_chemical_formula_sum "Si O2"
_cell_formula_units_Z 30
_cell_length_a 11.758828
_cell_length_b 11.638871
_cell_length_c 12.081593
_cell_angle_alpha 90.000000
_cell_angle_beta 101.701891
_cell_angle_gamma 90.000000
_cell_volume 1619.114816
_symmetry_space_group_name_H-M "P 2/C"
_symmetry_group_IT_number 13
_symmetry_cell_setting 'monoclinic'
loop_
_space_group_symop_operation_xyz
x,y,z
-x,y,1/2-z
-x,-y,-z
x,-y,1/2+z
loop_
_atom_site_type_symbol
_atom_site_label
_atom_site_fract_x
_atom_site_fract_y
_atom_site_fract_z
Si Si1 0.274733 0.806370 0.614133
Si Si2 0.310405 0.314127 0.907421
Si Si3 0.579524 0.772538 0.456563
Si Si4 0.279913 0.859270 0.217625
Si Si5 0.728335 0.098012 0.161484
Si Si6 0.866456 0.028196 0.987578
Si Si7 0.610625 0.558762 0.580523
Si Si8 0.500000 0.713446 0.750000
O O1 0.257933 0.707719 0.519149
O O2 0.234161 0.813867 0.733931
O O3 0.219386 0.918950 0.547773
O O4 0.412005 0.794321 0.666131
O O5 0.443835 0.262472 0.933477
O O6 0.252448 0.237045 0.802220
O O7 0.310985 0.448797 0.879707
O O8 0.618040 0.820234 0.345674
O O9 0.624630 0.858803 0.561080
O O10 0.649739 0.655539 0.501186
O O11 0.306250 0.978962 0.285530
O O12 0.172974 0.883997 0.115001
O O13 0.835466 0.075595 0.101587
O O14 0.000000 0.000000 0.000000
O O15 0.500000 0.500000 0.500000
O O16 0.568670 0.629426 0.679749
#
# Coordination Sequence:
#
# PCOD9230132 Si02
#       8
#     4   4   4   4   4   4   4   2
#     4  11  20  36  57  85 121 154 194 243 297 353
#     4  11  21  36  51  87 123 159 199 232 290 349
#     4  10  20  36  51  81 122 158 195 229 285 351
#     4  10  22  35  55  83 115 149 199 240 298 348
#     4  10  20  39  54  84 113 152 192 237 303 352
#     4  10  23  43  62  82 112 153 203 252 304 363
#     4  10  21  33  56  78 121 167 200 236 276 346
#     4  12  20  38  56  88 128 160 204 240 292 362
#
# _framework density 18.528642000000001
#
# number of rings (size 3 to 8) (size 9 to 14) (size 15 to 20)
#    0.000    1.600    5.333    0.400    3.733    2.667 
#   19.200    0.000    0.000    0.000    0.000   12.133 
#    0.000    0.000    0.000    0.000    0.000    0.000 
#
# Total GULP energy -167012.345950 kJ/mol
# GULP energy per Si atom -5567.078198 kJ/mol
# Density = 1.848647 g / cm^3
# Si number density = 18.528642 Si / 1000 Ang^3
#
#
#
# Elastic Constant Matrix: (Units=GPa)
#
#
# Indices 1 2 3 4 5 6 
#
# 1 60.3561 40.6186 43.9825 0.0000 -10.9237 0.0000
# 2 40.6186 95.1750 42.9256 0.0000 -5.4319 0.0000
# 3 43.9825 42.9256 109.6657 0.0000 -17.0598 0.0000
# 4 0.0000 0.0000 0.0000 31.6290 0.0000 -2.2236
# 5 -10.9237 -5.4319 -17.0598 0.0000 15.2565 0.0000
# 6 0.0000 0.0000 0.0000 -2.2236 0.0000 10.4105
#
#
#
# Elastic Compliance Matrix: (Units=1/GPa)
#
#
# Indices 1 2 3 4 5 6 
#
# 1 0.029281 -0.008908 -0.006644 0.000000 0.010364 0.000000
# 2 -0.008908 0.015490 -0.003177 0.000000 -0.004416 0.000000
# 3 -0.006644 -0.003177 0.014661 0.000000 0.010506 0.000000
# 4 0.000000 0.000000 0.000000 0.032099 0.000000 0.006856
# 5 0.010364 -0.004416 0.010506 0.000000 0.083141 0.000000
# 6 0.000000 0.000000 0.000000 0.006856 0.000000 0.097521
#
#
# Mechanical properties :
#
#
# Convention : Reuss Voigt Hill
#
# Bulk Modulus (GPa) = 45.51171 57.80557 51.65864
# Shear Modulus (GPa) = 15.77402 20.63722 18.20562
#
# Velocity S-wave (km/s) = 2.92092 3.34099 3.13799
# Velocity P-wave (km/s) = 5.99933 6.79328 6.40861
#
# Compressibility (1/GPa) = 0.02197237
#
# Stress axis : x y z
#
# Youngs Moduli (GPa) = 34.15185 64.55863 68.20673
#
# Poissons Ratio (x) = 0.57511 0.45318
# Poissons Ratio (y) = 0.30423 0.21671
# Poissons Ratio (z) = 0.22691 0.20512
#
# Static dielectric constant tensor:
#      x y z
#    x 1.661950 0.000000 -0.008120 
#    y 0.000000 1.686490 0.000000 
#    z -0.008120 0.000000 1.700060 
# 
# From -- ./inp_files/33882.got.cif
#   From: 2010.05.17/outbox.cif.g08.bks.cpg/sg13_17_cif.got.tgz:33882.got - 2010.06.03 16:44:36.
