data_PCOD9230684
_publ_section_title
;
Structure prediction by ZEFSAII (Michael W. Deem and Ramdas Pophale) SiO2 
 PCOD9230684
Probable space group: P 2/C
;
_chemical_formula_sum "Si O2"
_cell_formula_units_Z 20
_cell_length_a 9.040950
_cell_length_b 5.180539
_cell_length_c 26.061121
_cell_angle_alpha 90.000000
_cell_angle_beta 61.392798
_cell_angle_gamma 90.000000
_cell_volume 1071.614137
_symmetry_space_group_name_H-M "P 2/C"
_symmetry_group_IT_number 13
_symmetry_cell_setting 'monoclinic'
loop_
_space_group_symop_operation_xyz
x,y,z
-x,y,1/2-z
-x,-y,-z
x,-y,1/2+z
loop_
_atom_site_type_symbol
_atom_site_label
_atom_site_fract_x
_atom_site_fract_y
_atom_site_fract_z
Si Si1 0.054848 0.095229 0.100400
Si Si2 0.270129 0.599531 0.834861
Si Si3 0.827804 0.092454 0.808657
Si Si4 0.656518 0.421540 0.294255
Si Si5 0.982472 0.402759 0.945319
O O1 0.130824 0.983361 0.139828
O O2 0.084674 0.883293 0.051587
O O3 0.115603 0.377130 0.071253
O O4 0.855365 0.154230 0.142824
O O5 0.284739 0.511972 0.773529
O O6 0.457643 0.634362 0.824281
O O7 0.166360 0.406001 0.888023
O O8 0.707025 0.338378 0.821493
O O9 0.000000 0.157473 0.750000
O O10 0.749614 0.837397 0.796129
O O11 0.000000 0.500000 0.000000
#
# Coordination Sequence:
#
# PCOD9230684 Si02
#       5
#     4   4   4   4   4
#     4  10  21  36  58  83 111 142 196 232 280 346
#     4   9  23  36  57  86 115 148 196 229 290 337
#     4  12  21  36  55  84 118 154 184 225 296 346
#     4  11  23  34  58  84 122 149 180 238 286 354
#     4  10  20  37  62  84 106 148 200 243 274 328
#
# _framework density 18.663433000000001
#
# number of rings (size 3 to 8) (size 9 to 14) (size 15 to 20)
#    1.200    0.400    2.000    3.600    2.800    1.600 
#    0.000    0.000    0.000    7.200    0.000    0.000 
#    0.000    0.000    0.000    0.000    0.000    0.000 
#
# Total GULP energy -111407.841697 kJ/mol
# GULP energy per Si atom -5570.392085 kJ/mol
# Density = 1.862095 g / cm^3
# Si number density = 18.663433 Si / 1000 Ang^3
#
#
#
# Elastic Constant Matrix: (Units=GPa)
#
#
# Indices 1 2 3 4 5 6 
#
# 1 85.8520 40.4733 0.1294 0.0000 13.7444 0.0000
# 2 40.4733 83.5985 12.6664 0.0000 0.6559 0.0000
# 3 0.1294 12.6664 8.7599 0.0000 7.8432 0.0000
# 4 0.0000 0.0000 0.0000 21.8466 0.0000 11.8751
# 5 13.7444 0.6559 7.8432 0.0000 16.4475 0.0000
# 6 0.0000 0.0000 0.0000 11.8751 0.0000 17.3874
#
#
#
# Elastic Compliance Matrix: (Units=1/GPa)
#
#
# Indices 1 2 3 4 5 6 
#
# 1 0.129579 -0.135832 0.500125 0.000000 -0.341357 0.000000
# 2 -0.135832 0.161195 -0.570547 0.000000 0.379153 0.000000
# 3 0.500125 -0.570547 2.243414 0.000000 -1.464979 0.000000
# 4 0.000000 0.000000 0.000000 0.072800 0.000000 -0.049720
# 5 -0.341357 0.379153 -1.464979 0.000000 1.029529 0.000000
# 6 0.000000 0.000000 0.000000 -0.049720 0.000000 0.091471
#
#
# Mechanical properties :
#
#
# Convention : Reuss Voigt Hill
#
# Bulk Modulus (GPa) = 0.47132 31.63874 16.05503
# Shear Modulus (GPa) = 1.03141 19.46571 10.24856
#
# Velocity S-wave (km/s) = 0.74420 3.23303 2.34588
# Velocity P-wave (km/s) = 0.99576 5.56109 3.99483
#
# Compressibility (1/GPa) = 2.12167915
#
# Stress axis : x y z
#
# Youngs Moduli (GPa) = 7.71732 6.20365 0.44575
#
# Poissons Ratio (x) = 0.84266 -0.22293
# Poissons Ratio (y) = 1.04826 0.25432
# Poissons Ratio (z) = -3.85963 3.53948
#
# Static dielectric constant tensor:
#      x y z
#    x 1.656450 0.000000 -0.001230 
#    y 0.000000 1.699820 0.000000 
#    z -0.001230 0.000000 1.644130 
# 
# From -- ./inp_files/74394.got.cif
#   From: 2010.05.17/outbox.cif.g08.bks.cpg/sg13_38_cif.got.tgz:74394.got - 2010.06.03 16:44:36.
