data_PCOD9230986
_publ_section_title
;
Structure prediction by ZEFSAII (Michael W. Deem and Ramdas Pophale) SiO2 
 PCOD9230986
Probable space group: P 2/C
;
_chemical_formula_sum "Si O2"
_cell_formula_units_Z 28
_cell_length_a 8.027060
_cell_length_b 33.005120
_cell_length_c 5.110389
_cell_angle_alpha 90.000000
_cell_angle_beta 69.094831
_cell_angle_gamma 90.000000
_cell_volume 1264.790994
_symmetry_space_group_name_H-M "P 2/C"
_symmetry_group_IT_number 13
_symmetry_cell_setting 'monoclinic'
loop_
_space_group_symop_operation_xyz
x,y,z
-x,y,1/2-z
-x,-y,-z
x,-y,1/2+z
loop_
_atom_site_type_symbol
_atom_site_label
_atom_site_fract_x
_atom_site_fract_y
_atom_site_fract_z
Si Si1 0.881893 0.678660 0.070301
Si Si2 0.217679 0.757186 0.617268
Si Si3 0.784997 0.525491 0.370462
Si Si4 0.619563 0.108931 0.935745
Si Si5 0.618675 0.612189 0.440718
Si Si6 0.784994 0.804628 0.377183
Si Si7 0.785901 0.976534 0.357828
O O1 0.774091 0.642671 0.265796
O O2 0.000000 0.696005 0.250000
O O3 0.751151 0.712514 0.017258
O O4 0.000000 0.665544 0.750000
O O5 0.278587 0.788994 0.367250
O O6 0.000000 0.757591 0.750000
O O7 0.277572 0.773196 0.864410
O O8 0.734329 0.493059 0.619604
O O9 0.699957 0.568846 0.472206
O O10 0.000000 0.530007 0.250000
O O11 0.500000 0.117398 0.750000
O O12 0.724435 0.149617 0.953454
O O13 0.736634 0.069297 0.816944
O O14 0.500000 0.098245 0.250000
O O15 0.500000 0.606572 0.250000
O O16 0.500000 0.627620 0.750000
O O17 0.000000 0.804001 0.250000
O O18 0.000000 0.978653 0.250000
O O19 0.719960 0.992559 0.673530
#
# Coordination Sequence:
#
# PCOD9230986 Si02
#       7
#     4   4   4   4   4   4   4
#     4  11  22  41  68  93 122 163 214 263 310 370
#     4   9  18  35  63  91 110 147 205 258 299 348
#     4  10  22  41  65  91 121 163 215 264 311 367
#     4  12  25  39  58  89 126 161 197 240 301 365
#     4  12  26  41  61  95 135 170 207 255 319 382
#     4  10  20  38  62  86 116 152 199 251 299 353
#     4  10  22  41  64  88 116 155 203 249 295 350
#
# _framework density 22.138045999999999
#
# number of rings (size 3 to 8) (size 9 to 14) (size 15 to 20)
#    0.000    1.429    0.000    6.429    0.000    5.143 
#    0.000    8.571    0.000    0.000    0.000    0.000 
#    0.000    0.000    0.000    0.000    0.000    0.000 
#
# Total GULP energy -156572.026855 kJ/mol
# GULP energy per Si atom -5591.858102 kJ/mol
# Density = 2.208766 g / cm^3
# Si number density = 22.138046 Si / 1000 Ang^3
#
#
#
# Elastic Constant Matrix: (Units=GPa)
#
#
# Indices 1 2 3 4 5 6 
#
# 1 49.5192 12.2728 27.8369 0.0000 3.3849 0.0000
# 2 12.2728 119.1258 24.5091 0.0000 -12.0031 0.0000
# 3 27.8369 24.5091 124.5101 0.0000 16.6152 0.0000
# 4 0.0000 0.0000 0.0000 109.4845 0.0000 -34.5591
# 5 3.3849 -12.0031 16.6152 0.0000 24.0879 0.0000
# 6 0.0000 0.0000 0.0000 -34.5591 0.0000 26.0670
#
#
#
# Elastic Compliance Matrix: (Units=1/GPa)
#
#
# Indices 1 2 3 4 5 6 
#
# 1 0.023324 -0.001477 -0.004833 0.000000 -0.000680 0.000000
# 2 -0.001477 0.009743 -0.002493 0.000000 0.006782 0.000000
# 3 -0.004833 -0.002493 0.010659 0.000000 -0.007915 0.000000
# 4 0.000000 0.000000 0.000000 0.015707 0.000000 0.020824
# 5 -0.000680 0.006782 -0.007915 0.000000 0.050449 0.000000
# 6 0.000000 0.000000 0.000000 0.020824 0.000000 0.065970
#
#
# Mechanical properties :
#
#
# Convention : Reuss Voigt Hill
#
# Bulk Modulus (GPa) = 38.28485 46.93252 42.60869
# Shear Modulus (GPa) = 24.73245 47.16363 35.94804
#
# Velocity S-wave (km/s) = 3.34607 4.62067 4.03403
# Velocity P-wave (km/s) = 5.67974 7.05077 6.40206
#
# Compressibility (1/GPa) = 0.02611999
#
# Stress axis : x y z
#
# Youngs Moduli (GPa) = 42.87507 102.63974 93.81842
#
# Poissons Ratio (x) = 0.15160 0.45343
# Poissons Ratio (y) = 0.06333 0.23385
# Poissons Ratio (z) = 0.20722 0.25584
#
# Static dielectric constant tensor:
#      x y z
#    x 1.834720 0.000000 -0.026180 
#    y 0.000000 1.779770 0.000000 
#    z -0.026180 0.000000 1.807620 
# 
# From -- ./inp_files/2686.got.cif
#   From: 2010.05.17/outbox.cif.g08.bks.cpg/sg13_2_cif.got.tgz:2686.got - 2010.06.03 16:44:36.
