data_PCOD9230937
_publ_section_title
;
Structure prediction by ZEFSAII (Michael W. Deem and Ramdas Pophale) SiO2 
 PCOD9230937
Probable space group: P 2/C
;
_chemical_formula_sum "Si O2"
_cell_formula_units_Z 20
_cell_length_a 6.695087
_cell_length_b 19.794175
_cell_length_c 9.367942
_cell_angle_alpha 90.000000
_cell_angle_beta 130.700631
_cell_angle_gamma 90.000000
_cell_volume 941.195574
_symmetry_space_group_name_H-M "P 2/C"
_symmetry_group_IT_number 13
_symmetry_cell_setting 'monoclinic'
loop_
_space_group_symop_operation_xyz
x,y,z
-x,y,1/2-z
-x,-y,-z
x,-y,1/2+z
loop_
_atom_site_type_symbol
_atom_site_label
_atom_site_fract_x
_atom_site_fract_y
_atom_site_fract_z
Si Si1 0.000000 0.012328 0.750000
Si Si2 0.684056 0.737657 0.121553
Si Si3 0.500000 0.792739 0.750000
Si Si4 0.500000 0.520577 0.750000
Si Si5 0.082205 0.908434 0.555794
Si Si6 0.302154 0.590077 0.366902
Si Si7 0.500000 0.147399 0.750000
O O1 0.850390 0.060621 0.568508
O O2 0.149002 0.962352 0.710359
O O3 0.593489 0.663546 0.131508
O O4 0.585296 0.801342 0.165368
O O5 0.000000 0.743522 0.250000
O O6 0.555326 0.746286 0.908649
O O7 0.248282 0.841221 0.655474
O O8 0.405163 0.565000 0.570425
O O9 0.680735 0.467229 0.746730
O O10 0.765561 0.894628 0.410162
O O11 0.000000 0.602938 0.250000
#
# Coordination Sequence:
#
# PCOD9230937 Si02
#       7
#     2   4   2   2   4   4   2
#     4  10  24  42  60  96 124 162 204 266 304 388
#     4  11  23  41  63  94 128 165 212 261 311 372
#     4  12  23  43  66  93 127 170 204 268 312 380
#     4  10  20  38  60  92 122 166 206 252 300 376
#     4  11  24  40  66  90 126 163 208 254 324 369
#     4  10  21  37  62  89 126 164 204 256 306 363
#     4  12  23  43  66  93 127 170 204 268 312 380
#
# _framework density 21.249569000000001
#
# number of rings (size 3 to 8) (size 9 to 14) (size 15 to 20)
#    0.000    1.200    2.000    4.200    0.000    4.800 
#    0.000    0.000    8.800    0.000    0.000    0.000 
#    0.000    0.000    0.000    0.000    0.000    0.000 
#
# Total GULP energy -111516.427743 kJ/mol
# GULP energy per Si atom -5575.821387 kJ/mol
# Density = 2.120120 g / cm^3
# Si number density = 21.249569 Si / 1000 Ang^3
#
#
#
# Elastic Constant Matrix: (Units=GPa)
#
#
# Indices 1 2 3 4 5 6 
#
# 1 63.7317 26.1413 42.5618 0.0000 -3.1915 0.0000
# 2 26.1413 100.1682 23.1315 0.0000 2.3450 0.0000
# 3 42.5618 23.1315 78.1625 0.0000 -17.0730 0.0000
# 4 0.0000 0.0000 0.0000 133.8080 0.0000 -7.0372
# 5 -3.1915 2.3450 -17.0730 0.0000 42.3850 0.0000
# 6 0.0000 0.0000 0.0000 -7.0372 0.0000 52.6643
#
#
#
# Elastic Compliance Matrix: (Units=1/GPa)
#
#
# Indices 1 2 3 4 5 6 
#
# 1 0.026368 -0.003551 -0.014069 0.000000 -0.003485 0.000000
# 2 -0.003551 0.011359 -0.001780 0.000000 -0.001613 0.000000
# 3 -0.014069 -0.001780 0.022775 0.000000 0.008213 0.000000
# 4 0.000000 0.000000 0.000000 0.007526 0.000000 0.001006
# 5 -0.003485 -0.001613 0.008213 0.000000 0.026728 0.000000
# 6 0.000000 0.000000 0.000000 0.001006 0.000000 0.019123
#
#
# Mechanical properties :
#
#
# Convention : Reuss Voigt Hill
#
# Bulk Modulus (GPa) = 46.07692 47.30350 46.69021
# Shear Modulus (GPa) = 31.26687 55.78665 43.52676
#
# Velocity S-wave (km/s) = 3.84006 5.12933 4.53079
# Velocity P-wave (km/s) = 6.43368 7.57557 7.02786
#
# Compressibility (1/GPa) = 0.02170284
#
# Stress axis : x y z
#
# Youngs Moduli (GPa) = 37.92451 88.03757 43.90688
#
# Poissons Ratio (x) = 0.31262 0.61771
# Poissons Ratio (y) = 0.13467 0.07816
# Poissons Ratio (z) = 0.53354 0.15673
#
# Static dielectric constant tensor:
#      x y z
#    x 1.763130 0.000000 -0.017240 
#    y 0.000000 1.778430 0.000000 
#    z -0.017240 0.000000 1.538460 
# 
# From -- ./inp_files/9945.got.cif
#   From: 2010.05.17/outbox.cif.g08.bks.cpg/sg13_5_cif.got.tgz:9945.got - 2010.06.03 16:44:36.
