data_PCOD9230449
_publ_section_title
;
Structure prediction by ZEFSAII (Michael W. Deem and Ramdas Pophale) SiO2 
 PCOD9230449
Probable space group: P 2/C
;
_chemical_formula_sum "Si O2"
_cell_formula_units_Z 28
_cell_length_a 31.795818
_cell_length_b 8.556015
_cell_length_c 31.652710
_cell_angle_alpha 90.000000
_cell_angle_beta 9.187944
_cell_angle_gamma 90.000000
_cell_volume 1374.944642
_symmetry_space_group_name_H-M "P 2/C"
_symmetry_group_IT_number 13
_symmetry_cell_setting 'monoclinic'
loop_
_space_group_symop_operation_xyz
x,y,z
-x,y,1/2-z
-x,-y,-z
x,-y,1/2+z
loop_
_atom_site_type_symbol
_atom_site_label
_atom_site_fract_x
_atom_site_fract_y
_atom_site_fract_z
Si Si1 0.974607 0.485064 0.075073
Si Si2 0.939411 0.809431 0.955653
Si Si3 0.942348 0.306670 0.851532
Si Si4 0.547530 0.495201 0.641937
Si Si5 0.404715 0.809734 0.435955
Si Si6 0.810391 0.893252 0.323116
Si Si7 0.515990 0.387143 0.388978
O O1 0.192797 0.596180 0.881028
O O2 0.030931 0.307884 0.034926
O O3 0.000000 0.500000 0.000000
O O4 0.689056 0.535353 0.375143
O O5 0.135850 0.745149 0.724223
O O6 0.047942 0.987413 0.849858
O O7 0.643537 0.811937 0.232404
O O8 0.000000 0.221367 0.750000
O O9 0.165038 0.440070 0.633891
O O10 0.985670 0.204239 0.850635
O O11 0.665300 0.393391 0.125772
O O12 0.489832 0.519499 0.649274
O O13 0.524902 0.309634 0.670859
O O14 0.337305 0.991761 0.496986
O O15 0.604263 0.781087 0.504286
#
# Coordination Sequence:
#
# PCOD9230449 Si02
#       7
#     4   4   4   4   4   4   4
#     4  12  23  39  61  92 130 164 205 269 316 356
#     4  10  20  38  59  91 118 161 212 251 298 377
#     4  11  24  39  62  94 128 154 200 261 318 359
#     4  11  20  39  66  88 118 164 211 248 292 377
#     4  10  20  36  64  90 115 155 216 252 285 362
#     4   9  24  37  68  88 122 163 209 255 302 377
#     4  11  21  38  63  91 113 165 216 243 297 377
#
# _framework density 20.364457000000002
#
# number of rings (size 3 to 8) (size 9 to 14) (size 15 to 20)
#    0.857    0.571    2.857    3.429    6.000    0.000 
#    0.000    2.143    3.143    0.000    0.000    0.000 
#    0.000    0.000    0.000    0.000    0.000    0.000 
#
# Total GULP energy -156089.269498 kJ/mol
# GULP energy per Si atom -5574.616768 kJ/mol
# Density = 2.031811 g / cm^3
# Si number density = 20.364457 Si / 1000 Ang^3
#
#
#
# Elastic Constant Matrix: (Units=GPa)
#
#
# Indices 1 2 3 4 5 6 
#
# 1 70.5933 12.9022 0.0676 0.0000 9.9866 0.0000
# 2 12.9022 108.1511 6.3178 0.0000 -5.6109 0.0000
# 3 0.0676 6.3178 77.8158 0.0000 -0.4738 0.0000
# 4 0.0000 0.0000 0.0000 26.0780 0.0000 -6.0978
# 5 9.9866 -5.6109 -0.4738 0.0000 28.1812 0.0000
# 6 0.0000 0.0000 0.0000 -6.0978 0.0000 -32.7867
#
#
#
# Elastic Compliance Matrix: (Units=1/GPa)
#
#
# Indices 1 2 3 4 5 6 
#
# 1 0.015390 -0.002148 0.000125 0.000000 -0.005879 0.000000
# 2 -0.002148 0.009686 -0.000768 0.000000 0.002677 0.000000
# 3 0.000125 -0.000768 0.012913 0.000000 0.000020 0.000000
# 4 0.000000 0.000000 0.000000 0.036748 0.000000 -0.006835
# 5 -0.005879 0.002677 0.000020 0.000000 0.038101 0.000000
# 6 0.000000 0.000000 0.000000 -0.006835 0.000000 -0.029229
#
#
# Mechanical properties :
#
#
# Convention : Reuss Voigt Hill
#
# Bulk Modulus (GPa) = 30.85763 32.79280 31.82521
# Shear Modulus (GPa) = 50.00234 20.11266 35.05750
#
# Velocity S-wave (km/s) = 4.96055 3.14608 4.15360
# Velocity P-wave (km/s) = 6.92784 5.41618 6.21812
#
# Compressibility (1/GPa) = 0.03240690
#
# Stress axis : x y z
#
# Youngs Moduli (GPa) = 64.97763 103.23778 77.43983
#
# Poissons Ratio (x) = 0.22179 -0.00970
# Poissons Ratio (y) = 0.13959 0.05949
# Poissons Ratio (z) = -0.00814 0.07931
#
# Static dielectric constant tensor:
#      x y z
#    x 1.709950 0.000000 0.036510 
#    y 0.000000 1.789430 0.000000 
#    z 0.036510 0.000000 1.721770 
# 
# From -- ./inp_files/98028.got.cif
#   From: 2010.05.17/outbox.cif.g08.bks.cpg/sg13_50_cif.got.tgz:98028.got - 2010.06.03 16:44:36.
