data_PCOD9230858
_publ_section_title
;
Structure prediction by ZEFSAII (Michael W. Deem and Ramdas Pophale) SiO2 
 PCOD9230858
Probable space group: P 2/C
;
_chemical_formula_sum "Si O2"
_cell_formula_units_Z 22
_cell_length_a 5.178082
_cell_length_b 7.226143
_cell_length_c 24.862800
_cell_angle_alpha 90.000000
_cell_angle_beta 91.303715
_cell_angle_gamma 90.000000
_cell_volume 930.064513
_symmetry_space_group_name_H-M "P 2/C"
_symmetry_group_IT_number 13
_symmetry_cell_setting 'monoclinic'
loop_
_space_group_symop_operation_xyz
x,y,z
-x,y,1/2-z
-x,-y,-z
x,-y,1/2+z
loop_
_atom_site_type_symbol
_atom_site_label
_atom_site_fract_x
_atom_site_fract_y
_atom_site_fract_z
Si Si1 0.754651 0.411603 0.527951
Si Si2 0.383047 0.907496 0.317565
Si Si3 0.999632 0.110443 0.583274
Si Si4 0.000000 0.097544 0.250000
Si Si5 0.577051 0.398271 0.878533
Si Si6 0.798675 0.793108 0.859229
O O1 0.500000 0.500000 0.500000
O O2 0.684019 0.450435 0.590229
O O3 0.000000 0.500000 0.500000
O O4 0.819790 0.191567 0.535236
O O5 0.243727 0.966654 0.262520
O O6 0.522981 0.710826 0.323229
O O7 0.153952 0.879178 0.360698
O O8 0.557924 0.074316 0.341609
O O9 0.247454 0.247732 0.588107
O O10 0.082105 0.896896 0.588252
O O11 0.035051 0.208609 0.195094
O O12 0.723183 0.587601 0.872289
#
# Coordination Sequence:
#
# PCOD9230858 Si02
#       6
#     4   4   4   2   4   4
#     4  11  21  39  67  96 135 170 220 269 326 396
#     4   9  20  38  60  84 125 168 211 260 327 378
#     4   9  20  39  64  88 126 168 206 265 328 376
#     4  10  20  38  58  84 128 162 212 270 318 386
#     4  10  21  40  66  92 126 174 211 268 333 384
#     4  10  21  40  62  91 123 169 215 269 324 391
#
# _framework density 23.65427
#
# number of rings (size 3 to 8) (size 9 to 14) (size 15 to 20)
#    0.000    2.182    1.818    0.545    0.000    5.818 
#    0.000   23.636    0.000    0.000    0.000    0.000 
#    0.000    0.000    0.000    0.000    0.000    0.000 
#
# Total GULP energy -122569.539257 kJ/mol
# GULP energy per Si atom -5571.342693 kJ/mol
# Density = 2.360043 g / cm^3
# Si number density = 23.654270 Si / 1000 Ang^3
#
#
#
# Elastic Constant Matrix: (Units=GPa)
#
#
# Indices 1 2 3 4 5 6 
#
# 1 99.1754 16.4461 5.5384 0.0000 -12.7777 0.0000
# 2 16.4461 126.7438 11.9872 0.0000 -8.0731 0.0000
# 3 5.5384 11.9872 69.3374 0.0000 -14.3086 0.0000
# 4 0.0000 0.0000 0.0000 25.8787 0.0000 -6.8430
# 5 -12.7777 -8.0731 -14.3086 0.0000 40.3234 0.0000
# 6 0.0000 0.0000 0.0000 -6.8430 0.0000 23.3380
#
#
#
# Elastic Compliance Matrix: (Units=1/GPa)
#
#
# Indices 1 2 3 4 5 6 
#
# 1 0.010685 -0.001186 0.000001 0.000000 0.003149 0.000000
# 2 -0.001186 0.008207 -0.001147 0.000000 0.000860 0.000000
# 3 0.000001 -0.001147 0.015725 0.000000 0.005351 0.000000
# 4 0.000000 0.000000 0.000000 0.041890 0.000000 0.012283
# 5 0.003149 0.000860 0.005351 0.000000 0.027868 0.000000
# 6 0.000000 0.000000 0.000000 0.012283 0.000000 0.046450
#
#
# Mechanical properties :
#
#
# Convention : Reuss Voigt Hill
#
# Bulk Modulus (GPa) = 33.38391 40.35555 36.86973
# Shear Modulus (GPa) = 30.21651 35.32701 32.77176
#
# Velocity S-wave (km/s) = 3.57798 3.86874 3.72620
# Velocity P-wave (km/s) = 5.58688 6.08718 5.84239
#
# Compressibility (1/GPa) = 0.02995455
#
# Stress axis : x y z
#
# Youngs Moduli (GPa) = 93.58497 121.84593 63.59498
#
# Poissons Ratio (x) = 0.14452 -0.00009
# Poissons Ratio (y) = 0.11100 0.07292
# Poissons Ratio (z) = -0.00013 0.13970
#
# Static dielectric constant tensor:
#      x y z
#    x 2.058530 0.000000 0.000220 
#    y 0.000000 1.915060 0.000000 
#    z 0.000220 0.000000 1.979440 
# 
# From -- ./inp_files/94610.got.cif
#   From: 2010.05.17/outbox.cif.g08.bks.cpg/sg13_48_cif.got.tgz:94610.got - 2010.06.03 16:44:36.
