data_PCOD9230933
_publ_section_title
;
Structure prediction by ZEFSAII (Michael W. Deem and Ramdas Pophale) SiO2 
 PCOD9230933
Probable space group: P 2/C
;
_chemical_formula_sum "Si O2"
_cell_formula_units_Z 26
_cell_length_a 7.792156
_cell_length_b 11.830082
_cell_length_c 22.604867
_cell_angle_alpha 90.000000
_cell_angle_beta 144.841563
_cell_angle_gamma 90.000000
_cell_volume 1199.910145
_symmetry_space_group_name_H-M "P 2/C"
_symmetry_group_IT_number 13
_symmetry_cell_setting 'monoclinic'
loop_
_space_group_symop_operation_xyz
x,y,z
-x,y,1/2-z
-x,-y,-z
x,-y,1/2+z
loop_
_atom_site_type_symbol
_atom_site_label
_atom_site_fract_x
_atom_site_fract_y
_atom_site_fract_z
Si Si1 0.000000 0.289805 0.750000
Si Si2 0.612901 0.216677 0.877812
Si Si3 0.500000 0.780505 0.750000
Si Si4 0.500000 0.391906 0.750000
Si Si5 0.967126 0.499140 0.673967
Si Si6 0.149826 0.703741 0.928521
Si Si7 0.582420 0.022622 0.191437
Si Si8 0.244675 0.935363 0.894349
O O1 0.742884 0.221316 0.708451
O O2 0.152829 0.375064 0.840360
O O3 0.674328 0.306350 0.843284
O O4 0.634688 0.085508 0.865838
O O5 0.764224 0.260423 0.980677
O O6 0.791534 0.708606 0.822130
O O7 0.560868 0.865820 0.821235
O O8 0.276229 0.464086 0.728027
O O9 0.000000 0.552431 0.750000
O O10 0.783221 0.580723 0.579508
O O11 0.257389 0.804840 0.916782
O O12 0.671747 0.046781 0.149754
O O13 0.912778 0.016894 0.314613
O O14 0.500000 0.000000 0.000000
#
# Coordination Sequence:
#
# PCOD9230933 Si02
#       8
#     2   4   2   2   4   4   4   4
#     4   8  20  38  60  86 122 154 206 264 310 362
#     4  11  21  39  64  92 120 169 210 258 318 375
#     4  10  24  40  54  92 128 164 202 258 300 382
#     4  10  22  44  64  88 130 160 214 272 318 366
#     4   9  21  41  63  88 123 166 203 268 315 371
#     4  11  23  38  65  91 122 167 212 247 318 375
#     4  10  21  37  60  85 129 159 201 255 306 366
#     4  10  20  38  60  91 124 162 203 251 302 377
#
# _framework density 21.668286999999999
#
# number of rings (size 3 to 8) (size 9 to 14) (size 15 to 20)
#    0.462    1.538    1.538    1.846    4.308    1.846 
#    2.769    0.000    0.000    0.000    0.000    0.000 
#    0.000    0.000    0.000    0.000    0.000    0.000 
#
# Total GULP energy -144901.932160 kJ/mol
# GULP energy per Si atom -5573.151237 kJ/mol
# Density = 2.161897 g / cm^3
# Si number density = 21.668287 Si / 1000 Ang^3
#
#
#
# Elastic Constant Matrix: (Units=GPa)
#
#
# Indices 1 2 3 4 5 6 
#
# 1 87.2193 22.8245 16.6830 0.0000 -14.8865 0.0000
# 2 22.8245 99.3062 23.1045 0.0000 -12.4484 0.0000
# 3 16.6830 23.1045 63.0166 0.0000 -26.3969 0.0000
# 4 0.0000 0.0000 0.0000 12.2553 0.0000 -8.3504
# 5 -14.8865 -12.4484 -26.3969 0.0000 24.9729 0.0000
# 6 0.0000 0.0000 0.0000 -8.3504 0.0000 4.4029
#
#
#
# Elastic Compliance Matrix: (Units=1/GPa)
#
#
# Indices 1 2 3 4 5 6 
#
# 1 0.013196 -0.002212 0.000271 0.000000 0.007049 0.000000
# 2 -0.002212 0.011447 -0.003183 0.000000 0.001023 0.000000
# 3 0.000271 -0.003183 0.029373 0.000000 0.029622 0.000000
# 4 0.000000 0.000000 0.000000 -0.279186 0.000000 -0.529497
# 5 0.007049 0.001023 0.029622 0.000000 0.076067 0.000000
# 6 0.000000 0.000000 0.000000 -0.529497 0.000000 -0.777106
#
#
# Mechanical properties :
#
#
# Convention : Reuss Voigt Hill
#
# Bulk Modulus (GPa) = 22.84851 41.64069 32.24460
# Shear Modulus (GPa) = -5.54710 20.78823 7.62056
#
# Velocity S-wave (km/s) = -1.60174 3.10075 1.87738
# Velocity P-wave (km/s) = 2.67335 5.66380 4.42863
#
# Compressibility (1/GPa) = 0.04376653
#
# Stress axis : x y z
#
# Youngs Moduli (GPa) = 75.78244 87.35865 34.04538
#
# Poissons Ratio (x) = 0.19325 -0.00921
# Poissons Ratio (y) = 0.16764 0.10836
# Poissons Ratio (z) = -0.02050 0.27804
#
# Static dielectric constant tensor:
#      x y z
#    x 1.795010 0.000000 0.007980 
#    y 0.000000 1.802460 0.000000 
#    z 0.007980 0.000000 1.811590 
# 
# From -- ./inp_files/85159.got.cif
#   From: 2010.05.17/outbox.cif.g08.bks.cpg/sg13_43_cif.got.tgz:85159.got - 2010.06.03 16:44:36.
