data_PCOD9230321
_publ_section_title
;
Structure prediction by ZEFSAII (Michael W. Deem and Ramdas Pophale) SiO2 
 PCOD9230321
Probable space group: P 2/C
;
_chemical_formula_sum "Si O2"
_cell_formula_units_Z 32
_cell_length_a 12.723155
_cell_length_b 9.319938
_cell_length_c 14.114928
_cell_angle_alpha 90.000000
_cell_angle_beta 63.192675
_cell_angle_gamma 90.000000
_cell_volume 1493.854982
_symmetry_space_group_name_H-M "P 2/C"
_symmetry_group_IT_number 13
_symmetry_cell_setting 'monoclinic'
loop_
_space_group_symop_operation_xyz
x,y,z
-x,y,1/2-z
-x,-y,-z
x,-y,1/2+z
loop_
_atom_site_type_symbol
_atom_site_label
_atom_site_fract_x
_atom_site_fract_y
_atom_site_fract_z
Si Si1 0.804585 0.549684 0.334014
Si Si2 0.714121 0.143611 0.812380
Si Si3 0.167343 0.198988 0.917988
Si Si4 0.531367 0.200334 0.531538
Si Si5 0.582546 0.750715 0.624694
Si Si6 0.667110 0.433063 0.552601
Si Si7 0.248032 0.005198 0.521536
Si Si8 0.985529 0.580445 0.104727
O O1 0.733312 0.688759 0.329267
O O2 0.717315 0.444649 0.424395
O O3 0.884674 0.507454 0.211701
O O4 0.898266 0.586625 0.378969
O O5 0.751014 0.119487 0.691156
O O6 0.789133 0.063862 0.861496
O O7 0.578145 0.110046 0.884554
O O8 0.239100 0.339137 0.926286
O O9 0.057597 0.261057 0.905720
O O10 0.149126 0.084669 0.007575
O O11 0.497258 0.238894 0.438109
O O12 0.548718 0.341266 0.588989
O O13 0.649442 0.111007 0.498762
O O14 0.500000 0.774528 0.750000
O O15 0.640276 0.591221 0.602347
O O16 0.687118 0.866753 0.562926
O O17 0.000000 0.500000 0.000000
#
# Coordination Sequence:
#
# PCOD9230321 Si02
#       8
#     4   4   4   4   4   4   4   4
#     4  10  20  36  60  88 117 151 185 252 301 355
#     4  10  20  38  59  81 123 163 192 238 302 346
#     4  10  23  36  65  86 113 158 205 246 299 363
#     4  10  22  36  55  82 122 162 194 239 287 349
#     4  11  23  33  54  83 125 162 200 240 286 338
#     4  11  21  37  55  91 121 151 203 244 293 354
#     4  10  22  38  56  85 118 163 205 237 282 365
#     4  10  20  38  63  88 114 146 195 246 311 358
#
# _framework density 21.421088000000001
#
# number of rings (size 3 to 8) (size 9 to 14) (size 15 to 20)
#    0.000    1.750    3.750    1.875    5.250    2.000 
#    0.000    0.625    0.000    0.000    0.000    0.000 
#    0.000    0.000    0.000    0.000    0.000    0.000 
#
# Total GULP energy -178550.504928 kJ/mol
# GULP energy per Si atom -5579.703279 kJ/mol
# Density = 2.137233 g / cm^3
# Si number density = 21.421088 Si / 1000 Ang^3
#
#
#
# Elastic Constant Matrix: (Units=GPa)
#
#
# Indices 1 2 3 4 5 6 
#
# 1 32.8014 4.7457 -3.3888 0.0000 6.8461 0.0000
# 2 4.7457 75.3141 5.4644 0.0000 12.7568 0.0000
# 3 -3.3888 5.4644 69.9138 0.0000 11.5402 0.0000
# 4 0.0000 0.0000 0.0000 21.9841 0.0000 18.9688
# 5 6.8461 12.7568 11.5402 0.0000 18.9962 0.0000
# 6 0.0000 0.0000 0.0000 18.9688 0.0000 30.3701
#
#
#
# Elastic Compliance Matrix: (Units=1/GPa)
#
#
# Indices 1 2 3 4 5 6 
#
# 1 0.033981 0.000064 0.004080 0.000000 -0.014768 0.000000
# 2 0.000064 0.015001 0.000553 0.000000 -0.010433 0.000000
# 3 0.004080 0.000553 0.016407 0.000000 -0.011809 0.000000
# 4 0.000000 0.000000 0.000000 0.098655 0.000000 -0.061619
# 5 -0.014768 -0.010433 -0.011809 0.000000 0.072144 0.000000
# 6 0.000000 0.000000 0.000000 -0.061619 0.000000 0.071413
#
#
# Mechanical properties :
#
#
# Convention : Reuss Voigt Hill
#
# Bulk Modulus (GPa) = 13.37219 21.29687 17.33453
# Shear Modulus (GPa) = 15.47340 25.68393 20.57867
#
# Velocity S-wave (km/s) = 2.69056 3.46642 3.10284
# Velocity P-wave (km/s) = 3.98852 5.09755 4.57675
#
# Compressibility (1/GPa) = 0.07478206
#
# Stress axis : x y z
#
# Youngs Moduli (GPa) = 29.42821 66.66377 60.94930
#
# Poissons Ratio (x) = -0.00428 -0.24866
# Poissons Ratio (y) = -0.00189 -0.03369
# Poissons Ratio (z) = -0.12006 -0.03684
#
# Static dielectric constant tensor:
#      x y z
#    x 1.792390 0.000000 0.000560 
#    y 0.000000 1.825870 0.000000 
#    z 0.000560 0.000000 1.814620 
# 
# From -- ./inp_files/53044.got.cif
#   From: 2010.05.17/outbox.cif.g08.bks.cpg/sg13_27_cif.got.tgz:53044.got - 2010.06.03 16:44:36.
