data_PCOD9230279
_publ_section_title
;
Structure prediction by ZEFSAII (Michael W. Deem and Ramdas Pophale) SiO2 
 PCOD9230279
Probable space group: P 2/C
;
_chemical_formula_sum "Si O2"
_cell_formula_units_Z 20
_cell_length_a 16.341129
_cell_length_b 9.100056
_cell_length_c 9.376514
_cell_angle_alpha 90.000000
_cell_angle_beta 48.739650
_cell_angle_gamma 90.000000
_cell_volume 1048.151435
_symmetry_space_group_name_H-M "P 2/C"
_symmetry_group_IT_number 13
_symmetry_cell_setting 'monoclinic'
loop_
_space_group_symop_operation_xyz
x,y,z
-x,y,1/2-z
-x,-y,-z
x,-y,1/2+z
loop_
_atom_site_type_symbol
_atom_site_label
_atom_site_fract_x
_atom_site_fract_y
_atom_site_fract_z
Si Si1 0.500000 0.969903 0.750000
Si Si2 0.358725 0.880057 0.169187
Si Si3 0.824455 0.073060 0.242891
Si Si4 0.958562 0.188451 0.605756
Si Si5 0.831541 0.712850 0.993651
Si Si6 0.000000 0.459250 0.750000
O O1 0.566908 0.873050 0.557872
O O2 0.574295 0.072759 0.767181
O O3 0.280731 0.739909 0.289584
O O4 0.279367 0.017351 0.223035
O O5 0.808918 0.203758 0.372180
O O6 0.872764 0.927885 0.266212
O O7 0.921308 0.124519 0.029520
O O8 0.921116 0.202086 0.485254
O O9 0.964643 0.348737 0.665284
O O10 0.893136 0.558588 0.902627
#
# Coordination Sequence:
#
# PCOD9230279 Si02
#       6
#     2   4   4   4   4   2
#     4  10  20  38  60  94 118 142 212 284 310 336
#     4  10  21  36  62  91 121 152 201 267 311 345
#     4  10  20  36  59  85 123 159 200 244 290 354
#     4  10  23  34  56  85 126 164 199 230 288 359
#     4  11  21  37  53  86 127 163 193 240 298 357
#     4  12  24  34  54  88 132 170 194 232 288 380
#
# _framework density 19.081213000000002
#
# number of rings (size 3 to 8) (size 9 to 14) (size 15 to 20)
#    0.000    1.600    4.000    0.600    8.400    0.000 
#    0.000    0.000    0.000    0.000    0.000   47.600 
#    0.000    0.000    0.000    0.000    0.000    0.000 
#
# Total GULP energy -111393.553689 kJ/mol
# GULP energy per Si atom -5569.677684 kJ/mol
# Density = 1.903778 g / cm^3
# Si number density = 19.081213 Si / 1000 Ang^3
#
#
#
# Elastic Constant Matrix: (Units=GPa)
#
#
# Indices 1 2 3 4 5 6 
#
# 1 106.2176 25.4023 49.0179 0.0000 4.6750 0.0000
# 2 25.4023 104.5458 40.0207 0.0000 -6.8105 0.0000
# 3 49.0179 40.0207 86.3969 0.0000 -7.8006 0.0000
# 4 0.0000 0.0000 0.0000 14.4609 0.0000 5.1950
# 5 4.6750 -6.8105 -7.8006 0.0000 31.1837 0.0000
# 6 0.0000 0.0000 0.0000 5.1950 0.0000 13.6423
#
#
#
# Elastic Compliance Matrix: (Units=1/GPa)
#
#
# Indices 1 2 3 4 5 6 
#
# 1 0.013239 -0.000564 -0.007612 0.000000 -0.004012 0.000000
# 2 -0.000564 0.011696 -0.004972 0.000000 0.001395 0.000000
# 3 -0.007612 -0.004972 0.018622 0.000000 0.004714 0.000000
# 4 0.000000 0.000000 0.000000 0.080111 0.000000 -0.030506
# 5 -0.004012 0.001395 0.004714 0.000000 0.034153 0.000000
# 6 0.000000 0.000000 0.000000 -0.030506 0.000000 0.084918
#
#
# Mechanical properties :
#
#
# Convention : Reuss Voigt Hill
#
# Bulk Modulus (GPa) = 57.93444 58.44912 58.19178
# Shear Modulus (GPa) = 18.19568 24.03868 21.11718
#
# Velocity S-wave (km/s) = 3.09138 3.55323 3.33032
# Velocity P-wave (km/s) = 6.57040 6.89436 6.73433
#
# Compressibility (1/GPa) = 0.01726089
#
# Stress axis : x y z
#
# Youngs Moduli (GPa) = 75.53406 85.49595 53.69993
#
# Poissons Ratio (x) = 0.04824 0.40877
# Poissons Ratio (y) = 0.04261 0.26699
# Poissons Ratio (z) = 0.57498 0.42508
#
# Static dielectric constant tensor:
#      x y z
#    x 1.678180 0.000000 0.005830 
#    y 0.000000 1.676540 0.000000 
#    z 0.005830 0.000000 1.785140 
# 
# From -- ./inp_files/20842.got.cif
#   From: 2010.05.17/outbox.cif.g08.bks.cpg/sg13_11_cif.got.tgz:20842.got - 2010.06.03 16:44:36.
