data_PCOD9230197
_publ_section_title
;
Structure prediction by ZEFSAII (Michael W. Deem and Ramdas Pophale) SiO2 
 PCOD9230197
Probable space group: P 2/C
;
_chemical_formula_sum "Si O2"
_cell_formula_units_Z 28
_cell_length_a 12.094095
_cell_length_b 10.098020
_cell_length_c 13.207572
_cell_angle_alpha 90.000000
_cell_angle_beta 69.634192
_cell_angle_gamma 90.000000
_cell_volume 1512.164916
_symmetry_space_group_name_H-M "P 2/C"
_symmetry_group_IT_number 13
_symmetry_cell_setting 'monoclinic'
loop_
_space_group_symop_operation_xyz
x,y,z
-x,y,1/2-z
-x,-y,-z
x,-y,1/2+z
loop_
_atom_site_type_symbol
_atom_site_label
_atom_site_fract_x
_atom_site_fract_y
_atom_site_fract_z
Si Si1 0.290340 0.345555 0.445659
Si Si2 0.853963 0.873787 0.614679
Si Si3 0.500000 0.560869 0.750000
Si Si4 0.794055 0.258717 0.349784
Si Si5 0.000000 0.447069 0.250000
Si Si6 0.621958 0.505833 0.400102
Si Si7 0.132320 0.153533 0.976118
Si Si8 0.885334 0.444869 0.594722
O O1 0.217752 0.213613 0.444296
O O2 0.416239 0.349754 0.348102
O O3 0.303839 0.387569 0.558724
O O4 0.217910 0.462716 0.413793
O O5 0.816822 0.814872 0.735995
O O6 0.994262 0.857961 0.552074
O O7 0.832191 0.028720 0.603320
O O8 0.417908 0.472904 0.702564
O O9 0.687967 0.363831 0.379757
O O10 0.790773 0.160847 0.445736
O O11 0.908697 0.350562 0.335052
O O12 0.080778 0.529533 0.299928
O O13 0.500000 0.500000 0.500000
O O14 0.142638 0.293275 0.916737
O O15 0.000000 0.500000 0.500000
#
# Coordination Sequence:
#
# PCOD9230197 Si02
#       8
#     4   4   2   4   2   4   4   4
#     4  11  19  36  61  90 116 156 206 252 308 361
#     4  11  22  38  58  87 127 170 202 237 305 382
#     4  10  20  36  56  94 116 150 200 266 308 364
#     4  12  18  39  61  84 122 167 200 247 316 367
#     4  12  20  30  60  90 116 164 196 240 312 356
#     4  10  21  33  62  94 112 151 208 270 309 360
#     4  11  23  37  57  89 130 160 204 250 294 376
#     4  12  19  35  57  90 120 153 198 253 304 357
#
# _framework density 18.516497999999999
#
# number of rings (size 3 to 8) (size 9 to 14) (size 15 to 20)
#    0.000    0.857    8.571    0.000    0.000    0.000 
#    5.143    0.000    0.000    4.286    0.000    0.000 
#    0.000    0.000    0.000    0.000    0.000    0.000 
#
# Total GULP energy -156182.833233 kJ/mol
# GULP energy per Si atom -5577.958330 kJ/mol
# Density = 1.847435 g / cm^3
# Si number density = 18.516498 Si / 1000 Ang^3
#
#
#
# Elastic Constant Matrix: (Units=GPa)
#
#
# Indices 1 2 3 4 5 6 
#
# 1 86.8800 35.0286 26.9777 0.0000 17.8001 0.0000
# 2 35.0286 130.0844 30.3596 0.0000 7.5087 0.0000
# 3 26.9777 30.3596 65.7747 0.0000 12.1713 0.0000
# 4 0.0000 0.0000 0.0000 30.8713 0.0000 0.4827
# 5 17.8001 7.5087 12.1713 0.0000 45.7777 0.0000
# 6 0.0000 0.0000 0.0000 0.4827 0.0000 8.0077
#
#
#
# Elastic Compliance Matrix: (Units=1/GPa)
#
#
# Indices 1 2 3 4 5 6 
#
# 1 0.014735 -0.002797 -0.003973 0.000000 -0.004214 0.000000
# 2 -0.002797 0.009153 -0.003156 0.000000 0.000426 0.000000
# 3 -0.003973 -0.003156 0.018834 0.000000 -0.002945 0.000000
# 4 0.000000 0.000000 0.000000 0.032423 0.000000 -0.001954
# 5 -0.004214 0.000426 -0.002945 0.000000 0.024197 0.000000
# 6 0.000000 0.000000 0.000000 -0.001954 0.000000 0.124998
#
#
# Mechanical properties :
#
#
# Convention : Reuss Voigt Hill
#
# Bulk Modulus (GPa) = 43.72486 51.94121 47.83303
# Shear Modulus (GPa) = 19.85588 29.62290 24.73939
#
# Velocity S-wave (km/s) = 3.27820 4.00410 3.65920
# Velocity P-wave (km/s) = 6.16394 7.03487 6.61375
#
# Compressibility (1/GPa) = 0.02287028
#
# Stress axis : x y z
#
# Youngs Moduli (GPa) = 67.86570 109.25904 53.09417
#
# Poissons Ratio (x) = 0.30564 0.21092
# Poissons Ratio (y) = 0.18985 0.16756
# Poissons Ratio (z) = 0.26960 0.34481
#
# Static dielectric constant tensor:
#      x y z
#    x 1.750590 0.000000 0.004360 
#    y 0.000000 1.619660 0.000000 
#    z 0.004360 0.000000 1.731690 
# 
# From -- ./inp_files/49997.got.cif
#   From: 2010.05.17/outbox.cif.g08.bks.cpg/sg13_25_cif.got.tgz:49997.got - 2010.06.03 16:44:36.
