data_PCOD9230534
_publ_section_title
;
Structure prediction by ZEFSAII (Michael W. Deem and Ramdas Pophale) SiO2 
 PCOD9230534
Probable space group: P 2/C
;
_chemical_formula_sum "Si O2"
_cell_formula_units_Z 28
_cell_length_a 19.315121
_cell_length_b 10.333735
_cell_length_c 16.400390
_cell_angle_alpha 90.000000
_cell_angle_beta 159.256499
_cell_angle_gamma 90.000000
_cell_volume 1159.415361
_symmetry_space_group_name_H-M "P 2/C"
_symmetry_group_IT_number 13
_symmetry_cell_setting 'monoclinic'
loop_
_space_group_symop_operation_xyz
x,y,z
-x,y,1/2-z
-x,-y,-z
x,-y,1/2+z
loop_
_atom_site_type_symbol
_atom_site_label
_atom_site_fract_x
_atom_site_fract_y
_atom_site_fract_z
Si Si1 0.593088 0.190228 0.764593
Si Si2 0.364513 0.775951 0.863977
Si Si3 0.000000 0.929644 0.750000
Si Si4 0.318542 0.537001 0.095639
Si Si5 0.000000 0.345594 0.750000
Si Si6 0.876882 0.410146 0.282812
Si Si7 0.976572 0.138606 0.858092
Si Si8 0.233102 0.681837 0.259455
O O1 0.500000 0.158791 0.750000
O O2 0.472717 0.141148 0.554007
O O3 0.591803 0.346788 0.754689
O O4 0.814149 0.145876 0.012576
O O5 0.232179 0.674163 0.768750
O O6 0.206284 0.852236 0.635229
O O7 0.538782 0.704056 0.007023
O O8 0.934948 0.013824 0.757608
O O9 0.500000 0.469369 0.250000
O O10 0.195406 0.607671 0.888414
O O11 0.174039 0.434707 0.974928
O O12 0.070267 0.253473 0.756597
O O13 0.822547 0.558715 0.244455
O O14 0.099979 0.362926 0.536364
O O15 0.850608 0.182147 0.797421
#
# Coordination Sequence:
#
# PCOD9230534 Si02
#       8
#     4   4   2   4   2   4   4   4
#     4  11  25  44  66  94 126 163 219 272 315 379
#     4  11  23  40  66  94 131 167 211 261 322 382
#     4  11  27  48  70  88 121 171 218 276 324 365
#     4  11  22  36  62  97 131 166 213 256 313 384
#     4  11  23  38  64  92 135 175 200 258 324 375
#     4  10  20  37  57 100 136 166 208 244 312 394
#     4  10  25  45  62  96 128 164 224 260 310 393
#     4  10  22  37  63  93 137 173 196 257 316 381
#
# _framework density 24.150103000000001
#
# number of rings (size 3 to 8) (size 9 to 14) (size 15 to 20)
#    0.000    1.429    4.286    0.857    6.000    1.714 
#    0.000    4.286    0.000    0.000    0.000    0.000 
#    0.000    0.000    0.000    0.000    0.000    0.000 
#
# Total GULP energy -156437.751666 kJ/mol
# GULP energy per Si atom -5587.062559 kJ/mol
# Density = 2.409514 g / cm^3
# Si number density = 24.150103 Si / 1000 Ang^3
#
#
#
# Elastic Constant Matrix: (Units=GPa)
#
#
# Indices 1 2 3 4 5 6 
#
# 1 47.4956 4.4401 -2.1326 0.0000 5.3410 0.0000
# 2 4.4401 39.6787 10.2216 0.0000 6.5911 0.0000
# 3 -2.1326 10.2216 96.0395 0.0000 -6.6319 0.0000
# 4 0.0000 0.0000 0.0000 13.4027 0.0000 -9.6706
# 5 5.3410 6.5911 -6.6319 0.0000 49.8754 0.0000
# 6 0.0000 0.0000 0.0000 -9.6706 0.0000 9.3619
#
#
#
# Elastic Compliance Matrix: (Units=1/GPa)
#
#
# Indices 1 2 3 4 5 6 
#
# 1 0.021507 -0.002236 0.000582 0.000000 -0.001930 0.000000
# 2 -0.002236 0.026890 -0.003169 0.000000 -0.003736 0.000000
# 3 0.000582 -0.003169 0.010887 0.000000 0.001804 0.000000
# 4 0.000000 0.000000 0.000000 0.292975 0.000000 0.302636
# 5 -0.001930 -0.003736 0.001804 0.000000 0.020990 0.000000
# 6 0.000000 0.000000 0.000000 0.302636 0.000000 0.419430
#
#
# Mechanical properties :
#
#
# Convention : Reuss Voigt Hill
#
# Bulk Modulus (GPa) = 20.14615 23.14131 21.64373
# Shear Modulus (GPa) = 6.10596 25.90699 16.00647
#
# Velocity S-wave (km/s) = 1.59180 3.27884 2.57727
# Velocity P-wave (km/s) = 3.42616 4.89259 4.22351
#
# Compressibility (1/GPa) = 0.04963728
#
# Stress axis : x y z
#
# Youngs Moduli (GPa) = 46.49687 37.18902 91.85073
#
# Poissons Ratio (x) = 0.08315 -0.05348
# Poissons Ratio (y) = 0.10397 0.29112
# Poissons Ratio (z) = -0.02707 0.11787
#
# Static dielectric constant tensor:
#      x y z
#    x 2.056530 0.000000 -0.040620 
#    y 0.000000 1.941140 0.000000 
#    z -0.040620 0.000000 1.957510 
# 
# From -- ./inp_files/70745.got.cif
#   From: 2010.05.17/outbox.cif.g08.bks.cpg/sg13_36_cif.got.tgz:70745.got - 2010.06.03 16:44:36.
