data_PCOD9230838
_publ_section_title
;
Structure prediction by ZEFSAII (Michael W. Deem and Ramdas Pophale) SiO2 
 PCOD9230838
Probable space group: P 2/C
;
_chemical_formula_sum "Si O2"
_cell_formula_units_Z 32
_cell_length_a 21.134693
_cell_length_b 14.448406
_cell_length_c 8.278028
_cell_angle_alpha 90.000000
_cell_angle_beta 41.681253
_cell_angle_gamma 90.000000
_cell_volume 1680.951905
_symmetry_space_group_name_H-M "P 2/C"
_symmetry_group_IT_number 13
_symmetry_cell_setting 'monoclinic'
loop_
_space_group_symop_operation_xyz
x,y,z
-x,y,1/2-z
-x,-y,-z
x,-y,1/2+z
loop_
_atom_site_type_symbol
_atom_site_label
_atom_site_fract_x
_atom_site_fract_y
_atom_site_fract_z
Si Si1 0.611744 0.200214 0.019725
Si Si2 0.610445 0.980264 0.330992
Si Si3 0.108091 0.597434 0.225287
Si Si4 0.698975 0.304646 0.547243
Si Si5 0.386690 0.467953 0.981124
Si Si6 0.687862 0.636237 0.556564
Si Si7 0.383188 0.145356 0.981713
Si Si8 0.102984 0.614162 0.848227
O O1 0.500000 0.210510 0.250000
O O2 0.652310 0.260477 0.089595
O O3 0.625304 0.091511 0.952284
O O4 0.648736 0.254686 0.791679
O O5 0.644752 0.922094 0.113624
O O6 0.500000 0.000000 0.500000
O O7 0.644159 0.082517 0.313364
O O8 0.112992 0.488282 0.255754
O O9 0.007048 0.638745 0.474916
O O10 0.199736 0.640144 0.132784
O O11 0.113596 0.607011 0.021855
O O12 0.653030 0.401974 0.585226
O O13 0.674142 0.238480 0.441856
O O14 0.810302 0.320953 0.369719
O O15 0.500000 0.476921 0.750000
O O16 0.338928 0.567581 0.041013
O O17 0.358371 0.415966 0.200730
O O18 0.500000 0.160980 0.750000
#
# Coordination Sequence:
#
# PCOD9230838 Si02
#       8
#     4   4   4   4   4   4   4   4
#     4  11  23  36  53  79 115 149 184 224 263 326
#     4   9  18  35  55  77 107 145 185 226 267 311
#     4  10  20  38  57  77 103 140 186 232 284 312
#     4  11  21  35  52  79 109 144 186 224 272 327
#     4  12  23  35  50  73 113 155 184 215 263 324
#     4  12  22  36  52  76 108 147 187 226 266 323
#     4   9  18  32  53  77 109 143 181 222 268 324
#     4  10  21  37  58  78 103 139 185 239 277 322
#
# _framework density 19.036833000000001
#
# number of rings (size 3 to 8) (size 9 to 14) (size 15 to 20)
#    0.000    1.500    2.500    3.750    1.750    3.000 
#    0.000    0.000    0.000    0.000    0.000    0.875 
#    0.000    0.000    0.000    0.000    0.000    0.000 
#
# Total GULP energy -178578.269115 kJ/mol
# GULP energy per Si atom -5580.570910 kJ/mol
# Density = 1.899350 g / cm^3
# Si number density = 19.036833 Si / 1000 Ang^3
#
#
#
# Elastic Constant Matrix: (Units=GPa)
#
#
# Indices 1 2 3 4 5 6 
#
# 1 73.8222 39.5675 24.3708 0.0000 -15.3409 0.0000
# 2 39.5675 119.5646 24.5750 0.0000 -11.4853 0.0000
# 3 24.3708 24.5750 44.8813 0.0000 -10.5606 0.0000
# 4 0.0000 0.0000 0.0000 8.8391 0.0000 19.3922
# 5 -15.3409 -11.4853 -10.5606 0.0000 31.8190 0.0000
# 6 0.0000 0.0000 0.0000 19.3922 0.0000 31.9510
#
#
#
# Elastic Compliance Matrix: (Units=1/GPa)
#
#
# Indices 1 2 3 4 5 6 
#
# 1 0.019308 -0.004479 -0.006749 0.000000 0.005452 0.000000
# 2 -0.004479 0.010563 -0.003214 0.000000 0.000587 0.000000
# 3 -0.006749 -0.003214 0.028926 0.000000 0.005187 0.000000
# 4 0.000000 0.000000 0.000000 -0.341215 0.000000 0.207096
# 5 0.005452 0.000587 0.005187 0.000000 0.035990 0.000000
# 6 0.000000 0.000000 0.000000 0.207096 0.000000 -0.094396
#
#
# Mechanical properties :
#
#
# Convention : Reuss Voigt Hill
#
# Bulk Modulus (GPa) = 33.42955 46.14382 39.78669
# Shear Modulus (GPa) = -16.55782 24.50548 3.97383
#
# Velocity S-wave (km/s) = -2.95240 3.59174 1.44637
# Velocity P-wave (km/s) = 2.44466 6.44148 4.87181
#
# Compressibility (1/GPa) = 0.02991365
#
# Stress axis : x y z
#
# Youngs Moduli (GPa) = 51.79334 94.67305 34.57125
#
# Poissons Ratio (x) = 0.42400 0.23332
# Poissons Ratio (y) = 0.23196 0.11110
# Poissons Ratio (z) = 0.34955 0.30425
#
# Static dielectric constant tensor:
#      x y z
#    x 1.731580 0.000000 0.069940 
#    y 0.000000 1.739120 0.000000 
#    z 0.069940 0.000000 1.700610 
# 
# From -- ./inp_files/23542.got.cif
#   From: 2010.05.17/outbox.cif.g08.bks.cpg/sg13_12_cif.got.tgz:23542.got - 2010.06.03 16:44:36.
