data_PCOD9230426
_publ_section_title
;
Structure prediction by ZEFSAII (Michael W. Deem and Ramdas Pophale) SiO2 
 PCOD9230426
Probable space group: P 2/C
;
_chemical_formula_sum "Si O2"
_cell_formula_units_Z 28
_cell_length_a 9.558795
_cell_length_b 14.345608
_cell_length_c 14.387560
_cell_angle_alpha 90.000000
_cell_angle_beta 134.418781
_cell_angle_gamma 90.000000
_cell_volume 1409.144173
_symmetry_space_group_name_H-M "P 2/C"
_symmetry_group_IT_number 13
_symmetry_cell_setting 'monoclinic'
loop_
_space_group_symop_operation_xyz
x,y,z
-x,y,1/2-z
-x,-y,-z
x,-y,1/2+z
loop_
_atom_site_type_symbol
_atom_site_label
_atom_site_fract_x
_atom_site_fract_y
_atom_site_fract_z
Si Si1 0.288674 0.046979 0.193017
Si Si2 0.130244 0.115492 0.523190
Si Si3 0.173767 0.541227 0.903079
Si Si4 0.641642 0.621872 0.896789
Si Si5 0.335944 0.281848 0.373771
Si Si6 0.667682 0.078899 0.073680
Si Si7 0.981923 0.692408 0.928204
O O1 0.500000 0.077065 0.250000
O O2 0.255487 0.067839 0.285646
O O3 0.097400 0.093835 0.058359
O O4 0.263833 0.937396 0.159737
O O5 0.196435 0.070786 0.454466
O O6 0.135411 0.226895 0.522524
O O7 0.301323 0.623239 0.914886
O O8 0.000000 0.515083 0.750000
O O9 0.075760 0.594688 0.943773
O O10 0.292534 0.454744 0.998062
O O11 0.500000 0.580626 0.750000
O O12 0.510739 0.699719 0.884563
O O13 0.827240 0.670168 0.935896
O O14 0.383865 0.189020 0.452559
O O15 0.138653 0.272711 0.219391
O O16 0.500000 0.000000 0.000000
#
# Coordination Sequence:
#
# PCOD9230426 Si02
#       7
#     4   4   4   4   4   4   4
#     4  11  24  38  61  92 124 157 212 260 310 368
#     4  11  23  40  62  89 122 168 205 265 311 367
#     4  10  20  38  62  89 119 157 201 249 310 380
#     4  10  22  38  60  91 122 154 203 258 307 369
#     4  10  21  36  63  88 116 159 208 250 297 372
#     4  12  23  40  63  89 128 166 210 261 317 369
#     4  10  20  36  63  87 117 158 208 242 306 375
#
# _framework density 19.870215999999999
#
# number of rings (size 3 to 8) (size 9 to 14) (size 15 to 20)
#    0.000    1.429    4.286    1.286    2.000    0.000 
#    0.000    3.571    0.000    0.000    0.000    0.000 
#    0.000    0.000    0.000    0.000    0.000    0.000 
#
# Total GULP energy -156063.980373 kJ/mol
# GULP energy per Si atom -5573.713585 kJ/mol
# Density = 1.982499 g / cm^3
# Si number density = 19.870216 Si / 1000 Ang^3
#
#
#
# Elastic Constant Matrix: (Units=GPa)
#
#
# Indices 1 2 3 4 5 6 
#
# 1 95.1481 5.0980 7.0944 0.0000 -3.8620 0.0000
# 2 5.0980 82.5751 30.4665 0.0000 -4.5928 0.0000
# 3 7.0944 30.4665 32.9394 0.0000 -1.9834 0.0000
# 4 0.0000 0.0000 0.0000 34.9162 0.0000 -2.1204
# 5 -3.8620 -4.5928 -1.9834 0.0000 24.6946 0.0000
# 6 0.0000 0.0000 0.0000 -2.1204 0.0000 11.1644
#
#
#
# Elastic Compliance Matrix: (Units=1/GPa)
#
#
# Indices 1 2 3 4 5 6 
#
# 1 0.010744 0.000367 -0.002561 0.000000 0.001543 0.000000
# 2 0.000367 0.018502 -0.017064 0.000000 0.002128 0.000000
# 3 -0.002561 -0.017064 0.046704 0.000000 0.000177 0.000000
# 4 0.000000 0.000000 0.000000 0.028974 0.000000 0.005503
# 5 0.001543 0.002128 0.000177 0.000000 0.041146 0.000000
# 6 0.000000 0.000000 0.000000 0.005503 0.000000 0.090616
#
#
# Mechanical properties :
#
#
# Convention : Reuss Voigt Hill
#
# Bulk Modulus (GPa) = 26.71308 32.88670 29.79989
# Shear Modulus (GPa) = 17.38060 25.35529 21.36794
#
# Velocity S-wave (km/s) = 2.96075 3.57605 3.28285
# Velocity P-wave (km/s) = 5.01608 5.79979 5.42211
#
# Compressibility (1/GPa) = 0.03743484
#
# Stress axis : x y z
#
# Youngs Moduli (GPa) = 93.07685 54.04956 21.41164
#
# Poissons Ratio (x) = -0.01985 0.05483
# Poissons Ratio (y) = -0.03419 0.36536
# Poissons Ratio (z) = 0.23835 0.92228
#
# Static dielectric constant tensor:
#      x y z
#    x 1.745090 0.000000 -0.007920 
#    y 0.000000 1.735140 0.000000 
#    z -0.007920 0.000000 1.755480 
# 
# From -- ./inp_files/30256.got.cif
#   From: 2010.05.17/outbox.cif.g08.bks.cpg/sg13_16_cif.got.tgz:30256.got - 2010.06.03 16:44:36.
