data_PCOD9230901
_publ_section_title
;
Structure prediction by ZEFSAII (Michael W. Deem and Ramdas Pophale) SiO2 
 PCOD9230901
Probable space group: P 2/C
;
_chemical_formula_sum "Si O2"
_cell_formula_units_Z 18
_cell_length_a 6.180984
_cell_length_b 6.244463
_cell_length_c 24.923866
_cell_angle_alpha 90.000000
_cell_angle_beta 60.827371
_cell_angle_gamma 90.000000
_cell_volume 839.961705
_symmetry_space_group_name_H-M "P 2/C"
_symmetry_group_IT_number 13
_symmetry_cell_setting 'monoclinic'
loop_
_space_group_symop_operation_xyz
x,y,z
-x,y,1/2-z
-x,-y,-z
x,-y,1/2+z
loop_
_atom_site_type_symbol
_atom_site_label
_atom_site_fract_x
_atom_site_fract_y
_atom_site_fract_z
Si Si1 0.133193 0.634553 0.529747
Si Si2 0.374768 0.288269 0.580962
Si Si3 0.500000 0.843568 0.750000
Si Si4 0.008963 0.093222 0.359871
Si Si5 0.763669 0.436237 0.308102
O O1 0.256235 0.464104 0.555487
O O2 0.356901 0.766466 0.475233
O O3 0.961597 0.785540 0.586816
O O4 0.000000 0.500000 0.500000
O O5 0.390122 0.399721 0.637278
O O6 0.185300 0.094669 0.608192
O O7 0.397906 0.689790 0.715535
O O8 0.729356 0.973192 0.697378
O O9 0.886252 0.260979 0.333086
O O10 0.000000 0.543356 0.250000
#
# Coordination Sequence:
#
# PCOD9230901 Si02
#       5
#     4   4   2   4   4
#     4  10  21  37  58  84 113 150 193 237 288 345
#     4  10  21  37  57  82 115 150 189 239 291 341
#     4  10  20  38  60  82 116 154 194 240 290 350
#     4  10  21  37  56  84 116 150 192 240 289 344
#     4   9  20  37  55  80 115 150 189 238 289 343
#
# _framework density 21.429549999999999
#
# number of rings (size 3 to 8) (size 9 to 14) (size 15 to 20)
#    0.000    2.222    0.000    2.000    0.000    5.333 
#    0.000   11.111    0.000    0.000    0.000    0.000 
#    0.000    0.000    0.000    0.000    0.000    0.000 
#
# Total GULP energy -100571.178729 kJ/mol
# GULP energy per Si atom -5587.287707 kJ/mol
# Density = 2.138077 g / cm^3
# Si number density = 21.429550 Si / 1000 Ang^3
#
#
#
# Elastic Constant Matrix: (Units=GPa)
#
#
# Indices 1 2 3 4 5 6 
#
# 1 63.0082 4.5832 50.9385 0.0000 -2.6012 0.0000
# 2 4.5832 39.6723 45.6576 0.0000 -10.4543 0.0000
# 3 50.9385 45.6576 170.1985 0.0000 -18.3223 0.0000
# 4 0.0000 0.0000 0.0000 10.2322 0.0000 -16.1832
# 5 -2.6012 -10.4543 -18.3223 0.0000 39.5131 0.0000
# 6 0.0000 0.0000 0.0000 -16.1832 0.0000 20.8415
#
#
#
# Elastic Compliance Matrix: (Units=1/GPa)
#
#
# Indices 1 2 3 4 5 6 
#
# 1 0.022359 0.007274 -0.008712 0.000000 -0.000643 0.000000
# 2 0.007274 0.039951 -0.012320 0.000000 0.005336 0.000000
# 3 -0.008712 -0.012320 0.011973 0.000000 0.001719 0.000000
# 4 0.000000 0.000000 0.000000 -0.428477 0.000000 -0.332707
# 5 -0.000643 0.005336 0.001719 0.000000 0.027475 0.000000
# 6 0.000000 0.000000 0.000000 -0.332707 0.000000 -0.210362
#
#
# Mechanical properties :
#
#
# Convention : Reuss Voigt Hill
#
# Bulk Modulus (GPa) = 21.38281 52.80418 37.09350
# Shear Modulus (GPa) = -10.12194 25.56400 7.72103
#
# Velocity S-wave (km/s) = -2.17569 3.45763 1.90021
# Velocity P-wave (km/s) = 1.92051 6.37453 4.70760
#
# Compressibility (1/GPa) = 0.04676653
#
# Stress axis : x y z
#
# Youngs Moduli (GPa) = 44.72526 25.03071 83.52137
#
# Poissons Ratio (x) = -0.18208 0.72767
# Poissons Ratio (y) = -0.32534 1.02898
# Poissons Ratio (z) = 0.38966 0.30838
#
# Static dielectric constant tensor:
#      x y z
#    x 1.762300 0.000000 -0.022730 
#    y 0.000000 1.734240 0.000000 
#    z -0.022730 0.000000 1.823830 
# 
# From -- ./inp_files/82962.got.cif
#   From: 2010.05.17/outbox.cif.g08.bks.cpg/sg13_42_cif.got.tgz:82962.got - 2010.06.03 16:44:36.
