data_PCOD9230926
_publ_section_title
;
Structure prediction by ZEFSAII (Michael W. Deem and Ramdas Pophale) SiO2 
 PCOD9230926
Probable space group: P 2/C
;
_chemical_formula_sum "Si O2"
_cell_formula_units_Z 10
_cell_length_a 5.075503
_cell_length_b 11.954654
_cell_length_c 7.451713
_cell_angle_alpha 90.000000
_cell_angle_beta 113.124931
_cell_angle_gamma 90.000000
_cell_volume 415.810184
_symmetry_space_group_name_H-M "P 2/C"
_symmetry_group_IT_number 13
_symmetry_cell_setting 'monoclinic'
loop_
_space_group_symop_operation_xyz
x,y,z
-x,y,1/2-z
-x,-y,-z
x,-y,1/2+z
loop_
_atom_site_type_symbol
_atom_site_label
_atom_site_fract_x
_atom_site_fract_y
_atom_site_fract_z
Si Si1 0.246504 0.843254 0.035390
Si Si2 0.828705 0.605960 0.382320
Si Si3 0.000000 0.009945 0.750000
O O1 0.500000 0.849027 0.250000
O O2 0.187759 0.712982 0.991160
O O3 0.999716 0.904344 0.083917
O O4 0.255300 0.921166 0.862716
O O5 0.500000 0.575176 0.250000
O O6 0.000000 0.643716 0.250000
O O7 0.000000 0.500000 0.500000
#
# Coordination Sequence:
#
# PCOD9230926 Si02
#       3
#     4   4   2
#     4  10  21  38  61  88 126 159 213 258 320 375
#     4  11  24  44  66  95 129 168 216 267 320 381
#     4  10  20  38  60  90 120 164 208 254 328 372
#
# _framework density 24.049436
#
# number of rings (size 3 to 8) (size 9 to 14) (size 15 to 20)
#    0.000    1.600    2.000    2.400    2.800    0.000 
#    0.000    2.000    0.000    0.000    0.000    0.000 
#    0.000    0.000    0.000    0.000    0.000    0.000 
#
# Total GULP energy -55721.285141 kJ/mol
# GULP energy per Si atom -5572.128514 kJ/mol
# Density = 2.399470 g / cm^3
# Si number density = 24.049436 Si / 1000 Ang^3
#
#
#
# Elastic Constant Matrix: (Units=GPa)
#
#
# Indices 1 2 3 4 5 6 
#
# 1 80.0401 15.0940 23.7823 0.0000 27.0009 0.0000
# 2 15.0940 217.9706 66.1605 0.0000 40.6224 0.0000
# 3 23.7823 66.1605 109.4434 0.0000 24.4754 0.0000
# 4 0.0000 0.0000 0.0000 16.6963 0.0000 1.3830
# 5 27.0009 40.6224 24.4754 0.0000 40.0905 0.0000
# 6 0.0000 0.0000 0.0000 1.3830 0.0000 20.1491
#
#
#
# Elastic Compliance Matrix: (Units=1/GPa)
#
#
# Indices 1 2 3 4 5 6 
#
# 1 0.016726 0.001629 -0.002005 0.000000 -0.011692 0.000000
# 2 0.001629 0.006460 -0.002953 0.000000 -0.005840 0.000000
# 3 -0.002005 -0.002953 0.012029 0.000000 -0.003001 0.000000
# 4 0.000000 0.000000 0.000000 0.060236 0.000000 -0.004135
# 5 -0.011692 -0.005840 -0.003001 0.000000 0.040568 0.000000
# 6 0.000000 0.000000 0.000000 -0.004135 0.000000 0.049914
#
#
# Mechanical properties :
#
#
# Convention : Reuss Voigt Hill
#
# Bulk Modulus (GPa) = 35.01637 68.61419 51.81528
# Shear Modulus (GPa) = 24.73911 35.54836 30.14373
#
# Velocity S-wave (km/s) = 3.21078 3.84883 3.54419
# Velocity P-wave (km/s) = 5.32327 6.95296 6.19197
#
# Compressibility (1/GPa) = 0.02855807
#
# Stress axis : x y z
#
# Youngs Moduli (GPa) = 59.78559 154.80790 83.13124
#
# Poissons Ratio (x) = -0.25223 0.16667
# Poissons Ratio (y) = -0.09741 0.24549
# Poissons Ratio (z) = 0.11986 0.45715
#
# Static dielectric constant tensor:
#      x y z
#    x 2.107400 0.000000 -0.113710 
#    y 0.000000 1.891840 0.000000 
#    z -0.113710 0.000000 2.153090 
# 
# From -- ./inp_files/8240.got.cif
#   From: 2010.05.17/outbox.cif.g08.bks.cpg/sg13_5_cif.got.tgz:8240.got - 2010.06.03 16:44:36.
