data_PCOD9230676
_publ_section_title
;
Structure prediction by ZEFSAII (Michael W. Deem and Ramdas Pophale) SiO2 
 PCOD9230676
Probable space group: P 2/C
;
_chemical_formula_sum "Si O2"
_cell_formula_units_Z 30
_cell_length_a 10.353803
_cell_length_b 6.800165
_cell_length_c 19.009595
_cell_angle_alpha 90.000000
_cell_angle_beta 105.297021
_cell_angle_gamma 90.000000
_cell_volume 1291.000691
_symmetry_space_group_name_H-M "P 2/C"
_symmetry_group_IT_number 13
_symmetry_cell_setting 'monoclinic'
loop_
_space_group_symop_operation_xyz
x,y,z
-x,y,1/2-z
-x,-y,-z
x,-y,1/2+z
loop_
_atom_site_type_symbol
_atom_site_label
_atom_site_fract_x
_atom_site_fract_y
_atom_site_fract_z
Si Si1 0.370205 0.496522 0.766576
Si Si2 0.471508 0.495990 0.577627
Si Si3 0.500000 0.869483 0.750000
Si Si4 0.122529 0.080488 0.152469
Si Si5 0.277624 0.896164 0.290616
Si Si6 0.835176 0.094297 0.573748
Si Si7 0.736190 0.184227 0.939080
Si Si8 0.816912 0.387425 0.448053
O O1 0.500000 0.396990 0.750000
O O2 0.408159 0.543884 0.852810
O O3 0.379447 0.702890 0.725954
O O4 0.264066 0.322329 0.753240
O O5 0.500000 0.500000 0.500000
O O6 0.409599 0.281582 0.585336
O O7 0.345373 0.637234 0.573776
O O8 0.577328 0.007360 0.705706
O O9 0.168764 0.040126 0.238605
O O10 0.227717 0.954626 0.120355
O O11 0.977308 0.989652 0.118344
O O12 0.122383 0.290846 0.113088
O O13 0.251111 0.868335 0.369109
O O14 0.860297 0.278318 0.525418
O O15 0.762187 0.935367 0.513558
O O16 0.169076 0.622056 0.047684
#
# Coordination Sequence:
#
# PCOD9230676 Si02
#       8
#     4   4   2   4   4   4   4   4
#     4  10  22  40  60  87 126 163 198 250 303 381
#     4  10  20  37  61  91 125 159 200 255 305 370
#     4  10  24  38  66  84 126 160 204 240 316 376
#     4  11  23  42  63  90 123 169 216 251 308 368
#     4  12  24  41  64  94 126 166 203 256 321 365
#     4  11  24  41  62  94 126 161 212 265 300 369
#     4   9  22  39  65  88 122 163 209 251 311 361
#     4   9  21  41  65  89 124 163 210 254 310 361
#
# _framework density 23.237787000000001
#
# number of rings (size 3 to 8) (size 9 to 14) (size 15 to 20)
#    1.200    0.533    0.667    4.400    1.867    2.133 
#    0.000    2.000    0.000    4.800    0.000    0.000 
#    0.000    0.000    0.000    0.000    0.000    0.000 
#
# Total GULP energy -167121.019972 kJ/mol
# GULP energy per Si atom -5570.700666 kJ/mol
# Density = 2.318490 g / cm^3
# Si number density = 23.237787 Si / 1000 Ang^3
#
#
#
# Elastic Constant Matrix: (Units=GPa)
#
#
# Indices 1 2 3 4 5 6 
#
# 1 41.5184 0.8012 13.7628 0.0000 -3.9627 0.0000
# 2 0.8012 105.1431 16.3160 0.0000 -9.9299 0.0000
# 3 13.7628 16.3160 125.2355 0.0000 -6.7357 0.0000
# 4 0.0000 0.0000 0.0000 12.6545 0.0000 5.4294
# 5 -3.9627 -9.9299 -6.7357 0.0000 25.3346 0.0000
# 6 0.0000 0.0000 0.0000 5.4294 0.0000 20.7860
#
#
#
# Elastic Compliance Matrix: (Units=1/GPa)
#
#
# Indices 1 2 3 4 5 6 
#
# 1 0.025289 0.000548 -0.002664 0.000000 0.003462 0.000000
# 2 0.000548 0.010038 -0.001168 0.000000 0.003710 0.000000
# 3 -0.002664 -0.001168 0.008505 0.000000 0.001386 0.000000
# 4 0.000000 0.000000 0.000000 0.088997 0.000000 -0.023246
# 5 0.003462 0.003710 0.001386 0.000000 0.041836 0.000000
# 6 0.000000 0.000000 0.000000 -0.023246 0.000000 0.054181
#
#
# Mechanical properties :
#
#
# Convention : Reuss Voigt Hill
#
# Bulk Modulus (GPa) = 26.83740 37.07301 31.95521
# Shear Modulus (GPa) = 20.17464 27.82283 23.99873
#
# Velocity S-wave (km/s) = 2.94969 3.46397 3.21712
# Velocity P-wave (km/s) = 4.81404 5.65572 5.25177
#
# Compressibility (1/GPa) = 0.03726143
#
# Stress axis : x y z
#
# Youngs Moduli (GPa) = 39.54334 99.61817 117.58416
#
# Poissons Ratio (x) = -0.05456 0.31328
# Poissons Ratio (y) = -0.02166 0.13740
# Poissons Ratio (z) = 0.10535 0.11640
#
# Static dielectric constant tensor:
#      x y z
#    x 1.917480 0.000000 0.072580 
#    y 0.000000 1.937860 0.000000 
#    z 0.072580 0.000000 1.939440 
# 
# From -- ./inp_files/75732.got.cif
#   From: 2010.05.17/outbox.cif.g08.bks.cpg/sg13_38_cif.got.tgz:75732.got - 2010.06.03 16:44:36.
