data_PCOD9230794
_publ_section_title
;
Structure prediction by ZEFSAII (Michael W. Deem and Ramdas Pophale) SiO2 
 PCOD9230794
Probable space group: P 2/C
;
_chemical_formula_sum "Si O2"
_cell_formula_units_Z 26
_cell_length_a 14.777258
_cell_length_b 11.670888
_cell_length_c 13.043198
_cell_angle_alpha 90.000000
_cell_angle_beta 31.835115
_cell_angle_gamma 90.000000
_cell_volume 1186.547202
_symmetry_space_group_name_H-M "P 2/C"
_symmetry_group_IT_number 13
_symmetry_cell_setting 'monoclinic'
loop_
_space_group_symop_operation_xyz
x,y,z
-x,y,1/2-z
-x,-y,-z
x,-y,1/2+z
loop_
_atom_site_type_symbol
_atom_site_label
_atom_site_fract_x
_atom_site_fract_y
_atom_site_fract_z
Si Si1 0.726705 0.066044 0.133444
Si Si2 0.029686 0.885469 0.841367
Si Si3 0.348256 0.956533 0.034798
Si Si4 0.323701 0.491209 0.732792
Si Si5 0.897431 0.284602 0.053379
Si Si6 0.744609 0.707923 0.346610
Si Si7 0.500000 0.586109 0.750000
O O1 0.549072 0.016594 0.347709
O O2 0.761403 0.194077 0.138788
O O3 0.698174 0.071117 0.039299
O O4 0.887915 0.983646 0.999836
O O5 0.027340 0.777322 0.918025
O O6 0.000000 0.856385 0.750000
O O7 0.215486 0.942565 0.684308
O O8 0.310185 0.836744 0.126089
O O9 0.500000 0.500000 0.500000
O O10 0.193922 0.595599 0.835436
O O11 0.257773 0.372664 0.751412
O O12 0.375786 0.507508 0.800571
O O13 0.053331 0.292988 0.822446
O O14 0.618247 0.659511 0.557203
#
# Coordination Sequence:
#
# PCOD9230794 Si02
#       7
#     4   4   4   4   4   4   2
#     4  10  20  37  65  97 128 176 231 273 324 391
#     4  10  23  43  61  94 141 179 226 274 333 398
#     4  10  20  38  65  95 133 178 220 274 331 388
#     4  10  23  44  65  95 129 168 223 274 331 402
#     4  12  23  40  65  96 133 173 226 281 330 397
#     4  11  22  40  68  99 130 170 228 273 333 397
#     4  10  22  44  68  94 130 170 216 280 328 398
#
# _framework density 21.912317999999999
#
# number of rings (size 3 to 8) (size 9 to 14) (size 15 to 20)
#    0.000    1.538    1.538    4.615    0.000    2.462 
#   11.077    0.000    0.000    0.000    0.000    0.000 
#    0.000    0.000    0.000    0.000    0.000    0.000 
#
# Total GULP energy -145299.457808 kJ/mol
# GULP energy per Si atom -5588.440685 kJ/mol
# Density = 2.186244 g / cm^3
# Si number density = 21.912318 Si / 1000 Ang^3
#
#
#
# Elastic Constant Matrix: (Units=GPa)
#
#
# Indices 1 2 3 4 5 6 
#
# 1 78.7821 44.6361 25.8827 0.0000 1.3347 0.0000
# 2 44.6361 111.9446 53.3976 0.0000 1.2953 0.0000
# 3 25.8827 53.3976 142.1633 0.0000 -19.0583 0.0000
# 4 0.0000 0.0000 0.0000 40.6577 0.0000 -1.0875
# 5 1.3347 1.2953 -19.0583 0.0000 39.8145 0.0000
# 6 0.0000 0.0000 0.0000 -1.0875 0.0000 18.3019
#
#
#
# Elastic Compliance Matrix: (Units=1/GPa)
#
#
# Indices 1 2 3 4 5 6 
#
# 1 0.016465 -0.006190 -0.000769 0.000000 -0.000719 0.000000
# 2 -0.006190 0.013442 -0.004224 0.000000 -0.002252 0.000000
# 3 -0.000769 -0.004224 0.009385 0.000000 0.004655 0.000000
# 4 0.000000 0.000000 0.000000 0.024635 0.000000 0.001464
# 5 -0.000719 -0.002252 0.004655 0.000000 0.027442 0.000000
# 6 0.000000 0.000000 0.000000 0.001464 0.000000 0.054726
#
#
# Mechanical properties :
#
#
# Convention : Reuss Voigt Hill
#
# Bulk Modulus (GPa) = 59.08001 64.52476 61.80238
# Shear Modulus (GPa) = 28.71863 33.68639 31.20251
#
# Velocity S-wave (km/s) = 3.62417 3.92513 3.77765
# Velocity P-wave (km/s) = 6.67333 7.07481 6.87700
#
# Compressibility (1/GPa) = 0.01692620
#
# Stress axis : x y z
#
# Youngs Moduli (GPa) = 60.73407 74.39375 106.55562
#
# Poissons Ratio (x) = 0.46051 0.08194
# Poissons Ratio (y) = 0.37595 0.45007
# Poissons Ratio (z) = 0.04670 0.31422
#
# Static dielectric constant tensor:
#      x y z
#    x 1.577200 0.000000 0.443910 
#    y 0.000000 1.765200 0.000000 
#    z 0.443910 0.000000 1.222390 
# 
# From -- ./inp_files/53661.got.cif
#   From: 2010.05.17/outbox.cif.g08.bks.cpg/sg13_27_cif.got.tgz:53661.got - 2010.06.03 16:44:36.
