data_PCOD9230519
_publ_section_title
;
Structure prediction by ZEFSAII (Michael W. Deem and Ramdas Pophale) SiO2 
 PCOD9230519
Probable space group: P 2/C
;
_chemical_formula_sum "Si O2"
_cell_formula_units_Z 28
_cell_length_a 18.253356
_cell_length_b 11.328491
_cell_length_c 20.319690
_cell_angle_alpha 90.000000
_cell_angle_beta 19.712207
_cell_angle_gamma 90.000000
_cell_volume 1417.238176
_symmetry_space_group_name_H-M "P 2/C"
_symmetry_group_IT_number 13
_symmetry_cell_setting 'monoclinic'
loop_
_space_group_symop_operation_xyz
x,y,z
-x,y,1/2-z
-x,-y,-z
x,-y,1/2+z
loop_
_atom_site_type_symbol
_atom_site_label
_atom_site_fract_x
_atom_site_fract_y
_atom_site_fract_z
Si Si1 0.648051 0.801757 0.722691
Si Si2 0.173378 0.765872 0.718673
Si Si3 0.349378 0.798557 0.213456
Si Si4 0.221416 0.971065 0.773622
Si Si5 0.064680 0.635655 0.944086
Si Si6 0.214608 0.899070 0.025765
Si Si7 0.272063 0.162994 0.929267
O O1 0.659161 0.882985 0.777621
O O2 0.749829 0.678071 0.661303
O O3 0.803600 0.850204 0.533064
O O4 0.408522 0.823899 0.895696
O O5 0.407639 0.747765 0.488468
O O6 0.177041 0.900235 0.744711
O O7 0.146090 0.677857 0.803299
O O8 0.947620 0.766000 0.870226
O O9 0.285736 0.851667 0.338502
O O10 0.157960 0.709309 0.356467
O O11 0.343888 0.905407 0.166010
O O12 0.000000 0.000000 0.000000
O O13 0.000000 0.500000 0.000000
O O14 0.000000 0.889132 0.250000
O O15 0.272182 0.038154 0.967653
O O16 0.500000 0.226414 0.750000
#
# Coordination Sequence:
#
# PCOD9230519 Si02
#       7
#     4   4   4   4   4   4   4
#     4  10  20  37  55  86 120 149 192 235 299 350
#     4  10  23  33  58  88 112 154 192 232 303 351
#     4  11  21  36  56  87 119 147 192 241 289 359
#     4  11  16  34  52  83 123 145 175 233 301 361
#     4  10  23  43  63  83 113 156 206 260 296 333
#     4  11  22  33  54  88 121 158 188 225 288 364
#     4  11  21  34  51  83 126 154 183 222 284 358
#
# _framework density 19.756736
#
# number of rings (size 3 to 8) (size 9 to 14) (size 15 to 20)
#    0.000    1.429    7.143    0.429    4.000    2.857 
#    0.000    0.000   12.571    0.000    0.000    0.000 
#    0.000    0.000    0.000    0.000    0.000    0.000 
#
# Total GULP energy -156154.721548 kJ/mol
# GULP energy per Si atom -5576.954341 kJ/mol
# Density = 1.971177 g / cm^3
# Si number density = 19.756736 Si / 1000 Ang^3
#
#
#
# Elastic Constant Matrix: (Units=GPa)
#
#
# Indices 1 2 3 4 5 6 
#
# 1 59.7687 17.8910 34.2384 0.0000 -8.3257 0.0000
# 2 17.8910 94.9089 25.6359 0.0000 -5.5003 0.0000
# 3 34.2384 25.6359 156.3063 0.0000 -0.8483 0.0000
# 4 0.0000 0.0000 0.0000 12.5365 0.0000 -4.1800
# 5 -8.3257 -5.5003 -0.8483 0.0000 35.3725 0.0000
# 6 0.0000 0.0000 0.0000 -4.1800 0.0000 14.2955
#
#
#
# Elastic Compliance Matrix: (Units=1/GPa)
#
#
# Indices 1 2 3 4 5 6 
#
# 1 0.020392 -0.002505 -0.004033 0.000000 0.004313 0.000000
# 2 -0.002505 0.011432 -0.001320 0.000000 0.001156 0.000000
# 3 -0.004033 -0.001320 0.007492 0.000000 -0.000975 0.000000
# 4 0.000000 0.000000 0.000000 0.088384 0.000000 0.025843
# 5 0.004313 0.001156 -0.000975 0.000000 0.029442 0.000000
# 6 0.000000 0.000000 0.000000 0.025843 0.000000 0.077508
#
#
# Mechanical properties :
#
#
# Convention : Reuss Voigt Hill
#
# Bulk Modulus (GPa) = 42.37028 51.83495 47.10261
# Shear Modulus (GPa) = 19.36240 27.98881 23.67561
#
# Velocity S-wave (km/s) = 3.13396 3.76795 3.46548
# Velocity P-wave (km/s) = 5.88117 6.72484 6.31711
#
# Compressibility (1/GPa) = 0.02360145
#
# Stress axis : x y z
#
# Youngs Moduli (GPa) = 49.03922 87.47241 133.47174
#
# Poissons Ratio (x) = 0.21910 0.53823
# Poissons Ratio (y) = 0.12283 0.17619
# Poissons Ratio (z) = 0.19775 0.11547
#
# Static dielectric constant tensor:
#      x y z
#    x 1.770630 0.000000 -0.041270 
#    y 0.000000 1.675460 0.000000 
#    z -0.041270 0.000000 1.812990 
# 
# From -- ./inp_files/81036.got.cif
#   From: 2010.05.17/outbox.cif.g08.bks.cpg/sg13_41_cif.got.tgz:81036.got - 2010.06.03 16:44:36.
