data_PCOD9230203
_publ_section_title
;
Structure prediction by ZEFSAII (Michael W. Deem and Ramdas Pophale) SiO2 
 PCOD9230203
Probable space group: P 2/C
;
_chemical_formula_sum "Si O2"
_cell_formula_units_Z 20
_cell_length_a 13.035161
_cell_length_b 11.409415
_cell_length_c 10.537274
_cell_angle_alpha 90.000000
_cell_angle_beta 43.898198
_cell_angle_gamma 90.000000
_cell_volume 1086.622862
_symmetry_space_group_name_H-M "P 2/C"
_symmetry_group_IT_number 13
_symmetry_cell_setting 'monoclinic'
loop_
_space_group_symop_operation_xyz
x,y,z
-x,y,1/2-z
-x,-y,-z
x,-y,1/2+z
loop_
_atom_site_type_symbol
_atom_site_label
_atom_site_fract_x
_atom_site_fract_y
_atom_site_fract_z
Si Si1 0.666151 0.220274 0.575878
Si Si2 0.402597 0.521483 0.462135
Si Si3 0.922923 0.566032 0.188308
Si Si4 0.121755 0.040924 0.246622
Si Si5 0.883713 0.187600 0.612473
O O1 0.500000 0.179873 0.750000
O O2 0.645145 0.343763 0.522575
O O3 0.751842 0.121376 0.422930
O O4 0.767654 0.235297 0.611268
O O5 0.500000 0.486641 0.250000
O O6 0.500000 0.500000 0.500000
O O7 0.249506 0.457647 0.631306
O O8 0.935358 0.704129 0.150253
O O9 0.000000 0.529034 0.250000
O O10 0.000000 0.500000 0.000000
O O11 0.000000 0.004718 0.250000
O O12 0.026971 0.126384 0.421895
O O13 0.183874 0.923112 0.253280
#
# Coordination Sequence:
#
# PCOD9230203 Si02
#       5
#     4   4   4   4   4
#     4  10  20  36  57  80 110 150 193 235 287 350
#     4  11  23  41  60  84 121 159 193 240 305 358
#     4  12  23  37  60  89 116 151 203 250 290 351
#     4   9  19  36  57  81 112 149 188 237 293 344
#     4  10  20  36  57  82 114 150 190 239 292 344
#
# _framework density 18.405650000000001
#
# number of rings (size 3 to 8) (size 9 to 14) (size 15 to 20)
#    0.000    1.600    0.000    6.600    0.000    2.400 
#    0.000    1.000    0.000    0.000    0.000    0.000 
#    0.000    0.000    0.000    0.000    0.000    0.000 
#
# Total GULP energy -111509.422485 kJ/mol
# GULP energy per Si atom -5575.471124 kJ/mol
# Density = 1.836376 g / cm^3
# Si number density = 18.405650 Si / 1000 Ang^3
#
#
#
# Elastic Constant Matrix: (Units=GPa)
#
#
# Indices 1 2 3 4 5 6 
#
# 1 104.1427 38.5783 26.7002 0.0000 12.9461 0.0000
# 2 38.5783 87.2603 31.9007 0.0000 8.3471 0.0000
# 3 26.7002 31.9007 83.5014 0.0000 12.0517 0.0000
# 4 0.0000 0.0000 0.0000 8.4637 0.0000 2.6631
# 5 12.9461 8.3471 12.0517 0.0000 30.5033 0.0000
# 6 0.0000 0.0000 0.0000 2.6631 0.0000 33.7201
#
#
#
# Elastic Compliance Matrix: (Units=1/GPa)
#
#
# Indices 1 2 3 4 5 6 
#
# 1 0.012075 -0.004403 -0.001711 0.000000 -0.003244 0.000000
# 2 -0.004403 0.015013 -0.004247 0.000000 -0.000562 0.000000
# 3 -0.001711 -0.004247 0.014712 0.000000 -0.003924 0.000000
# 4 0.000000 0.000000 0.000000 0.121162 0.000000 -0.009569
# 5 -0.003244 -0.000562 -0.003924 0.000000 0.035864 0.000000
# 6 0.000000 0.000000 0.000000 -0.009569 0.000000 0.030412
#
#
# Mechanical properties :
#
#
# Convention : Reuss Voigt Hill
#
# Bulk Modulus (GPa) = 47.44021 52.14031 49.79026
# Shear Modulus (GPa) = 19.45650 26.38579 22.92115
#
# Velocity S-wave (km/s) = 3.25483 3.79036 3.53275
# Velocity P-wave (km/s) = 6.32107 6.89534 6.61444
#
# Compressibility (1/GPa) = 0.02107916
#
# Stress axis : x y z
#
# Youngs Moduli (GPa) = 82.81555 66.61079 67.97343
#
# Poissons Ratio (x) = 0.29326 0.11629
# Poissons Ratio (y) = 0.36461 0.28865
# Poissons Ratio (z) = 0.14169 0.28286
#
# Static dielectric constant tensor:
#      x y z
#    x 1.667320 0.000000 0.025900 
#    y 0.000000 1.628510 0.000000 
#    z 0.025900 0.000000 1.672580 
# 
# From -- ./inp_files/33586.got.cif
#   From: 2010.05.17/outbox.cif.g08.bks.cpg/sg13_17_cif.got.tgz:33586.got - 2010.06.03 16:44:36.
