data_PCOD9230446
_publ_section_title
;
Structure prediction by ZEFSAII (Michael W. Deem and Ramdas Pophale) SiO2 
 PCOD9230446
Probable space group: P 2/C
;
_chemical_formula_sum "Si O2"
_cell_formula_units_Z 28
_cell_length_a 16.675400
_cell_length_b 6.188625
_cell_length_c 17.120782
_cell_angle_alpha 90.000000
_cell_angle_beta 130.139192
_cell_angle_gamma 90.000000
_cell_volume 1350.704998
_symmetry_space_group_name_H-M "P 2/C"
_symmetry_group_IT_number 13
_symmetry_cell_setting 'monoclinic'
loop_
_space_group_symop_operation_xyz
x,y,z
-x,y,1/2-z
-x,-y,-z
x,-y,1/2+z
loop_
_atom_site_type_symbol
_atom_site_label
_atom_site_fract_x
_atom_site_fract_y
_atom_site_fract_z
Si Si1 0.865296 0.742218 0.372478
Si Si2 0.422395 0.689635 0.924165
Si Si3 0.901803 0.324589 0.140310
Si Si4 0.763426 0.012693 0.952019
Si Si5 0.403577 0.932262 0.539213
Si Si6 0.245793 0.382825 0.845962
Si Si7 0.089532 0.641772 0.493373
O O1 0.795221 0.868135 0.391709
O O2 0.813204 0.757982 0.255622
O O3 0.875228 0.494894 0.409491
O O4 0.989367 0.794870 0.444829
O O5 0.314646 0.563675 0.843545
O O6 0.409002 0.859096 0.986505
O O7 0.500000 0.500000 0.000000
O O8 0.482433 0.818655 0.893373
O O9 0.825981 0.142285 0.058616
O O10 0.836177 0.487280 0.153037
O O11 0.940642 0.465564 0.091000
O O12 0.000000 0.235972 0.250000
O O13 0.644662 0.995883 0.907658
O O14 0.813224 0.777525 0.975818
O O15 0.321804 0.765063 0.446767
#
# Coordination Sequence:
#
# PCOD9230446 Si02
#       7
#     4   4   4   4   4   4   4
#     4  10  23  36  58  82 126 162 193 237 298 358
#     4   9  20  37  61  88 113 143 196 255 304 344
#     4  11  21  34  57  87 121 156 202 243 286 345
#     4  11  22  37  58  87 118 162 197 239 298 358
#     4  10  20  36  64  89 110 150 202 250 298 350
#     4  11  20  37  60  88 116 155 198 248 293 353
#     4  10  21  40  53  81 124 166 191 236 294 355
#
# _framework density 20.729915999999999
#
# number of rings (size 3 to 8) (size 9 to 14) (size 15 to 20)
#    0.000    1.714    4.286    0.429    0.000    2.857 
#    0.000    0.000    0.000   20.571    0.000    0.000 
#    0.000    0.000    0.000    0.000    0.000    0.000 
#
# Total GULP energy -156241.948655 kJ/mol
# GULP energy per Si atom -5580.069595 kJ/mol
# Density = 2.068273 g / cm^3
# Si number density = 20.729916 Si / 1000 Ang^3
#
#
#
# Elastic Constant Matrix: (Units=GPa)
#
#
# Indices 1 2 3 4 5 6 
#
# 1 127.3174 1.2846 -7.8332 0.0000 -1.8941 0.0000
# 2 1.2846 22.3595 -14.9977 0.0000 7.2953 0.0000
# 3 -7.8332 -14.9977 27.7993 0.0000 -7.3069 0.0000
# 4 0.0000 0.0000 0.0000 6.7123 0.0000 -3.7041
# 5 -1.8941 7.2953 -7.3069 0.0000 14.1302 0.0000
# 6 0.0000 0.0000 0.0000 -3.7041 0.0000 42.1699
#
#
#
# Elastic Compliance Matrix: (Units=1/GPa)
#
#
# Indices 1 2 3 4 5 6 
#
# 1 0.008092 0.001125 0.003495 0.000000 0.002311 0.000000
# 2 0.001125 0.075077 0.035497 0.000000 -0.020255 0.000000
# 3 0.003495 0.035497 0.059501 0.000000 0.012910 0.000000
# 4 0.000000 0.000000 0.000000 0.156571 0.000000 0.013753
# 5 0.002311 -0.020255 0.012910 0.000000 0.088214 0.000000
# 6 0.000000 0.000000 0.000000 0.013753 0.000000 0.024922
#
#
# Mechanical properties :
#
#
# Convention : Reuss Voigt Hill
#
# Bulk Modulus (GPa) = 4.48623 14.93153 9.70888
# Shear Modulus (GPa) = 12.30182 25.87064 19.08623
#
# Velocity S-wave (km/s) = 2.43869 3.53652 3.03761
# Velocity P-wave (km/s) = 3.17781 4.88820 4.12268
#
# Compressibility (1/GPa) = 0.22290442
#
# Stress axis : x y z
#
# Youngs Moduli (GPa) = 123.57234 13.31958 16.80652
#
# Poissons Ratio (x) = -0.01499 -0.05873
# Poissons Ratio (y) = -0.13903 -0.59658
# Poissons Ratio (z) = -0.43185 -0.47281
#
# Static dielectric constant tensor:
#      x y z
#    x 1.792180 0.000000 0.005520 
#    y 0.000000 1.738260 0.000000 
#    z 0.005520 0.000000 1.722520 
# 
# From -- ./inp_files/67608.got.cif
#   From: 2010.05.17/outbox.cif.g08.bks.cpg/sg13_34_cif.got.tgz:67608.got - 2010.06.03 16:44:36.
