data_PCOD9230452
_publ_section_title
;
Structure prediction by ZEFSAII (Michael W. Deem and Ramdas Pophale) SiO2 
 PCOD9230452
Probable space group: P 2/C
;
_chemical_formula_sum "Si O2"
_cell_formula_units_Z 22
_cell_length_a 7.983157
_cell_length_b 16.440423
_cell_length_c 9.541729
_cell_angle_alpha 90.000000
_cell_angle_beta 112.197393
_cell_angle_gamma 90.000000
_cell_volume 1159.506228
_symmetry_space_group_name_H-M "P 2/C"
_symmetry_group_IT_number 13
_symmetry_cell_setting 'monoclinic'
loop_
_space_group_symop_operation_xyz
x,y,z
-x,y,1/2-z
-x,-y,-z
x,-y,1/2+z
loop_
_atom_site_type_symbol
_atom_site_label
_atom_site_fract_x
_atom_site_fract_y
_atom_site_fract_z
Si Si1 0.500000 0.505787 0.250000
Si Si2 0.865828 0.006272 0.828374
Si Si3 0.528041 0.775973 0.988260
Si Si4 0.639988 0.607353 0.542849
Si Si5 0.220722 0.179631 0.169065
Si Si6 0.500000 0.111875 0.750000
Si Si7 0.000000 0.301718 0.250000
O O1 0.628644 0.560497 0.390823
O O2 0.405121 0.449651 0.337795
O O3 0.682667 0.057438 0.794819
O O4 0.000000 0.037546 0.750000
O O5 0.810286 0.912284 0.792359
O O6 0.000000 0.000000 0.000000
O O7 0.509576 0.680048 0.012994
O O8 0.706318 0.808104 0.964833
O O9 0.372387 0.789372 0.824301
O O10 0.491292 0.830639 0.111541
O O11 0.834695 0.645264 0.640173
O O12 0.055407 0.239720 0.143662
#
# Coordination Sequence:
#
# PCOD9230452 Si02
#       7
#     2   4   4   4   4   2   2
#     4  10  21  40  63  88 124 158 198 248 313 388
#     4  12  25  40  60  90 128 168 216 274 312 368
#     4  10  21  39  63  86 117 164 211 250 310 384
#     4  10  21  38  62  90 121 158 200 254 312 381
#     4  10  20  38  61  83 119 166 209 251 310 369
#     4  12  25  40  61  92 130 170 218 272 327 356
#     4  10  20  36  64  92 122 158 208 258 310 376
#
# _framework density 18.973593999999999
#
# number of rings (size 3 to 8) (size 9 to 14) (size 15 to 20)
#    0.000    1.455    0.909    6.000    2.545    2.909 
#    0.000    0.000    0.000    4.364    0.000    0.000 
#    0.000    0.000    0.000    0.000    0.000    0.000 
#
# Total GULP energy -122626.879383 kJ/mol
# GULP energy per Si atom -5573.949063 kJ/mol
# Density = 1.893041 g / cm^3
# Si number density = 18.973594 Si / 1000 Ang^3
#
#
#
# Elastic Constant Matrix: (Units=GPa)
#
#
# Indices 1 2 3 4 5 6 
#
# 1 97.7254 40.1428 45.4515 0.0000 -23.4565 0.0000
# 2 40.1428 105.2934 43.4198 0.0000 -10.3385 0.0000
# 3 45.4515 43.4198 115.2099 0.0000 -22.2644 0.0000
# 4 0.0000 0.0000 0.0000 56.0404 0.0000 -9.2156
# 5 -23.4565 -10.3385 -22.2644 0.0000 26.0473 0.0000
# 6 0.0000 0.0000 0.0000 -9.2156 0.0000 33.6072
#
#
#
# Elastic Compliance Matrix: (Units=1/GPa)
#
#
# Indices 1 2 3 4 5 6 
#
# 1 0.015483 -0.003785 -0.002728 0.000000 0.010108 0.000000
# 2 -0.003785 0.012192 -0.003384 0.000000 -0.001462 0.000000
# 3 -0.002728 -0.003384 0.012335 0.000000 0.006743 0.000000
# 4 0.000000 0.000000 0.000000 0.018687 0.000000 0.005124
# 5 0.010108 -0.001462 0.006743 0.000000 0.052678 0.000000
# 6 0.000000 0.000000 0.000000 0.005124 0.000000 0.031161
#
#
# Mechanical properties :
#
#
# Convention : Reuss Voigt Hill
#
# Bulk Modulus (GPa) = 49.46916 64.02853 56.74884
# Shear Modulus (GPa) = 29.57374 35.75329 32.66352
#
# Velocity S-wave (km/s) = 3.95229 4.34564 4.15363
# Velocity P-wave (km/s) = 6.85250 7.68107 7.27859
#
# Compressibility (1/GPa) = 0.02021461
#
# Stress axis : x y z
#
# Youngs Moduli (GPa) = 64.58823 82.01844 81.07237
#
# Poissons Ratio (x) = 0.31046 0.22117
# Poissons Ratio (y) = 0.24448 0.27437
# Poissons Ratio (z) = 0.17620 0.27757
#
# Static dielectric constant tensor:
#      x y z
#    x 1.720940 0.000000 -0.045080 
#    y 0.000000 2.263700 0.000000 
#    z -0.045080 0.000000 1.626630 
# 
# From -- ./inp_files/12593.got.cif
#   From: 2010.05.17/outbox.cif.g08.bks.cpg/sg13_7_cif.got.tgz:12593.got - 2010.06.03 16:44:36.
