data_PCOD9230237
_publ_section_title
;
Structure prediction by ZEFSAII (Michael W. Deem and Ramdas Pophale) SiO2 
 PCOD9230237
Probable space group: P 2/C
;
_chemical_formula_sum "Si O2"
_cell_formula_units_Z 14
_cell_length_a 11.726348
_cell_length_b 7.189423
_cell_length_c 14.102523
_cell_angle_alpha 90.000000
_cell_angle_beta 30.300023
_cell_angle_gamma 90.000000
_cell_volume 599.844774
_symmetry_space_group_name_H-M "P 2/C"
_symmetry_group_IT_number 13
_symmetry_cell_setting 'monoclinic'
loop_
_space_group_symop_operation_xyz
x,y,z
-x,y,1/2-z
-x,-y,-z
x,-y,1/2+z
loop_
_atom_site_type_symbol
_atom_site_label
_atom_site_fract_x
_atom_site_fract_y
_atom_site_fract_z
Si Si1 0.500000 0.399207 0.750000
Si Si2 0.069846 0.132035 0.306161
Si Si3 0.729905 0.848877 0.216344
Si Si4 0.014297 0.557676 0.132062
O O1 0.484158 0.264810 0.668952
O O2 0.725846 0.520103 0.582315
O O3 0.000000 0.080231 0.250000
O O4 0.858376 0.089417 0.527978
O O5 0.100983 0.353973 0.287501
O O6 0.273112 0.020012 0.209302
O O7 0.889547 0.697546 0.152664
O O8 0.000000 0.626348 0.250000
#
# Coordination Sequence:
#
# PCOD9230237 Si02
#       4
#     2   4   4   4
#     4  10  20  36  58  84 114 150 190 228 276 338
#     4   9  18  35  57  79 109 149 184 229 283 325
#     4  10  20  37  56  81 118 147 184 238 278 329
#     4  10  21  39  59  83 116 148 186 235 280 330
#
# _framework density 23.339372000000001
#
# number of rings (size 3 to 8) (size 9 to 14) (size 15 to 20)
#    0.000    2.286    0.000    4.286    0.000    1.143 
#    0.000   38.571    0.000    0.000    0.000    0.000 
#    0.000    0.000    0.000    0.000    0.000    0.000 
#
# Total GULP energy -78256.025811 kJ/mol
# GULP energy per Si atom -5589.716129 kJ/mol
# Density = 2.328625 g / cm^3
# Si number density = 23.339372 Si / 1000 Ang^3
#
#
#
# Elastic Constant Matrix: (Units=GPa)
#
#
# Indices 1 2 3 4 5 6 
#
# 1 175.2574 52.9897 37.6512 0.0000 20.9430 0.0000
# 2 52.9897 98.3330 19.0711 0.0000 -6.8586 0.0000
# 3 37.6512 19.0711 71.7764 0.0000 2.8533 0.0000
# 4 0.0000 0.0000 0.0000 -2.4876 0.0000 3.8473
# 5 20.9430 -6.8586 2.8533 0.0000 43.3564 0.0000
# 6 0.0000 0.0000 0.0000 3.8473 0.0000 45.1524
#
#
#
# Elastic Compliance Matrix: (Units=1/GPa)
#
#
# Indices 1 2 3 4 5 6 
#
# 1 0.008108 -0.004094 -0.002992 0.000000 -0.004367 0.000000
# 2 -0.004094 0.012945 -0.001456 0.000000 0.004121 0.000000
# 3 -0.002992 -0.001456 0.015882 0.000000 0.000170 0.000000
# 4 0.000000 0.000000 0.000000 -0.355182 0.000000 0.030264
# 5 -0.004367 0.004121 0.000170 0.000000 0.025815 0.000000
# 6 0.000000 0.000000 0.000000 0.030264 0.000000 0.019569
#
#
# Mechanical properties :
#
#
# Convention : Reuss Voigt Hill
#
# Bulk Modulus (GPa) = 50.37286 62.75456 56.56371
# Shear Modulus (GPa) = -20.06727 32.91455 6.42364
#
# Velocity S-wave (km/s) = -2.93542 3.75941 1.66080
# Velocity P-wave (km/s) = 3.18445 6.76687 5.28825
#
# Compressibility (1/GPa) = 0.01985196
#
# Stress axis : x y z
#
# Youngs Moduli (GPa) = 123.32997 77.24753 62.96532
#
# Poissons Ratio (x) = 0.31623 0.18839
# Poissons Ratio (y) = 0.50488 0.09168
# Poissons Ratio (z) = 0.36900 0.11247
#
# Static dielectric constant tensor:
#      x y z
#    x 1.898200 0.000000 0.007920 
#    y 0.000000 1.898510 0.000000 
#    z 0.007920 0.000000 1.932390 
# 
# From -- ./inp_files/27303.got.cif
#   From: 2010.05.17/outbox.cif.g08.bks.cpg/sg13_14_cif.got.tgz:27303.got - 2010.06.03 16:44:36.
