data_PCOD9230788
_publ_section_title
;
Structure prediction by ZEFSAII (Michael W. Deem and Ramdas Pophale) SiO2 
 PCOD9230788
Probable space group: P 2/C
;
_chemical_formula_sum "Si O2"
_cell_formula_units_Z 28
_cell_length_a 8.761359
_cell_length_b 12.804726
_cell_length_c 17.284395
_cell_angle_alpha 90.000000
_cell_angle_beta 133.056225
_cell_angle_gamma 90.000000
_cell_volume 1416.855641
_symmetry_space_group_name_H-M "P 2/C"
_symmetry_group_IT_number 13
_symmetry_cell_setting 'monoclinic'
loop_
_space_group_symop_operation_xyz
x,y,z
-x,y,1/2-z
-x,-y,-z
x,-y,1/2+z
loop_
_atom_site_type_symbol
_atom_site_label
_atom_site_fract_x
_atom_site_fract_y
_atom_site_fract_z
Si Si1 0.689658 0.207894 0.874693
Si Si2 0.758324 0.284620 0.144489
Si Si3 0.183590 0.588175 0.979626
Si Si4 0.059847 0.923875 0.450886
Si Si5 0.323474 0.073428 0.476086
Si Si6 0.722722 0.577918 0.864993
Si Si7 0.421308 0.793377 0.643536
O O1 0.500000 0.228224 0.750000
O O2 0.635061 0.120546 0.922507
O O3 0.878958 0.161146 0.888536
O O4 0.766171 0.312039 0.946720
O O5 0.725565 0.378916 0.072206
O O6 0.606204 0.269386 0.164637
O O7 0.000000 0.289491 0.250000
O O8 0.714166 0.177284 0.084766
O O9 0.935096 0.561493 0.889960
O O10 0.271309 0.487907 0.054154
O O11 0.283279 0.870213 0.545175
O O12 0.111310 0.004254 0.400902
O O13 0.000000 0.000000 0.500000
O O14 0.500000 0.000000 0.500000
O O15 0.500000 0.553288 0.750000
O O16 0.730380 0.700910 0.883192
O O17 0.500000 0.846202 0.750000
#
# Coordination Sequence:
#
# PCOD9230788 Si02
#       7
#     4   4   4   4   4   4   4
#     4  10  21  37  59  82 115 156 196 240 295 358
#     4  11  23  37  60  87 121 155 195 249 300 354
#     4  10  21  39  60  89 122 149 195 247 295 354
#     4  10  21  36  57  80 117 150 199 241 289 350
#     4  10  21  38  55  84 117 153 195 249 297 343
#     4  10  20  37  65  91 116 156 197 238 296 361
#     4  11  22  37  61  87 117 155 200 243 296 356
#
# _framework density 19.762069
#
# number of rings (size 3 to 8) (size 9 to 14) (size 15 to 20)
#    0.000    1.714    2.857    2.143    4.000    4.000 
#    0.000    0.000    0.000    0.000    0.000    0.000 
#    0.000    0.000    0.000    0.000    0.000    0.000 
#
# Total GULP energy -155910.083938 kJ/mol
# GULP energy per Si atom -5568.217284 kJ/mol
# Density = 1.971709 g / cm^3
# Si number density = 19.762069 Si / 1000 Ang^3
#
#
#
# Elastic Constant Matrix: (Units=GPa)
#
#
# Indices 1 2 3 4 5 6 
#
# 1 68.8862 -11.6312 25.3705 0.0000 -1.9043 0.0000
# 2 -11.6312 31.7619 13.6468 0.0000 -3.4036 0.0000
# 3 25.3705 13.6468 84.0154 0.0000 12.1514 0.0000
# 4 0.0000 0.0000 0.0000 15.3352 0.0000 6.2499
# 5 -1.9043 -3.4036 12.1514 0.0000 24.2513 0.0000
# 6 0.0000 0.0000 0.0000 6.2499 0.0000 18.4420
#
#
#
# Elastic Compliance Matrix: (Units=1/GPa)
#
#
# Indices 1 2 3 4 5 6 
#
# 1 0.020196 0.012210 -0.009228 0.000000 0.007923 0.000000
# 2 0.012210 0.042768 -0.012550 0.000000 0.013249 0.000000
# 3 -0.009228 -0.012550 0.018422 0.000000 -0.011717 0.000000
# 4 0.000000 0.000000 0.000000 0.075659 0.000000 -0.025640
# 5 0.007923 0.013249 -0.011717 0.000000 0.049587 0.000000
# 6 0.000000 0.000000 0.000000 -0.025640 0.000000 0.062914
#
#
# Mechanical properties :
#
#
# Convention : Reuss Voigt Hill
#
# Bulk Modulus (GPa) = 16.06450 26.60396 21.33423
# Shear Modulus (GPa) = 16.15864 22.09086 19.12475
#
# Velocity S-wave (km/s) = 2.86258 3.34704 3.11424
# Velocity P-wave (km/s) = 4.36720 5.33182 4.87343
#
# Compressibility (1/GPa) = 0.06224904
#
# Stress axis : x y z
#
# Youngs Moduli (GPa) = 49.51511 23.38222 54.28202
#
# Poissons Ratio (x) = -0.28549 0.50090
# Poissons Ratio (y) = -0.60456 0.68125
# Poissons Ratio (z) = 0.45692 0.29345
#
# Static dielectric constant tensor:
#      x y z
#    x 1.551800 0.000000 -0.063740 
#    y 0.000000 1.695850 0.000000 
#    z -0.063740 0.000000 1.710470 
# 
# From -- ./inp_files/64611.got.cif
#   From: 2010.05.17/outbox.cif.g08.bks.cpg/sg13_33_cif.got.tgz:64611.got - 2010.06.03 16:44:36.
