data_PCOD9230591
_publ_section_title
;
Structure prediction by ZEFSAII (Michael W. Deem and Ramdas Pophale) SiO2 
 PCOD9230591
Probable space group: P 2/C
;
_chemical_formula_sum "Si O2"
_cell_formula_units_Z 28
_cell_length_a 5.487653
_cell_length_b 17.926040
_cell_length_c 13.423329
_cell_angle_alpha 90.000000
_cell_angle_beta 73.373204
_cell_angle_gamma 90.000000
_cell_volume 1265.267506
_symmetry_space_group_name_H-M "P 2/C"
_symmetry_group_IT_number 13
_symmetry_cell_setting 'monoclinic'
loop_
_space_group_symop_operation_xyz
x,y,z
-x,y,1/2-z
-x,-y,-z
x,-y,1/2+z
loop_
_atom_site_type_symbol
_atom_site_label
_atom_site_fract_x
_atom_site_fract_y
_atom_site_fract_z
Si Si1 0.898545 0.306156 0.546632
Si Si2 0.000000 0.695026 0.250000
Si Si3 0.361392 0.429150 0.056022
Si Si4 0.865114 0.057749 0.375539
Si Si5 0.000000 0.418642 0.250000
Si Si6 0.548365 0.806066 0.349098
Si Si7 0.323590 0.689383 0.851591
Si Si8 0.714532 0.906411 0.513284
O O1 0.983572 0.339093 0.643031
O O2 0.777355 0.377358 0.507147
O O3 0.698847 0.238967 0.584654
O O4 0.127300 0.274533 0.451309
O O5 0.249642 0.745371 0.210443
O O6 0.520533 0.367729 0.098117
O O7 0.169709 0.464863 0.157645
O O8 0.500000 0.500000 0.000000
O O9 0.573330 0.089740 0.405631
O O10 0.000000 0.051007 0.250000
O O11 0.068723 0.099641 0.425599
O O12 0.804418 0.979998 0.440389
O O13 0.839405 0.363656 0.200276
O O14 0.500000 0.850905 0.250000
O O15 0.673813 0.848718 0.426724
O O16 0.500000 0.732414 0.750000
#
# Coordination Sequence:
#
# PCOD9230591 Si02
#       8
#     4   2   4   4   2   4   4   4
#     4  10  21  39  61  92 126 162 217 272 330 400
#     4  10  22  40  61  90 126 167 208 278 320 404
#     4  10  20  37  59  86 121 161 206 268 330 395
#     4  10  22  41  67 101 141 173 231 285 332 398
#     4   8  18  34  55  82 108 147 206 250 306 394
#     4  10  23  39  64  95 130 172 222 271 331 413
#     4   9  18  37  62  82 114 157 207 262 318 395
#     4  10  23  39  68 100 133 188 223 277 345 398
#
# _framework density 22.129705999999999
#
# number of rings (size 3 to 8) (size 9 to 14) (size 15 to 20)
#    0.000    2.286    0.000    1.286    5.000    4.571 
#    0.000   17.143   12.571    0.000    0.000    0.000 
#    0.000    0.000    0.000    0.000    0.000    0.000 
#
# Total GULP energy -155874.771203 kJ/mol
# GULP energy per Si atom -5566.956114 kJ/mol
# Density = 2.207934 g / cm^3
# Si number density = 22.129706 Si / 1000 Ang^3
#
#
#
# Elastic Constant Matrix: (Units=GPa)
#
#
# Indices 1 2 3 4 5 6 
#
# 1 128.5802 28.1789 96.2988 0.0000 5.0680 0.0000
# 2 28.1789 46.6902 48.1743 0.0000 1.2038 0.0000
# 3 96.2988 48.1743 202.8257 0.0000 -9.4776 0.0000
# 4 0.0000 0.0000 0.0000 -1.9181 0.0000 -0.1065
# 5 5.0680 1.2038 -9.4776 0.0000 62.7406 0.0000
# 6 0.0000 0.0000 0.0000 -0.1065 0.0000 -13.6404
#
#
#
# Elastic Compliance Matrix: (Units=1/GPa)
#
#
# Indices 1 2 3 4 5 6 
#
# 1 0.012386 -0.001687 -0.005564 0.000000 -0.001809 0.000000
# 2 -0.001687 0.028755 -0.006091 0.000000 -0.001336 0.000000
# 3 -0.005564 -0.006091 0.009110 0.000000 0.001942 0.000000
# 4 0.000000 0.000000 0.000000 -0.521578 0.000000 0.004071
# 5 -0.001809 -0.001336 0.001942 0.000000 0.016404 0.000000
# 6 0.000000 0.000000 0.000000 0.004071 0.000000 -0.073343
#
#
# Mechanical properties :
#
#
# Convention : Reuss Voigt Hill
#
# Bulk Modulus (GPa) = 42.43554 80.37781 61.40668
# Shear Modulus (GPa) = -10.12706 23.13269 6.50281
#
# Velocity S-wave (km/s) = -2.14153 3.23665 1.71606
# Velocity P-wave (km/s) = 3.61975 7.09704 5.63341
#
# Compressibility (1/GPa) = 0.02356515
#
# Stress axis : x y z
#
# Youngs Moduli (GPa) = 80.73883 34.77624 109.77330
#
# Poissons Ratio (x) = 0.05868 0.61081
# Poissons Ratio (y) = 0.13623 0.66864
# Poissons Ratio (z) = 0.44925 0.21183
#
# Static dielectric constant tensor:
#      x y z
#    x 1.980620 0.000000 0.020280 
#    y 0.000000 1.816930 0.000000 
#    z 0.020280 0.000000 1.893220 
# 
# From -- ./inp_files/26722.got.cif
#   From: 2010.05.17/outbox.cif.g08.bks.cpg/sg13_14_cif.got.tgz:26722.got - 2010.06.03 16:44:36.
