data_PCOD9230799
_publ_section_title
;
Structure prediction by ZEFSAII (Michael W. Deem and Ramdas Pophale) SiO2 
 PCOD9230799
Probable space group: P 2/C
;
_chemical_formula_sum "Si O2"
_cell_formula_units_Z 28
_cell_length_a 10.052079
_cell_length_b 8.036096
_cell_length_c 16.499113
_cell_angle_alpha 90.000000
_cell_angle_beta 83.732792
_cell_angle_gamma 90.000000
_cell_volume 1324.824346
_symmetry_space_group_name_H-M "P 2/C"
_symmetry_group_IT_number 13
_symmetry_cell_setting 'monoclinic'
loop_
_space_group_symop_operation_xyz
x,y,z
-x,y,1/2-z
-x,-y,-z
x,-y,1/2+z
loop_
_atom_site_type_symbol
_atom_site_label
_atom_site_fract_x
_atom_site_fract_y
_atom_site_fract_z
Si Si1 0.790397 0.516335 0.377307
Si Si2 0.649985 0.997516 0.385758
Si Si3 0.317002 0.761671 0.983239
Si Si4 0.136859 0.037845 0.906119
Si Si5 0.521749 0.325266 0.343392
Si Si6 0.905905 0.191314 0.427700
Si Si7 0.842178 0.794236 0.253832
O O1 0.772940 0.645553 0.452787
O O2 0.647982 0.428932 0.368147
O O3 0.896811 0.377302 0.396783
O O4 0.829343 0.611302 0.292628
O O5 0.596273 0.865996 0.455728
O O6 0.739056 0.899584 0.314867
O O7 0.550171 0.126757 0.351404
O O8 0.760515 0.112691 0.421913
O O9 0.235557 0.901557 0.938912
O O10 0.398983 0.651993 0.913721
O O11 0.018743 0.921096 0.878871
O O12 0.196711 0.158159 0.834745
O O13 0.073175 0.158368 0.978432
O O14 0.500000 0.363138 0.250000
O O15 0.000000 0.833605 0.250000
#
# Coordination Sequence:
#
# PCOD9230799 Si02
#       7
#     4   4   4   4   4   4   4
#     4  10  24  41  59  91 129 161 201 252 321 364
#     4   9  19  38  62  87 119 161 208 248 302 361
#     4  10  21  39  64  90 121 167 204 253 303 364
#     4  10  20  37  66  90 120 160 213 245 296 367
#     4  11  22  40  60  89 124 161 211 255 303 363
#     4   9  19  38  60  89 123 160 196 254 298 369
#     4  11  21  40  60  90 125 158 200 255 312 360
#
# _framework density 21.134876999999999
#
# number of rings (size 3 to 8) (size 9 to 14) (size 15 to 20)
#    0.000    2.000    1.429    1.714    2.000    1.714 
#    7.714    7.143    0.000    0.000    0.000    0.000 
#    0.000    0.000    0.000    0.000    0.000    0.000 
#
# Total GULP energy -156052.773299 kJ/mol
# GULP energy per Si atom -5573.313332 kJ/mol
# Density = 2.108677 g / cm^3
# Si number density = 21.134877 Si / 1000 Ang^3
#
#
#
# Elastic Constant Matrix: (Units=GPa)
#
#
# Indices 1 2 3 4 5 6 
#
# 1 39.1834 11.0171 18.7157 0.0000 1.6226 0.0000
# 2 11.0171 105.9365 54.2855 0.0000 6.7556 0.0000
# 3 18.7157 54.2855 115.9220 0.0000 -6.2298 0.0000
# 4 0.0000 0.0000 0.0000 27.7202 0.0000 5.9867
# 5 1.6226 6.7556 -6.2298 0.0000 20.3135 0.0000
# 6 0.0000 0.0000 0.0000 5.9867 0.0000 27.2443
#
#
#
# Elastic Compliance Matrix: (Units=1/GPa)
#
#
# Indices 1 2 3 4 5 6 
#
# 1 0.027930 -0.000361 -0.004528 0.000000 -0.003500 0.000000
# 2 -0.000361 0.013192 -0.006460 0.000000 -0.006339 0.000000
# 3 -0.004528 -0.006460 0.012727 0.000000 0.006413 0.000000
# 4 0.000000 0.000000 0.000000 0.037872 0.000000 -0.008322
# 5 -0.003500 -0.006339 0.006413 0.000000 0.053583 0.000000
# 6 0.000000 0.000000 0.000000 -0.008322 0.000000 0.038534
#
#
# Mechanical properties :
#
#
# Convention : Reuss Voigt Hill
#
# Bulk Modulus (GPa) = 32.10193 47.67538 39.88866
# Shear Modulus (GPa) = 23.04988 26.85718 24.95353
#
# Velocity S-wave (km/s) = 3.30602 3.56863 3.43983
# Velocity P-wave (km/s) = 5.45849 6.29180 5.88990
#
# Compressibility (1/GPa) = 0.03115078
#
# Stress axis : x y z
#
# Youngs Moduli (GPa) = 35.80325 75.80478 78.57018
#
# Poissons Ratio (x) = 0.02736 0.35580
# Poissons Ratio (y) = 0.01292 0.50757
# Poissons Ratio (z) = 0.16213 0.48970
#
# Static dielectric constant tensor:
#      x y z
#    x 1.793210 0.000000 0.010170 
#    y 0.000000 1.778070 0.000000 
#    z 0.010170 0.000000 1.788990 
# 
# From -- ./inp_files/49976.got.cif
#   From: 2010.05.17/outbox.cif.g08.bks.cpg/sg13_25_cif.got.tgz:49976.got - 2010.06.03 16:44:36.
