data_PCOD9230471
_publ_section_title
;
Structure prediction by ZEFSAII (Michael W. Deem and Ramdas Pophale) SiO2 
 PCOD9230471
Probable space group: P 2/C
;
_chemical_formula_sum "Si O2"
_cell_formula_units_Z 18
_cell_length_a 12.964530
_cell_length_b 7.063110
_cell_length_c 9.168723
_cell_angle_alpha 90.000000
_cell_angle_beta 53.427336
_cell_angle_gamma 90.000000
_cell_volume 674.267493
_symmetry_space_group_name_H-M "P 2/C"
_symmetry_group_IT_number 13
_symmetry_cell_setting 'monoclinic'
loop_
_space_group_symop_operation_xyz
x,y,z
-x,y,1/2-z
-x,-y,-z
x,-y,1/2+z
loop_
_atom_site_type_symbol
_atom_site_label
_atom_site_fract_x
_atom_site_fract_y
_atom_site_fract_z
Si Si1 0.781390 0.947813 0.114396
Si Si2 0.500000 0.588578 0.750000
Si Si3 0.084885 0.618638 0.315478
Si Si4 0.451586 0.737815 0.086776
Si Si5 0.241892 0.251628 0.157942
O O1 0.854872 0.796525 0.153153
O O2 0.631635 0.904442 0.277129
O O3 0.803657 0.158921 0.151691
O O4 0.807287 0.887324 0.928192
O O5 0.571372 0.710872 0.566772
O O6 0.581961 0.448134 0.786378
O O7 0.190155 0.461796 0.178270
O O8 0.000000 0.675231 0.250000
O O9 0.000000 0.500000 0.500000
O O10 0.603852 0.754366 0.978937
#
# Coordination Sequence:
#
# PCOD9230471 Si02
#       5
#     4   2   4   4   4
#     4  12  28  47  76 111 149 193 240 303 367 440
#     4  10  20  36  66 100 144 200 232 280 342 434
#     4  12  28  52  76 104 143 193 255 308 357 424
#     4  11  23  42  71 111 153 186 240 293 372 441
#     4  12  28  47  76 112 148 193 242 298 371 438
#
# _framework density 26.695636
#
# number of rings (size 3 to 8) (size 9 to 14) (size 15 to 20)
#    0.000    0.444    4.444    3.333    6.222    1.778 
#    0.000    0.000    0.000    0.000    0.000    0.000 
#    0.000    0.000    0.000    0.000    0.000    0.000 
#
# Total GULP energy -100959.241804 kJ/mol
# GULP energy per Si atom -5608.846767 kJ/mol
# Density = 2.663488 g / cm^3
# Si number density = 26.695636 Si / 1000 Ang^3
#
#
#
# Elastic Constant Matrix: (Units=GPa)
#
#
# Indices 1 2 3 4 5 6 
#
# 1 131.1671 23.4393 32.6806 0.0000 10.7281 0.0000
# 2 23.4393 69.8768 1.9717 0.0000 -4.4842 0.0000
# 3 32.6806 1.9717 110.2057 0.0000 25.5224 0.0000
# 4 0.0000 0.0000 0.0000 44.1280 0.0000 13.0247
# 5 10.7281 -4.4842 25.5224 0.0000 51.1036 0.0000
# 6 0.0000 0.0000 0.0000 13.0247 0.0000 25.6920
#
#
#
# Elastic Compliance Matrix: (Units=1/GPa)
#
#
# Indices 1 2 3 4 5 6 
#
# 1 0.008811 -0.002950 -0.002343 0.000000 -0.000939 0.000000
# 2 -0.002950 0.015417 0.000161 0.000000 0.001892 0.000000
# 3 -0.002343 0.000161 0.010911 0.000000 -0.004943 0.000000
# 4 0.000000 0.000000 0.000000 0.026649 0.000000 -0.013510
# 5 -0.000939 0.001892 -0.004943 0.000000 0.022400 0.000000
# 6 0.000000 0.000000 0.000000 -0.013510 0.000000 0.045772
#
#
# Mechanical properties :
#
#
# Convention : Reuss Voigt Hill
#
# Bulk Modulus (GPa) = 40.20006 47.49253 43.84629
# Shear Modulus (GPa) = 33.66661 41.06193 37.36427
#
# Velocity S-wave (km/s) = 3.55509 3.92618 3.74523
# Velocity P-wave (km/s) = 5.65180 6.19534 5.92980
#
# Compressibility (1/GPa) = 0.02487559
#
# Stress axis : x y z
#
# Youngs Moduli (GPa) = 113.48834 64.86239 91.65421
#
# Poissons Ratio (x) = 0.19133 0.21473
# Poissons Ratio (y) = 0.33477 -0.01474
# Poissons Ratio (z) = 0.26589 -0.01043
#
# Static dielectric constant tensor:
#      x y z
#    x 2.092870 0.000000 -0.031250 
#    y 0.000000 2.113130 0.000000 
#    z -0.031250 0.000000 2.120620 
# 
# From -- ./inp_files/14745.got.cif
#   From: 2010.05.17/outbox.cif.g08.bks.cpg/sg13_8_cif.got.tgz:14745.got - 2010.06.03 16:44:36.
