data_PCOD9230930
_publ_section_title
;
Structure prediction by ZEFSAII (Michael W. Deem and Ramdas Pophale) SiO2 
 PCOD9230930
Probable space group: P 2/C
;
_chemical_formula_sum "Si O2"
_cell_formula_units_Z 18
_cell_length_a 11.642700
_cell_length_b 5.291499
_cell_length_c 13.559966
_cell_angle_alpha 90.000000
_cell_angle_beta 105.895475
_cell_angle_gamma 90.000000
_cell_volume 803.450389
_symmetry_space_group_name_H-M "P 2/C"
_symmetry_group_IT_number 13
_symmetry_cell_setting 'monoclinic'
loop_
_space_group_symop_operation_xyz
x,y,z
-x,y,1/2-z
-x,-y,-z
x,-y,1/2+z
loop_
_atom_site_type_symbol
_atom_site_label
_atom_site_fract_x
_atom_site_fract_y
_atom_site_fract_z
Si Si1 0.500000 0.082169 0.750000
Si Si2 0.573577 0.199091 0.083314
Si Si3 0.637187 0.440081 0.921222
Si Si4 0.857264 0.763685 0.919113
Si Si5 0.966736 0.746131 0.357171
O O1 0.600591 0.241582 0.830511
O O2 0.419044 0.930299 0.809532
O O3 0.490062 0.433326 0.089119
O O4 0.675099 0.301856 0.032842
O O5 0.500000 0.000000 0.000000
O O6 0.726015 0.658537 0.910064
O O7 0.916926 0.532814 0.871453
O O8 0.876159 0.028753 0.867924
O O9 0.923074 0.784356 0.040867
O O10 0.000000 0.765289 0.250000
#
# Coordination Sequence:
#
# PCOD9230930 Si02
#       5
#     2   4   4   4   4
#     4  10  20  38  60  90 136 176 218 270 318 396
#     4   9  20  38  59  83 137 168 211 270 314 388
#     4  10  21  40  60  96 128 178 217 268 332 397
#     4  10  23  42  71  96 134 170 222 280 335 402
#     4  10  22  46  67  99 132 168 221 287 340 401
#
# _framework density 22.403375
#
# number of rings (size 3 to 8) (size 9 to 14) (size 15 to 20)
#    0.000    2.222    0.000    1.333    6.222    0.000 
#   16.000    0.000    0.000    0.000    0.000    0.000 
#    0.000    0.000    0.000    0.000    0.000    0.000 
#
# Total GULP energy -100385.159172 kJ/mol
# GULP energy per Si atom -5576.953287 kJ/mol
# Density = 2.235238 g / cm^3
# Si number density = 22.403375 Si / 1000 Ang^3
#
#
#
# Elastic Constant Matrix: (Units=GPa)
#
#
# Indices 1 2 3 4 5 6 
#
# 1 51.4320 18.9287 48.0422 0.0000 -3.9727 0.0000
# 2 18.9287 113.5303 76.2922 0.0000 -5.9752 0.0000
# 3 48.0422 76.2922 188.0967 0.0000 -32.4108 0.0000
# 4 0.0000 0.0000 0.0000 33.0003 0.0000 2.7200
# 5 -3.9727 -5.9752 -32.4108 0.0000 12.0092 0.0000
# 6 0.0000 0.0000 0.0000 2.7200 0.0000 26.7198
#
#
#
# Elastic Compliance Matrix: (Units=1/GPa)
#
#
# Indices 1 2 3 4 5 6 
#
# 1 0.027862 0.002003 -0.011532 0.000000 -0.020908 0.000000
# 2 0.002003 0.013552 -0.008846 0.000000 -0.016468 0.000000
# 3 -0.011532 -0.008846 0.019504 0.000000 0.044422 0.000000
# 4 0.000000 0.000000 0.000000 0.030559 0.000000 -0.003111
# 5 -0.020908 -0.016468 0.044422 0.000000 0.188047 0.000000
# 6 0.000000 0.000000 0.000000 -0.003111 0.000000 0.037742
#
#
# Mechanical properties :
#
#
# Convention : Reuss Voigt Hill
#
# Bulk Modulus (GPa) = 41.37391 71.06503 56.21947
# Shear Modulus (GPa) = 13.80941 28.33224 21.07082
#
# Velocity S-wave (km/s) = 2.48543 3.56004 3.07012
# Velocity P-wave (km/s) = 5.17149 6.97768 6.14135
#
# Compressibility (1/GPa) = 0.02416982
#
# Stress axis : x y z
#
# Youngs Moduli (GPa) = 35.89056 73.78998 51.27148
#
# Poissons Ratio (x) = -0.14783 0.59124
# Poissons Ratio (y) = -0.07190 0.45355
# Poissons Ratio (z) = 0.41388 0.65275
#
# Static dielectric constant tensor:
#      x y z
#    x 1.824370 0.000000 0.048580 
#    y 0.000000 2.203590 0.000000 
#    z 0.048580 0.000000 1.838560 
# 
# From -- ./inp_files/31361.got.cif
#   From: 2010.05.17/outbox.cif.g08.bks.cpg/sg13_16_cif.got.tgz:31361.got - 2010.06.03 16:44:36.
