data_PCOD9230182
_publ_section_title
;
Structure prediction by ZEFSAII (Michael W. Deem and Ramdas Pophale) SiO2 
 PCOD9230182
Probable space group: P 2/C
;
_chemical_formula_sum "Si O2"
_cell_formula_units_Z 28
_cell_length_a 7.617373
_cell_length_b 15.808947
_cell_length_c 15.306028
_cell_angle_alpha 90.000000
_cell_angle_beta 142.868308
_cell_angle_gamma 90.000000
_cell_volume 1112.641360
_symmetry_space_group_name_H-M "P 2/C"
_symmetry_group_IT_number 13
_symmetry_cell_setting 'monoclinic'
loop_
_space_group_symop_operation_xyz
x,y,z
-x,y,1/2-z
-x,-y,-z
x,-y,1/2+z
loop_
_atom_site_type_symbol
_atom_site_label
_atom_site_fract_x
_atom_site_fract_y
_atom_site_fract_z
Si Si1 0.000000 0.485080 0.750000
Si Si2 0.070682 0.272926 0.949510
Si Si3 0.500000 0.500156 0.250000
Si Si4 0.454933 0.358458 0.845298
Si Si5 0.915259 0.068977 0.341854
Si Si6 0.620099 0.379288 0.142721
Si Si7 0.274223 0.087296 0.028549
Si Si8 0.948553 0.746220 0.606000
O O1 0.791531 0.419834 0.716049
O O2 0.757765 0.556320 0.626047
O O3 0.745508 0.291928 0.787574
O O4 0.289392 0.348304 0.008265
O O5 0.190945 0.182049 0.966300
O O6 0.059757 0.266238 0.050209
O O7 0.343697 0.571991 0.127358
O O8 0.654161 0.437039 0.244332
O O9 0.645505 0.303495 0.986167
O O10 0.617504 0.070365 0.169314
O O11 0.827408 0.077857 0.409902
O O12 0.085097 0.155283 0.389246
O O13 0.101393 0.984379 0.407572
O O14 0.805430 0.296224 0.237349
#
# Coordination Sequence:
#
# PCOD9230182 Si02
#       8
#     2   4   2   4   4   4   4   4
#     4  10  28  44  56  88 118 156 206 246 308 340
#     4  11  20  36  59  89 118 157 198 240 293 349
#     4  10  20  36  56  84 102 152 194 246 288 332
#     4  11  24  38  57  85 120 153 198 252 291 351
#     4   9  18  31  52  86 124 153 182 230 293 352
#     4  11  22  38  63  79 118 155 196 252 291 353
#     4   9  18  31  52  86 124 153 182 230 293 352
#     4  11  20  36  59  89 118 157 198 240 293 349
#
# _framework density 25.165343
#
# number of rings (size 3 to 8) (size 9 to 14) (size 15 to 20)
#    0.000    1.714    4.286    0.000    2.000    8.000 
#    0.000    0.000    0.000    0.000    0.000    6.000 
#    0.000    0.000    0.000    0.000    0.000    0.000 
#
# Total GULP energy -156324.521101 kJ/mol
# GULP energy per Si atom -5583.018611 kJ/mol
# Density = 2.510807 g / cm^3
# Si number density = 25.165343 Si / 1000 Ang^3
#
#
#
# Elastic Constant Matrix: (Units=GPa)
#
#
# Indices 1 2 3 4 5 6 
#
# 1 59.2374 28.4340 20.3197 0.0000 7.2109 0.0000
# 2 28.4340 200.8788 93.7321 0.0000 19.2450 0.0000
# 3 20.3197 93.7321 160.3427 0.0000 15.0584 0.0000
# 4 0.0000 0.0000 0.0000 39.7057 0.0000 9.6856
# 5 7.2109 19.2450 15.0584 0.0000 29.1762 0.0000
# 6 0.0000 0.0000 0.0000 9.6856 0.0000 25.9062
#
#
#
# Elastic Compliance Matrix: (Units=1/GPa)
#
#
# Indices 1 2 3 4 5 6 
#
# 1 0.018464 -0.001891 -0.000970 0.000000 -0.002815 0.000000
# 2 -0.001891 0.007228 -0.003764 0.000000 -0.002358 0.000000
# 3 -0.000970 -0.003764 0.008727 0.000000 -0.001782 0.000000
# 4 0.000000 0.000000 0.000000 0.027713 0.000000 -0.010361
# 5 -0.002815 -0.002358 -0.001782 0.000000 0.037445 0.000000
# 6 0.000000 0.000000 0.000000 -0.010361 0.000000 0.042475
#
#
# Mechanical properties :
#
#
# Convention : Reuss Voigt Hill
#
# Bulk Modulus (GPa) = 47.23901 78.38117 62.81009
# Shear Modulus (GPa) = 30.79583 37.48915 34.14249
#
# Velocity S-wave (km/s) = 3.50199 3.86387 3.68737
# Velocity P-wave (km/s) = 5.92994 7.14983 6.56827
#
# Compressibility (1/GPa) = 0.02116894
#
# Stress axis : x y z
#
# Youngs Moduli (GPa) = 54.15804 138.34776 114.58164
#
# Poissons Ratio (x) = 0.26166 0.11114
# Poissons Ratio (y) = 0.10243 0.43132
# Poissons Ratio (z) = 0.05253 0.52078
#
# Static dielectric constant tensor:
#      x y z
#    x 2.233230 0.000000 -0.043920 
#    y 0.000000 1.931980 0.000000 
#    z -0.043920 0.000000 1.938320 
# 
# From -- ./inp_files/76778.got.cif
#   From: 2010.05.17/outbox.cif.g08.bks.cpg/sg13_39_cif.got.tgz:76778.got - 2010.06.03 16:44:36.
