data_PCOD9230786
_publ_section_title
;
Structure prediction by ZEFSAII (Michael W. Deem and Ramdas Pophale) SiO2 
 PCOD9230786
Probable space group: P 2/C
;
_chemical_formula_sum "Si O2"
_cell_formula_units_Z 24
_cell_length_a 8.262775
_cell_length_b 8.042560
_cell_length_c 22.870525
_cell_angle_alpha 90.000000
_cell_angle_beta 127.607943
_cell_angle_gamma 90.000000
_cell_volume 1204.020766
_symmetry_space_group_name_H-M "P 2/C"
_symmetry_group_IT_number 13
_symmetry_cell_setting 'monoclinic'
loop_
_space_group_symop_operation_xyz
x,y,z
-x,y,1/2-z
-x,-y,-z
x,-y,1/2+z
loop_
_atom_site_type_symbol
_atom_site_label
_atom_site_fract_x
_atom_site_fract_y
_atom_site_fract_z
Si Si1 0.500000 0.840663 0.250000
Si Si2 0.509393 0.607289 0.356142
Si Si3 0.056260 0.220382 0.139901
Si Si4 0.114668 0.459893 0.836054
Si Si5 0.952649 0.696804 0.488667
Si Si6 0.500000 0.654469 0.750000
Si Si7 0.964834 0.134310 0.870609
O O1 0.425898 0.739302 0.290864
O O2 0.279622 0.905358 0.180585
O O3 0.349746 0.558266 0.370219
O O4 0.707877 0.687544 0.428850
O O5 0.548854 0.456182 0.318709
O O6 0.289324 0.247290 0.213761
O O7 0.934182 0.382701 0.134394
O O8 0.956163 0.043589 0.134559
O O9 0.043291 0.224300 0.066837
O O10 0.000000 0.491240 0.750000
O O11 0.027451 0.290073 0.844409
O O12 0.027312 0.799523 0.448614
O O13 0.000000 0.500000 0.500000
#
# Coordination Sequence:
#
# PCOD9230786 Si02
#       7
#     2   4   4   4   4   2   4
#     4   9  17  38  62  87 119 164 203 253 296 349
#     4  10  20  37  65  89 120 165 205 245 304 370
#     4  12  24  40  65  96 120 162 208 256 304 365
#     4  12  22  40  62  90 131 164 196 253 314 363
#     4  11  21  43  67  88 121 167 207 251 307 357
#     4  11  19  38  64  93 119 156 217 253 294 359
#     4  11  23  40  64  92 127 159 207 256 304 360
#
# _framework density 19.933209999999999
#
# number of rings (size 3 to 8) (size 9 to 14) (size 15 to 20)
#    0.000    1.000    6.667    2.000    0.000    1.333 
#    0.000    0.833    0.000    0.000    0.000    0.000 
#    0.000    0.000    0.000    0.000    0.000    0.000 
#
# Total GULP energy -133627.739710 kJ/mol
# GULP energy per Si atom -5567.822488 kJ/mol
# Density = 1.988784 g / cm^3
# Si number density = 19.933210 Si / 1000 Ang^3
#
#
#
# Elastic Constant Matrix: (Units=GPa)
#
#
# Indices 1 2 3 4 5 6 
#
# 1 66.0419 8.8960 -5.2657 0.0000 0.0579 0.0000
# 2 8.8960 106.8746 -9.4234 0.0000 -4.6988 0.0000
# 3 -5.2657 -9.4234 74.5524 0.0000 -1.8244 0.0000
# 4 0.0000 0.0000 0.0000 7.2867 0.0000 6.5017
# 5 0.0579 -4.6988 -1.8244 0.0000 22.0228 0.0000
# 6 0.0000 0.0000 0.0000 6.5017 0.0000 -3.2230
#
#
#
# Elastic Compliance Matrix: (Units=1/GPa)
#
#
# Indices 1 2 3 4 5 6 
#
# 1 0.015379 -0.001208 0.000928 0.000000 -0.000221 0.000000
# 2 -0.001208 0.009657 0.001188 0.000000 0.002162 0.000000
# 3 0.000928 0.001188 0.013663 0.000000 0.001383 0.000000
# 4 0.000000 0.000000 0.000000 0.049013 0.000000 0.098874
# 5 -0.000221 0.002162 0.001383 0.000000 0.045984 0.000000
# 6 0.000000 0.000000 0.000000 0.098874 0.000000 -0.110812
#
#
# Mechanical properties :
#
#
# Convention : Reuss Voigt Hill
#
# Bulk Modulus (GPa) = 24.68180 26.20918 25.44549
# Shear Modulus (GPa) = 144.62184 22.10143 83.36163
#
# Velocity S-wave (km/s) = 8.52706 3.33344 6.47389
# Velocity P-wave (km/s) = 10.45738 5.29082 8.28702
#
# Compressibility (1/GPa) = 0.04051568
#
# Stress axis : x y z
#
# Youngs Moduli (GPa) = 65.02455 103.55033 73.19045
#
# Poissons Ratio (x) = 0.12509 -0.06793
# Poissons Ratio (y) = 0.07855 -0.08697
# Poissons Ratio (z) = -0.06035 -0.12304
#
# Static dielectric constant tensor:
#      x y z
#    x 1.771260 0.000000 0.090870 
#    y 0.000000 1.794630 0.000000 
#    z 0.090870 0.000000 1.814120 
# 
# From -- ./inp_files/69545.got.cif
#   From: 2010.05.17/outbox.cif.g08.bks.cpg/sg13_35_cif.got.tgz:69545.got - 2010.06.03 16:44:36.
