data_PCOD9230398
_publ_section_title
;
Structure prediction by ZEFSAII (Michael W. Deem and Ramdas Pophale) SiO2 
 PCOD9230398
Probable space group: P 2/C
;
_chemical_formula_sum "Si O2"
_cell_formula_units_Z 22
_cell_length_a 15.859111
_cell_length_b 9.504011
_cell_length_c 7.801725
_cell_angle_alpha 90.000000
_cell_angle_beta 132.205406
_cell_angle_gamma 90.000000
_cell_volume 871.049662
_symmetry_space_group_name_H-M "P 2/C"
_symmetry_group_IT_number 13
_symmetry_cell_setting 'monoclinic'
loop_
_space_group_symop_operation_xyz
x,y,z
-x,y,1/2-z
-x,-y,-z
x,-y,1/2+z
loop_
_atom_site_type_symbol
_atom_site_label
_atom_site_fract_x
_atom_site_fract_y
_atom_site_fract_z
Si Si1 0.386728 0.790723 0.702920
Si Si2 0.925132 0.136306 0.393005
Si Si3 0.305545 0.990351 0.303382
Si Si4 0.244758 0.725466 0.042463
Si Si5 0.753448 0.554561 0.811119
Si Si6 0.000000 0.360189 0.750000
O O1 0.500000 0.767702 0.750000
O O2 0.310132 0.893064 0.478832
O O3 0.329157 0.646806 0.683400
O O4 0.398729 0.891010 0.887296
O O5 0.878242 0.200806 0.152050
O O6 0.996736 0.257134 0.583550
O O7 0.810736 0.084546 0.340446
O O8 0.000000 0.000000 0.500000
O O9 0.315958 0.865067 0.176693
O O10 0.254631 0.633272 0.882247
O O11 0.270744 0.610848 0.222530
O O12 0.881966 0.559268 0.064509
#
# Coordination Sequence:
#
# PCOD9230398 Si02
#       6
#     4   4   4   4   4   2
#     4  12  24  44  70  99 136 179 232 287 342 408
#     4  11  21  37  67  99 137 175 227 275 343 395
#     4  12  22  44  67 101 134 176 233 285 342 405
#     4  11  24  43  69  98 146 179 227 285 335 421
#     4  11  24  44  63 101 136 184 227 271 352 405
#     4  10  20  36  62  88 136 174 214 272 320 412
#
# _framework density 25.256885
#
# number of rings (size 3 to 8) (size 9 to 14) (size 15 to 20)
#    0.000    0.727    5.455    3.818    0.000    4.364 
#    0.000    4.545    0.000    0.000    0.000    0.000 
#    0.000    0.000    0.000    0.000    0.000    0.000 
#
# Total GULP energy -122841.852396 kJ/mol
# GULP energy per Si atom -5583.720563 kJ/mol
# Density = 2.519940 g / cm^3
# Si number density = 25.256885 Si / 1000 Ang^3
#
#
#
# Elastic Constant Matrix: (Units=GPa)
#
#
# Indices 1 2 3 4 5 6 
#
# 1 110.4760 36.3183 -0.2368 0.0000 11.8921 0.0000
# 2 36.3183 187.5308 9.2226 0.0000 2.3531 0.0000
# 3 -0.2368 9.2226 40.2587 0.0000 -10.0912 0.0000
# 4 0.0000 0.0000 0.0000 34.5083 0.0000 -13.0043
# 5 11.8921 2.3531 -10.0912 0.0000 30.1454 0.0000
# 6 0.0000 0.0000 0.0000 -13.0043 0.0000 32.5772
#
#
#
# Elastic Compliance Matrix: (Units=1/GPa)
#
#
# Indices 1 2 3 4 5 6 
#
# 1 0.010101 -0.001880 -0.000515 0.000000 -0.004010 0.000000
# 2 -0.001880 0.005766 -0.001374 0.000000 -0.000168 0.000000
# 3 -0.000515 -0.001374 0.027540 0.000000 0.009529 0.000000
# 4 0.000000 0.000000 0.000000 0.034110 0.000000 0.013616
# 5 -0.004010 -0.000168 0.009529 0.000000 0.037958 0.000000
# 6 0.000000 0.000000 0.000000 0.013616 0.000000 0.036132
#
#
# Mechanical properties :
#
#
# Convention : Reuss Voigt Hill
#
# Bulk Modulus (GPa) = 27.88064 47.65267 37.76665
# Shear Modulus (GPa) = 29.22259 38.97696 34.09977
#
# Velocity S-wave (km/s) = 3.40518 3.93265 3.67838
# Velocity P-wave (km/s) = 5.15006 6.28722 5.74684
#
# Compressibility (1/GPa) = 0.03586719
#
# Stress axis : x y z
#
# Youngs Moduli (GPa) = 99.00496 173.42032 36.31115
#
# Poissons Ratio (x) = 0.32611 0.01870
# Poissons Ratio (y) = 0.18618 0.04990
# Poissons Ratio (z) = 0.05099 0.23832
#
# Static dielectric constant tensor:
#      x y z
#    x 2.063150 0.000000 -0.110650 
#    y 0.000000 1.950820 0.000000 
#    z -0.110650 0.000000 2.208630 
# 
# From -- ./inp_files/21258.got.cif
#   From: 2010.05.17/outbox.cif.g08.bks.cpg/sg13_11_cif.got.tgz:21258.got - 2010.06.03 16:44:36.
