data_PCOD9230973
_publ_section_title
;
Structure prediction by ZEFSAII (Michael W. Deem and Ramdas Pophale) SiO2 
 PCOD9230973
Probable space group: P 2/C
;
_chemical_formula_sum "Si O2"
_cell_formula_units_Z 18
_cell_length_a 9.694721
_cell_length_b 9.622659
_cell_length_c 8.491530
_cell_angle_alpha 90.000000
_cell_angle_beta 72.296742
_cell_angle_gamma 90.000000
_cell_volume 754.652618
_symmetry_space_group_name_H-M "P 2/C"
_symmetry_group_IT_number 13
_symmetry_cell_setting 'monoclinic'
loop_
_space_group_symop_operation_xyz
x,y,z
-x,y,1/2-z
-x,-y,-z
x,-y,1/2+z
loop_
_atom_site_type_symbol
_atom_site_label
_atom_site_fract_x
_atom_site_fract_y
_atom_site_fract_z
Si Si1 0.000000 0.804698 0.750000
Si Si2 0.739553 0.365032 0.499927
Si Si3 0.827725 0.647456 0.328149
Si Si4 0.202639 0.910509 0.937851
Si Si5 0.377836 0.886588 0.571952
O O1 0.934213 0.896065 0.630943
O O2 0.125707 0.702436 0.643302
O O3 0.747307 0.525744 0.451628
O O4 0.764493 0.346482 0.675563
O O5 0.603370 0.270770 0.493689
O O6 0.810800 0.790954 0.427631
O O7 0.000000 0.618497 0.250000
O O8 0.332174 0.883950 0.769005
O O9 0.245399 0.050267 0.012870
O O10 0.500000 0.000000 0.500000
#
# Coordination Sequence:
#
# PCOD9230973 Si02
#       5
#     2   4   4   4   4
#     4  10  20  38  62 102 134 174 222 282 362 422
#     4  11  22  39  68 102 141 183 226 284 357 419
#     4  12  22  41  68 109 149 178 221 289 363 433
#     4  11  24  41  68  99 138 182 231 288 360 419
#     4  11  25  47  67  94 137 191 245 293 335 404
#
# _framework density 23.852035999999998
#
# number of rings (size 3 to 8) (size 9 to 14) (size 15 to 20)
#    0.000    0.889    3.333    5.333    0.000    3.556 
#   10.000    1.111    0.000    5.333    0.000    0.000 
#    0.000    0.000    0.000    0.000    0.000    0.000 
#
# Total GULP energy -100751.139612 kJ/mol
# GULP energy per Si atom -5597.285534 kJ/mol
# Density = 2.379775 g / cm^3
# Si number density = 23.852036 Si / 1000 Ang^3
#
#
#
# Elastic Constant Matrix: (Units=GPa)
#
#
# Indices 1 2 3 4 5 6 
#
# 1 52.1640 -7.0126 -3.6068 0.0000 -8.7316 0.0000
# 2 -7.0126 92.9432 17.2568 0.0000 1.1428 0.0000
# 3 -3.6068 17.2568 139.5442 0.0000 19.9595 0.0000
# 4 0.0000 0.0000 0.0000 43.6167 0.0000 -20.7526
# 5 -8.7316 1.1428 19.9595 0.0000 26.0442 0.0000
# 6 0.0000 0.0000 0.0000 -20.7526 0.0000 27.8216
#
#
#
# Elastic Compliance Matrix: (Units=1/GPa)
#
#
# Indices 1 2 3 4 5 6 
#
# 1 0.020570 0.001595 -0.000721 0.000000 0.007379 0.000000
# 2 0.001595 0.011145 -0.001509 0.000000 0.001202 0.000000
# 3 -0.000721 -0.001509 0.008265 0.000000 -0.006510 0.000000
# 4 0.000000 0.000000 0.000000 0.035540 0.000000 0.026510
# 5 0.007379 0.001202 -0.006510 0.000000 0.045806 0.000000
# 6 0.000000 0.000000 0.000000 0.026510 0.000000 0.055718
#
#
# Mechanical properties :
#
#
# Convention : Reuss Voigt Hill
#
# Bulk Modulus (GPa) = 25.83270 33.10292 29.46781
# Shear Modulus (GPa) = 26.14821 38.03077 32.08949
#
# Velocity S-wave (km/s) = 3.31458 3.99738 3.67189
# Velocity P-wave (km/s) = 5.05000 5.93414 5.50983
#
# Compressibility (1/GPa) = 0.03871063
#
# Stress axis : x y z
#
# Youngs Moduli (GPa) = 48.61438 89.72628 120.98820
#
# Poissons Ratio (x) = -0.14313 0.08724
# Poissons Ratio (y) = -0.07755 0.18257
# Poissons Ratio (z) = 0.03505 0.13539
#
# Static dielectric constant tensor:
#      x y z
#    x 2.066500 0.000000 -0.052220 
#    y 0.000000 1.864820 0.000000 
#    z -0.052220 0.000000 1.860050 
# 
# From -- ./inp_files/14498.got.cif
#   From: 2010.05.17/outbox.cif.g08.bks.cpg/sg13_8_cif.got.tgz:14498.got - 2010.06.03 16:44:36.
