data_PCOD9230295
_publ_section_title
;
Structure prediction by ZEFSAII (Michael W. Deem and Ramdas Pophale) SiO2 
 PCOD9230295
Probable space group: P 2/C
;
_chemical_formula_sum "Si O2"
_cell_formula_units_Z 26
_cell_length_a 24.663407
_cell_length_b 8.676281
_cell_length_c 11.279339
_cell_angle_alpha 90.000000
_cell_angle_beta 30.809628
_cell_angle_gamma 90.000000
_cell_volume 1236.229342
_symmetry_space_group_name_H-M "P 2/C"
_symmetry_group_IT_number 13
_symmetry_cell_setting 'monoclinic'
loop_
_space_group_symop_operation_xyz
x,y,z
-x,y,1/2-z
-x,-y,-z
x,-y,1/2+z
loop_
_atom_site_type_symbol
_atom_site_label
_atom_site_fract_x
_atom_site_fract_y
_atom_site_fract_z
Si Si1 0.851959 0.391280 0.984093
Si Si2 0.525169 0.223690 0.368269
Si Si3 0.043631 0.338186 0.474842
Si Si4 0.358209 0.254090 0.113060
Si Si5 0.327300 0.911805 0.110568
Si Si6 0.110605 0.758637 0.607416
Si Si7 0.500000 0.494542 0.750000
O O1 0.865208 0.361549 0.099259
O O2 0.742398 0.333787 0.138668
O O3 0.867209 0.574804 0.946261
O O4 0.941696 0.297046 0.744944
O O5 0.555235 0.222754 0.448353
O O6 0.416445 0.136702 0.540258
O O7 0.507427 0.394530 0.349105
O O8 0.621004 0.152888 0.108304
O O9 0.084315 0.226098 0.296347
O O10 0.000000 0.500000 0.500000
O O11 0.325999 0.095880 0.112280
O O12 0.401298 0.381617 0.943029
O O13 0.212974 0.845006 0.362615
O O14 0.000000 0.794683 0.750000
#
# Coordination Sequence:
#
# PCOD9230295 Si02
#       7
#     4   4   4   4   4   4   2
#     4  10  20  36  59  93 118 163 218 263 324 365
#     4  10  23  45  67  90 132 169 211 264 320 398
#     4   9  18  36  58  83 121 157 212 265 308 364
#     4  12  24  39  67  96 131 165 208 276 320 386
#     4  10  24  42  60  95 129 174 212 249 331 393
#     4  11  21  38  64  89 122 172 217 262 315 381
#     4  10  22  40  64 100 116 158 222 262 320 380
#
# _framework density 21.031697000000001
#
# number of rings (size 3 to 8) (size 9 to 14) (size 15 to 20)
#    0.000    1.846    3.077    3.692    2.154    4.923 
#    2.769    0.769    0.000    0.000    0.000    0.000 
#    0.000    0.000    0.000    0.000    0.000    0.000 
#
# Total GULP energy -145022.672990 kJ/mol
# GULP energy per Si atom -5577.795115 kJ/mol
# Density = 2.098383 g / cm^3
# Si number density = 21.031697 Si / 1000 Ang^3
#
#
#
# Elastic Constant Matrix: (Units=GPa)
#
#
# Indices 1 2 3 4 5 6 
#
# 1 41.7251 9.8515 9.5428 0.0000 0.4972 0.0000
# 2 9.8515 99.8731 48.2520 0.0000 -6.9707 0.0000
# 3 9.5428 48.2520 109.4054 0.0000 -20.7767 0.0000
# 4 0.0000 0.0000 0.0000-8970.5263 0.0000 539.9442
# 5 0.4972 -6.9707 -20.7767 0.0000 30.3435 0.0000
# 6 0.0000 0.0000 0.0000 539.9442 0.0000 -29.3879
#
#
#
# Elastic Compliance Matrix: (Units=1/GPa)
#
#
# Indices 1 2 3 4 5 6 
#
# 1 0.024807 -0.001725 -0.001788 0.000000 -0.002027 0.000000
# 2 -0.001725 0.012873 -0.005702 0.000000 -0.000918 0.000000
# 3 -0.001788 -0.005702 0.013297 0.000000 0.007824 0.000000
# 4 0.000000 0.000000 0.000000 0.001053 0.000000 0.019343
# 5 -0.002027 -0.000918 0.007824 0.000000 0.038135 0.000000
# 6 0.000000 0.000000 0.000000 0.019343 0.000000 0.321353
#
#
# Mechanical properties :
#
#
# Convention : Reuss Voigt Hill
#
# Bulk Modulus (GPa) = 30.72362 42.92179 36.82270
# Shear Modulus (GPa) = 11.34312 -1781.69032 -885.17360
#
# Velocity S-wave (km/s) = 2.32488 -29.13734 -20.53752
# Velocity P-wave (km/s) = 4.67404 33.33957 23.34181
#
# Compressibility (1/GPa) = 0.03254825
#
# Stress axis : x y z
#
# Youngs Moduli (GPa) = 40.31177 77.67979 75.20631
#
# Poissons Ratio (x) = 0.13396 0.13448
# Poissons Ratio (y) = 0.06952 0.42880
# Poissons Ratio (z) = 0.07208 0.44290
#
# Static dielectric constant tensor:
#      x y z
#    x 1.771430 0.000000 0.090190 
#    y 0.000000 1.756670 0.000000 
#    z 0.090190 0.000000 1.499270 
# 
# From -- ./inp_files/42264.got.cif
#   From: 2010.05.17/outbox.cif.g08.bks.cpg/sg13_22_cif.got.tgz:42264.got - 2010.06.03 16:44:36.
