data_PCOD9230318
_publ_section_title
;
Structure prediction by ZEFSAII (Michael W. Deem and Ramdas Pophale) SiO2 
 PCOD9230318
Probable space group: P 2/C
;
_chemical_formula_sum "Si O2"
_cell_formula_units_Z 22
_cell_length_a 6.943032
_cell_length_b 16.058746
_cell_length_c 9.142186
_cell_angle_alpha 90.000000
_cell_angle_beta 102.491309
_cell_angle_gamma 90.000000
_cell_volume 995.192195
_symmetry_space_group_name_H-M "P 2/C"
_symmetry_group_IT_number 13
_symmetry_cell_setting 'monoclinic'
loop_
_space_group_symop_operation_xyz
x,y,z
-x,y,1/2-z
-x,-y,-z
x,-y,1/2+z
loop_
_atom_site_type_symbol
_atom_site_label
_atom_site_fract_x
_atom_site_fract_y
_atom_site_fract_z
Si Si1 0.245301 0.907028 0.121566
Si Si2 0.234518 0.925139 0.454324
Si Si3 0.776468 0.759103 0.889474
Si Si4 0.419493 0.382878 0.972163
Si Si5 0.752094 0.261042 0.047722
Si Si6 0.500000 0.497328 0.750000
O O1 0.307951 0.913599 0.300799
O O2 0.004814 0.915093 0.088780
O O3 0.305673 0.820417 0.055513
O O4 0.294838 0.986336 0.029880
O O5 0.287077 0.850907 0.572326
O O6 0.701231 0.697515 0.002457
O O7 0.703304 0.744903 0.712389
O O8 0.011298 0.742376 0.923114
O O9 0.639237 0.344853 0.981207
O O10 0.410296 0.443221 0.111435
O O11 0.361070 0.436673 0.822386
#
# Coordination Sequence:
#
# PCOD9230318 Si02
#       6
#     4   4   4   4   4   2
#     4   9  17  30  51  82 119 156 194 234 276 328
#     4   9  17  30  51  82 119 156 194 234 276 328
#     4  10  20  36  60  87 117 154 193 233 282 337
#     4  11  22  44  61  86 114 150 184 242 289 352
#     4  10  20  36  60  87 117 154 193 233 282 337
#     4  10  24  42  66  82 114 148 188 232 306 350
#
# _framework density 22.106280000000002
#
# number of rings (size 3 to 8) (size 9 to 14) (size 15 to 20)
#    0.000    2.182    1.818    1.091    2.545    4.364 
#    0.000    6.364    0.000    0.000    0.000    0.000 
#    0.000    0.000    0.000    0.000    0.000    0.000 
#
# Total GULP energy -122828.543936 kJ/mol
# GULP energy per Si atom -5583.115633 kJ/mol
# Density = 2.205597 g / cm^3
# Si number density = 22.106280 Si / 1000 Ang^3
#
#
#
# Elastic Constant Matrix: (Units=GPa)
#
#
# Indices 1 2 3 4 5 6 
#
# 1 61.3303 1.5557 22.9848 0.0000 -10.2644 0.0000
# 2 1.5557 108.1186 48.6091 0.0000 -6.1787 0.0000
# 3 22.9848 48.6091 79.3087 0.0000 -16.3732 0.0000
# 4 0.0000 0.0000 0.0000 41.7162 0.0000 -25.3259
# 5 -10.2644 -6.1787 -16.3732 0.0000 27.5723 0.0000
# 6 0.0000 0.0000 0.0000 -25.3259 0.0000 1.9090
#
#
#
# Elastic Compliance Matrix: (Units=1/GPa)
#
#
# Indices 1 2 3 4 5 6 
#
# 1 0.019356 0.002902 -0.006572 0.000000 0.003953 0.000000
# 2 0.002902 0.013303 -0.009296 0.000000 -0.001459 0.000000
# 3 -0.006572 -0.009296 0.021970 0.000000 0.008516 0.000000
# 4 0.000000 0.000000 0.000000 -0.003398 0.000000 -0.045083
# 5 0.003953 -0.001459 0.008516 0.000000 0.042470 0.000000
# 6 0.000000 0.000000 0.000000 -0.045083 0.000000 -0.074259
#
#
# Mechanical properties :
#
#
# Convention : Reuss Voigt Hill
#
# Bulk Modulus (GPa) = 34.84693 43.89520 39.37107
# Shear Modulus (GPa) = 91.00804 25.94668 58.47736
#
# Velocity S-wave (km/s) = 6.42322 3.42968 5.14881
# Velocity P-wave (km/s) = 8.41475 5.96516 7.29353
#
# Compressibility (1/GPa) = 0.02869693
#
# Stress axis : x y z
#
# Youngs Moduli (GPa) = 51.66276 75.16878 45.51760
#
# Poissons Ratio (x) = -0.21816 0.29916
# Poissons Ratio (y) = -0.14994 0.42313
# Poissons Ratio (z) = 0.33955 0.69877
#
# Static dielectric constant tensor:
#      x y z
#    x 1.888820 0.000000 0.013150 
#    y 0.000000 1.770460 0.000000 
#    z 0.013150 0.000000 1.777780 
# 
# From -- ./inp_files/12366.got.cif
#   From: 2010.05.17/outbox.cif.g08.bks.cpg/sg13_7_cif.got.tgz:12366.got - 2010.06.03 16:44:36.
