data_PCOD9230760
_publ_section_title
;
Structure prediction by ZEFSAII (Michael W. Deem and Ramdas Pophale) SiO2 
 PCOD9230760
Probable space group: P 2/C
;
_chemical_formula_sum "Si O2"
_cell_formula_units_Z 28
_cell_length_a 12.423785
_cell_length_b 9.016115
_cell_length_c 15.086007
_cell_angle_alpha 90.000000
_cell_angle_beta 55.882407
_cell_angle_gamma 90.000000
_cell_volume 1399.005236
_symmetry_space_group_name_H-M "P 2/C"
_symmetry_group_IT_number 13
_symmetry_cell_setting 'monoclinic'
loop_
_space_group_symop_operation_xyz
x,y,z
-x,y,1/2-z
-x,-y,-z
x,-y,1/2+z
loop_
_atom_site_type_symbol
_atom_site_label
_atom_site_fract_x
_atom_site_fract_y
_atom_site_fract_z
Si Si1 0.656775 0.994721 0.766648
Si Si2 0.899220 0.613380 0.865510
Si Si3 0.500000 0.237236 0.750000
Si Si4 0.500000 0.735307 0.750000
Si Si5 0.135796 0.942421 0.975879
Si Si6 0.153279 0.067453 0.160635
Si Si7 0.907463 0.371312 0.077668
Si Si8 0.688284 0.493480 0.603188
O O1 0.581116 0.842992 0.777617
O O2 0.757237 0.006207 0.639329
O O3 0.558449 0.130943 0.799263
O O4 0.744521 0.989551 0.813856
O O5 0.000000 0.533010 0.750000
O O6 0.006313 0.687905 0.882058
O O7 0.831277 0.754144 0.851976
O O8 0.790338 0.527439 0.974120
O O9 0.610935 0.343443 0.658247
O O10 0.586163 0.627721 0.647908
O O11 0.125953 0.764711 0.970510
O O12 0.172633 0.994085 0.056230
O O13 0.000000 0.000000 0.000000
O O14 0.000000 0.037435 0.250000
O O15 0.773515 0.459420 0.150605
O O16 0.000000 0.500000 0.000000
#
# Coordination Sequence:
#
# PCOD9230760 Si02
#       8
#     4   4   2   2   4   4   4   4
#     4  11  23  43  68  96 130 177 230 273 331 393
#     4  10  20  37  64 100 131 165 213 284 342 385
#     4  10  24  42  68  94 134 182 226 272 310 406
#     4  10  22  42  70  88 132 188 224 258 326 408
#     4  12  20  38  68  96 130 166 218 284 334 385
#     4  11  22  36  67 102 131 167 222 281 342 392
#     4  10  21  37  65  92 126 171 211 272 338 389
#     4  10  21  42  67  93 125 183 225 257 336 402
#
# _framework density 20.014222
#
# number of rings (size 3 to 8) (size 9 to 14) (size 15 to 20)
#    0.000    1.429    4.286    1.714    2.000    0.000 
#    0.000   12.857    3.143    0.000    0.000    0.000 
#    0.000    0.000    0.000    0.000    0.000    0.000 
#
# Total GULP energy -155923.391996 kJ/mol
# GULP energy per Si atom -5568.692571 kJ/mol
# Density = 1.996867 g / cm^3
# Si number density = 20.014222 Si / 1000 Ang^3
#
#
#
# Elastic Constant Matrix: (Units=GPa)
#
#
# Indices 1 2 3 4 5 6 
#
# 1 145.0590 55.3672 46.1743 0.0000 6.2358 0.0000
# 2 55.3672 108.0048 38.7234 0.0000 -7.8345 0.0000
# 3 46.1743 38.7234 109.3456 0.0000 -1.2863 0.0000
# 4 0.0000 0.0000 0.0000 18.9956 0.0000 -15.6813
# 5 6.2358 -7.8345 -1.2863 0.0000 36.3312 0.0000
# 6 0.0000 0.0000 0.0000 -15.6813 0.0000 29.1810
#
#
#
# Elastic Compliance Matrix: (Units=1/GPa)
#
#
# Indices 1 2 3 4 5 6 
#
# 1 0.009371 -0.004079 -0.002543 0.000000 -0.002578 0.000000
# 2 -0.004079 0.012552 -0.002684 0.000000 0.003312 0.000000
# 3 -0.002543 -0.002684 0.011173 0.000000 0.000253 0.000000
# 4 0.000000 0.000000 0.000000 0.094619 0.000000 0.050846
# 5 -0.002578 0.003312 0.000253 0.000000 0.028690 0.000000
# 6 0.000000 0.000000 0.000000 0.050846 0.000000 0.061593
#
#
# Mechanical properties :
#
#
# Convention : Reuss Voigt Hill
#
# Bulk Modulus (GPa) = 69.04061 71.43768 70.23915
# Shear Modulus (GPa) = 20.70930 31.71119 26.21024
#
# Velocity S-wave (km/s) = 3.22021 3.98481 3.62274
# Velocity P-wave (km/s) = 6.95680 7.54603 7.25740
#
# Compressibility (1/GPa) = 0.01448423
#
# Stress axis : x y z
#
# Youngs Moduli (GPa) = 106.71225 79.66559 89.50522
#
# Poissons Ratio (x) = 0.32497 0.22760
# Poissons Ratio (y) = 0.43530 0.24021
# Poissons Ratio (z) = 0.27136 0.21380
#
# Static dielectric constant tensor:
#      x y z
#    x 1.437770 0.000000 0.117950 
#    y 0.000000 1.745720 0.000000 
#    z 0.117950 0.000000 1.714540 
# 
# From -- ./inp_files/50271.got.cif
#   From: 2010.05.17/outbox.cif.g08.bks.cpg/sg13_26_cif.got.tgz:50271.got - 2010.06.03 16:44:36.
