data_PCOD9230369
_publ_section_title
;
Structure prediction by ZEFSAII (Michael W. Deem and Ramdas Pophale) SiO2 
 PCOD9230369
Probable space group: P 2/C
;
_chemical_formula_sum "Si O2"
_cell_formula_units_Z 30
_cell_length_a 25.115941
_cell_length_b 8.453097
_cell_length_c 12.531510
_cell_angle_alpha 90.000000
_cell_angle_beta 143.627229
_cell_angle_gamma 90.000000
_cell_volume 1577.792885
_symmetry_space_group_name_H-M "P 2/C"
_symmetry_group_IT_number 13
_symmetry_cell_setting 'monoclinic'
loop_
_space_group_symop_operation_xyz
x,y,z
-x,y,1/2-z
-x,-y,-z
x,-y,1/2+z
loop_
_atom_site_type_symbol
_atom_site_label
_atom_site_fract_x
_atom_site_fract_y
_atom_site_fract_z
Si Si1 0.705548 0.163193 0.375056
Si Si2 0.335173 0.197536 0.740688
Si Si3 0.525748 0.323669 0.005273
Si Si4 0.208043 0.387674 0.381084
Si Si5 0.685440 0.338897 0.556545
Si Si6 0.041209 0.362111 0.991089
Si Si7 0.500000 0.522484 0.250000
Si Si8 0.125356 0.647301 0.400710
O O1 0.710691 0.204645 0.509923
O O2 0.793516 0.231021 0.459745
O O3 0.691933 0.983171 0.319996
O O4 0.619033 0.261890 0.198360
O O5 0.442394 0.214933 0.902586
O O6 0.286333 0.292106 0.566034
O O7 0.310550 0.272662 0.816504
O O8 0.531017 0.355510 0.889659
O O9 0.500000 0.500000 0.000000
O O10 0.249962 0.511525 0.363691
O O11 0.164553 0.496781 0.402368
O O12 0.125051 0.293075 0.193543
O O13 0.585315 0.406950 0.370823
O O14 0.086572 0.408010 0.951346
O O15 0.952363 0.277399 0.800985
O O16 0.000000 0.500000 0.000000
#
# Coordination Sequence:
#
# PCOD9230369 Si02
#       8
#     4   4   4   4   4   4   2   4
#     4  11  25  40  59  90 133 169 207 258 325 385
#     4  12  24  39  61  93 131 166 209 260 319 387
#     4  12  22  39  61  89 118 167 213 261 307 371
#     4  10  20  36  61  91 117 161 213 263 312 369
#     4  11  22  39  60  88 126 162 209 265 308 378
#     4   9  18  34  62  91 118 152 212 270 312 360
#     4  12  22  36  66  86 118 160 216 256 314 354
#     4   9  19  37  59  88 122 162 206 265 316 369
#
# _framework density 19.013902999999999
#
# number of rings (size 3 to 8) (size 9 to 14) (size 15 to 20)
#    0.000    1.333    4.000    2.000    1.867    2.133 
#    0.000    0.667    0.000   14.400    0.000    0.000 
#    0.000    0.000    0.000    0.000    0.000    0.000 
#
# Total GULP energy -167114.978180 kJ/mol
# GULP energy per Si atom -5570.499273 kJ/mol
# Density = 1.897063 g / cm^3
# Si number density = 19.013903 Si / 1000 Ang^3
#
#
#
# Elastic Constant Matrix: (Units=GPa)
#
#
# Indices 1 2 3 4 5 6 
#
# 1 90.2570 35.2226 24.6680 0.0000 10.8188 0.0000
# 2 35.2226 75.0326 42.9244 0.0000 -1.8772 0.0000
# 3 24.6680 42.9244 120.5254 0.0000 17.0182 0.0000
# 4 0.0000 0.0000 0.0000 13.9369 0.0000 0.5842
# 5 10.8188 -1.8772 17.0182 0.0000 34.2339 0.0000
# 6 0.0000 0.0000 0.0000 0.5842 0.0000 15.7955
#
#
#
# Elastic Compliance Matrix: (Units=1/GPa)
#
#
# Indices 1 2 3 4 5 6 
#
# 1 0.014350 -0.007022 0.000278 0.000000 -0.005058 0.000000
# 2 -0.007022 0.020747 -0.006911 0.000000 0.006792 0.000000
# 3 0.000278 -0.006911 0.011580 0.000000 -0.006224 0.000000
# 4 0.000000 0.000000 0.000000 0.071864 0.000000 -0.002658
# 5 -0.005058 0.006792 -0.006224 0.000000 0.034276 0.000000
# 6 0.000000 0.000000 0.000000 -0.002658 0.000000 0.063407
#
#
# Mechanical properties :
#
#
# Convention : Reuss Voigt Hill
#
# Bulk Modulus (GPa) = 51.63198 54.60500 53.11849
# Shear Modulus (GPa) = 20.00079 24.99325 22.49702
#
# Velocity S-wave (km/s) = 3.24682 3.62950 3.44348
# Velocity P-wave (km/s) = 6.42414 6.80773 6.61872
#
# Compressibility (1/GPa) = 0.01936784
#
# Stress axis : x y z
#
# Youngs Moduli (GPa) = 69.68582 48.19876 86.35457
#
# Poissons Ratio (x) = 0.33845 -0.02401
# Poissons Ratio (y) = 0.48933 0.59679
# Poissons Ratio (z) = -0.01937 0.33310
#
# Static dielectric constant tensor:
#      x y z
#    x 1.672010 0.000000 0.028790 
#    y 0.000000 1.618870 0.000000 
#    z 0.028790 0.000000 1.675700 
# 
# From -- ./inp_files/41625.got.cif
#   From: 2010.05.17/outbox.cif.g08.bks.cpg/sg13_21_cif.got.tgz:41625.got - 2010.06.03 16:44:36.
