data_PCOD9230343
_publ_section_title
;
Structure prediction by ZEFSAII (Michael W. Deem and Ramdas Pophale) SiO2 
 PCOD9230343
Probable space group: P 2/C
;
_chemical_formula_sum "Si O2"
_cell_formula_units_Z 30
_cell_length_a 28.111245
_cell_length_b 9.070334
_cell_length_c 28.078172
_cell_angle_alpha 90.000000
_cell_angle_beta 11.230688
_cell_angle_gamma 90.000000
_cell_volume 1394.348560
_symmetry_space_group_name_H-M "P 2/C"
_symmetry_group_IT_number 13
_symmetry_cell_setting 'monoclinic'
loop_
_space_group_symop_operation_xyz
x,y,z
-x,y,1/2-z
-x,-y,-z
x,-y,1/2+z
loop_
_atom_site_type_symbol
_atom_site_label
_atom_site_fract_x
_atom_site_fract_y
_atom_site_fract_z
Si Si1 0.535230 0.191727 0.282133
Si Si2 0.190963 0.276084 0.696730
Si Si3 0.100684 0.994360 0.522001
Si Si4 0.114577 0.224736 0.084896
Si Si5 0.755186 0.587526 0.256168
Si Si6 0.500000 0.961502 0.250000
Si Si7 0.260436 0.927300 0.261617
Si Si8 0.120374 0.572005 0.080705
O O1 0.440654 0.235769 0.426277
O O2 0.624878 0.342520 0.171448
O O3 0.763357 0.087751 0.070159
O O4 0.366663 0.085181 0.414933
O O5 0.215565 0.380740 0.716810
O O6 0.037800 0.356095 0.805930
O O7 0.084808 0.116932 0.815134
O O8 0.999222 0.855945 0.652079
O O9 0.260358 0.948654 0.319421
O O10 0.000000 0.194884 0.250000
O O11 0.378696 0.152209 0.832717
O O12 0.133532 0.398203 0.059820
O O13 0.500000 0.500000 0.500000
O O14 0.742066 0.751279 0.245838
O O15 0.000000 0.500000 0.000000
O O16 0.000000 0.000000 0.500000
O O17 0.500000 0.000000 0.000000
O O18 0.000000 0.598489 0.250000
#
# Coordination Sequence:
#
# PCOD9230343 Si02
#       8
#     4   4   4   4   4   2   4   4
#     4  10  21  38  65  93 129 170 232 276 354 416
#     4  11  23  42  68  93 134 179 234 288 357 439
#     4  10  23  40  68  97 130 180 232 292 354 428
#     4  10  22  40  60  93 137 168 226 281 351 425
#     4  12  29  48  74 108 151 192 243 314 378 440
#     4  10  20  36  60  92 124 172 218 280 334 412
#     4  12  25  48  76 106 144 190 250 303 368 440
#     4  10  23  39  62  96 136 177 224 283 359 434
#
# _framework density 21.515423999999999
#
# number of rings (size 3 to 8) (size 9 to 14) (size 15 to 20)
#    0.000    1.333    1.333    3.200    5.600    6.400 
#    0.000    1.333    0.000    0.000    0.000    0.000 
#    0.000    0.000    0.000    0.000    0.000    0.000 
#
# Total GULP energy -167134.089673 kJ/mol
# GULP energy per Si atom -5571.136322 kJ/mol
# Density = 2.146645 g / cm^3
# Si number density = 21.515424 Si / 1000 Ang^3
#
#
#
# Elastic Constant Matrix: (Units=GPa)
#
#
# Indices 1 2 3 4 5 6 
#
# 1 123.4980 67.7177 22.1940 0.0000 18.4490 0.0000
# 2 67.7177 168.5803 63.8638 0.0000 17.4145 0.0000
# 3 22.1940 63.8638 81.9410 0.0000 15.8609 0.0000
# 4 0.0000 0.0000 0.0000 29.7728 0.0000 6.3040
# 5 18.4490 17.4145 15.8609 0.0000 37.5091 0.0000
# 6 0.0000 0.0000 0.0000 6.3040 0.0000 52.7203
#
#
#
# Elastic Compliance Matrix: (Units=1/GPa)
#
#
# Indices 1 2 3 4 5 6 
#
# 1 0.010884 -0.004457 0.001265 0.000000 -0.003819 0.000000
# 2 -0.004457 0.010295 -0.006879 0.000000 0.000321 0.000000
# 3 0.001265 -0.006879 0.018216 0.000000 -0.005131 0.000000
# 4 0.000000 0.000000 0.000000 0.034460 0.000000 -0.004121
# 5 -0.003819 0.000321 -0.005131 0.000000 0.030559 0.000000
# 6 0.000000 0.000000 0.000000 -0.004121 0.000000 0.019461
#
#
# Mechanical properties :
#
#
# Convention : Reuss Voigt Hill
#
# Bulk Modulus (GPa) = 51.93882 75.73003 63.83443
# Shear Modulus (GPa) = 33.23709 38.68337 35.96023
#
# Velocity S-wave (km/s) = 3.93466 4.24481 4.09267
# Velocity P-wave (km/s) = 6.69588 7.70058 7.21574
#
# Compressibility (1/GPa) = 0.01925342
#
# Stress axis : x y z
#
# Youngs Moduli (GPa) = 91.87528 97.13590 54.89763
#
# Poissons Ratio (x) = 0.43291 -0.06943
# Poissons Ratio (y) = 0.40947 0.37762
# Poissons Ratio (z) = -0.11620 0.66817
#
# Static dielectric constant tensor:
#      x y z
#    x 1.920620 0.000000 -0.081870 
#    y 0.000000 1.772110 0.000000 
#    z -0.081870 0.000000 1.928700 
# 
# From -- ./inp_files/98076.got.cif
#   From: 2010.05.17/outbox.cif.g08.bks.cpg/sg13_50_cif.got.tgz:98076.got - 2010.06.03 16:44:36.
