data_PCOD9230013
_publ_section_title
;
Structure prediction by ZEFSAII (Michael W. Deem and Ramdas Pophale) SiO2 
 PCOD9230013
Probable space group: P 2/C
;
_chemical_formula_sum "Si O2"
_cell_formula_units_Z 28
_cell_length_a 10.762474
_cell_length_b 20.743631
_cell_length_c 5.240242
_cell_angle_alpha 90.000000
_cell_angle_beta 81.464915
_cell_angle_gamma 90.000000
_cell_volume 1156.942211
_symmetry_space_group_name_H-M "P 2/C"
_symmetry_group_IT_number 13
_symmetry_cell_setting 'monoclinic'
loop_
_space_group_symop_operation_xyz
x,y,z
-x,y,1/2-z
-x,-y,-z
x,-y,1/2+z
loop_
_atom_site_type_symbol
_atom_site_label
_atom_site_fract_x
_atom_site_fract_y
_atom_site_fract_z
Si Si1 0.775957 0.536046 0.272679
Si Si2 0.159437 0.675846 0.060133
Si Si3 0.305597 0.214636 0.716905
Si Si4 0.223643 0.157542 0.222044
Si Si5 0.140564 0.022588 0.048980
Si Si6 0.500000 0.567608 0.250000
Si Si7 0.394441 0.316310 0.092315
Si Si8 0.000000 0.737829 0.750000
O O1 0.821233 0.493237 0.494278
O O2 0.815510 0.609829 0.302088
O O3 0.622801 0.533016 0.321478
O O4 0.268720 0.676625 0.801563
O O5 0.027487 0.687153 0.966828
O O6 0.182635 0.741728 0.206195
O O7 0.305396 0.175580 0.447902
O O8 0.306156 0.163729 0.943045
O O9 0.378295 0.272683 0.845252
O O10 0.116957 0.212750 0.225386
O O11 0.154542 0.089485 0.200137
O O12 0.197728 0.025690 0.744992
O O13 0.000000 0.000000 0.000000
O O14 0.443186 0.614909 0.483544
O O15 0.500000 0.287949 0.250000
#
# Coordination Sequence:
#
# PCOD9230013 Si02
#       8
#     4   4   4   4   4   2   4   2
#     4  12  26  42  62  90 124 159 213 270 329 414
#     4  11  24  42  63  92 125 170 217 262 341 381
#     4  11  22  41  60  92 131 169 211 264 319 387
#     4  11  23  38  62  96 132 178 225 253 307 388
#     4  10  20  35  57  89 135 181 217 265 317 353
#     4  12  24  38  70  92 126 160 202 272 348 418
#     4  12  21  41  67  97 129 164 200 271 349 396
#     4  10  22  42  64  90 126 178 216 266 300 396
#
# _framework density 24.201729
#
# number of rings (size 3 to 8) (size 9 to 14) (size 15 to 20)
#    0.000    0.857    5.714    3.000    0.000    5.714 
#    0.000    0.714    0.000    0.000    0.000    0.000 
#    0.000   11.429    0.000    0.000    0.000    0.000 
#
# Total GULP energy -155981.204934 kJ/mol
# GULP energy per Si atom -5570.757319 kJ/mol
# Density = 2.414664 g / cm^3
# Si number density = 24.201729 Si / 1000 Ang^3
#
#
#
# Elastic Constant Matrix: (Units=GPa)
#
#
# Indices 1 2 3 4 5 6 
#
# 1 31.3761 7.3896 32.2644 0.0000 13.5185 0.0000
# 2 7.3896 117.3607 48.9061 0.0000 22.2235 0.0000
# 3 32.2644 48.9061 213.9442 0.0000 49.2768 0.0000
# 4 0.0000 0.0000 0.0000 57.7336 0.0000 -142.8314
# 5 13.5185 22.2235 49.2768 0.0000 43.7128 0.0000
# 6 0.0000 0.0000 0.0000 -142.8314 0.0000 1265.6152
#
#
#
# Elastic Compliance Matrix: (Units=1/GPa)
#
#
# Indices 1 2 3 4 5 6 
#
# 1 0.039487 0.000789 -0.004363 0.000000 -0.007694 0.000000
# 2 0.000789 0.009775 -0.001557 0.000000 -0.003458 0.000000
# 3 -0.004363 -0.001557 0.007017 0.000000 -0.005769 0.000000
# 4 0.000000 0.000000 0.000000 0.024030 0.000000 0.002712
# 5 -0.007694 -0.003458 -0.005769 0.000000 0.033518 0.000000
# 6 0.000000 0.000000 0.000000 0.002712 0.000000 0.001096
#
#
# Mechanical properties :
#
#
# Convention : Reuss Voigt Hill
#
# Bulk Modulus (GPa) = 21.73127 59.97791 40.85459
# Shear Modulus (GPa) = 35.58111 291.68706 163.63409
#
# Velocity S-wave (km/s) = 3.83846 10.99022 8.23161
# Velocity P-wave (km/s) = 5.35199 13.63388 10.35680
#
# Compressibility (1/GPa) = 0.04601665
#
# Stress axis : x y z
#
# Youngs Moduli (GPa) = 25.32455 102.30478 142.51613
#
# Poissons Ratio (x) = -0.08070 0.62181
# Poissons Ratio (y) = -0.01998 0.22187
# Poissons Ratio (z) = 0.11049 0.15927
#
# Static dielectric constant tensor:
#      x y z
#    x 2.002900 0.000000 -0.163140 
#    y 0.000000 1.975880 0.000000 
#    z -0.163140 0.000000 2.113230 
# 
# From -- ./inp_files/3958.got.cif
#   From: 2010.05.17/outbox.cif.g08.bks.cpg/sg13_2_cif.got.tgz:3958.got - 2010.06.03 16:44:36.
