data_PCOD9230365
_publ_section_title
;
Structure prediction by ZEFSAII (Michael W. Deem and Ramdas Pophale) SiO2 
 PCOD9230365
Probable space group: P 2/C
;
_chemical_formula_sum "Si O2"
_cell_formula_units_Z 28
_cell_length_a 9.380183
_cell_length_b 13.072967
_cell_length_c 11.702363
_cell_angle_alpha 90.000000
_cell_angle_beta 71.640577
_cell_angle_gamma 90.000000
_cell_volume 1361.979913
_symmetry_space_group_name_H-M "P 2/C"
_symmetry_group_IT_number 13
_symmetry_cell_setting 'monoclinic'
loop_
_space_group_symop_operation_xyz
x,y,z
-x,y,1/2-z
-x,-y,-z
x,-y,1/2+z
loop_
_atom_site_type_symbol
_atom_site_label
_atom_site_fract_x
_atom_site_fract_y
_atom_site_fract_z
Si Si1 0.343221 0.347097 0.068947
Si Si2 0.328667 0.378626 0.433551
Si Si3 0.161289 0.454278 0.671325
Si Si4 0.676286 0.856592 0.589103
Si Si5 0.912449 0.024339 0.898291
Si Si6 0.328683 0.878773 0.652594
Si Si7 0.664212 0.397185 0.673099
O O1 0.520844 0.373168 0.026712
O O2 0.263772 0.445683 0.139815
O O3 0.307983 0.242313 0.139262
O O4 0.289702 0.340843 0.952778
O O5 0.181437 0.399349 0.545810
O O6 0.327048 0.265310 0.384331
O O7 0.343620 0.480717 0.354450
O O8 0.223759 0.380704 0.752633
O O9 0.000000 0.487891 0.750000
O O10 0.804817 0.881648 0.464986
O O11 0.509561 0.891210 0.589611
O O12 0.703157 0.906542 0.706803
O O13 0.000000 0.037636 0.750000
O O14 0.787768 0.937286 0.899153
O O15 0.000000 0.000000 0.000000
O O16 0.500000 0.363389 0.750000
#
# Coordination Sequence:
#
# PCOD9230365 Si02
#       7
#     4   4   4   4   4   4   4
#     4  10  20  37  61  90 118 164 218 259 305 377
#     4  10  20  36  61  89 117 165 216 255 310 371
#     4  11  22  35  52  86 128 164 205 260 312 368
#     4  10  22  42  71  96 126 167 222 272 314 392
#     4  12  25  48  70  98 135 170 207 267 343 404
#     4  10  22  43  69  98 124 166 225 266 322 386
#     4  11  18  35  61  83 124 170 209 253 311 371
#
# _framework density 20.558305000000001
#
# number of rings (size 3 to 8) (size 9 to 14) (size 15 to 20)
#    0.000    1.429    4.286    2.143    2.000    3.429 
#    7.714    0.000    0.000    0.000    0.000    0.000 
#    0.000    0.000    0.000    0.000    0.000    0.000 
#
# Total GULP energy -155890.767525 kJ/mol
# GULP energy per Si atom -5567.527412 kJ/mol
# Density = 2.051151 g / cm^3
# Si number density = 20.558305 Si / 1000 Ang^3
#
#
#
# Elastic Constant Matrix: (Units=GPa)
#
#
# Indices 1 2 3 4 5 6 
#
# 1 50.9479 18.8979 49.6962 0.0000 5.1858 0.0000
# 2 18.8979 46.6876 7.6200 0.0000 -2.9115 0.0000
# 3 49.6962 7.6200 119.0532 0.0000 -3.9394 0.0000
# 4 0.0000 0.0000 0.0000 -24.3646 0.0000 -3.7078
# 5 5.1858 -2.9115 -3.9394 0.0000 32.3289 0.0000
# 6 0.0000 0.0000 0.0000 -3.7078 0.0000 2.5130
#
#
#
# Elastic Compliance Matrix: (Units=1/GPa)
#
#
# Indices 1 2 3 4 5 6 
#
# 1 0.043498 -0.015402 -0.017519 0.000000 -0.010499 0.000000
# 2 -0.015402 0.027202 0.004871 0.000000 0.005514 0.000000
# 3 -0.017519 0.004871 0.015571 0.000000 0.005146 0.000000
# 4 0.000000 0.000000 0.000000 -0.033517 0.000000 -0.049453
# 5 -0.010499 0.005514 0.005146 0.000000 0.033740 0.000000
# 6 0.000000 0.000000 0.000000 -0.049453 0.000000 0.324963
#
#
# Mechanical properties :
#
#
# Convention : Reuss Voigt Hill
#
# Bulk Modulus (GPa) = 33.14502 41.01298 37.07900
# Shear Modulus (GPa) = 10.46869 11.46044 10.96456
#
# Velocity S-wave (km/s) = 2.25904 2.36362 2.31192
# Velocity P-wave (km/s) = 4.79185 5.23850 5.02014
#
# Compressibility (1/GPa) = 0.03017044
#
# Stress axis : x y z
#
# Youngs Moduli (GPa) = 22.98942 36.76158 64.22168
#
# Poissons Ratio (x) = 0.56621 1.12510
# Poissons Ratio (y) = 0.35409 -0.31281
# Poissons Ratio (z) = 0.40275 -0.17906
#
# Static dielectric constant tensor:
#      x y z
#    x 1.729930 0.000000 0.088370 
#    y 0.000000 1.711310 0.000000 
#    z 0.088370 0.000000 1.672980 
# 
# From -- ./inp_files/30097.got.cif
#   From: 2010.05.17/outbox.cif.g08.bks.cpg/sg13_16_cif.got.tgz:30097.got - 2010.06.03 16:44:36.
