data_PCOD9230377
_publ_section_title
;
Structure prediction by ZEFSAII (Michael W. Deem and Ramdas Pophale) SiO2 
 PCOD9230377
Probable space group: P 2/C
;
_chemical_formula_sum "Si O2"
_cell_formula_units_Z 20
_cell_length_a 8.952864
_cell_length_b 12.028084
_cell_length_c 8.680767
_cell_angle_alpha 90.000000
_cell_angle_beta 96.358925
_cell_angle_gamma 90.000000
_cell_volume 929.044083
_symmetry_space_group_name_H-M "P 2/C"
_symmetry_group_IT_number 13
_symmetry_cell_setting 'monoclinic'
loop_
_space_group_symop_operation_xyz
x,y,z
-x,y,1/2-z
-x,-y,-z
x,-y,1/2+z
loop_
_atom_site_type_symbol
_atom_site_label
_atom_site_fract_x
_atom_site_fract_y
_atom_site_fract_z
Si Si1 0.377533 0.343521 0.009117
Si Si2 0.241820 0.014224 0.404554
Si Si3 0.000000 0.834062 0.750000
Si Si4 0.500000 0.502943 0.250000
Si Si5 0.925263 0.786257 0.074131
Si Si6 0.527281 0.856960 0.413004
O O1 0.433466 0.422558 0.878095
O O2 0.218252 0.292518 0.950304
O O3 0.484769 0.233989 0.035849
O O4 0.379306 0.419501 0.160147
O O5 0.306275 0.095383 0.544994
O O6 0.151295 0.090109 0.274605
O O7 0.130093 0.914831 0.432056
O O8 0.400208 0.953735 0.382739
O O9 0.995726 0.772338 0.584199
O O10 0.000000 0.768752 0.250000
O O11 0.500000 0.794939 0.250000
#
# Coordination Sequence:
#
# PCOD9230377 Si02
#       6
#     4   4   2   2   4   4
#     4  10  23  42  69  96 121 163 214 278 334 388
#     4  10  22  36  59  95 138 177 215 254 307 389
#     4  12  24  38  64  92 136 186 212 252 306 390
#     4  10  22  46  70  92 120 154 214 290 344 378
#     4  11  25  43  63  96 136 177 217 253 319 393
#     4  10  20  36  61  94 131 169 214 265 318 380
#
# _framework density 21.527502999999999
#
# number of rings (size 3 to 8) (size 9 to 14) (size 15 to 20)
#    0.000    1.600    2.000    1.800    8.400    0.000 
#    7.200    1.000    0.000    0.000    0.000    0.000 
#    0.000    0.000    0.000    0.000    0.000    0.000 
#
# Total GULP energy -111427.070138 kJ/mol
# GULP energy per Si atom -5571.353507 kJ/mol
# Density = 2.147851 g / cm^3
# Si number density = 21.527503 Si / 1000 Ang^3
#
#
#
# Elastic Constant Matrix: (Units=GPa)
#
#
# Indices 1 2 3 4 5 6 
#
# 1 52.3574 27.2032 30.6793 0.0000 17.2618 0.0000
# 2 27.2032 71.8641 33.3667 0.0000 20.2982 0.0000
# 3 30.6793 33.3667 127.1540 0.0000 19.4324 0.0000
# 4 0.0000 0.0000 0.0000 -95.8185 0.0000 27.3450
# 5 17.2618 20.2982 19.4324 0.0000 34.8605 0.0000
# 6 0.0000 0.0000 0.0000 27.3450 0.0000 16.4599
#
#
#
# Elastic Compliance Matrix: (Units=1/GPa)
#
#
# Indices 1 2 3 4 5 6 
#
# 1 0.027102 -0.006385 -0.003696 0.000000 -0.007642 0.000000
# 2 -0.006385 0.019404 -0.002523 0.000000 -0.006731 0.000000
# 3 -0.003696 -0.002523 0.009744 0.000000 -0.002133 0.000000
# 4 0.000000 0.000000 0.000000 -0.007080 0.000000 0.011762
# 5 -0.007642 -0.006731 -0.002133 0.000000 0.037578 0.000000
# 6 0.000000 0.000000 0.000000 0.011762 0.000000 0.041214
#
#
# Mechanical properties :
#
#
# Convention : Reuss Voigt Hill
#
# Bulk Modulus (GPa) = 32.21213 48.20823 40.21018
# Shear Modulus (GPa) = 30.57792 1.77547 16.17670
#
# Velocity S-wave (km/s) = 3.77292 0.90914 2.74422
# Velocity P-wave (km/s) = 5.82887 4.85226 5.36284
#
# Compressibility (1/GPa) = 0.03104420
#
# Stress axis : x y z
#
# Youngs Moduli (GPa) = 36.89788 51.53457 102.62582
#
# Poissons Ratio (x) = 0.32902 0.37928
# Poissons Ratio (y) = 0.23557 0.25891
# Poissons Ratio (z) = 0.13636 0.13002
#
# Static dielectric constant tensor:
#      x y z
#    x 1.776340 0.000000 -0.051770 
#    y 0.000000 1.802700 0.000000 
#    z -0.051770 0.000000 1.914590 
# 
# From -- ./inp_files/11896.got.cif
#   From: 2010.05.17/outbox.cif.g08.bks.cpg/sg13_6_cif.got.tgz:11896.got - 2010.06.03 16:44:36.
