data_PCOD9230603
_publ_section_title
;
Structure prediction by ZEFSAII (Michael W. Deem and Ramdas Pophale) SiO2 
 PCOD9230603
Probable space group: P 2/C
;
_chemical_formula_sum "Si O2"
_cell_formula_units_Z 18
_cell_length_a 25.494885
_cell_length_b 7.283573
_cell_length_c 16.173776
_cell_angle_alpha 90.000000
_cell_angle_beta 162.245425
_cell_angle_gamma 90.000000
_cell_volume 915.848940
_symmetry_space_group_name_H-M "P 2/C"
_symmetry_group_IT_number 13
_symmetry_cell_setting 'monoclinic'
loop_
_space_group_symop_operation_xyz
x,y,z
-x,y,1/2-z
-x,-y,-z
x,-y,1/2+z
loop_
_atom_site_type_symbol
_atom_site_label
_atom_site_fract_x
_atom_site_fract_y
_atom_site_fract_z
Si Si1 0.500000 0.283282 0.750000
Si Si2 0.087294 0.723750 0.292962
Si Si3 0.601967 0.556050 0.233893
Si Si4 0.891243 0.812365 0.839367
Si Si5 0.127249 0.160822 0.366945
O O1 0.495062 0.405125 0.825825
O O2 0.317697 0.173473 0.472465
O O3 0.253579 0.597886 0.532961
O O4 0.000000 0.678325 0.250000
O O5 0.134672 0.941095 0.368590
O O6 0.960061 0.707107 0.023094
O O7 0.689980 0.749711 0.342522
O O8 0.500000 0.500000 0.000000
O O9 0.929694 0.742368 0.804437
O O10 0.000000 0.000000 0.000000
O O11 0.000000 0.203287 0.250000
#
# Coordination Sequence:
#
# PCOD9230603 Si02
#       5
#     2   4   4   4   4
#     4  10  22  38  58  90 122 150 200 250 286 354
#     4  10  20  37  60  83 113 156 195 237 296 350
#     4  11  23  37  56  86 120 154 195 245 294 346
#     4   9  19  38  61  85 118 156 194 242 296 347
#     4   9  20  37  58  84 112 150 198 241 286 349
#
# _framework density 19.653894999999999
#
# number of rings (size 3 to 8) (size 9 to 14) (size 15 to 20)
#    0.000    2.222    0.000    2.000    0.000    6.222 
#    0.000   21.111    0.000    0.000    0.000    0.000 
#    0.000    0.000    0.000    0.000    0.000    0.000 
#
# Total GULP energy -100231.065361 kJ/mol
# GULP energy per Si atom -5568.392520 kJ/mol
# Density = 1.960916 g / cm^3
# Si number density = 19.653895 Si / 1000 Ang^3
#
#
#
# Elastic Constant Matrix: (Units=GPa)
#
#
# Indices 1 2 3 4 5 6 
#
# 1 174.1001 39.3386 70.1253 0.0000 0.5347 0.0000
# 2 39.3386 61.2007 36.5158 0.0000 -0.3353 0.0000
# 3 70.1253 36.5158 139.0270 0.0000 -18.7995 0.0000
# 4 0.0000 0.0000 0.0000 26.6911 0.0000 36.0231
# 5 0.5347 -0.3353 -18.7995 0.0000 29.7674 0.0000
# 6 0.0000 0.0000 0.0000 36.0231 0.0000 -51.7857
#
#
#
# Elastic Compliance Matrix: (Units=1/GPa)
#
#
# Indices 1 2 3 4 5 6 
#
# 1 0.007827 -0.002960 -0.003492 0.000000 -0.002379 0.000000
# 2 -0.002960 0.020792 -0.004296 0.000000 -0.002426 0.000000
# 3 -0.003492 -0.004296 0.011026 0.000000 0.006978 0.000000
# 4 0.000000 0.000000 0.000000 0.019324 0.000000 0.013442
# 5 -0.002379 -0.002426 0.006978 0.000000 0.038016 0.000000
# 6 0.000000 0.000000 0.000000 0.013442 0.000000 -0.009960
#
#
# Mechanical properties :
#
#
# Convention : Reuss Voigt Hill
#
# Bulk Modulus (GPa) = 55.10062 74.03190 64.56626
# Shear Modulus (GPa) = 43.64097 16.15774 29.89936
#
# Velocity S-wave (km/s) = 4.71730 2.87036 3.90461
# Velocity P-wave (km/s) = 7.60046 6.98104 7.29732
#
# Compressibility (1/GPa) = 0.01814862
#
# Stress axis : x y z
#
# Youngs Moduli (GPa) = 127.77091 48.09431 90.69410
#
# Poissons Ratio (x) = 0.14237 0.31669
# Poissons Ratio (y) = 0.37824 0.38962
# Poissons Ratio (z) = 0.44616 0.20661
#
# Static dielectric constant tensor:
#      x y z
#    x 1.693750 0.000000 -0.057840 
#    y 0.000000 1.727860 0.000000 
#    z -0.057840 0.000000 1.749320 
# 
# From -- ./inp_files/32335.got.cif
#   From: 2010.05.17/outbox.cif.g08.bks.cpg/sg13_17_cif.got.tgz:32335.got - 2010.06.03 16:44:36.
