data_PCOD9230139
_publ_section_title
;
Structure prediction by ZEFSAII (Michael W. Deem and Ramdas Pophale) SiO2 
 PCOD9230139
Probable space group: P 2/C
;
_chemical_formula_sum "Si O2"
_cell_formula_units_Z 32
_cell_length_a 9.242303
_cell_length_b 14.097382
_cell_length_c 15.000223
_cell_angle_alpha 90.000000
_cell_angle_beta 132.141072
_cell_angle_gamma 90.000000
_cell_volume 1449.187730
_symmetry_space_group_name_H-M "P 2/C"
_symmetry_group_IT_number 13
_symmetry_cell_setting 'monoclinic'
loop_
_space_group_symop_operation_xyz
x,y,z
-x,y,1/2-z
-x,-y,-z
x,-y,1/2+z
loop_
_atom_site_type_symbol
_atom_site_label
_atom_site_fract_x
_atom_site_fract_y
_atom_site_fract_z
Si Si1 0.696517 0.714779 0.122418
Si Si2 0.181230 0.800888 0.761313
Si Si3 0.706457 0.143164 0.373523
Si Si4 0.308169 0.510256 0.046155
Si Si5 0.706401 0.313956 0.827184
Si Si6 0.873353 0.318106 0.512207
Si Si7 0.658675 0.607041 0.618875
Si Si8 0.573555 0.100412 0.497924
O O1 0.729219 0.669948 0.231483
O O2 0.852280 0.695131 0.109675
O O3 0.499929 0.666999 0.003625
O O4 0.664988 0.828525 0.109019
O O5 0.154497 0.851523 0.654486
O O6 0.216728 0.685855 0.776641
O O7 0.379815 0.846107 0.882016
O O8 0.000000 0.819040 0.750000
O O9 0.500000 0.110503 0.250000
O O10 0.701691 0.254024 0.400672
O O11 0.725075 0.092983 0.476960
O O12 0.317194 0.595499 0.119151
O O13 0.521564 0.461436 0.121170
O O14 0.164967 0.427752 0.020948
O O15 0.242346 0.546457 0.920024
O O16 0.500000 0.258898 0.750000
O O17 0.922615 0.277382 0.939363
O O18 0.500000 0.000000 0.500000
#
# Coordination Sequence:
#
# PCOD9230139 Si02
#       8
#     4   4   4   4   4   4   4   4
#     4   9  19  40  59  80 116 158 196 241 312 374
#     4  10  21  37  63  91 121 155 206 254 305 368
#     4   9  19  39  64  91 119 158 204 241 304 374
#     4  10  20  36  53  77 117 155 214 266 294 351
#     4  12  23  35  54  83 120 162 209 254 304 364
#     4  10  22  38  57  81 120 166 207 255 305 357
#     4   9  19  38  55  78 115 159 202 255 312 346
#     4   9  19  40  69  90 120 157 190 246 311 377
#
# _framework density 22.081333999999998
#
# number of rings (size 3 to 8) (size 9 to 14) (size 15 to 20)
#    0.000    2.250    1.250    3.000    1.750    1.500 
#    2.250    5.000    0.000    0.000    0.000    0.000 
#    0.000    0.000    0.000    0.000    0.000    0.000 
#
# Total GULP energy -178210.280871 kJ/mol
# GULP energy per Si atom -5569.071277 kJ/mol
# Density = 2.203108 g / cm^3
# Si number density = 22.081334 Si / 1000 Ang^3
#
#
#
# Elastic Constant Matrix: (Units=GPa)
#
#
# Indices 1 2 3 4 5 6 
#
# 1 109.6952 15.4462 13.0802 0.0000 -20.7327 0.0000
# 2 15.4462 79.6850 3.7782 0.0000 -16.7131 0.0000
# 3 13.0802 3.7782 32.2703 0.0000 -15.2265 0.0000
# 4 0.0000 0.0000 0.0000 5.0513 0.0000 -3.0285
# 5 -20.7327 -16.7131 -15.2265 0.0000 36.8498 0.0000
# 6 0.0000 0.0000 0.0000 -3.0285 0.0000 12.5948
#
#
#
# Elastic Compliance Matrix: (Units=1/GPa)
#
#
# Indices 1 2 3 4 5 6 
#
# 1 0.010348 -0.000950 -0.001912 0.000000 0.004601 0.000000
# 2 -0.000950 0.014029 0.001854 0.000000 0.006594 0.000000
# 3 -0.001912 0.001854 0.039049 0.000000 0.015900 0.000000
# 4 0.000000 0.000000 0.000000 0.231314 0.000000 0.055620
# 5 0.004601 0.006594 0.015900 0.000000 0.039286 0.000000
# 6 0.000000 0.000000 0.000000 0.055620 0.000000 0.092772
#
#
# Mechanical properties :
#
#
# Convention : Reuss Voigt Hill
#
# Bulk Modulus (GPa) = 16.28441 31.80663 24.04552
# Shear Modulus (GPa) = 11.12885 23.52225 17.32555
#
# Velocity S-wave (km/s) = 2.24742 3.26736 2.80415
# Velocity P-wave (km/s) = 3.75836 5.35442 4.62575
#
# Compressibility (1/GPa) = 0.06140844
#
# Stress axis : x y z
#
# Youngs Moduli (GPa) = 96.64149 71.28215 25.60915
#
# Poissons Ratio (x) = 0.06773 0.04897
# Poissons Ratio (y) = 0.09182 -0.04748
# Poissons Ratio (z) = 0.18479 -0.13216
#
# Static dielectric constant tensor:
#      x y z
#    x 1.895440 0.000000 0.024690 
#    y 0.000000 1.804100 0.000000 
#    z 0.024690 0.000000 1.883060 
# 
# From -- ./inp_files/47704.got.cif
#   From: 2010.05.17/outbox.cif.g08.bks.cpg/sg13_24_cif.got.tgz:47704.got - 2010.06.03 16:44:36.
