data_PCOD9230242
_publ_section_title
;
Structure prediction by ZEFSAII (Michael W. Deem and Ramdas Pophale) SiO2 
 PCOD9230242
Probable space group: P 2/C
;
_chemical_formula_sum "Si O2"
_cell_formula_units_Z 24
_cell_length_a 19.139339
_cell_length_b 9.101666
_cell_length_c 7.959420
_cell_angle_alpha 90.000000
_cell_angle_beta 54.242964
_cell_angle_gamma 90.000000
_cell_volume 1125.172135
_symmetry_space_group_name_H-M "P 2/C"
_symmetry_group_IT_number 13
_symmetry_cell_setting 'monoclinic'
loop_
_space_group_symop_operation_xyz
x,y,z
-x,y,1/2-z
-x,-y,-z
x,-y,1/2+z
loop_
_atom_site_type_symbol
_atom_site_label
_atom_site_fract_x
_atom_site_fract_y
_atom_site_fract_z
Si Si1 0.754218 0.590091 0.094338
Si Si2 0.908496 0.209235 0.459456
Si Si3 0.673607 0.833814 0.392826
Si Si4 0.158960 0.916245 0.124993
Si Si5 0.267622 0.278150 0.243258
Si Si6 0.408510 0.069955 0.175016
O O1 0.686984 0.670301 0.312547
O O2 0.738398 0.417866 0.124260
O O3 0.845941 0.649797 0.033062
O O4 0.744715 0.656569 0.922954
O O5 0.911848 0.154089 0.649323
O O6 0.000000 0.242103 0.250000
O O7 0.868321 0.075392 0.403823
O O8 0.757318 0.895931 0.371656
O O9 0.598468 0.862653 0.630900
O O10 0.655025 0.931069 0.256404
O O11 0.189869 0.825326 0.917521
O O12 0.358783 0.191864 0.131794
O O13 0.500000 0.000000 0.000000
#
# Coordination Sequence:
#
# PCOD9230242 Si02
#       6
#     4   4   4   4   4   4
#     4  11  22  40  62  86 120 165 208 244 301 376
#     4  11  21  36  58  90 123 158 206 264 307 348
#     4  10  20  36  59  86 117 158 199 240 291 364
#     4  10  20  36  58  85 117 162 208 246 300 362
#     4  11  22  40  62  86 116 160 206 249 298 372
#     4  11  21  36  60  91 119 149 193 247 298 348
#
# _framework density 21.330068000000001
#
# number of rings (size 3 to 8) (size 9 to 14) (size 15 to 20)
#    0.000    1.333    0.000   11.000    0.000    0.000 
#    0.000    5.000    0.000    4.000    0.000    0.000 
#    0.000    0.000    0.000    0.000    0.000    0.000 
#
# Total GULP energy -133893.772747 kJ/mol
# GULP energy per Si atom -5578.907198 kJ/mol
# Density = 2.128152 g / cm^3
# Si number density = 21.330068 Si / 1000 Ang^3
#
#
#
# Elastic Constant Matrix: (Units=GPa)
#
#
# Indices 1 2 3 4 5 6 
#
# 1 29.6447 16.5786 15.2466 0.0000 3.6886 0.0000
# 2 16.5786 96.9530 15.3596 0.0000 -17.3229 0.0000
# 3 15.2466 15.3596 126.8950 0.0000 -5.1817 0.0000
# 4 0.0000 0.0000 0.0000 34.3272 0.0000 12.2445
# 5 3.6886 -17.3229 -5.1817 0.0000 38.4542 0.0000
# 6 0.0000 0.0000 0.0000 12.2445 0.0000 22.8901
#
#
#
# Elastic Compliance Matrix: (Units=1/GPa)
#
#
# Indices 1 2 3 4 5 6 
#
# 1 0.041352 -0.007825 -0.004351 0.000000 -0.008078 0.000000
# 2 -0.007825 0.012870 -0.000352 0.000000 0.006501 0.000000
# 3 -0.004351 -0.000352 0.008503 0.000000 0.001405 0.000000
# 4 0.000000 0.000000 0.000000 0.036001 0.000000 -0.019258
# 5 -0.008078 0.006501 0.001405 0.000000 0.029897 0.000000
# 6 0.000000 0.000000 0.000000 -0.019258 0.000000 0.053988
#
#
# Mechanical properties :
#
#
# Convention : Reuss Voigt Hill
#
# Bulk Modulus (GPa) = 26.54757 38.65136 32.59946
# Shear Modulus (GPa) = 22.70415 32.88818 27.79616
#
# Velocity S-wave (km/s) = 3.26608 3.93092 3.61383
# Velocity P-wave (km/s) = 5.16683 6.22598 5.72097
#
# Compressibility (1/GPa) = 0.03766823
#
# Stress axis : x y z
#
# Youngs Moduli (GPa) = 24.18265 77.70256 117.60127
#
# Poissons Ratio (x) = 0.60802 0.51171
# Poissons Ratio (y) = 0.18923 0.04141
# Poissons Ratio (z) = 0.10522 0.02736
#
# Static dielectric constant tensor:
#      x y z
#    x 1.828420 0.000000 0.021740 
#    y 0.000000 1.762140 0.000000 
#    z 0.021740 0.000000 1.894750 
# 
# From -- ./inp_files/22712.got.cif
#   From: 2010.05.17/outbox.cif.g08.bks.cpg/sg13_12_cif.got.tgz:22712.got - 2010.06.03 16:44:36.
