data_PCOD9230730
_publ_section_title
;
Structure prediction by ZEFSAII (Michael W. Deem and Ramdas Pophale) SiO2 
 PCOD9230730
Probable space group: P 2/C
;
_chemical_formula_sum "Si O2"
_cell_formula_units_Z 24
_cell_length_a 18.254496
_cell_length_b 7.319322
_cell_length_c 16.336502
_cell_angle_alpha 90.000000
_cell_angle_beta 147.071023
_cell_angle_gamma 90.000000
_cell_volume 1186.529199
_symmetry_space_group_name_H-M "P 2/C"
_symmetry_group_IT_number 13
_symmetry_cell_setting 'monoclinic'
loop_
_space_group_symop_operation_xyz
x,y,z
-x,y,1/2-z
-x,-y,-z
x,-y,1/2+z
loop_
_atom_site_type_symbol
_atom_site_label
_atom_site_fract_x
_atom_site_fract_y
_atom_site_fract_z
Si Si1 0.986964 0.049913 0.335243
Si Si2 0.471549 0.103463 0.129791
Si Si3 0.098046 0.452336 0.268613
Si Si4 0.264323 0.933403 0.162628
Si Si5 0.639526 0.725079 0.408762
Si Si6 0.772994 0.774612 0.198862
O O1 0.970447 0.267957 0.329343
O O2 0.000000 0.016527 0.250000
O O3 0.118329 0.983123 0.506913
O O4 0.857041 0.949397 0.247023
O O5 0.500000 0.162579 0.250000
O O6 0.613846 0.077708 0.217674
O O7 0.407931 0.898120 0.080284
O O8 0.365147 0.225883 0.982426
O O9 0.242844 0.391113 0.440930
O O10 0.133171 0.603734 0.235071
O O11 0.000000 0.520549 0.250000
O O12 0.296888 0.816205 0.112353
O O13 0.259044 0.806993 0.236849
O O14 0.500000 0.630379 0.250000
#
# Coordination Sequence:
#
# PCOD9230730 Si02
#       6
#     4   4   4   4   4   4
#     4  11  20  41  61  81 121 160 196 236 294 361
#     4   9  19  38  64  84 114 162 199 233 296 359
#     4  11  22  38  61  84 117 162 196 240 293 355
#     4  10  20  37  63  87 118 159 186 251 302 342
#     4   9  18  39  63  78 114 164 196 230 300 358
#     4  12  23  35  62  94 117 145 205 246 298 345
#
# _framework density 20.227063000000001
#
# number of rings (size 3 to 8) (size 9 to 14) (size 15 to 20)
#    0.000    2.000    5.000    2.500    0.000    1.333 
#    0.000    3.333    0.000    0.000    0.000    0.000 
#    0.000    0.000    0.000    0.000    0.000    0.000 
#
# Total GULP energy -133955.159572 kJ/mol
# GULP energy per Si atom -5581.464982 kJ/mol
# Density = 2.018102 g / cm^3
# Si number density = 20.227063 Si / 1000 Ang^3
#
#
#
# Elastic Constant Matrix: (Units=GPa)
#
#
# Indices 1 2 3 4 5 6 
#
# 1 12.4678 4.0158 6.7402 0.0000 15.9390 0.0000
# 2 4.0158 32.4682 -3.5333 0.0000 6.1185 0.0000
# 3 6.7402 -3.5333 105.0130 0.0000 27.2598 0.0000
# 4 0.0000 0.0000 0.0000 147.8950 0.0000 -7.4870
# 5 15.9390 6.1185 27.2598 0.0000 26.4777 0.0000
# 6 0.0000 0.0000 0.0000 -7.4870 0.0000 4.6259
#
#
#
# Elastic Compliance Matrix: (Units=1/GPa)
#
#
# Indices 1 2 3 4 5 6 
#
# 1 0.613357 0.018589 0.079452 0.000000 -0.455322 0.000000
# 2 0.018589 0.034123 0.006696 0.000000 -0.025969 0.000000
# 3 0.079452 0.006696 0.023836 0.000000 -0.073916 0.000000
# 4 0.000000 0.000000 0.000000 0.007365 0.000000 0.011920
# 5 -0.455322 -0.025969 -0.073916 0.000000 0.393961 0.000000
# 6 0.000000 0.000000 0.000000 0.011920 0.000000 0.235467
#
#
# Mechanical properties :
#
#
# Convention : Reuss Voigt Hill
#
# Bulk Modulus (GPa) = 1.13534 18.26602 9.70068
# Shear Modulus (GPa) = 3.59136 45.31481 24.45308
#
# Velocity S-wave (km/s) = 1.33393 4.73832 3.48074
# Velocity P-wave (km/s) = 1.71319 6.24385 4.57825
#
# Compressibility (1/GPa) = 0.88079014
#
# Stress axis : x y z
#
# Youngs Moduli (GPa) = 1.63037 29.30595 41.95383
#
# Poissons Ratio (x) = -0.54476 -3.33333
# Poissons Ratio (y) = -0.03031 -0.28093
# Poissons Ratio (z) = -0.12954 -0.19624
#
# Static dielectric constant tensor:
#      x y z
#    x 1.703130 0.000000 0.018370 
#    y 0.000000 1.719230 0.000000 
#    z 0.018370 0.000000 1.767310 
# 
# From -- ./inp_files/53214.got.cif
#   From: 2010.05.17/outbox.cif.g08.bks.cpg/sg13_27_cif.got.tgz:53214.got - 2010.06.03 16:44:36.
