data_PCOD9230739
_publ_section_title
;
Structure prediction by ZEFSAII (Michael W. Deem and Ramdas Pophale) SiO2 
 PCOD9230739
Probable space group: P 2/C
;
_chemical_formula_sum "Si O2"
_cell_formula_units_Z 20
_cell_length_a 9.015073
_cell_length_b 7.358445
_cell_length_c 13.086538
_cell_angle_alpha 90.000000
_cell_angle_beta 124.503454
_cell_angle_gamma 90.000000
_cell_volume 715.411286
_symmetry_space_group_name_H-M "P 2/C"
_symmetry_group_IT_number 13
_symmetry_cell_setting 'monoclinic'
loop_
_space_group_symop_operation_xyz
x,y,z
-x,y,1/2-z
-x,-y,-z
x,-y,1/2+z
loop_
_atom_site_type_symbol
_atom_site_label
_atom_site_fract_x
_atom_site_fract_y
_atom_site_fract_z
Si Si1 0.952605 0.345687 0.122003
Si Si2 0.877364 0.726767 0.378069
Si Si3 0.276348 0.894595 0.364379
Si Si4 0.569606 0.608562 0.400943
Si Si5 0.529075 0.184469 0.376685
O O1 0.000000 0.264786 0.250000
O O2 0.055232 0.535028 0.141448
O O3 0.979023 0.236690 0.025672
O O4 0.743289 0.398141 0.043239
O O5 0.873629 0.861740 0.281124
O O6 0.675973 0.688474 0.343783
O O7 0.418964 0.735299 0.389814
O O8 0.285747 0.872551 0.491405
O O9 0.371667 0.082868 0.375733
O O10 0.486276 0.599309 0.633786
O O11 0.500000 0.116846 0.250000
#
# Coordination Sequence:
#
# PCOD9230739 Si02
#       5
#     4   4   4   4   4
#     4   9  19  34  60  91 118 162 206 238 301 367
#     4   9  19  36  60  87 126 157 198 255 297 355
#     4  11  22  39  61  89 124 156 196 259 301 345
#     4  10  20  37  63  89 120 155 203 248 294 359
#     4  11  23  35  58  92 120 154 199 245 305 360
#
# _framework density 27.955946999999998
#
# number of rings (size 3 to 8) (size 9 to 14) (size 15 to 20)
#    1.200    0.800    0.000    4.800    0.000    1.600 
#    0.000    0.000    0.000   19.200    0.000    0.000 
#    0.000    0.000    0.000    0.000    0.000    0.000 
#
# Total GULP energy -111819.095857 kJ/mol
# GULP energy per Si atom -5590.954793 kJ/mol
# Density = 2.789232 g / cm^3
# Si number density = 27.955947 Si / 1000 Ang^3
#
#
#
# Elastic Constant Matrix: (Units=GPa)
#
#
# Indices 1 2 3 4 5 6 
#
# 1 54.8742 15.9793 31.3933 0.0000 -17.3651 0.0000
# 2 15.9793 112.6264 54.7274 0.0000 -11.0707 0.0000
# 3 31.3933 54.7274 297.9397 0.0000 -20.9136 0.0000
# 4 0.0000 0.0000 0.0000 28.8996 0.0000 7.3891
# 5 -17.3651 -11.0707 -20.9136 0.0000 45.2278 0.0000
# 6 0.0000 0.0000 0.0000 7.3891 0.0000 26.9075
#
#
#
# Elastic Compliance Matrix: (Units=1/GPa)
#
#
# Indices 1 2 3 4 5 6 
#
# 1 0.021869 -0.001663 -0.001486 0.000000 0.007302 0.000000
# 2 -0.001663 0.009990 -0.001584 0.000000 0.001074 0.000000
# 3 -0.001486 -0.001584 0.003862 0.000000 0.000827 0.000000
# 4 0.000000 0.000000 0.000000 0.037216 0.000000 -0.010220
# 5 0.007302 0.001074 0.000827 0.000000 0.025560 0.000000
# 6 0.000000 0.000000 0.000000 -0.010220 0.000000 0.039971
#
#
# Mechanical properties :
#
#
# Convention : Reuss Voigt Hill
#
# Bulk Modulus (GPa) = 38.08902 74.40450 56.24676
# Shear Modulus (GPa) = 31.91105 44.42967 38.17036
#
# Velocity S-wave (km/s) = 3.38224 3.99090 3.69911
# Velocity P-wave (km/s) = 5.37652 6.92163 6.19742
#
# Compressibility (1/GPa) = 0.02625429
#
# Stress axis : x y z
#
# Youngs Moduli (GPa) = 45.72724 100.09658 258.92556
#
# Poissons Ratio (x) = 0.16643 0.38484
# Poissons Ratio (y) = 0.07603 0.41026
# Poissons Ratio (z) = 0.06796 0.15860
#
# Static dielectric constant tensor:
#      x y z
#    x 2.242070 0.000000 0.109940 
#    y 0.000000 2.035800 0.000000 
#    z 0.109940 0.000000 2.518180 
# 
# From -- ./inp_files/28280.got.cif
#   From: 2010.05.17/outbox.cif.g08.bks.cpg/sg13_15_cif.got.tgz:28280.got - 2010.06.03 16:44:36.
