data_PCOD9230741
_publ_section_title
;
Structure prediction by ZEFSAII (Michael W. Deem and Ramdas Pophale) SiO2 
 PCOD9230741
Probable space group: P 2/C
;
_chemical_formula_sum "Si O2"
_cell_formula_units_Z 30
_cell_length_a 12.338465
_cell_length_b 8.655675
_cell_length_c 15.770008
_cell_angle_alpha 90.000000
_cell_angle_beta 65.675083
_cell_angle_gamma 90.000000
_cell_volume 1534.684998
_symmetry_space_group_name_H-M "P 2/C"
_symmetry_group_IT_number 13
_symmetry_cell_setting 'monoclinic'
loop_
_space_group_symop_operation_xyz
x,y,z
-x,y,1/2-z
-x,-y,-z
x,-y,1/2+z
loop_
_atom_site_type_symbol
_atom_site_label
_atom_site_fract_x
_atom_site_fract_y
_atom_site_fract_z
Si Si1 0.219351 0.702701 0.743797
Si Si2 0.000000 0.121209 0.250000
Si Si3 0.368641 0.092424 0.328796
Si Si4 0.128579 0.485095 0.913108
Si Si5 0.251985 0.709827 0.000757
Si Si6 0.634517 0.558347 0.950139
Si Si7 0.074172 0.979926 0.061626
Si Si8 0.267047 0.211221 0.937614
O O1 0.275641 0.826550 0.792716
O O2 0.146959 0.567860 0.817177
O O3 0.324170 0.637023 0.650663
O O4 0.119395 0.778948 0.716825
O O5 0.997068 0.019244 0.167160
O O6 0.500000 0.110790 0.250000
O O7 0.350853 0.182798 0.424058
O O8 0.340742 0.912970 0.358534
O O9 0.215802 0.586876 0.942141
O O10 0.182341 0.314558 0.904408
O O11 0.000000 0.500000 0.000000
O O12 0.291567 0.601715 0.064218
O O13 0.137785 0.816410 0.051448
O O14 0.500000 0.500000 0.000000
O O15 0.662740 0.677669 0.018981
O O16 0.179153 0.104844 0.020743
O O17 0.000000 0.000000 0.000000
#
# Coordination Sequence:
#
# PCOD9230741 Si02
#       8
#     4   2   4   4   4   4   4   4
#     4  11  24  40  63  94 128 172 217 273 332 394
#     4  12  22  40  64  94 136 168 218 272 336 404
#     4  10  21  42  66  90 121 168 225 271 321 384
#     4  10  20  37  63  89 123 165 209 261 323 387
#     4   9  21  39  59  89 123 165 212 252 323 393
#     4  11  23  43  62  91 135 173 210 269 330 384
#     4  11  21  41  64  92 132 170 211 270 332 390
#     4  10  21  40  61  92 123 162 218 261 325 393
#
# _framework density 19.547986999999999
#
# number of rings (size 3 to 8) (size 9 to 14) (size 15 to 20)
#    0.000    1.600    1.333    4.800    1.867    1.067 
#    9.600    3.333    0.000    0.000    0.000    0.000 
#    0.000    0.000    0.000    0.000    0.000    0.000 
#
# Total GULP energy -167202.403457 kJ/mol
# GULP energy per Si atom -5573.413449 kJ/mol
# Density = 1.950349 g / cm^3
# Si number density = 19.547987 Si / 1000 Ang^3
#
#
#
# Elastic Constant Matrix: (Units=GPa)
#
#
# Indices 1 2 3 4 5 6 
#
# 1 57.0875 22.3645 17.6087 0.0000 -0.6581 0.0000
# 2 22.3645 105.7531 23.0087 0.0000 4.6639 0.0000
# 3 17.6087 23.0087 96.6105 0.0000 -1.0836 0.0000
# 4 0.0000 0.0000 0.0000 29.6314 0.0000 2.1041
# 5 -0.6581 4.6639 -1.0836 0.0000 30.4339 0.0000
# 6 0.0000 0.0000 0.0000 2.1041 0.0000 26.8947
#
#
#
# Elastic Compliance Matrix: (Units=1/GPa)
#
#
# Indices 1 2 3 4 5 6 
#
# 1 0.019792 -0.003630 -0.002733 0.000000 0.000887 0.000000
# 2 -0.003630 0.010718 -0.001911 0.000000 -0.001789 0.000000
# 3 -0.002733 -0.001911 0.011311 0.000000 0.000637 0.000000
# 4 0.000000 0.000000 0.000000 0.033937 0.000000 -0.002655
# 5 0.000887 -0.001789 0.000637 0.000000 0.033174 0.000000
# 6 0.000000 0.000000 0.000000 -0.002655 0.000000 0.037390
#
#
# Mechanical properties :
#
#
# Convention : Reuss Voigt Hill
#
# Bulk Modulus (GPa) = 39.56705 42.82387 41.19546
# Shear Modulus (GPa) = 29.18938 30.48995 29.83967
#
# Velocity S-wave (km/s) = 3.86841 3.95365 3.91126
# Velocity P-wave (km/s) = 6.34332 6.54190 6.44337
#
# Compressibility (1/GPa) = 0.02527355
#
# Stress axis : x y z
#
# Youngs Moduli (GPa) = 50.52473 93.29760 88.40761
#
# Poissons Ratio (x) = 0.33868 0.24161
# Poissons Ratio (y) = 0.18341 0.16896
# Poissons Ratio (z) = 0.13808 0.17830
#
# Static dielectric constant tensor:
#      x y z
#    x 1.731670 0.000000 0.020090 
#    y 0.000000 1.716500 0.000000 
#    z 0.020090 0.000000 1.719430 
# 
# From -- ./inp_files/50307.got.cif
#   From: 2010.05.17/outbox.cif.g08.bks.cpg/sg13_26_cif.got.tgz:50307.got - 2010.06.03 16:44:36.
