data_PCOD9230695
_publ_section_title
;
Structure prediction by ZEFSAII (Michael W. Deem and Ramdas Pophale) SiO2 
 PCOD9230695
Probable space group: P 2/C
;
_chemical_formula_sum "Si O2"
_cell_formula_units_Z 30
_cell_length_a 11.692250
_cell_length_b 8.948414
_cell_length_c 14.930313
_cell_angle_alpha 90.000000
_cell_angle_beta 80.957885
_cell_angle_gamma 90.000000
_cell_volume 1542.702986
_symmetry_space_group_name_H-M "P 2/C"
_symmetry_group_IT_number 13
_symmetry_cell_setting 'monoclinic'
loop_
_space_group_symop_operation_xyz
x,y,z
-x,y,1/2-z
-x,-y,-z
x,-y,1/2+z
loop_
_atom_site_type_symbol
_atom_site_label
_atom_site_fract_x
_atom_site_fract_y
_atom_site_fract_z
Si Si1 0.500000 0.168880 0.250000
Si Si2 0.259410 0.104696 0.873920
Si Si3 0.483152 0.073413 0.600670
Si Si4 0.874650 0.488623 0.217693
Si Si5 0.149916 0.352942 0.529417
Si Si6 0.739628 0.744780 0.316392
Si Si7 0.896163 0.660127 0.023911
Si Si8 0.262514 0.245867 0.351623
O O1 0.540294 0.060820 0.326119
O O2 0.389946 0.260062 0.295722
O O3 0.237135 0.159481 0.775306
O O4 0.181037 0.194695 0.953776
O O5 0.392776 0.136624 0.883058
O O6 0.241995 0.927773 0.874915
O O7 0.500000 0.000000 0.500000
O O8 0.382018 0.196107 0.627924
O O9 0.768440 0.576153 0.279348
O O10 0.888721 0.574270 0.120805
O O11 0.830501 0.322754 0.201827
O O12 0.000000 0.496774 0.250000
O O13 0.169635 0.251545 0.613251
O O14 0.140002 0.532810 0.542727
O O15 0.253478 0.327837 0.447803
O O16 0.030850 0.304173 0.496771
#
# Coordination Sequence:
#
# PCOD9230695 Si02
#       8
#     2   4   4   4   4   4   4   4
#     4  10  20  44  56  88 130 158 206 266 316 368
#     4  10  21  40  62  89 124 163 211 260 316 378
#     4  11  21  40  66  88 125 167 208 262 325 375
#     4  10  20  38  57  86 126 166 206 258 318 370
#     4  10  20  37  62  87 122 167 203 256 325 371
#     4  11  19  37  65  89 118 167 213 254 318 383
#     4   9  20  39  60  84 128 163 204 261 311 384
#     4  10  21  40  60  86 125 164 203 264 322 367
#
# _framework density 19.446387000000001
#
# number of rings (size 3 to 8) (size 9 to 14) (size 15 to 20)
#    0.000    1.867    4.000    1.600    0.000    0.533 
#   12.000    0.667    0.000    0.000    0.000    0.000 
#    0.000    0.000    0.000    0.000    0.000    0.000 
#
# Total GULP energy -167035.327334 kJ/mol
# GULP energy per Si atom -5567.844244 kJ/mol
# Density = 1.940213 g / cm^3
# Si number density = 19.446387 Si / 1000 Ang^3
#
#
#
# Elastic Constant Matrix: (Units=GPa)
#
#
# Indices 1 2 3 4 5 6 
#
# 1 86.7336 47.0175 20.1441 0.0000 -15.9644 0.0000
# 2 47.0175 71.1395 5.9518 0.0000 -1.2966 0.0000
# 3 20.1441 5.9518 76.5812 0.0000 -2.9541 0.0000
# 4 0.0000 0.0000 0.0000 30.6085 0.0000 -8.6420
# 5 -15.9644 -1.2966 -2.9541 0.0000 34.5099 0.0000
# 6 0.0000 0.0000 0.0000 -8.6420 0.0000 36.8668
#
#
#
# Elastic Compliance Matrix: (Units=1/GPa)
#
#
# Indices 1 2 3 4 5 6 
#
# 1 0.021697 -0.013815 -0.004281 0.000000 0.009152 0.000000
# 2 -0.013815 0.022952 0.001642 0.000000 -0.005388 0.000000
# 3 -0.004281 0.001642 0.014029 0.000000 -0.000718 0.000000
# 4 0.000000 0.000000 0.000000 0.034986 0.000000 0.008201
# 5 0.009152 -0.005388 -0.000718 0.000000 0.032947 0.000000
# 6 0.000000 0.000000 0.000000 0.008201 0.000000 0.029047
#
#
# Mechanical properties :
#
#
# Convention : Reuss Voigt Hill
#
# Bulk Modulus (GPa) = 38.80319 42.29790 40.55055
# Shear Modulus (GPa) = 25.36065 31.15311 28.25688
#
# Velocity S-wave (km/s) = 3.61519 4.00684 3.81605
# Velocity P-wave (km/s) = 6.11747 6.57302 6.34933
#
# Compressibility (1/GPa) = 0.02577108
#
# Stress axis : x y z
#
# Youngs Moduli (GPa) = 46.08848 43.56902 71.28253
#
# Poissons Ratio (x) = 0.60192 0.30513
# Poissons Ratio (y) = 0.63673 -0.11707
# Poissons Ratio (z) = 0.19729 -0.07156
#
# Static dielectric constant tensor:
#      x y z
#    x 1.674280 0.000000 -0.011420 
#    y 0.000000 1.682630 0.000000 
#    z -0.011420 0.000000 1.748610 
# 
# From -- ./inp_files/50049.got.cif
#   From: 2010.05.17/outbox.cif.g08.bks.cpg/sg13_26_cif.got.tgz:50049.got - 2010.06.03 16:44:36.
