data_PCOD9230396
_publ_section_title
;
Structure prediction by ZEFSAII (Michael W. Deem and Ramdas Pophale) SiO2 
 PCOD9230396
Probable space group: P 2/C
;
_chemical_formula_sum "Si O2"
_cell_formula_units_Z 18
_cell_length_a 8.155437
_cell_length_b 8.790658
_cell_length_c 8.857297
_cell_angle_alpha 90.000000
_cell_angle_beta 86.531760
_cell_angle_gamma 90.000000
_cell_volume 633.831302
_symmetry_space_group_name_H-M "P 2/C"
_symmetry_group_IT_number 13
_symmetry_cell_setting 'monoclinic'
loop_
_space_group_symop_operation_xyz
x,y,z
-x,y,1/2-z
-x,-y,-z
x,-y,1/2+z
loop_
_atom_site_type_symbol
_atom_site_label
_atom_site_fract_x
_atom_site_fract_y
_atom_site_fract_z
Si Si1 0.759704 0.928109 0.519246
Si Si2 0.565003 0.208407 0.578939
Si Si3 0.656265 0.559741 0.646767
Si Si4 0.885680 0.570431 0.378728
Si Si5 0.000000 0.988361 0.750000
O O1 0.575137 0.861226 0.523024
O O2 0.874986 0.920370 0.366163
O O3 0.726471 0.111153 0.537985
O O4 0.876667 0.890019 0.653213
O O5 0.500000 0.170045 0.750000
O O6 0.605254 0.388971 0.588776
O O7 0.500000 0.619514 0.750000
O O8 0.741949 0.634660 0.494398
O O9 0.790154 0.541520 0.771004
O O10 0.000000 0.653007 0.250000
O O11 0.000000 0.500000 0.500000
#
# Coordination Sequence:
#
# PCOD9230396 Si02
#       5
#     4   4   4   4   2
#     4  10  20  38  61  85 131 156 213 251 314 357
#     4  10  20  37  61  92 118 170 203 252 305 380
#     4  10  20  37  67  91 118 165 215 245 312 383
#     4   9  19  39  63  91 127 160 194 269 321 364
#     4  10  20  36  62  88 118 172 194 266 312 366
#
# _framework density 28.398721999999999
#
# number of rings (size 3 to 8) (size 9 to 14) (size 15 to 20)
#    0.000    2.222    2.222    0.667    0.000    0.000 
#    8.000    0.000   34.222    0.000    0.000    0.000 
#    0.000    0.000    0.000    0.000    0.000    0.000 
#
# Total GULP energy -100576.962405 kJ/mol
# GULP energy per Si atom -5587.609022 kJ/mol
# Density = 2.833409 g / cm^3
# Si number density = 28.398722 Si / 1000 Ang^3
#
#
#
# Elastic Constant Matrix: (Units=GPa)
#
#
# Indices 1 2 3 4 5 6 
#
# 1 163.2016 56.0452 82.2800 0.0000 -7.7296 0.0000
# 2 56.0452 76.8933 38.3771 0.0000 -7.2622 0.0000
# 3 82.2800 38.3771 225.2333 0.0000 -35.6259 0.0000
# 4 0.0000 0.0000 0.0000 28.0633 0.0000 -24.5488
# 5 -7.7296 -7.2622 -35.6259 0.0000 98.4933 0.0000
# 6 0.0000 0.0000 0.0000 -24.5488 0.0000 4.0925
#
#
#
# Elastic Compliance Matrix: (Units=1/GPa)
#
#
# Indices 1 2 3 4 5 6 
#
# 1 0.009289 -0.005559 -0.002541 0.000000 -0.000600 0.000000
# 2 -0.005559 0.017544 -0.000873 0.000000 0.000542 0.000000
# 3 -0.002541 -0.000873 0.005807 0.000000 0.001837 0.000000
# 4 0.000000 0.000000 0.000000 -0.008390 0.000000 -0.050326
# 5 -0.000600 0.000542 0.001837 0.000000 0.010810 0.000000
# 6 0.000000 0.000000 0.000000 -0.050326 0.000000 -0.057531
#
#
# Mechanical properties :
#
#
# Convention : Reuss Voigt Hill
#
# Bulk Modulus (GPa) = 68.05378 90.97033 79.51206
# Shear Modulus (GPa) = 13398.88733 45.37154 6722.12943
#
# Velocity S-wave (km/s) = 68.76317 4.00141 48.70516
# Velocity P-wave (km/s) = 79.55195 7.31103 56.48878
#
# Compressibility (1/GPa) = 0.01469426
#
# Stress axis : x y z
#
# Youngs Moduli (GPa) = 107.65274 57.00096 172.19425
#
# Poissons Ratio (x) = 0.31687 0.43757
# Poissons Ratio (y) = 0.59844 0.15029
# Poissons Ratio (z) = 0.27356 0.04975
#
# Static dielectric constant tensor:
#      x y z
#    x 2.311010 0.000000 0.037710 
#    y 0.000000 2.374210 0.000000 
#    z 0.037710 0.000000 2.172410 
# 
# From -- ./inp_files/11791.got.cif
#   From: 2010.05.17/outbox.cif.g08.bks.cpg/sg13_6_cif.got.tgz:11791.got - 2010.06.03 16:44:36.
