data_PCOD9230590
_publ_section_title
;
Structure prediction by ZEFSAII (Michael W. Deem and Ramdas Pophale) SiO2 
 PCOD9230590
Probable space group: P 2/C
;
_chemical_formula_sum "Si O2"
_cell_formula_units_Z 26
_cell_length_a 20.593739
_cell_length_b 8.929143
_cell_length_c 8.238894
_cell_angle_alpha 90.000000
_cell_angle_beta 49.879096
_cell_angle_gamma 90.000000
_cell_volume 1158.503188
_symmetry_space_group_name_H-M "P 2/C"
_symmetry_group_IT_number 13
_symmetry_cell_setting 'monoclinic'
loop_
_space_group_symop_operation_xyz
x,y,z
-x,y,1/2-z
-x,-y,-z
x,-y,1/2+z
loop_
_atom_site_type_symbol
_atom_site_label
_atom_site_fract_x
_atom_site_fract_y
_atom_site_fract_z
Si Si1 0.500000 0.080864 0.250000
Si Si2 0.060238 0.901929 0.286081
Si Si3 0.349880 0.527567 0.067292
Si Si4 0.590360 0.726608 0.825930
Si Si5 0.255110 0.324342 0.005513
Si Si6 0.164014 0.152804 0.919073
Si Si7 0.680655 0.053861 0.389755
O O1 0.490714 0.180267 0.101364
O O2 0.413748 0.989522 0.403523
O O3 0.118759 0.814520 0.320487
O O4 0.000000 0.821575 0.250000
O O5 0.000000 0.000000 0.500000
O O6 0.116336 0.018695 0.091172
O O7 0.412056 0.392970 0.024311
O O8 0.325769 0.620352 0.264426
O O9 0.385565 0.633552 0.872059
O O10 0.265305 0.446658 0.131120
O O11 0.663343 0.844954 0.757981
O O12 0.173157 0.291655 0.027532
O O13 0.276496 0.166450 0.053004
O O14 0.257696 0.085768 0.733894
#
# Coordination Sequence:
#
# PCOD9230590 Si02
#       7
#     2   4   4   4   4   4   4
#     4  12  24  38  56  88 124 160 204 256 308 352
#     4   9  20  36  58  96 132 152 184 232 312 384
#     4   9  21  40  58  80 115 160 223 246 292 339
#     4  10  22  39  57  79 116 155 209 255 296 345
#     4  10  20  37  59  86 118 160 207 249 291 352
#     4  11  19  36  62  93 126 155 192 242 308 365
#     4  11  23  37  59  89 119 161 197 251 309 354
#
# _framework density 22.442751000000001
#
# number of rings (size 3 to 8) (size 9 to 14) (size 15 to 20)
#    0.000    1.846    1.538    2.308    2.154    1.846 
#    0.000    5.385    0.000    0.000    0.000   14.000 
#    0.000    0.000    0.000    0.000    0.000    0.000 
#
# Total GULP energy -145132.745482 kJ/mol
# GULP energy per Si atom -5582.028672 kJ/mol
# Density = 2.239167 g / cm^3
# Si number density = 22.442751 Si / 1000 Ang^3
#
#
#
# Elastic Constant Matrix: (Units=GPa)
#
#
# Indices 1 2 3 4 5 6 
#
# 1 120.2012 0.6795 3.5421 0.0000 28.9022 0.0000
# 2 0.6795 30.6786 -4.9526 0.0000 7.5209 0.0000
# 3 3.5421 -4.9526 50.7034 0.0000 4.7956 0.0000
# 4 0.0000 0.0000 0.0000 17.2196 0.0000 15.2413
# 5 28.9022 7.5209 4.7956 0.0000 37.1628 0.0000
# 6 0.0000 0.0000 0.0000 15.2413 0.0000 29.6943
#
#
#
# Elastic Compliance Matrix: (Units=1/GPa)
#
#
# Indices 1 2 3 4 5 6 
#
# 1 0.010333 0.001885 0.000262 0.000000 -0.008452 0.000000
# 2 0.001885 0.035486 0.004204 0.000000 -0.009190 0.000000
# 3 0.000262 0.004204 0.020464 0.000000 -0.003695 0.000000
# 4 0.000000 0.000000 0.000000 0.106421 0.000000 -0.054623
# 5 -0.008452 -0.009190 -0.003695 0.000000 0.035818 0.000000
# 6 0.000000 0.000000 0.000000 -0.054623 0.000000 0.061713
#
#
# Mechanical properties :
#
#
# Convention : Reuss Voigt Hill
#
# Bulk Modulus (GPa) = 12.66069 22.23571 17.44820
# Shear Modulus (GPa) = 17.61413 30.30295 23.95854
#
# Velocity S-wave (km/s) = 2.80455 3.67854 3.27087
# Velocity P-wave (km/s) = 4.01758 5.28880 4.69640
#
# Compressibility (1/GPa) = 0.07898462
#
# Stress axis : x y z
#
# Youngs Moduli (GPa) = 96.77555 28.18022 48.86548
#
# Poissons Ratio (x) = -0.05313 -0.01279
# Poissons Ratio (y) = -0.18245 -0.20541
# Poissons Ratio (z) = -0.02532 -0.11846
#
# Static dielectric constant tensor:
#      x y z
#    x 1.920460 0.000000 0.035270 
#    y 0.000000 1.970430 0.000000 
#    z 0.035270 0.000000 1.833170 
# 
# From -- ./inp_files/22938.got.cif
#   From: 2010.05.17/outbox.cif.g08.bks.cpg/sg13_12_cif.got.tgz:22938.got - 2010.06.03 16:44:36.
