data_PCOD9230810
_publ_section_title
;
Structure prediction by ZEFSAII (Michael W. Deem and Ramdas Pophale) SiO2 
 PCOD9230810
Probable space group: P 2/C
;
_chemical_formula_sum "Si O2"
_cell_formula_units_Z 20
_cell_length_a 5.834371
_cell_length_b 6.544254
_cell_length_c 22.397328
_cell_angle_alpha 90.000000
_cell_angle_beta 87.906896
_cell_angle_gamma 90.000000
_cell_volume 854.595378
_symmetry_space_group_name_H-M "P 2/C"
_symmetry_group_IT_number 13
_symmetry_cell_setting 'monoclinic'
loop_
_space_group_symop_operation_xyz
x,y,z
-x,y,1/2-z
-x,-y,-z
x,-y,1/2+z
loop_
_atom_site_type_symbol
_atom_site_label
_atom_site_fract_x
_atom_site_fract_y
_atom_site_fract_z
Si Si1 0.252426 0.790700 0.219379
Si Si2 0.981541 0.519219 0.856718
Si Si3 0.622278 0.451022 0.083814
Si Si4 0.253830 0.730381 0.036447
Si Si5 0.250846 0.898870 0.611174
O O1 0.500000 0.787548 0.250000
O O2 0.174927 0.569680 0.193768
O O3 0.000000 0.857254 0.250000
O O4 0.295960 0.939540 0.162680
O O5 0.906662 0.392319 0.916307
O O6 0.960006 0.760346 0.865749
O O7 0.252191 0.480793 0.856726
O O8 0.504361 0.646787 0.054262
O O9 0.439865 0.275720 0.100553
O O10 0.773476 0.343516 0.030539
O O11 0.226720 0.968032 0.051435
#
# Coordination Sequence:
#
# PCOD9230810 Si02
#       5
#     4   4   4   4   4
#     4  11  28  47  71  93 129 174 227 289 347 390
#     4  10  23  39  65  94 128 173 220 275 324 405
#     4  10  20  37  67  95 140 171 213 263 329 402
#     4   9  20  38  59  99 139 176 208 258 332 399
#     4  10  23  39  64  97 128 170 222 275 326 403
#
# _framework density 23.402889999999999
#
# number of rings (size 3 to 8) (size 9 to 14) (size 15 to 20)
#    0.000    2.000    0.000    1.200   11.200    4.000 
#    0.000    0.000    0.000    0.000    0.000    0.000 
#    0.000    0.000    0.000    0.000    0.000    0.000 
#
# Total GULP energy -111417.365939 kJ/mol
# GULP energy per Si atom -5570.868297 kJ/mol
# Density = 2.334962 g / cm^3
# Si number density = 23.402890 Si / 1000 Ang^3
#
#
#
# Elastic Constant Matrix: (Units=GPa)
#
#
# Indices 1 2 3 4 5 6 
#
# 1 69.7385 9.1678 34.6922 0.0000 32.0134 0.0000
# 2 9.1678 92.4745 11.0949 0.0000 12.7119 0.0000
# 3 34.6922 11.0949 63.0864 0.0000 9.6591 0.0000
# 4 0.0000 0.0000 0.0000 27.8807 0.0000 -6.8116
# 5 32.0134 12.7119 9.6591 0.0000 52.2884 0.0000
# 6 0.0000 0.0000 0.0000 -6.8116 0.0000 18.6541
#
#
#
# Elastic Compliance Matrix: (Units=1/GPa)
#
#
# Indices 1 2 3 4 5 6 
#
# 1 0.027364 0.000845 -0.012967 0.000000 -0.014564 0.000000
# 2 0.000845 0.011372 -0.002019 0.000000 -0.002909 0.000000
# 3 -0.012967 -0.002019 0.022688 0.000000 0.004239 0.000000
# 4 0.000000 0.000000 0.000000 0.039380 0.000000 0.014380
# 5 -0.014564 -0.002909 0.004239 0.000000 0.027965 0.000000
# 6 0.000000 0.000000 0.000000 0.014380 0.000000 0.058858
#
#
# Mechanical properties :
#
#
# Convention : Reuss Voigt Hill
#
# Bulk Modulus (GPa) = 30.17307 37.24548 33.70928
# Shear Modulus (GPa) = 22.03055 31.12094 26.57575
#
# Velocity S-wave (km/s) = 3.07149 3.65059 3.37349
# Velocity P-wave (km/s) = 5.04971 5.80676 5.44142
#
# Compressibility (1/GPa) = 0.03314213
#
# Stress axis : x y z
#
# Youngs Moduli (GPa) = 36.54433 87.93396 44.07616
#
# Poissons Ratio (x) = -0.07429 0.57152
# Poissons Ratio (y) = -0.03088 0.08900
# Poissons Ratio (z) = 0.47386 0.17756
#
# Static dielectric constant tensor:
#      x y z
#    x 2.024800 0.000000 -0.063750 
#    y 0.000000 1.850040 0.000000 
#    z -0.063750 0.000000 1.915680 
# 
# From -- ./inp_files/89899.got.cif
#   From: 2010.05.17/outbox.cif.g08.bks.cpg/sg13_45_cif.got.tgz:89899.got - 2010.06.03 16:44:36.
