data_PCOD9230088
_publ_section_title
;
Structure prediction by ZEFSAII (Michael W. Deem and Ramdas Pophale) SiO2 
 PCOD9230088
Probable space group: P 2/C
;
_chemical_formula_sum "Si O2"
_cell_formula_units_Z 24
_cell_length_a 18.634128
_cell_length_b 11.366878
_cell_length_c 12.146891
_cell_angle_alpha 90.000000
_cell_angle_beta 151.826389
_cell_angle_gamma 90.000000
_cell_volume 1214.760401
_symmetry_space_group_name_H-M "P 2/C"
_symmetry_group_IT_number 13
_symmetry_cell_setting 'monoclinic'
loop_
_space_group_symop_operation_xyz
x,y,z
-x,y,1/2-z
-x,-y,-z
x,-y,1/2+z
loop_
_atom_site_type_symbol
_atom_site_label
_atom_site_fract_x
_atom_site_fract_y
_atom_site_fract_z
Si Si1 0.181430 0.772535 0.880965
Si Si2 0.822154 0.537269 0.755650
Si Si3 0.321202 0.705777 0.511126
Si Si4 0.179659 0.163825 0.614116
Si Si5 0.139695 0.076089 0.136257
Si Si6 0.153464 0.306753 0.010093
O O1 0.200393 0.642315 0.861227
O O2 0.237469 0.870350 0.868957
O O3 0.999171 0.800193 0.632303
O O4 0.244144 0.784594 0.088080
O O5 0.726258 0.425060 0.591215
O O6 0.782137 0.596487 0.818895
O O7 0.000000 0.500000 0.000000
O O8 0.244247 0.788357 0.315492
O O9 0.259375 0.725323 0.550912
O O10 0.500000 0.721277 0.750000
O O11 0.207743 0.024132 0.650853
O O12 0.105315 0.191351 0.016213
O O13 0.000000 0.000000 0.000000
O O14 0.000000 0.357572 0.750000
#
# Coordination Sequence:
#
# PCOD9230088 Si02
#       6
#     4   4   4   4   4   4
#     4   9  19  34  60  94 115 157 211 266 313 371
#     4  11  21  40  62  91 123 164 218 268 321 375
#     4  12  27  42  61  94 133 172 215 263 325 390
#     4  10  20  35  61  87 128 158 202 265 318 370
#     4   9  19  34  60  97 124 153 207 270 323 365
#     4  11  22  38  68  94 126 167 213 269 322 382
#
# _framework density 19.756982000000001
#
# number of rings (size 3 to 8) (size 9 to 14) (size 15 to 20)
#    0.000    1.667    3.333    2.000    9.333    0.667 
#    0.000    0.833    0.000    0.000    0.000    0.000 
#    0.000    0.000    0.000    0.000    0.000    0.000 
#
# Total GULP energy -133796.653472 kJ/mol
# GULP energy per Si atom -5574.860561 kJ/mol
# Density = 1.971201 g / cm^3
# Si number density = 19.756982 Si / 1000 Ang^3
#
#
#
# Elastic Constant Matrix: (Units=GPa)
#
#
# Indices 1 2 3 4 5 6 
#
# 1 95.5196 -3.3245 32.6493 0.0000 -25.1413 0.0000
# 2 -3.3245 74.4801 -1.6661 0.0000 -16.8132 0.0000
# 3 32.6493 -1.6661 41.2344 0.0000 -5.3208 0.0000
# 4 0.0000 0.0000 0.0000 4.9915 0.0000 -3.0619
# 5 -25.1413 -16.8132 -5.3208 0.0000 30.2588 0.0000
# 6 0.0000 0.0000 0.0000 -3.0619 0.0000 18.6638
#
#
#
# Elastic Compliance Matrix: (Units=1/GPa)
#
#
# Indices 1 2 3 4 5 6 
#
# 1 0.019305 0.004200 -0.013041 0.000000 0.016081 0.000000
# 2 0.004200 0.016392 -0.001062 0.000000 0.012411 0.000000
# 3 -0.013041 -0.001062 0.033828 0.000000 -0.005477 0.000000
# 4 0.000000 0.000000 0.000000 0.222758 0.000000 0.036544
# 5 0.016081 0.012411 -0.005477 0.000000 0.052343 0.000000
# 6 0.000000 0.000000 0.000000 0.036544 0.000000 0.059575
#
#
# Mechanical properties :
#
#
# Convention : Reuss Voigt Hill
#
# Bulk Modulus (GPa) = 20.11291 29.61682 24.86487
# Shear Modulus (GPa) = 11.34869 23.02120 17.18494
#
# Velocity S-wave (km/s) = 2.39929 3.41723 2.95246
# Velocity P-wave (km/s) = 4.22821 5.53110 4.92295
#
# Compressibility (1/GPa) = 0.04971931
#
# Stress axis : x y z
#
# Youngs Moduli (GPa) = 51.79892 61.00601 29.56140
#
# Poissons Ratio (x) = -0.25623 0.38552
# Poissons Ratio (y) = -0.21756 0.03139
# Poissons Ratio (z) = 0.67552 0.06478
#
# Static dielectric constant tensor:
#      x y z
#    x 1.800460 0.000000 -0.001980 
#    y 0.000000 1.707940 0.000000 
#    z -0.001980 0.000000 1.679180 
# 
# From -- ./inp_files/39227.got.cif
#   From: 2010.05.17/outbox.cif.g08.bks.cpg/sg13_20_cif.got.tgz:39227.got - 2010.06.03 16:44:36.
