data_PCOD9230171
_publ_section_title
;
Structure prediction by ZEFSAII (Michael W. Deem and Ramdas Pophale) SiO2 
 PCOD9230171
Probable space group: P 2/C
;
_chemical_formula_sum "Si O2"
_cell_formula_units_Z 28
_cell_length_a 30.263515
_cell_length_b 9.153010
_cell_length_c 30.737842
_cell_angle_alpha 90.000000
_cell_angle_beta 170.523577
_cell_angle_gamma 90.000000
_cell_volume 1401.834112
_symmetry_space_group_name_H-M "P 2/C"
_symmetry_group_IT_number 13
_symmetry_cell_setting 'monoclinic'
loop_
_space_group_symop_operation_xyz
x,y,z
-x,y,1/2-z
-x,-y,-z
x,-y,1/2+z
loop_
_atom_site_type_symbol
_atom_site_label
_atom_site_fract_x
_atom_site_fract_y
_atom_site_fract_z
Si Si1 0.484774 0.678743 0.689129
Si Si2 0.762906 0.373772 0.373675
Si Si3 0.972905 0.070963 0.869641
Si Si4 0.140897 0.189149 0.182308
Si Si5 0.692212 0.512595 0.127972
Si Si6 0.690938 0.797027 0.174277
Si Si7 0.013083 0.877149 0.310166
O O1 0.500000 0.597417 0.750000
O O2 0.609698 0.597724 0.769635
O O3 0.190873 0.740306 0.393536
O O4 0.686313 0.816600 0.891890
O O5 0.796896 0.196790 0.400970
O O6 0.068513 0.426781 0.670381
O O7 0.592521 0.457652 0.171664
O O8 0.736462 0.138541 0.670299
O O9 0.931778 0.055115 0.777826
O O10 0.995614 0.912584 0.913768
O O11 0.208135 0.351435 0.264117
O O12 0.432219 0.144107 0.447465
O O13 0.949301 0.178284 0.954699
O O14 0.682544 0.621966 0.159552
O O15 0.000000 0.955036 0.250000
#
# Coordination Sequence:
#
# PCOD9230171 Si02
#       7
#     4   4   4   4   4   4   4
#     4   9  16  29  52  81 106 132 175 229 272 315
#     4  10  20  36  56  79 107 144 183 223 276 328
#     4  10  22  37  58  83 110 141 182 233 274 319
#     4  12  24  37  55  81 111 147 186 224 271 330
#     4  11  22  38  55  75 109 151 184 220 270 333
#     4  11  22  37  55  80 108 145 185 228 270 319
#     4   9  18  32  53  81 109 136 171 219 276 326
#
# _framework density 19.973832000000002
#
# number of rings (size 3 to 8) (size 9 to 14) (size 15 to 20)
#    0.000    1.714    0.000    6.857    0.000    5.714 
#    0.000    0.000    0.000    1.714    0.000    1.000 
#    0.000    0.000    0.000    0.000    0.000    0.000 
#
# Total GULP energy -156000.472325 kJ/mol
# GULP energy per Si atom -5571.445440 kJ/mol
# Density = 1.992837 g / cm^3
# Si number density = 19.973832 Si / 1000 Ang^3
#
#
#
# Elastic Constant Matrix: (Units=GPa)
#
#
# Indices 1 2 3 4 5 6 
#
# 1 316.4897 -225.5804 102.4574 0.0000 2.4491 0.0000
# 2 -225.5804 461.5612 -127.5977 0.0000 -15.8788 0.0000
# 3 102.4574 -127.5977 119.3327 0.0000 6.9261 0.0000
# 4 0.0000 0.0000 0.0000 115.3078 0.0000 14.8362
# 5 2.4491 -15.8788 6.9261 0.0000 28.5846 0.0000
# 6 0.0000 0.0000 0.0000 14.8362 0.0000 16.0531
#
#
#
# Elastic Compliance Matrix: (Units=1/GPa)
#
#
# Indices 1 2 3 4 5 6 
#
# 1 0.005388 0.001956 -0.002608 0.000000 0.001257 0.000000
# 2 0.001956 0.003810 0.002314 0.000000 0.001388 0.000000
# 3 -0.002608 0.002314 0.013191 0.000000 -0.001687 0.000000
# 4 0.000000 0.000000 0.000000 0.009843 0.000000 -0.009097
# 5 0.001257 0.001388 -0.001687 0.000000 0.036056 0.000000
# 6 0.000000 0.000000 0.000000 -0.009097 0.000000 0.070701
#
#
# Mechanical properties :
#
#
# Convention : Reuss Voigt Hill
#
# Bulk Modulus (GPa) = 38.89162 43.99358 41.44260
# Shear Modulus (GPa) = 34.66529 108.52939 71.59734
#
# Velocity S-wave (km/s) = 4.17050 7.37928 5.99361
# Velocity P-wave (km/s) = 6.53485 9.73028 8.28802
#
# Compressibility (1/GPa) = 0.02571248
#
# Stress axis : x y z
#
# Youngs Moduli (GPa) = 185.59415 262.48173 75.80683
#
# Poissons Ratio (x) = -0.51331 0.19771
# Poissons Ratio (y) = -0.36295 -0.17542
# Poissons Ratio (z) = 0.48404 -0.60740
#
# Static dielectric constant tensor:
#      x y z
#    x 1.776040 0.000000 0.007980 
#    y 0.000000 1.778930 0.000000 
#    z 0.007980 0.000000 1.716680 
# 
# From -- ./inp_files/98084.got.cif
#   From: 2010.05.17/outbox.cif.g08.bks.cpg/sg13_50_cif.got.tgz:98084.got - 2010.06.03 16:44:36.
