data_PCOD9230672
_publ_section_title
;
Structure prediction by ZEFSAII (Michael W. Deem and Ramdas Pophale) SiO2 
 PCOD9230672
Probable space group: P 2/C
;
_chemical_formula_sum "Si O2"
_cell_formula_units_Z 18
_cell_length_a 23.127714
_cell_length_b 5.358841
_cell_length_c 15.652525
_cell_angle_alpha 90.000000
_cell_angle_beta 150.809566
_cell_angle_gamma 90.000000
_cell_volume 946.135044
_symmetry_space_group_name_H-M "P 2/C"
_symmetry_group_IT_number 13
_symmetry_cell_setting 'monoclinic'
loop_
_space_group_symop_operation_xyz
x,y,z
-x,y,1/2-z
-x,-y,-z
x,-y,1/2+z
loop_
_atom_site_type_symbol
_atom_site_label
_atom_site_fract_x
_atom_site_fract_y
_atom_site_fract_z
Si Si1 0.040657 0.864547 0.465455
Si Si2 0.840502 0.503316 0.652711
Si Si3 0.625314 0.280062 0.458074
Si Si4 0.000000 0.784475 0.750000
Si Si5 0.721577 0.226462 0.144836
O O1 0.178013 0.789774 0.653851
O O2 0.954217 0.629592 0.341174
O O3 0.023706 0.043817 0.362427
O O4 0.000000 0.000000 0.500000
O O5 0.729700 0.317150 0.521335
O O6 0.887204 0.608271 0.624143
O O7 0.796596 0.732762 0.653998
O O8 0.500000 0.280567 0.250000
O O9 0.643252 0.522184 0.542166
O O10 0.649334 0.026798 0.540357
#
# Coordination Sequence:
#
# PCOD9230672 Si02
#       5
#     4   4   4   2   4
#     4  12  20  40  59  92 131 162 211 256 326 373
#     4  10  22  36  60  94 123 164 204 257 317 371
#     4  10  20  37  61  91 121 165 215 252 304 372
#     4  12  24  34  62  96 132 164 202 266 320 382
#     4  10  21  35  65  87 119 165 206 256 307 368
#
# _framework density 19.024768000000002
#
# number of rings (size 3 to 8) (size 9 to 14) (size 15 to 20)
#    1.333    0.000    4.444    2.000    3.111    0.000 
#    0.000    0.000    0.000    2.667    0.000    0.000 
#    0.000    0.000    0.000    0.000    0.000    0.000 
#
# Total GULP energy -100251.288476 kJ/mol
# GULP energy per Si atom -5569.516026 kJ/mol
# Density = 1.898147 g / cm^3
# Si number density = 19.024768 Si / 1000 Ang^3
#
#
#
# Elastic Constant Matrix: (Units=GPa)
#
#
# Indices 1 2 3 4 5 6 
#
# 1 36.8966 9.8087 8.7787 0.0000 -15.7743 0.0000
# 2 9.8087 136.6689 66.4250 0.0000 2.4906 0.0000
# 3 8.7787 66.4250 156.0166 0.0000 16.9124 0.0000
# 4 0.0000 0.0000 0.0000 25.6129 0.0000 -2.7886
# 5 -15.7743 2.4906 16.9124 0.0000 22.6662 0.0000
# 6 0.0000 0.0000 0.0000 -2.7886 0.0000 13.8695
#
#
#
# Elastic Compliance Matrix: (Units=1/GPa)
#
#
# Indices 1 2 3 4 5 6 
#
# 1 0.043620 -0.000931 -0.005832 0.000000 0.034811 0.000000
# 2 -0.000931 0.009337 -0.004071 0.000000 0.001364 0.000000
# 3 -0.005832 -0.004071 0.009642 0.000000 -0.010806 0.000000
# 4 0.000000 0.000000 0.000000 0.039917 0.000000 0.008026
# 5 0.034811 0.001364 -0.010806 0.000000 0.076258 0.000000
# 6 0.000000 0.000000 0.000000 0.008026 0.000000 0.073714
#
#
# Mechanical properties :
#
#
# Convention : Reuss Voigt Hill
#
# Bulk Modulus (GPa) = 24.42995 55.51187 39.97091
# Shear Modulus (GPa) = 17.37320 28.73436 23.05378
#
# Velocity S-wave (km/s) = 3.02518 3.89056 3.48484
# Velocity P-wave (km/s) = 5.00712 7.03022 6.10309
#
# Compressibility (1/GPa) = 0.04093336
#
# Stress axis : x y z
#
# Youngs Moduli (GPa) = 22.92520 107.09505 103.70951
#
# Poissons Ratio (x) = 0.09966 0.60480
# Poissons Ratio (y) = 0.02133 0.42220
# Poissons Ratio (z) = 0.13369 0.43598
#
# Static dielectric constant tensor:
#      x y z
#    x 1.668460 0.000000 0.007630 
#    y 0.000000 1.717800 0.000000 
#    z 0.007630 0.000000 1.645740 
# 
# From -- ./inp_files/56311.got.cif
#   From: 2010.05.17/outbox.cif.g08.bks.cpg/sg13_29_cif.got.tgz:56311.got - 2010.06.03 16:44:36.
