data_PCOD9230269
_publ_section_title
;
Structure prediction by ZEFSAII (Michael W. Deem and Ramdas Pophale) SiO2 
 PCOD9230269
Probable space group: P 2/C
;
_chemical_formula_sum "Si O2"
_cell_formula_units_Z 30
_cell_length_a 15.908550
_cell_length_b 7.090723
_cell_length_c 22.709045
_cell_angle_alpha 90.000000
_cell_angle_beta 30.804695
_cell_angle_gamma 90.000000
_cell_volume 1311.855498
_symmetry_space_group_name_H-M "P 2/C"
_symmetry_group_IT_number 13
_symmetry_cell_setting 'monoclinic'
loop_
_space_group_symop_operation_xyz
x,y,z
-x,y,1/2-z
-x,-y,-z
x,-y,1/2+z
loop_
_atom_site_type_symbol
_atom_site_label
_atom_site_fract_x
_atom_site_fract_y
_atom_site_fract_z
Si Si1 0.711153 0.162129 0.786357
Si Si2 0.883675 0.201435 0.397721
Si Si3 0.260188 0.134523 0.132580
Si Si4 0.906927 0.892673 0.472444
Si Si5 0.710215 0.570251 0.522858
Si Si6 0.395219 0.410307 0.135144
Si Si7 0.500000 0.423311 0.250000
Si Si8 0.286191 0.844767 0.797466
O O1 0.649135 0.372522 0.830267
O O2 0.905592 0.158753 0.654875
O O3 0.681776 0.043853 0.863986
O O4 0.643804 0.037707 0.772140
O O5 0.754306 0.112493 0.428686
O O6 0.843674 0.421907 0.420988
O O7 0.069842 0.167278 0.265040
O O8 0.870807 0.098987 0.468070
O O9 0.365224 0.316439 0.089776
O O10 0.795724 0.749680 0.500969
O O11 0.861573 0.876231 0.568366
O O12 0.576411 0.619090 0.553462
O O13 0.615182 0.469242 0.635092
O O14 0.265488 0.288302 0.252969
O O15 0.594243 0.281057 0.235810
#
# Coordination Sequence:
#
# PCOD9230269 Si02
#       8
#     4   4   4   4   4   4   2   4
#     4  10  20  36  59  80 107 150 187 226 286 330
#     4  10  21  38  61  82 109 150 189 227 279 328
#     4   9  21  40  57  83 114 141 188 242 270 317
#     4  10  21  36  55  82 111 142 188 236 275 329
#     4  10  21  36  55  83 114 149 186 224 278 334
#     4  10  21  36  55  81 113 147 181 226 280 330
#     4   8  18  36  52  78 122 150 176 230 274 326
#     4   9  19  34  53  82 115 142 184 234 272 325
#
# _framework density 22.868373999999999
#
# number of rings (size 3 to 8) (size 9 to 14) (size 15 to 20)
#    0.000    2.400    0.000    1.200    0.000    9.600 
#    0.000    5.333    0.000    0.000    0.000    0.000 
#    0.000    0.000    0.000    0.000    0.000    0.000 
#
# Total GULP energy -167473.079784 kJ/mol
# GULP energy per Si atom -5582.435993 kJ/mol
# Density = 2.281632 g / cm^3
# Si number density = 22.868374 Si / 1000 Ang^3
#
#
#
# Elastic Constant Matrix: (Units=GPa)
#
#
# Indices 1 2 3 4 5 6 
#
# 1 76.3716 15.0000 13.2854 0.0000 11.0396 0.0000
# 2 15.0000 103.5485 18.2051 0.0000 -0.1640 0.0000
# 3 13.2854 18.2051 73.1027 0.0000 8.2066 0.0000
# 4 0.0000 0.0000 0.0000 4.1474 0.0000 7.9977
# 5 11.0396 -0.1640 8.2066 0.0000 20.6548 0.0000
# 6 0.0000 0.0000 0.0000 7.9977 0.0000 16.2323
#
#
#
# Elastic Compliance Matrix: (Units=1/GPa)
#
#
# Indices 1 2 3 4 5 6 
#
# 1 0.014773 -0.001909 -0.001383 0.000000 -0.007362 0.000000
# 2 -0.001909 0.010371 -0.002470 0.000000 0.002084 0.000000
# 3 -0.001383 -0.002470 0.015140 0.000000 -0.005296 0.000000
# 4 0.000000 0.000000 0.000000 4.832191 0.000000 -2.380826
# 5 -0.007362 0.002084 -0.005296 0.000000 0.054470 0.000000
# 6 0.000000 0.000000 0.000000 -2.380826 0.000000 1.234641
#
#
# Mechanical properties :
#
#
# Convention : Reuss Voigt Hill
#
# Bulk Modulus (GPa) = 34.76808 38.44484 36.60646
# Shear Modulus (GPa) = 0.80871 21.97572 11.39221
#
# Velocity S-wave (km/s) = 0.59532 3.10331 2.23438
# Velocity P-wave (km/s) = 3.96347 5.44872 4.76433
#
# Compressibility (1/GPa) = 0.02876201
#
# Stress axis : x y z
#
# Youngs Moduli (GPa) = 67.68882 96.41972 66.04859
#
# Poissons Ratio (x) = 0.18402 0.09135
# Poissons Ratio (y) = 0.12919 0.16313
# Poissons Ratio (z) = 0.09362 0.23815
#
# Static dielectric constant tensor:
#      x y z
#    x 1.955630 0.000000 0.060670 
#    y 0.000000 1.811040 0.000000 
#    z 0.060670 0.000000 1.963670 
# 
# From -- ./inp_files/86996.got.cif
#   From: 2010.05.17/outbox.cif.g08.bks.cpg/sg13_44_cif.got.tgz:86996.got - 2010.06.03 16:44:36.
