data_PCOD9230149
_publ_section_title
;
Structure prediction by ZEFSAII (Michael W. Deem and Ramdas Pophale) SiO2 
 PCOD9230149
Probable space group: P 2/C
;
_chemical_formula_sum "Si O2"
_cell_formula_units_Z 18
_cell_length_a 12.608699
_cell_length_b 8.646326
_cell_length_c 20.814122
_cell_angle_alpha 90.000000
_cell_angle_beta 21.847251
_cell_angle_gamma 90.000000
_cell_volume 844.420272
_symmetry_space_group_name_H-M "P 2/C"
_symmetry_group_IT_number 13
_symmetry_cell_setting 'monoclinic'
loop_
_space_group_symop_operation_xyz
x,y,z
-x,y,1/2-z
-x,-y,-z
x,-y,1/2+z
loop_
_atom_site_type_symbol
_atom_site_label
_atom_site_fract_x
_atom_site_fract_y
_atom_site_fract_z
Si Si1 0.653113 0.990437 0.598978
Si Si2 0.015453 0.524396 0.415497
Si Si3 0.228428 0.136822 0.753445
Si Si4 0.000000 0.771307 0.250000
Si Si5 0.451678 0.346525 0.398565
O O1 0.500000 0.042104 0.750000
O O2 0.558430 0.814879 0.634464
O O3 0.992284 0.980455 0.415306
O O4 0.536300 0.090297 0.605437
O O5 0.146458 0.692425 0.324392
O O6 0.230846 0.398884 0.265561
O O7 0.000000 0.500000 0.500000
O O8 0.703836 0.527460 0.559162
O O9 0.162251 0.135671 0.714804
O O10 0.755210 0.675212 0.424174
#
# Coordination Sequence:
#
# PCOD9230149 Si02
#       5
#     4   4   4   2   4
#     4  10  20  36  54  83 112 143 182 233 287 326
#     4  10  20  36  55  83 109 143 184 229 284 328
#     4  10  22  35  58  79 112 147 182 234 272 338
#     4   8  20  40  54  82 112 148 192 224 282 328
#     4  10  21  35  58  78 114 148 180 234 274 337
#
# _framework density 21.316398
#
# number of rings (size 3 to 8) (size 9 to 14) (size 15 to 20)
#    0.000    2.667    0.000    4.000    0.000   10.667 
#    0.000    0.000    0.000   21.333    0.000    0.000 
#    0.000    0.000    0.000    0.000    0.000    0.000 
#
# Total GULP energy -100449.694709 kJ/mol
# GULP energy per Si atom -5580.538595 kJ/mol
# Density = 2.126788 g / cm^3
# Si number density = 21.316398 Si / 1000 Ang^3
#
#
#
# Elastic Constant Matrix: (Units=GPa)
#
#
# Indices 1 2 3 4 5 6 
#
# 1 88.4660 7.1529 9.4651 0.0000 20.4400 0.0000
# 2 7.1529 21.5391 -4.2842 0.0000 -12.4874 0.0000
# 3 9.4651 -4.2842 39.3129 0.0000 12.6760 0.0000
# 4 0.0000 0.0000 0.0000 19.0836 0.0000 -13.7584
# 5 20.4400 -12.4874 12.6760 0.0000 39.4842 0.0000
# 6 0.0000 0.0000 0.0000 -13.7584 0.0000 29.4354
#
#
#
# Elastic Compliance Matrix: (Units=1/GPa)
#
#
# Indices 1 2 3 4 5 6 
#
# 1 0.014910 -0.011564 -0.001318 0.000000 -0.010953 0.000000
# 2 -0.011564 0.065826 0.001467 0.000000 0.026334 0.000000
# 3 -0.001318 0.001467 0.028494 0.000000 -0.008001 0.000000
# 4 0.000000 0.000000 0.000000 0.079034 0.000000 0.036941
# 5 -0.010953 0.026334 -0.008001 0.000000 0.041894 0.000000
# 6 0.000000 0.000000 0.000000 0.036941 0.000000 0.051239
#
#
# Mechanical properties :
#
#
# Convention : Reuss Voigt Hill
#
# Bulk Modulus (GPa) = 11.57412 19.33174 15.45293
# Shear Modulus (GPa) = 15.01373 26.73294 20.87333
#
# Velocity S-wave (km/s) = 2.65680 3.54517 3.13264
# Velocity P-wave (km/s) = 3.85394 5.08393 4.51105
#
# Compressibility (1/GPa) = 0.08639963
#
# Stress axis : x y z
#
# Youngs Moduli (GPa) = 67.06724 15.19153 35.09490
#
# Poissons Ratio (x) = 0.17567 0.04627
# Poissons Ratio (y) = 0.77554 -0.05147
# Poissons Ratio (z) = 0.08843 -0.02228
#
# Static dielectric constant tensor:
#      x y z
#    x 1.772060 0.000000 0.011060 
#    y 0.000000 1.779560 0.000000 
#    z 0.011060 0.000000 1.780890 
# 
# From -- ./inp_files/87099.got.cif
#   From: 2010.05.17/outbox.cif.g08.bks.cpg/sg13_44_cif.got.tgz:87099.got - 2010.06.03 16:44:36.
