data_PCOD9230793
_publ_section_title
;
Structure prediction by ZEFSAII (Michael W. Deem and Ramdas Pophale) SiO2 
 PCOD9230793
Probable space group: P 2/C
;
_chemical_formula_sum "Si O2"
_cell_formula_units_Z 24
_cell_length_a 8.074348
_cell_length_b 21.611095
_cell_length_c 8.983521
_cell_angle_alpha 90.000000
_cell_angle_beta 129.075476
_cell_angle_gamma 90.000000
_cell_volume 1216.940984
_symmetry_space_group_name_H-M "P 2/C"
_symmetry_group_IT_number 13
_symmetry_cell_setting 'monoclinic'
loop_
_space_group_symop_operation_xyz
x,y,z
-x,y,1/2-z
-x,-y,-z
x,-y,1/2+z
loop_
_atom_site_type_symbol
_atom_site_label
_atom_site_fract_x
_atom_site_fract_y
_atom_site_fract_z
Si Si1 0.500000 0.515306 0.250000
Si Si2 0.170220 0.838347 0.718823
Si Si3 0.500000 0.765125 0.250000
Si Si4 0.858691 0.152670 0.791034
Si Si5 0.244285 0.708866 0.833847
Si Si6 0.755050 0.430246 0.169497
Si Si7 0.468522 0.066631 0.053780
O O1 0.674929 0.474420 0.258037
O O2 0.614318 0.554818 0.443416
O O3 0.259749 0.769496 0.736210
O O4 0.349535 0.883436 0.881235
O O5 0.000000 0.828845 0.750000
O O6 0.035581 0.867898 0.510061
O O7 0.316953 0.807075 0.222811
O O8 0.609557 0.725432 0.441646
O O9 0.742158 0.097506 0.636662
O O10 0.000000 0.189597 0.750000
O O11 0.289198 0.640220 0.803104
O O12 0.000000 0.704612 0.750000
O O13 0.000000 0.437707 0.250000
O O14 0.500000 0.061576 0.250000
O O15 0.500000 0.000000 0.000000
#
# Coordination Sequence:
#
# PCOD9230793 Si02
#       7
#     2   4   2   4   4   4   4
#     4  10  21  40  62  94 127 180 216 254 324 365
#     4  11  22  43  67  91 129 168 205 266 333 376
#     4  12  21  40  66  92 131 166 202 264 330 377
#     4  12  24  43  67  94 123 168 208 263 322 384
#     4  10  20  37  65  96 126 170 212 259 328 377
#     4  10  21  39  64  92 132 170 217 267 309 380
#     4  12  28  44  64  93 125 164 215 263 318 387
#
# _framework density 19.721579999999999
#
# number of rings (size 3 to 8) (size 9 to 14) (size 15 to 20)
#    0.000    1.000    6.667    1.000    3.500    1.333 
#    4.500    0.000    0.000    0.000    0.000    0.000 
#    0.000    0.000    0.000    0.000    0.000    0.000 
#
# Total GULP energy -133763.324254 kJ/mol
# GULP energy per Si atom -5573.471844 kJ/mol
# Density = 1.967669 g / cm^3
# Si number density = 19.721580 Si / 1000 Ang^3
#
#
#
# Elastic Constant Matrix: (Units=GPa)
#
#
# Indices 1 2 3 4 5 6 
#
# 1 80.1790 30.7576 4.6171 0.0000 2.5523 0.0000
# 2 30.7576 117.2203 25.4152 0.0000 14.6705 0.0000
# 3 4.6171 25.4152 122.5046 0.0000 18.1744 0.0000
# 4 0.0000 0.0000 0.0000 10.6035 0.0000 -16.3744
# 5 2.5523 14.6705 18.1744 0.0000 29.9633 0.0000
# 6 0.0000 0.0000 0.0000 -16.3744 0.0000 52.7556
#
#
#
# Elastic Compliance Matrix: (Units=1/GPa)
#
#
# Indices 1 2 3 4 5 6 
#
# 1 0.013883 -0.003749 0.000173 0.000000 0.000548 0.000000
# 2 -0.003749 0.010307 -0.001424 0.000000 -0.003863 0.000000
# 3 0.000173 -0.001424 0.009176 0.000000 -0.004884 0.000000
# 4 0.000000 0.000000 0.000000 0.181121 0.000000 0.056217
# 5 0.000548 -0.003863 -0.004884 0.000000 0.038181 0.000000
# 6 0.000000 0.000000 0.000000 0.056217 0.000000 0.036404
#
#
# Mechanical properties :
#
#
# Convention : Reuss Voigt Hill
#
# Bulk Modulus (GPa) = 42.79528 49.05375 45.92451
# Shear Modulus (GPa) = 16.29404 35.93874 26.11639
#
# Velocity S-wave (km/s) = 2.87749 4.27348 3.64298
# Velocity P-wave (km/s) = 5.72598 7.01978 6.40563
#
# Compressibility (1/GPa) = 0.02336706
#
# Stress axis : x y z
#
# Youngs Moduli (GPa) = 72.03168 97.02288 108.97594
#
# Poissons Ratio (x) = 0.36372 -0.01888
# Poissons Ratio (y) = 0.27004 0.15516
# Poissons Ratio (z) = -0.01248 0.13814
#
# Static dielectric constant tensor:
#      x y z
#    x 1.739810 0.000000 0.012690 
#    y 0.000000 1.724880 0.000000 
#    z 0.012690 0.000000 1.725630 
# 
# From -- ./inp_files/13531.got.cif
#   From: 2010.05.17/outbox.cif.g08.bks.cpg/sg13_7_cif.got.tgz:13531.got - 2010.06.03 16:44:36.
