data_PCOD9230665
_publ_section_title
;
Structure prediction by ZEFSAII (Michael W. Deem and Ramdas Pophale) SiO2 
 PCOD9230665
Probable space group: P 2/C
;
_chemical_formula_sum "Si O2"
_cell_formula_units_Z 18
_cell_length_a 6.185030
_cell_length_b 7.179461
_cell_length_c 21.157778
_cell_angle_alpha 90.000000
_cell_angle_beta 104.024120
_cell_angle_gamma 90.000000
_cell_volume 911.511602
_symmetry_space_group_name_H-M "P 2/C"
_symmetry_group_IT_number 13
_symmetry_cell_setting 'monoclinic'
loop_
_space_group_symop_operation_xyz
x,y,z
-x,y,1/2-z
-x,-y,-z
x,-y,1/2+z
loop_
_atom_site_type_symbol
_atom_site_label
_atom_site_fract_x
_atom_site_fract_y
_atom_site_fract_z
Si Si1 0.613835 0.048353 0.140465
Si Si2 0.495964 0.361928 0.594873
Si Si3 0.000000 0.781816 0.750000
Si Si4 0.218571 0.673371 0.952384
Si Si5 0.238360 0.670331 0.644801
O O1 0.673355 0.156814 0.079634
O O2 0.390435 0.145884 0.150807
O O3 0.813997 0.096024 0.202009
O O4 0.585639 0.831310 0.127015
O O5 0.682219 0.484831 0.571936
O O6 0.303322 0.320225 0.529708
O O7 0.394259 0.495483 0.641054
O O8 0.881458 0.662918 0.796231
O O9 0.955550 0.679489 0.921743
#
# Coordination Sequence:
#
# PCOD9230665 Si02
#       5
#     4   4   2   4   4
#     4  10  21  38  59  83 113 151 192 234 283 338
#     4  10  20  37  61  90 115 147 188 231 289 347
#     4  10  22  42  54  74 118 156 192 242 282 322
#     4   9  20  37  59  89 122 143 177 237 294 343
#     4  10  21  38  58  82 115 152 191 236 281 336
#
# _framework density 19.747416999999999
#
# number of rings (size 3 to 8) (size 9 to 14) (size 15 to 20)
#    0.000    2.222    0.000    2.000    0.000    4.444 
#    0.000   26.667    0.000    0.000    0.000    0.000 
#    0.000    0.000    0.000    0.000    0.000    0.000 
#
# Total GULP energy -100585.713994 kJ/mol
# GULP energy per Si atom -5588.095222 kJ/mol
# Density = 1.970247 g / cm^3
# Si number density = 19.747417 Si / 1000 Ang^3
#
#
#
# Elastic Constant Matrix: (Units=GPa)
#
#
# Indices 1 2 3 4 5 6 
#
# 1 70.8487 17.2420 22.7353 0.0000 16.9561 0.0000
# 2 17.2420 91.9704 28.3756 0.0000 13.2710 0.0000
# 3 22.7353 28.3756 87.8090 0.0000 15.6717 0.0000
# 4 0.0000 0.0000 0.0000 1.2273 0.0000 2.5750
# 5 16.9561 13.2710 15.6717 0.0000 21.0694 0.0000
# 6 0.0000 0.0000 0.0000 2.5750 0.0000 4.1438
#
#
#
# Elastic Compliance Matrix: (Units=1/GPa)
#
#
# Indices 1 2 3 4 5 6 
#
# 1 0.017971 -0.000932 -0.002163 0.000000 -0.012267 0.000000
# 2 -0.000932 0.012688 -0.002959 0.000000 -0.005041 0.000000
# 3 -0.002163 -0.002959 0.014138 0.000000 -0.006912 0.000000
# 4 0.000000 0.000000 0.000000 -2.682589 0.000000 1.666968
# 5 -0.012267 -0.005041 -0.006912 0.000000 0.065651 0.000000
# 6 0.000000 0.000000 0.000000 1.666968 0.000000 -0.794534
#
#
# Mechanical properties :
#
#
# Convention : Reuss Voigt Hill
#
# Bulk Modulus (GPa) = 30.59008 43.03707 36.81358
# Shear Modulus (GPa) = -1.49536 17.43978 7.97221
#
# Velocity S-wave (km/s) = -0.87114 2.97500 2.01143
# Velocity P-wave (km/s) = 3.80952 5.80016 4.90685
#
# Compressibility (1/GPa) = 0.03269034
#
# Stress axis : x y z
#
# Youngs Moduli (GPa) = 55.64450 78.81374 70.73057
#
# Poissons Ratio (x) = 0.07344 0.15296
# Poissons Ratio (y) = 0.05185 0.20931
# Poissons Ratio (z) = 0.12033 0.23323
#
# Static dielectric constant tensor:
#      x y z
#    x 1.707970 0.000000 -0.008050 
#    y 0.000000 1.646440 0.000000 
#    z -0.008050 0.000000 1.699430 
# 
# From -- ./inp_files/72699.got.cif
#   From: 2010.05.17/outbox.cif.g08.bks.cpg/sg13_37_cif.got.tgz:72699.got - 2010.06.03 16:44:36.
