data_PCOD9230916
_publ_section_title
;
Structure prediction by ZEFSAII (Michael W. Deem and Ramdas Pophale) SiO2 
 PCOD9230916
Probable space group: P 2/C
;
_chemical_formula_sum "Si O2"
_cell_formula_units_Z 30
_cell_length_a 14.133110
_cell_length_b 5.948585
_cell_length_c 18.558636
_cell_angle_alpha 90.000000
_cell_angle_beta 116.068569
_cell_angle_gamma 90.000000
_cell_volume 1401.534428
_symmetry_space_group_name_H-M "P 2/C"
_symmetry_group_IT_number 13
_symmetry_cell_setting 'monoclinic'
loop_
_space_group_symop_operation_xyz
x,y,z
-x,y,1/2-z
-x,-y,-z
x,-y,1/2+z
loop_
_atom_site_type_symbol
_atom_site_label
_atom_site_fract_x
_atom_site_fract_y
_atom_site_fract_z
Si Si1 0.476282 0.050537 0.575701
Si Si2 0.238605 0.123786 0.661969
Si Si3 0.580465 0.425308 0.839357
Si Si4 0.734518 0.811315 0.952270
Si Si5 0.832273 0.454946 0.755601
Si Si6 0.830552 0.907222 0.129921
Si Si7 0.316488 0.828820 0.818876
Si Si8 0.000000 0.790666 0.750000
O O1 0.478280 0.300017 0.612698
O O2 0.500000 0.000000 0.500000
O O3 0.360093 0.966396 0.551475
O O4 0.561693 0.890893 0.643089
O O5 0.349477 0.234216 0.676201
O O6 0.166265 0.324559 0.668183
O O7 0.204439 0.958042 0.586925
O O8 0.261059 0.966214 0.737046
O O9 0.500000 0.509715 0.750000
O O10 0.669201 0.601342 0.897385
O O11 0.806539 0.785283 0.046764
O O12 0.843285 0.279015 0.695204
O O13 0.718980 0.574845 0.705979
O O14 0.920190 0.640150 0.769768
O O15 0.735688 0.071492 0.125556
O O16 0.933986 0.059030 0.171927
#
# Coordination Sequence:
#
# PCOD9230916 Si02
#       8
#     4   4   4   4   4   4   4   2
#     4  11  23  38  57  90 133 175 223 273 307 377
#     4  10  22  41  57  91 131 173 219 263 309 385
#     4  11  24  38  58  89 134 188 226 251 312 379
#     4  11  25  36  61  91 137 172 213 274 319 380
#     4  10  22  39  72  92 122 167 221 267 333 402
#     4  10  22  41  61  98 125 157 212 276 333 394
#     4  10  20  38  60  87 127 171 215 262 316 375
#     4  10  22  44  72  94 120 160 212 282 348 402
#
# _framework density 21.405111999999999
#
# number of rings (size 3 to 8) (size 9 to 14) (size 15 to 20)
#    0.000    1.600    2.667    1.200    5.600    1.600 
#    0.000    0.667    0.000   15.200    0.000    0.000 
#    0.000    0.000    0.000    0.000    0.000    0.000 
#
# Total GULP energy -167314.629020 kJ/mol
# GULP energy per Si atom -5577.154301 kJ/mol
# Density = 2.135639 g / cm^3
# Si number density = 21.405112 Si / 1000 Ang^3
#
#
#
# Elastic Constant Matrix: (Units=GPa)
#
#
# Indices 1 2 3 4 5 6 
#
# 1 61.8421 38.8709 47.8266 0.0000 -3.3198 0.0000
# 2 38.8709 94.1951 45.4254 0.0000 -11.3546 0.0000
# 3 47.8266 45.4254 101.9784 0.0000 -19.4587 0.0000
# 4 0.0000 0.0000 0.0000 14.9409 0.0000 -1.8668
# 5 -3.3198 -11.3546 -19.4587 0.0000 31.0668 0.0000
# 6 0.0000 0.0000 0.0000 -1.8668 0.0000 40.5900
#
#
#
# Elastic Compliance Matrix: (Units=1/GPa)
#
#
# Indices 1 2 3 4 5 6 
#
# 1 0.029660 -0.007299 -0.011997 0.000000 -0.007013 0.000000
# 2 -0.007299 0.015366 -0.002837 0.000000 0.003059 0.000000
# 3 -0.011997 -0.002837 0.018460 0.000000 0.009243 0.000000
# 4 0.000000 0.000000 0.000000 0.067317 0.000000 0.003096
# 5 -0.007013 0.003059 0.009243 0.000000 0.038347 0.000000
# 6 0.000000 0.000000 0.000000 0.003096 0.000000 0.024779
#
#
# Mechanical properties :
#
#
# Convention : Reuss Voigt Hill
#
# Bulk Modulus (GPa) = 52.03432 58.02905 55.03169
# Shear Modulus (GPa) = 20.44146 25.71241 23.07693
#
# Velocity S-wave (km/s) = 3.09363 3.46963 3.28701
# Velocity P-wave (km/s) = 6.09285 6.57418 6.33809
#
# Compressibility (1/GPa) = 0.01921808
#
# Stress axis : x y z
#
# Youngs Moduli (GPa) = 33.71588 65.08072 54.17137
#
# Poissons Ratio (x) = 0.47505 0.64987
# Poissons Ratio (y) = 0.24611 0.15371
# Poissons Ratio (z) = 0.40448 0.18466
#
# Static dielectric constant tensor:
#      x y z
#    x 1.805870 0.000000 -0.026460 
#    y 0.000000 1.830400 0.000000 
#    z -0.026460 0.000000 1.803320 
# 
# From -- ./inp_files/67650.got.cif
#   From: 2010.05.17/outbox.cif.g08.bks.cpg/sg13_34_cif.got.tgz:67650.got - 2010.06.03 16:44:36.
