data_PCOD9230762
_publ_section_title
;
Structure prediction by ZEFSAII (Michael W. Deem and Ramdas Pophale) SiO2 
 PCOD9230762
Probable space group: P 2/C
;
_chemical_formula_sum "Si O2"
_cell_formula_units_Z 22
_cell_length_a 23.305091
_cell_length_b 8.957286
_cell_length_c 14.971060
_cell_angle_alpha 90.000000
_cell_angle_beta 159.665251
_cell_angle_gamma 90.000000
_cell_volume 1086.025710
_symmetry_space_group_name_H-M "P 2/C"
_symmetry_group_IT_number 13
_symmetry_cell_setting 'monoclinic'
loop_
_space_group_symop_operation_xyz
x,y,z
-x,y,1/2-z
-x,-y,-z
x,-y,1/2+z
loop_
_atom_site_type_symbol
_atom_site_label
_atom_site_fract_x
_atom_site_fract_y
_atom_site_fract_z
Si Si1 0.950396 0.701144 0.573716
Si Si2 0.179637 0.404524 0.042430
Si Si3 0.536992 0.196112 0.969211
Si Si4 0.285930 0.417636 0.520614
Si Si5 0.500000 0.648540 0.750000
Si Si6 0.370138 0.133830 0.914717
O O1 0.859258 0.541023 0.447569
O O2 0.821350 0.823238 0.352914
O O3 0.000000 0.734616 0.750000
O O4 0.116223 0.672446 0.759914
O O5 0.302550 0.284780 0.262285
O O6 0.259200 0.486814 0.072802
O O7 0.000000 0.343597 0.750000
O O8 0.431663 0.301019 0.751158
O O9 0.421439 0.164265 0.886979
O O10 0.588870 0.037286 0.005242
O O11 0.343929 0.539556 0.534532
O O12 0.474500 0.754457 0.628271
#
# Coordination Sequence:
#
# PCOD9230762 Si02
#       6
#     4   4   4   4   2   4
#     4   9  18  37  61  91 114 150 207 258 276 346
#     4   9  17  33  59  89 112 146 210 250 278 338
#     4  11  20  38  61  88 115 164 206 243 291 366
#     4  10  20  37  64  87 118 157 206 246 292 354
#     4  12  24  38  60  88 126 162 196 252 300 366
#     4  11  23  36  59  90 126 157 194 249 310 357
#
# _framework density 20.257346999999999
#
# number of rings (size 3 to 8) (size 9 to 14) (size 15 to 20)
#    0.000    2.182    5.455    1.636    0.000    2.182 
#    0.000    0.000    0.000    6.545    0.000    0.000 
#    0.000    0.000    0.000    0.000    0.000    0.000 
#
# Total GULP energy -122853.335957 kJ/mol
# GULP energy per Si atom -5584.242544 kJ/mol
# Density = 2.021124 g / cm^3
# Si number density = 20.257347 Si / 1000 Ang^3
#
#
#
# Elastic Constant Matrix: (Units=GPa)
#
#
# Indices 1 2 3 4 5 6 
#
# 1 37.9636 28.2575 26.2063 0.0000 9.9669 0.0000
# 2 28.2575 112.9534 64.4131 0.0000 17.8666 0.0000
# 3 26.2063 64.4131 98.1023 0.0000 27.7329 0.0000
# 4 0.0000 0.0000 0.0000 -19.1854 0.0000 -4.7239
# 5 9.9669 17.8666 27.7329 0.0000 22.6367 0.0000
# 6 0.0000 0.0000 0.0000 -4.7239 0.0000 14.8303
#
#
#
# Elastic Compliance Matrix: (Units=1/GPa)
#
#
# Indices 1 2 3 4 5 6 
#
# 1 0.034754 -0.005465 -0.003961 0.000000 -0.006136 0.000000
# 2 -0.005465 0.015013 -0.008763 0.000000 0.001293 0.000000
# 3 -0.003961 -0.008763 0.022270 0.000000 -0.018623 0.000000
# 4 0.000000 0.000000 0.000000 -0.048332 0.000000 -0.015395
# 5 -0.006136 0.001293 -0.018623 0.000000 0.068673 0.000000
# 6 0.000000 0.000000 0.000000 -0.015395 0.000000 0.062525
#
#
# Mechanical properties :
#
#
# Convention : Reuss Voigt Hill
#
# Bulk Modulus (GPa) = 28.04344 54.08590 41.06467
# Shear Modulus (GPa) = 24.61020 12.33249 18.47134
#
# Velocity S-wave (km/s) = 3.48929 2.47005 3.02294
# Velocity P-wave (km/s) = 5.48700 5.90696 5.70085
#
# Compressibility (1/GPa) = 0.03565896
#
# Stress axis : x y z
#
# Youngs Moduli (GPa) = 28.77357 66.60825 44.90377
#
# Poissons Ratio (x) = 0.36402 0.17787
# Poissons Ratio (y) = 0.15725 0.39349
# Poissons Ratio (z) = 0.11397 0.58369
#
# Static dielectric constant tensor:
#      x y z
#    x 1.738630 0.000000 0.015410 
#    y 0.000000 1.682240 0.000000 
#    z 0.015410 0.000000 1.724490 
# 
# From -- ./inp_files/58749.got.cif
#   From: 2010.05.17/outbox.cif.g08.bks.cpg/sg13_30_cif.got.tgz:58749.got - 2010.06.03 16:44:36.
