data_PCOD9230559
_publ_section_title
;
Structure prediction by ZEFSAII (Michael W. Deem and Ramdas Pophale) SiO2 
 PCOD9230559
Probable space group: P 2/C
;
_chemical_formula_sum "Si O2"
_cell_formula_units_Z 26
_cell_length_a 16.984808
_cell_length_b 9.103150
_cell_length_c 15.574923
_cell_angle_alpha 90.000000
_cell_angle_beta 154.248831
_cell_angle_gamma 90.000000
_cell_volume 1046.240867
_symmetry_space_group_name_H-M "P 2/C"
_symmetry_group_IT_number 13
_symmetry_cell_setting 'monoclinic'
loop_
_space_group_symop_operation_xyz
x,y,z
-x,y,1/2-z
-x,-y,-z
x,-y,1/2+z
loop_
_atom_site_type_symbol
_atom_site_label
_atom_site_fract_x
_atom_site_fract_y
_atom_site_fract_z
Si Si1 0.212128 0.070639 0.446782
Si Si2 0.642912 0.151465 0.269187
Si Si3 0.784221 0.606498 0.475349
Si Si4 0.996641 0.338755 0.650799
Si Si5 0.829348 0.914527 0.787784
Si Si6 0.500000 0.631303 0.750000
Si Si7 0.908498 0.655849 0.429585
O O1 0.231278 0.243568 0.488102
O O2 0.245712 0.039124 0.379202
O O3 0.000000 0.040439 0.250000
O O4 0.317445 0.975145 0.621368
O O5 0.814222 0.264379 0.436427
O O6 0.666530 0.091169 0.196561
O O7 0.492145 0.258985 0.161190
O O8 0.969167 0.514213 0.637618
O O9 0.664631 0.480980 0.401331
O O10 0.744700 0.647805 0.336358
O O11 0.000000 0.277365 0.750000
O O12 0.136442 0.298213 0.712977
O O13 0.937542 0.761576 0.879494
O O14 0.000000 0.000000 0.000000
O O15 0.000000 0.500000 0.500000
#
# Coordination Sequence:
#
# PCOD9230559 Si02
#       7
#     4   4   4   4   4   2   4
#     4  12  21  36  65 100 124 145 203 263 327 352
#     4  10  22  40  61  86 127 172 196 249 296 386
#     4  10  20  37  58  86 117 162 201 257 291 359
#     4   9  18  31  56  87 118 150 196 249 316 358
#     4  11  21  36  60  98 129 149 193 260 326 367
#     4  10  24  46  62  78 126 182 216 220 302 368
#     4   9  18  31  54  85 114 154 189 247 311 345
#
# _framework density 24.850874000000001
#
# number of rings (size 3 to 8) (size 9 to 14) (size 15 to 20)
#    0.000    1.846    3.077    1.846    4.308    0.615 
#    0.000    1.538    3.385    0.000    0.000    0.000 
#    0.000    0.000    0.000    0.000    0.000    0.000 
#
# Total GULP energy -144817.665312 kJ/mol
# GULP energy per Si atom -5569.910204 kJ/mol
# Density = 2.479431 g / cm^3
# Si number density = 24.850874 Si / 1000 Ang^3
#
#
#
# Elastic Constant Matrix: (Units=GPa)
#
#
# Indices 1 2 3 4 5 6 
#
# 1 242.9334 47.3665 41.9552 0.0000 -41.4511 0.0000
# 2 47.3665 178.3907 29.6336 0.0000 -8.6851 0.0000
# 3 41.9552 29.6336 49.8932 0.0000 -11.6876 0.0000
# 4 0.0000 0.0000 0.0000 55.7975 0.0000 57.9345
# 5 -41.4511 -8.6851 -11.6876 0.0000 34.7781 0.0000
# 6 0.0000 0.0000 0.0000 57.9345 0.0000 128.3883
#
#
#
# Elastic Compliance Matrix: (Units=1/GPa)
#
#
# Indices 1 2 3 4 5 6 
#
# 1 0.005755 -0.000742 -0.003077 0.000000 0.005639 0.000000
# 2 -0.000742 0.006319 -0.003220 0.000000 -0.000389 0.000000
# 3 -0.003077 -0.003220 0.025503 0.000000 0.004099 0.000000
# 4 0.000000 0.000000 0.000000 0.033721 0.000000 -0.015217
# 5 0.005639 -0.000389 0.004099 0.000000 0.036756 0.000000
# 6 0.000000 0.000000 0.000000 -0.015217 0.000000 0.014655
#
#
# Mechanical properties :
#
#
# Convention : Reuss Voigt Hill
#
# Bulk Modulus (GPa) = 42.55727 78.79200 60.67464
# Shear Modulus (GPa) = 34.57338 67.27691 50.92515
#
# Velocity S-wave (km/s) = 3.73397 5.20874 4.53175
# Velocity P-wave (km/s) = 5.97932 8.24315 7.20076
#
# Compressibility (1/GPa) = 0.02349775
#
# Stress axis : x y z
#
# Youngs Moduli (GPa) = 173.76872 158.26044 39.21105
#
# Poissons Ratio (x) = 0.11747 0.12066
# Poissons Ratio (y) = 0.12898 0.12625
# Poissons Ratio (z) = 0.53473 0.50957
#
# Static dielectric constant tensor:
#      x y z
#    x 2.249280 0.000000 -0.105000 
#    y 0.000000 2.008570 0.000000 
#    z -0.105000 0.000000 2.116060 
# 
# From -- ./inp_files/53251.got.cif
#   From: 2010.05.17/outbox.cif.g08.bks.cpg/sg13_27_cif.got.tgz:53251.got - 2010.06.03 16:44:36.
