data_PCOD9230518
_publ_section_title
;
Structure prediction by ZEFSAII (Michael W. Deem and Ramdas Pophale) SiO2 
 PCOD9230518
Probable space group: P 2/C
;
_chemical_formula_sum "Si O2"
_cell_formula_units_Z 24
_cell_length_a 17.846711
_cell_length_b 14.688155
_cell_length_c 9.765766
_cell_angle_alpha 90.000000
_cell_angle_beta 152.655531
_cell_angle_gamma 90.000000
_cell_volume 1175.885855
_symmetry_space_group_name_H-M "P 2/C"
_symmetry_group_IT_number 13
_symmetry_cell_setting 'monoclinic'
loop_
_space_group_symop_operation_xyz
x,y,z
-x,y,1/2-z
-x,-y,-z
x,-y,1/2+z
loop_
_atom_site_type_symbol
_atom_site_label
_atom_site_fract_x
_atom_site_fract_y
_atom_site_fract_z
Si Si1 0.000000 0.674472 0.250000
Si Si2 0.000000 0.011793 0.750000
Si Si3 0.079566 0.169723 0.699384
Si Si4 0.732171 0.105606 0.727831
Si Si5 0.500000 0.041677 0.750000
Si Si6 0.441040 0.186707 0.416089
Si Si7 0.643699 0.390086 0.210478
Si Si8 0.500000 0.526259 0.750000
O O1 0.019132 0.743243 0.409900
O O2 0.162508 0.619771 0.487269
O O3 0.838201 0.952240 0.506731
O O4 0.987153 0.080379 0.601284
O O5 0.131317 0.163608 0.628049
O O6 0.257008 0.173322 0.062098
O O7 0.585420 0.167097 0.542944
O O8 0.651422 0.028489 0.499178
O O9 0.477235 0.109196 0.586324
O O10 0.440494 0.292381 0.458333
O O11 0.600222 0.414758 0.299064
O O12 0.593359 0.461633 0.011082
#
# Coordination Sequence:
#
# PCOD9230518 Si02
#       8
#     2   2   4   4   2   4   4   2
#     4   9  22  38  66  93 128 158 200 253 318 368
#     4  11  22  36  48  83 124 164 216 261 304 334
#     4  10  20  37  55  83 119 168 207 254 300 353
#     4  12  22  36  57  84 123 174 216 256 293 354
#     4  12  21  35  58  84 124 168 222 261 285 350
#     4  11  22  37  62  88 119 164 217 254 302 367
#     4  10  23  44  69 100 124 163 203 263 321 391
#     4  10  23  45  74  96 126 156 204 257 331 400
#
# _framework density 20.410145
#
# number of rings (size 3 to 8) (size 9 to 14) (size 15 to 20)
#    0.000    1.333    3.333    2.500    4.667    0.667 
#    3.000    0.000    0.000    0.000    0.000    0.000 
#    0.000    0.000    0.000    0.000    0.000    0.000 
#
# Total GULP energy -133782.938655 kJ/mol
# GULP energy per Si atom -5574.289111 kJ/mol
# Density = 2.036369 g / cm^3
# Si number density = 20.410145 Si / 1000 Ang^3
#
#
#
# Elastic Constant Matrix: (Units=GPa)
#
#
# Indices 1 2 3 4 5 6 
#
# 1 136.1704 38.0048 20.1425 0.0000 16.9555 0.0000
# 2 38.0048 73.7089 19.8882 0.0000 14.3160 0.0000
# 3 20.1425 19.8882 52.4352 0.0000 13.3304 0.0000
# 4 0.0000 0.0000 0.0000 -38.2164 0.0000 -23.3638
# 5 16.9555 14.3160 13.3304 0.0000 32.4229 0.0000
# 6 0.0000 0.0000 0.0000 -23.3638 0.0000 14.9967
#
#
#
# Elastic Compliance Matrix: (Units=1/GPa)
#
#
# Indices 1 2 3 4 5 6 
#
# 1 0.008895 -0.003742 -0.001379 0.000000 -0.002432 0.000000
# 2 -0.003742 0.017394 -0.004137 0.000000 -0.004022 0.000000
# 3 -0.001379 -0.004137 0.022918 0.000000 -0.006874 0.000000
# 4 0.000000 0.000000 0.000000 -0.013402 0.000000 -0.020879
# 5 -0.002432 -0.004022 -0.006874 0.000000 0.036717 0.000000
# 6 0.000000 0.000000 0.000000 -0.020879 0.000000 0.034153
#
#
# Mechanical properties :
#
#
# Convention : Reuss Voigt Hill
#
# Bulk Modulus (GPa) = 32.58417 46.48727 39.53572
# Shear Modulus (GPa) = 36.92199 14.12591 25.52395
#
# Velocity S-wave (km/s) = 4.25785 2.63364 3.54015
# Velocity P-wave (km/s) = 6.33812 5.66340 6.01023
#
# Compressibility (1/GPa) = 0.03068975
#
# Stress axis : x y z
#
# Youngs Moduli (GPa) = 112.42341 57.49215 43.63390
#
# Poissons Ratio (x) = 0.21512 0.06019
# Poissons Ratio (y) = 0.42065 0.18053
# Poissons Ratio (z) = 0.15507 0.23787
#
# Static dielectric constant tensor:
#      x y z
#    x 1.786160 0.000000 -0.027830 
#    y 0.000000 1.747590 0.000000 
#    z -0.027830 0.000000 1.757140 
# 
# From -- ./inp_files/22019.got.cif
#   From: 2010.05.17/outbox.cif.g08.bks.cpg/sg13_12_cif.got.tgz:22019.got - 2010.06.03 16:44:36.
