data_PCOD9230336
_publ_section_title
;
Structure prediction by ZEFSAII (Michael W. Deem and Ramdas Pophale) SiO2 
 PCOD9230336
Probable space group: P 2/C
;
_chemical_formula_sum "Si O2"
_cell_formula_units_Z 26
_cell_length_a 9.254504
_cell_length_b 11.440774
_cell_length_c 20.051848
_cell_angle_alpha 90.000000
_cell_angle_beta 137.972352
_cell_angle_gamma 90.000000
_cell_volume 1421.367855
_symmetry_space_group_name_H-M "P 2/C"
_symmetry_group_IT_number 13
_symmetry_cell_setting 'monoclinic'
loop_
_space_group_symop_operation_xyz
x,y,z
-x,y,1/2-z
-x,-y,-z
x,-y,1/2+z
loop_
_atom_site_type_symbol
_atom_site_label
_atom_site_fract_x
_atom_site_fract_y
_atom_site_fract_z
Si Si1 0.243734 0.098998 0.352543
Si Si2 0.332972 0.969639 0.035142
Si Si3 0.896251 0.206520 0.567675
Si Si4 0.445644 0.398623 0.888303
Si Si5 0.452838 0.658399 0.926498
Si Si6 0.000000 0.257504 0.750000
Si Si7 0.680719 0.238644 0.866428
O O1 0.290628 0.082388 0.447149
O O2 0.298765 0.234008 0.355314
O O3 0.000000 0.072373 0.250000
O O4 0.419893 0.015461 0.377901
O O5 0.293953 0.871003 0.075728
O O6 0.182568 0.083508 0.989187
O O7 0.694406 0.294242 0.496755
O O8 0.953440 0.188921 0.665573
O O9 0.097226 0.257368 0.596534
O O10 0.414133 0.537613 0.875267
O O11 0.213190 0.334892 0.809144
O O12 0.591267 0.345967 0.879583
O O13 0.556936 0.368959 0.997648
O O14 0.500000 0.210027 0.750000
#
# Coordination Sequence:
#
# PCOD9230336 Si02
#       7
#     4   4   4   4   4   2   4
#     4  10  21  36  65  89 118 159 202 251 301 358
#     4  10  23  39  57  93 125 156 204 246 302 365
#     4  10  22  38  62  85 125 159 196 251 304 354
#     4  10  20  37  61  86 117 152 202 246 299 351
#     4   9  20  40  59  86 115 153 199 251 300 354
#     4  10  20  36  60  92 114 156 206 246 288 364
#     4  12  23  38  60  92 122 162 202 248 301 365
#
# _framework density 18.292238000000001
#
# number of rings (size 3 to 8) (size 9 to 14) (size 15 to 20)
#    0.000    1.846    3.077    0.462    6.462    0.615 
#    0.000    0.000    3.385    0.000    0.000    0.000 
#    0.000    0.000    0.000    0.000    0.000    0.000 
#
# Total GULP energy -145194.435155 kJ/mol
# GULP energy per Si atom -5584.401352 kJ/mol
# Density = 1.825060 g / cm^3
# Si number density = 18.292238 Si / 1000 Ang^3
#
#
#
# Elastic Constant Matrix: (Units=GPa)
#
#
# Indices 1 2 3 4 5 6 
#
# 1 103.4492 25.4612 27.4997 0.0000 10.1770 0.0000
# 2 25.4612 82.6135 26.0326 0.0000 0.5220 0.0000
# 3 27.4997 26.0326 76.5018 0.0000 13.2785 0.0000
# 4 0.0000 0.0000 0.0000 11.7032 0.0000 -7.1207
# 5 10.1770 0.5220 13.2785 0.0000 27.5562 0.0000
# 6 0.0000 0.0000 0.0000 -7.1207 0.0000 -1.3112
#
#
#
# Elastic Compliance Matrix: (Units=1/GPa)
#
#
# Indices 1 2 3 4 5 6 
#
# 1 0.011303 -0.002621 -0.002679 0.000000 -0.002834 0.000000
# 2 -0.002621 0.014284 -0.004408 0.000000 0.002822 0.000000
# 3 -0.002679 -0.004408 0.016749 0.000000 -0.006998 0.000000
# 4 0.000000 0.000000 0.000000 0.019852 0.000000 -0.107808
# 5 -0.002834 0.002822 -0.006998 0.000000 0.040655 0.000000
# 6 0.000000 0.000000 0.000000 -0.107808 0.000000 -0.177188
#
#
# Mechanical properties :
#
#
# Convention : Reuss Voigt Hill
#
# Bulk Modulus (GPa) = 43.63238 46.72795 45.18016
# Shear Modulus (GPa) = -105.73161 19.82770 -42.95195
#
# Velocity S-wave (km/s) = -7.61097 3.29590 -4.85097
# Velocity P-wave (km/s) = 7.30281 6.33124 2.57356
#
# Compressibility (1/GPa) = 0.02291876
#
# Stress axis : x y z
#
# Youngs Moduli (GPa) = 88.47448 70.01011 59.70411
#
# Poissons Ratio (x) = 0.18352 0.15995
# Poissons Ratio (y) = 0.23192 0.26318
# Poissons Ratio (z) = 0.23703 0.30861
#
# Static dielectric constant tensor:
#      x y z
#    x 1.622680 0.000000 0.004880 
#    y 0.000000 1.637440 0.000000 
#    z 0.004880 0.000000 1.614540 
# 
# From -- ./inp_files/76357.got.cif
#   From: 2010.05.17/outbox.cif.g08.bks.cpg/sg13_39_cif.got.tgz:76357.got - 2010.06.03 16:44:36.
