data_PCOD9230558
_publ_section_title
;
Structure prediction by ZEFSAII (Michael W. Deem and Ramdas Pophale) SiO2 
 PCOD9230558
Probable space group: P 2/C
;
_chemical_formula_sum "Si O2"
_cell_formula_units_Z 32
_cell_length_a 10.732462
_cell_length_b 7.541988
_cell_length_c 22.509431
_cell_angle_alpha 90.000000
_cell_angle_beta 55.715105
_cell_angle_gamma 90.000000
_cell_volume 1505.426371
_symmetry_space_group_name_H-M "P 2/C"
_symmetry_group_IT_number 13
_symmetry_cell_setting 'monoclinic'
loop_
_space_group_symop_operation_xyz
x,y,z
-x,y,1/2-z
-x,-y,-z
x,-y,1/2+z
loop_
_atom_site_type_symbol
_atom_site_label
_atom_site_fract_x
_atom_site_fract_y
_atom_site_fract_z
Si Si1 0.638029 0.028418 0.919652
Si Si2 0.288331 0.750355 0.422101
Si Si3 0.650221 0.551254 0.677021
Si Si4 0.098038 0.829448 0.586197
Si Si5 0.516147 0.088130 0.159340
Si Si6 0.564666 0.583931 0.421902
Si Si7 0.792071 0.831055 0.716919
Si Si8 0.147101 0.618742 0.686790
O O1 0.657619 0.236280 0.906133
O O2 0.782598 0.955655 0.913871
O O3 0.572687 0.931187 0.879196
O O4 0.500000 0.000000 0.000000
O O5 0.259963 0.603337 0.379860
O O6 0.154614 0.791094 0.504551
O O7 0.421629 0.651073 0.423135
O O8 0.361481 0.931012 0.376738
O O9 0.500000 0.479442 0.750000
O O10 0.592492 0.719953 0.651939
O O11 0.753055 0.641359 0.698900
O O12 0.113971 0.661632 0.626609
O O13 0.929739 0.902912 0.640898
O O14 0.369027 0.069531 0.241776
O O15 0.500000 0.500000 0.500000
O O16 0.684959 0.459558 0.357004
O O17 0.847656 0.787144 0.768830
O O18 0.000000 0.513779 0.750000
#
# Coordination Sequence:
#
# PCOD9230558 Si02
#       8
#     4   4   4   4   4   4   4   4
#     4  11  20  34  59  92 120 152 200 254 313 372
#     4  11  23  36  66  94 118 156 212 259 304 364
#     4  10  23  41  64  87 118 166 216 251 299 370
#     4  11  21  38  62  92 124 158 197 257 321 373
#     4  10  21  39  62  90 119 160 208 255 302 362
#     4  11  20  33  58  89 122 152 199 261 310 364
#     4  10  22  40  64  84 127 172 203 247 318 375
#     4  10  20  37  58  85 124 160 198 249 316 375
#
# _framework density 21.256436000000001
#
# number of rings (size 3 to 8) (size 9 to 14) (size 15 to 20)
#    0.000    1.500    5.000    1.500    1.750    2.000 
#    4.500    0.625    2.750    0.000    0.000    0.000 
#    0.000    0.000    0.000    0.000    0.000    0.000 
#
# Total GULP energy -178306.708936 kJ/mol
# GULP energy per Si atom -5572.084654 kJ/mol
# Density = 2.120806 g / cm^3
# Si number density = 21.256436 Si / 1000 Ang^3
#
#
#
# Elastic Constant Matrix: (Units=GPa)
#
#
# Indices 1 2 3 4 5 6 
#
# 1 51.2449 -0.8797 25.6711 0.0000 -12.6912 0.0000
# 2 -0.8797 57.4479 38.2833 0.0000 2.1944 0.0000
# 3 25.6711 38.2833 147.5260 0.0000 -19.6999 0.0000
# 4 0.0000 0.0000 0.0000 27.4648 0.0000 7.7197
# 5 -12.6912 2.1944 -19.6999 0.0000 41.2449 0.0000
# 6 0.0000 0.0000 0.0000 7.7197 0.0000 18.1854
#
#
#
# Elastic Compliance Matrix: (Units=1/GPa)
#
#
# Indices 1 2 3 4 5 6 
#
# 1 0.022816 0.002863 -0.004055 0.000000 0.004932 0.000000
# 2 0.002863 0.022037 -0.006682 0.000000 -0.003483 0.000000
# 3 -0.004055 -0.006682 0.009719 0.000000 0.003750 0.000000
# 4 0.000000 0.000000 0.000000 0.041343 0.000000 -0.017550
# 5 0.004932 -0.003483 0.003750 0.000000 0.027739 0.000000
# 6 0.000000 0.000000 0.000000 -0.017550 0.000000 0.062439
#
#
# Mechanical properties :
#
#
# Convention : Reuss Voigt Hill
#
# Bulk Modulus (GPa) = 25.75707 42.48534 34.12120
# Shear Modulus (GPa) = 23.27949 30.25531 26.76740
#
# Velocity S-wave (km/s) = 3.31293 3.77682 3.55246
# Velocity P-wave (km/s) = 5.17471 6.24897 5.73704
#
# Compressibility (1/GPa) = 0.03882429
#
# Stress axis : x y z
#
# Youngs Moduli (GPa) = 43.82935 45.37870 102.89437
#
# Poissons Ratio (x) = -0.12992 0.41720
# Poissons Ratio (y) = -0.12548 0.68753
# Poissons Ratio (z) = 0.17771 0.30321
#
# Static dielectric constant tensor:
#      x y z
#    x 2.032610 0.000000 0.256660 
#    y 0.000000 1.718870 0.000000 
#    z 0.256660 0.000000 2.112030 
# 
# From -- ./inp_files/78250.got.cif
#   From: 2010.05.17/outbox.cif.g08.bks.cpg/sg13_40_cif.got.tgz:78250.got - 2010.06.03 16:44:36.
