data_PCOD9230006
_publ_section_title
;
Structure prediction by ZEFSAII (Michael W. Deem and Ramdas Pophale) SiO2 
 PCOD9230006
Probable space group: P 2/C
;
_chemical_formula_sum "Si O2"
_cell_formula_units_Z 32
_cell_length_a 8.556687
_cell_length_b 14.284390
_cell_length_c 11.370495
_cell_angle_alpha 90.000000
_cell_angle_beta 82.402490
_cell_angle_gamma 90.000000
_cell_volume 1377.581611
_symmetry_space_group_name_H-M "P 2/C"
_symmetry_group_IT_number 13
_symmetry_cell_setting 'monoclinic'
loop_
_space_group_symop_operation_xyz
x,y,z
-x,y,1/2-z
-x,-y,-z
x,-y,1/2+z
loop_
_atom_site_type_symbol
_atom_site_label
_atom_site_fract_x
_atom_site_fract_y
_atom_site_fract_z
Si Si1 0.659282 0.763139 0.798856
Si Si2 0.278421 0.091866 0.033920
Si Si3 0.748427 0.569688 0.455948
Si Si4 0.596391 0.387463 0.488083
Si Si5 0.146506 0.177498 0.817976
Si Si6 0.135442 0.599544 0.828396
Si Si7 0.763408 0.380765 0.698404
Si Si8 0.589465 0.918391 0.354201
O O1 0.500000 0.793944 0.750000
O O2 0.754884 0.849367 0.843552
O O3 0.740378 0.682192 0.712995
O O4 0.621045 0.708813 0.922705
O O5 0.299658 0.986685 0.080263
O O6 0.163045 0.118547 0.937555
O O7 0.451280 0.112732 0.957127
O O8 0.735137 0.458573 0.432689
O O9 0.576407 0.579784 0.533856
O O10 0.883936 0.603120 0.528678
O O11 0.742653 0.627609 0.339064
O O12 0.615190 0.380761 0.625717
O O13 0.141141 0.288413 0.847861
O O14 0.302935 0.157874 0.722945
O O15 0.000000 0.152430 0.750000
O O16 0.172675 0.487575 0.816459
O O17 0.000000 0.618865 0.750000
O O18 0.500000 0.965981 0.250000
#
# Coordination Sequence:
#
# PCOD9230006 Si02
#       8
#     4   4   4   4   4   4   4   4
#     4  12  22  39  63  89 119 159 208 256 304 367
#     4  10  22  42  67  92 121 158 202 255 316 369
#     4  10  21  35  57  84 117 161 205 258 305 348
#     4  10  20  35  57  87 114 151 206 260 302 344
#     4  11  24  39  62  95 125 160 204 249 309 371
#     4  11  25  40  55  85 128 173 210 249 303 364
#     4  11  22  38  59  86 124 164 209 254 299 363
#     4   9  21  43  67  94 121 153 199 258 315 375
#
# _framework density 23.229112000000001
#
# number of rings (size 3 to 8) (size 9 to 14) (size 15 to 20)
#    0.000    1.500    3.750    1.125    1.750    3.000 
#    0.000    0.625    0.000    0.000    0.000    0.000 
#    0.000    0.000    0.000    0.000    0.000    0.000 
#
# Total GULP energy -178299.754410 kJ/mol
# GULP energy per Si atom -5571.867325 kJ/mol
# Density = 2.317624 g / cm^3
# Si number density = 23.229112 Si / 1000 Ang^3
#
#
#
# Elastic Constant Matrix: (Units=GPa)
#
#
# Indices 1 2 3 4 5 6 
#
# 1 63.4884 11.8449 31.6926 0.0000 35.1816 0.0000
# 2 11.8449 83.3557 37.3900 0.0000 9.2570 0.0000
# 3 31.6926 37.3900 126.6273 0.0000 39.7764 0.0000
# 4 0.0000 0.0000 0.0000 29.3725 0.0000 7.1993
# 5 35.1816 9.2570 39.7764 0.0000 49.7260 0.0000
# 6 0.0000 0.0000 0.0000 7.1993 0.0000 12.1354
#
#
#
# Elastic Compliance Matrix: (Units=1/GPa)
#
#
# Indices 1 2 3 4 5 6 
#
# 1 0.026162 -0.001513 -0.000501 0.000000 -0.017827 0.000000
# 2 -0.001513 0.013948 -0.004355 0.000000 0.001957 0.000000
# 3 -0.000501 -0.004355 0.011943 0.000000 -0.008388 0.000000
# 4 0.000000 0.000000 0.000000 0.039838 0.000000 -0.023634
# 5 -0.017827 0.001957 -0.008388 0.000000 0.039069 0.000000
# 6 0.000000 0.000000 0.000000 -0.023634 0.000000 0.096424
#
#
# Mechanical properties :
#
#
# Convention : Reuss Voigt Hill
#
# Bulk Modulus (GPa) = 25.43502 48.36961 36.90231
# Shear Modulus (GPa) = 19.74507 31.08306 25.41406
#
# Velocity S-wave (km/s) = 2.91866 3.66198 3.31125
# Velocity P-wave (km/s) = 4.72562 6.22481 5.52629
#
# Compressibility (1/GPa) = 0.03931588
#
# Stress axis : x y z
#
# Youngs Moduli (GPa) = 38.22290 71.69647 83.72817
#
# Poissons Ratio (x) = 0.10848 0.04197
# Poissons Ratio (y) = 0.05783 0.36460
# Poissons Ratio (z) = 0.01916 0.31221
#
# Static dielectric constant tensor:
#      x y z
#    x 1.911250 0.000000 -0.026990 
#    y 0.000000 1.928030 0.000000 
#    z -0.026990 0.000000 1.910210 
# 
# From -- ./inp_files/30425.got.cif
#   From: 2010.05.17/outbox.cif.g08.bks.cpg/sg13_16_cif.got.tgz:30425.got - 2010.06.03 16:44:36.
