data_PCOD9230278
_publ_section_title
;
Structure prediction by ZEFSAII (Michael W. Deem and Ramdas Pophale) SiO2 
 PCOD9230278
Probable space group: P 2/C
;
_chemical_formula_sum "Si O2"
_cell_formula_units_Z 24
_cell_length_a 13.214745
_cell_length_b 5.362772
_cell_length_c 23.148784
_cell_angle_alpha 90.000000
_cell_angle_beta 54.500987
_cell_angle_gamma 90.000000
_cell_volume 1335.573128
_symmetry_space_group_name_H-M "P 2/C"
_symmetry_group_IT_number 13
_symmetry_cell_setting 'monoclinic'
loop_
_space_group_symop_operation_xyz
x,y,z
-x,y,1/2-z
-x,-y,-z
x,-y,1/2+z
loop_
_atom_site_type_symbol
_atom_site_label
_atom_site_fract_x
_atom_site_fract_y
_atom_site_fract_z
Si Si1 0.316894 0.406986 0.103719
Si Si2 0.918719 0.252069 0.532662
Si Si3 0.576313 0.800835 0.511548
Si Si4 0.896152 0.670366 0.736361
Si Si5 0.207962 0.922853 0.534344
Si Si6 0.057277 0.165542 0.849226
O O1 0.461354 0.358372 0.072953
O O2 0.229571 0.393914 0.187741
O O3 0.255059 0.225159 0.075620
O O4 0.332847 0.661857 0.063367
O O5 0.828130 0.248984 0.507771
O O6 0.873540 0.229545 0.613526
O O7 0.000000 0.500000 0.500000
O O8 0.000000 0.000000 0.500000
O O9 0.500000 0.000000 0.500000
O O10 0.671921 0.918056 0.524311
O O11 0.938223 0.419950 0.688993
O O12 0.000000 0.728069 0.750000
O O13 0.887509 0.918849 0.700030
O O14 0.086134 0.085709 0.590166
#
# Coordination Sequence:
#
# PCOD9230278 Si02
#       6
#     4   4   4   4   4   4
#     4  10  21  36  57  90 117 153 199 247 305 350
#     4  10  22  37  58  85 120 156 198 246 287 350
#     4   9  20  36  58  86 112 149 204 251 292 342
#     4  12  23  35  58  84 127 155 184 238 306 377
#     4  10  20  36  59  85 117 152 201 246 296 348
#     4  11  23  37  55  90 121 158 191 234 306 367
#
# _framework density 17.969811
#
# number of rings (size 3 to 8) (size 9 to 14) (size 15 to 20)
#    0.000    1.667    1.667    3.500    9.333    0.000 
#    0.000    0.000    0.000    1.000    0.000    0.000 
#    0.000    0.000    0.000    0.000    0.000    0.000 
#
# Total GULP energy -133629.816366 kJ/mol
# GULP energy per Si atom -5567.909015 kJ/mol
# Density = 1.792891 g / cm^3
# Si number density = 17.969811 Si / 1000 Ang^3
#
#
#
# Elastic Constant Matrix: (Units=GPa)
#
#
# Indices 1 2 3 4 5 6 
#
# 1 88.5826 29.9841 45.7779 0.0000 4.2183 0.0000
# 2 29.9841 106.7952 37.3037 0.0000 10.1705 0.0000
# 3 45.7779 37.3037 93.8848 0.0000 10.9847 0.0000
# 4 0.0000 0.0000 0.0000 -80.3853 0.0000 39.2484
# 5 4.2183 10.1705 10.9847 0.0000 19.7429 0.0000
# 6 0.0000 0.0000 0.0000 39.2484 0.0000 16.0407
#
#
#
# Elastic Compliance Matrix: (Units=1/GPa)
#
#
# Indices 1 2 3 4 5 6 
#
# 1 0.015491 -0.002088 -0.006912 0.000000 0.001612 0.000000
# 2 -0.002088 0.011375 -0.003068 0.000000 -0.003707 0.000000
# 3 -0.006912 -0.003068 0.015919 0.000000 -0.005800 0.000000
# 4 0.000000 0.000000 0.000000 -0.005668 0.000000 0.013869
# 5 0.001612 -0.003707 -0.005800 0.000000 0.055443 0.000000
# 6 0.000000 0.000000 0.000000 0.013869 0.000000 0.028406
#
#
# Mechanical properties :
#
#
# Convention : Reuss Voigt Hill
#
# Bulk Modulus (GPa) = 53.62335 57.26600 55.44467
# Shear Modulus (GPa) = 33.04295 2.82611 17.93453
#
# Velocity S-wave (km/s) = 4.29278 1.25543 3.16260
# Velocity P-wave (km/s) = 7.38080 5.83426 6.65262
#
# Compressibility (1/GPa) = 0.01864859
#
# Stress axis : x y z
#
# Youngs Moduli (GPa) = 64.55297 87.91563 62.81723
#
# Poissons Ratio (x) = 0.18360 0.43421
# Poissons Ratio (y) = 0.13481 0.19269
# Poissons Ratio (z) = 0.44621 0.26969
#
# Static dielectric constant tensor:
#      x y z
#    x 1.654140 0.000000 0.010100 
#    y 0.000000 1.703510 0.000000 
#    z 0.010100 0.000000 1.644670 
# 
# From -- ./inp_files/77151.got.cif
#   From: 2010.05.17/outbox.cif.g08.bks.cpg/sg13_39_cif.got.tgz:77151.got - 2010.06.03 16:44:36.
