data_PCOD9230143
_publ_section_title
;
Structure prediction by ZEFSAII (Michael W. Deem and Ramdas Pophale) SiO2 
 PCOD9230143
Probable space group: P 2/C
;
_chemical_formula_sum "Si O2"
_cell_formula_units_Z 28
_cell_length_a 27.445480
_cell_length_b 6.145918
_cell_length_c 8.119706
_cell_angle_alpha 90.000000
_cell_angle_beta 60.818182
_cell_angle_gamma 90.000000
_cell_volume 1195.777477
_symmetry_space_group_name_H-M "P 2/C"
_symmetry_group_IT_number 13
_symmetry_cell_setting 'monoclinic'
loop_
_space_group_symop_operation_xyz
x,y,z
-x,y,1/2-z
-x,-y,-z
x,-y,1/2+z
loop_
_atom_site_type_symbol
_atom_site_label
_atom_site_fract_x
_atom_site_fract_y
_atom_site_fract_z
Si Si1 0.810545 0.181517 0.150594
Si Si2 0.000000 0.830271 0.250000
Si Si3 0.087664 0.567567 0.912224
Si Si4 0.734401 0.097909 0.564968
Si Si5 0.500000 0.845751 0.250000
Si Si6 0.097030 0.834952 0.568913
Si Si7 0.345922 0.147937 0.542301
Si Si8 0.422963 0.847453 0.647843
O O1 0.857891 0.364758 0.067613
O O2 0.780053 0.209791 0.375516
O O3 0.763052 0.120924 0.095230
O O4 0.847813 0.962401 0.075631
O O5 0.949450 0.994714 0.297645
O O6 0.969132 0.673975 0.428963
O O7 0.099956 0.672496 0.717111
O O8 0.081054 0.310994 0.938791
O O9 0.703676 0.237008 0.758438
O O10 0.687193 0.022471 0.516205
O O11 0.460896 0.724259 0.448903
O O12 0.538066 0.002866 0.300546
O O13 0.383075 0.276487 0.345472
O O14 0.386281 0.012721 0.596953
#
# Coordination Sequence:
#
# PCOD9230143 Si02
#       8
#     4   2   4   4   2   4   4   4
#     4  10  20  36  54  76 106 134 174 220 272 322
#     4  10  24  42  64  82 110 138 174 208 262 316
#     4  11  24  39  59  84 109 138 171 214 262 324
#     4   9  16  29  48  66  90 129 166 227 280 308
#     4   8  12  16  28  44  84 136 168 224 278 304
#     4  11  24  39  59  84 109 138 171 214 262 324
#     4   8  14  22  38  60  84 118 176 234 266 310
#     4   8  12  19  28  52  84 123 178 228 266 314
#
# _framework density 23.415728999999999
#
# number of rings (size 3 to 8) (size 9 to 14) (size 15 to 20)
#    0.000    2.571    1.429    0.857    2.000    3.429 
#    0.000    0.000    0.000    0.000    0.000    0.000 
#    0.000    0.000    0.000    0.000    0.000    0.000 
#
# Total GULP energy -155885.259363 kJ/mol
# GULP energy per Si atom -5567.330692 kJ/mol
# Density = 2.336243 g / cm^3
# Si number density = 23.415729 Si / 1000 Ang^3
#
#
#
# Elastic Constant Matrix: (Units=GPa)
#
#
# Indices 1 2 3 4 5 6 
#
# 1 109.9434 13.2134 40.5408 0.0000 1.7068 0.0000
# 2 13.2134 45.3573 31.9302 0.0000 2.4695 0.0000
# 3 40.5408 31.9302 209.9733 0.0000 -34.2648 0.0000
# 4 0.0000 0.0000 0.0000 -42.0277 0.0000 -17.6971
# 5 1.7068 2.4695 -34.2648 0.0000 31.6342 0.0000
# 6 0.0000 0.0000 0.0000 -17.6971 0.0000 -9.9101
#
#
#
# Elastic Compliance Matrix: (Units=1/GPa)
#
#
# Indices 1 2 3 4 5 6 
#
# 1 0.010111 -0.001215 -0.002236 0.000000 -0.002873 0.000000
# 2 -0.001215 0.026299 -0.004967 0.000000 -0.007367 0.000000
# 3 -0.002236 -0.004967 0.007328 0.000000 0.008446 0.000000
# 4 0.000000 0.000000 0.000000 -0.095924 0.000000 0.171298
# 5 -0.002873 -0.007367 0.008446 0.000000 0.041489 0.000000
# 6 0.000000 0.000000 0.000000 0.171298 0.000000 -0.406803
#
#
# Mechanical properties :
#
#
# Convention : Reuss Voigt Hill
#
# Bulk Modulus (GPa) = 37.17275 59.62696 48.39985
# Shear Modulus (GPa) = -12.76494 14.57857 0.90682
#
# Velocity S-wave (km/s) = -2.33736 2.49790 0.62298
# Velocity P-wave (km/s) = 2.93687 5.81714 4.60784
#
# Compressibility (1/GPa) = 0.02690143
#
# Stress axis : x y z
#
# Youngs Moduli (GPa) = 98.90429 38.02470 136.46704
#
# Poissons Ratio (x) = 0.04619 0.30517
# Poissons Ratio (y) = 0.12015 0.67782
# Poissons Ratio (z) = 0.22117 0.18886
#
# Static dielectric constant tensor:
#      x y z
#    x 1.965980 0.000000 -0.003340 
#    y 0.000000 1.850680 0.000000 
#    z -0.003340 0.000000 1.989880 
# 
# From -- ./inp_files/24773.got.cif
#   From: 2010.05.17/outbox.cif.g08.bks.cpg/sg13_13_cif.got.tgz:24773.got - 2010.06.03 16:44:36.
