data_PCOD9230299
_publ_section_title
;
Structure prediction by ZEFSAII (Michael W. Deem and Ramdas Pophale) SiO2 
 PCOD9230299
Probable space group: P 2/C
;
_chemical_formula_sum "Si O2"
_cell_formula_units_Z 26
_cell_length_a 6.917142
_cell_length_b 19.158455
_cell_length_c 10.908999
_cell_angle_alpha 90.000000
_cell_angle_beta 44.724020
_cell_angle_gamma 90.000000
_cell_volume 1017.314133
_symmetry_space_group_name_H-M "P 2/C"
_symmetry_group_IT_number 13
_symmetry_cell_setting 'monoclinic'
loop_
_space_group_symop_operation_xyz
x,y,z
-x,y,1/2-z
-x,-y,-z
x,-y,1/2+z
loop_
_atom_site_type_symbol
_atom_site_label
_atom_site_fract_x
_atom_site_fract_y
_atom_site_fract_z
Si Si1 0.339246 0.612272 0.523691
Si Si2 0.170637 0.985335 0.548369
Si Si3 0.389101 0.865381 0.977603
Si Si4 0.000000 0.761162 0.250000
Si Si5 0.019702 0.157562 0.411622
Si Si6 0.912346 0.369081 0.624990
Si Si7 0.000000 0.489077 0.750000
Si Si8 0.000000 0.276052 0.250000
O O1 0.138590 0.621929 0.495482
O O2 0.628690 0.620400 0.328826
O O3 0.266367 0.675783 0.646385
O O4 0.254011 0.542979 0.634095
O O5 0.210331 0.902336 0.508881
O O6 0.000000 0.989638 0.750000
O O7 0.000000 0.000000 0.500000
O O8 0.378253 0.049479 0.476038
O O9 0.695943 0.850764 0.795088
O O10 0.148418 0.848327 0.986699
O O11 0.266552 0.813433 0.136032
O O12 0.018955 0.705467 0.127767
O O13 0.924857 0.230199 0.401938
O O14 0.063523 0.437860 0.607361
#
# Coordination Sequence:
#
# PCOD9230299 Si02
#       8
#     4   4   4   2   4   4   2   2
#     4  10  21  36  55  82 111 139 177 223 267 316
#     4  10  20  38  58  82 112 146 190 242 286 332
#     4  10  21  37  56  79 110 147 187 231 281 338
#     4  11  20  36  56  79 108 146 182 223 274 328
#     4  10  21  37  56  79 110 147 187 231 281 338
#     4  10  21  36  55  82 111 139 177 223 267 316
#     4  10  20  36  60  78 108 146 176 210 264 328
#     4  11  20  36  56  79 108 146 182 223 274 328
#
# _framework density 25.557492
#
# number of rings (size 3 to 8) (size 9 to 14) (size 15 to 20)
#    0.000    1.846    1.538    2.769    0.000    0.615 
#    0.000    0.000    0.000   14.769    0.000    0.000 
#    0.000    0.000    0.000    0.000    0.000    0.000 
#
# Total GULP energy -144856.095198 kJ/mol
# GULP energy per Si atom -5571.388277 kJ/mol
# Density = 2.549932 g / cm^3
# Si number density = 25.557492 Si / 1000 Ang^3
#
#
#
# Elastic Constant Matrix: (Units=GPa)
#
#
# Indices 1 2 3 4 5 6 
#
# 1 43.7303 23.1809 -0.1857 0.0000 6.2317 0.0000
# 2 23.1809 180.7510 9.0837 0.0000 -18.5138 0.0000
# 3 -0.1857 9.0837 66.7186 0.0000 -7.9794 0.0000
# 4 0.0000 0.0000 0.0000 33.2343 0.0000 -2.7070
# 5 6.2317 -18.5138 -7.9794 0.0000 48.7449 0.0000
# 6 0.0000 0.0000 0.0000 -2.7070 0.0000 21.9234
#
#
#
# Elastic Compliance Matrix: (Units=1/GPa)
#
#
# Indices 1 2 3 4 5 6 
#
# 1 0.025526 -0.003755 0.000022 0.000000 -0.004686 0.000000
# 2 -0.003755 0.006327 -0.000538 0.000000 0.002795 0.000000
# 3 0.000022 -0.000538 0.015337 0.000000 0.002304 0.000000
# 4 0.000000 0.000000 0.000000 0.030395 0.000000 0.003753
# 5 -0.004686 0.002795 0.002304 0.000000 0.022553 0.000000
# 6 0.000000 0.000000 0.000000 0.003753 0.000000 0.046077
#
#
# Mechanical properties :
#
#
# Convention : Reuss Voigt Hill
#
# Bulk Modulus (GPa) = 25.87378 39.48416 32.67897
# Shear Modulus (GPa) = 29.82610 38.05525 33.94067
#
# Velocity S-wave (km/s) = 3.41987 3.86295 3.64814
# Velocity P-wave (km/s) = 5.07344 5.94804 5.52806
#
# Compressibility (1/GPa) = 0.03864916
#
# Stress axis : x y z
#
# Youngs Moduli (GPa) = 39.17640 158.04492 65.20137
#
# Poissons Ratio (x) = 0.59340 -0.00142
# Poissons Ratio (y) = 0.14709 0.03505
# Poissons Ratio (z) = -0.00086 0.08497
#
# Static dielectric constant tensor:
#      x y z
#    x 2.062560 0.000000 0.020190 
#    y 0.000000 2.122660 0.000000 
#    z 0.020190 0.000000 1.974250 
# 
# From -- ./inp_files/30615.got.cif
#   From: 2010.05.17/outbox.cif.g08.bks.cpg/sg13_16_cif.got.tgz:30615.got - 2010.06.03 16:44:36.
