data_PCOD9230289
_publ_section_title
;
Structure prediction by ZEFSAII (Michael W. Deem and Ramdas Pophale) SiO2 
 PCOD9230289
Probable space group: P 2/C
;
_chemical_formula_sum "Si O2"
_cell_formula_units_Z 26
_cell_length_a 19.960608
_cell_length_b 5.502571
_cell_length_c 14.009973
_cell_angle_alpha 90.000000
_cell_angle_beta 45.863772
_cell_angle_gamma 90.000000
_cell_volume 1104.361536
_symmetry_space_group_name_H-M "P 2/C"
_symmetry_group_IT_number 13
_symmetry_cell_setting 'monoclinic'
loop_
_space_group_symop_operation_xyz
x,y,z
-x,y,1/2-z
-x,-y,-z
x,-y,1/2+z
loop_
_atom_site_type_symbol
_atom_site_label
_atom_site_fract_x
_atom_site_fract_y
_atom_site_fract_z
Si Si1 0.107402 0.180643 0.911727
Si Si2 0.800534 0.694533 0.459529
Si Si3 0.963488 0.320596 0.921430
Si Si4 0.646887 0.432159 0.478226
Si Si5 0.344365 0.940542 0.386873
Si Si6 0.704866 0.405671 0.721305
Si Si7 0.500000 0.308388 0.250000
O O1 0.056163 0.401252 0.022158
O O2 0.217046 0.224394 0.813145
O O3 0.083266 0.908040 0.971383
O O4 0.070055 0.245240 0.842519
O O5 0.910142 0.684076 0.372955
O O6 0.739824 0.548178 0.439751
O O7 0.761115 0.589849 0.599078
O O8 0.761612 0.967330 0.499993
O O9 0.637677 0.159591 0.525391
O O10 0.655558 0.469462 0.358290
O O11 0.554872 0.552286 0.613509
O O12 0.355873 0.738038 0.295296
O O13 0.417242 0.146461 0.289690
#
# Coordination Sequence:
#
# PCOD9230289 Si02
#       7
#     4   4   4   4   4   4   2
#     4   9  17  30  55  88 120 156 201 240 289 349
#     4   9  19  35  56  85 116 157 195 236 298 353
#     4   9  16  31  55  85 121 161 197 240 288 349
#     4  10  22  38  58  84 114 149 196 250 302 361
#     4  10  20  39  59  80 117 149 189 244 304 364
#     4  10  20  36  59  88 114 151 201 245 291 363
#     4  10  22  40  58  82 112 150 186 240 314 374
#
# _framework density 23.543015
#
# number of rings (size 3 to 8) (size 9 to 14) (size 15 to 20)
#    0.000    2.462    1.538    0.462    0.000    3.077 
#    0.000   11.538    0.000    0.000    0.000    0.000 
#    0.000    0.000    0.000    0.000    0.000    0.000 
#
# Total GULP energy -144866.922194 kJ/mol
# GULP energy per Si atom -5571.804700 kJ/mol
# Density = 2.348943 g / cm^3
# Si number density = 23.543015 Si / 1000 Ang^3
#
#
#
# Elastic Constant Matrix: (Units=GPa)
#
#
# Indices 1 2 3 4 5 6 
#
# 1 36.0989 -0.6863 -7.0223 0.0000 -4.9941 0.0000
# 2 -0.6863 77.9205 4.6097 0.0000 0.2303 0.0000
# 3 -7.0223 4.6097 43.6657 0.0000 1.2959 0.0000
# 4 0.0000 0.0000 0.0000 -0.7950 0.0000 -17.8625
# 5 -4.9941 0.2303 1.2959 0.0000 45.7534 0.0000
# 6 0.0000 0.0000 0.0000 -17.8625 0.0000 31.6421
#
#
#
# Elastic Compliance Matrix: (Units=1/GPa)
#
#
# Indices 1 2 3 4 5 6 
#
# 1 0.029012 -0.000024 0.004578 0.000000 0.003037 0.000000
# 2 -0.000024 0.012914 -0.001366 0.000000 -0.000029 0.000000
# 3 0.004578 -0.001366 0.023787 0.000000 -0.000167 0.000000
# 4 0.000000 0.000000 0.000000 -0.091923 0.000000 -0.051892
# 5 0.003037 -0.000029 -0.000167 0.000000 0.022193 0.000000
# 6 0.000000 0.000000 0.000000 -0.051892 0.000000 0.002310
#
#
# Mechanical properties :
#
#
# Convention : Reuss Voigt Hill
#
# Bulk Modulus (GPa) = 13.87195 16.83192 15.35193
# Shear Modulus (GPa) = 313.54866 26.03904 169.79385
#
# Velocity S-wave (km/s) = 11.55294 3.32930 8.50160
# Velocity P-wave (km/s) = 13.55970 4.68443 10.14419
#
# Compressibility (1/GPa) = 0.07208794
#
# Stress axis : x y z
#
# Youngs Moduli (GPa) = 34.46853 77.43358 42.04025
#
# Poissons Ratio (x) = 0.00188 -0.19247
# Poissons Ratio (y) = 0.00084 0.05744
# Poissons Ratio (z) = -0.15780 0.10580
#
# Static dielectric constant tensor:
#      x y z
#    x 2.038750 0.000000 -0.102490 
#    y 0.000000 1.923140 0.000000 
#    z -0.102490 0.000000 2.009910 
# 
# From -- ./inp_files/40038.got.cif
#   From: 2010.05.17/outbox.cif.g08.bks.cpg/sg13_21_cif.got.tgz:40038.got - 2010.06.03 16:44:36.
