data_PCOD9230480
_publ_section_title
;
Structure prediction by ZEFSAII (Michael W. Deem and Ramdas Pophale) SiO2 
 PCOD9230480
Probable space group: P 2/C
;
_chemical_formula_sum "Si O2"
_cell_formula_units_Z 32
_cell_length_a 11.633661
_cell_length_b 11.674531
_cell_length_c 15.962400
_cell_angle_alpha 90.000000
_cell_angle_beta 142.695613
_cell_angle_gamma 90.000000
_cell_volume 1313.899039
_symmetry_space_group_name_H-M "P 2/C"
_symmetry_group_IT_number 13
_symmetry_cell_setting 'monoclinic'
loop_
_space_group_symop_operation_xyz
x,y,z
-x,y,1/2-z
-x,-y,-z
x,-y,1/2+z
loop_
_atom_site_type_symbol
_atom_site_label
_atom_site_fract_x
_atom_site_fract_y
_atom_site_fract_z
Si Si1 0.650366 0.744680 0.740151
Si Si2 0.772706 0.179091 0.131746
Si Si3 0.914410 0.426673 0.813259
Si Si4 0.982603 0.633105 0.533688
Si Si5 0.274728 0.317279 0.944274
Si Si6 0.325649 0.797599 0.099441
Si Si7 0.224651 0.999968 0.645833
Si Si8 0.790695 0.076857 0.672854
O O1 0.724012 0.758181 0.687888
O O2 0.803922 0.661132 0.869431
O O3 0.445832 0.686740 0.610315
O O4 0.680753 0.873932 0.792821
O O5 0.000000 0.181671 0.250000
O O6 0.711735 0.046098 0.099772
O O7 0.658960 0.228108 0.988358
O O8 0.076479 0.336888 0.878335
O O9 0.011744 0.551319 0.881316
O O10 0.751450 0.407479 0.649053
O O11 0.870827 0.409330 0.886295
O O12 0.877459 0.749280 0.493599
O O13 0.294593 0.192917 0.912460
O O14 0.500000 0.745386 0.250000
O O15 0.311627 0.929630 0.118930
O O16 0.233198 0.068150 0.739992
O O17 0.000000 0.000000 0.500000
O O18 0.000000 0.077280 0.750000
#
# Coordination Sequence:
#
# PCOD9230480 Si02
#       8
#     4   4   4   4   4   4   4   4
#     4  11  25  41  71 104 138 177 233 288 350 424
#     4  10  21  40  60  97 135 182 221 264 334 422
#     4  10  25  47  71  93 133 177 240 290 366 404
#     4  11  24  50  68  94 133 184 230 301 347 419
#     4  11  24  43  70 106 131 181 228 296 353 414
#     4  12  26  40  66 100 138 184 230 278 348 424
#     4  11  22  42  65 102 146 183 224 272 349 433
#     4  10  20  36  66  90 135 177 217 268 335 415
#
# _framework density 24.354993
#
# number of rings (size 3 to 8) (size 9 to 14) (size 15 to 20)
#    0.000    1.250    3.750    2.250    5.250    5.000 
#    4.500    0.000    0.000    0.000    0.000    0.000 
#    0.000    0.000    0.000    0.000    0.000    0.000 
#
# Total GULP energy -178559.220126 kJ/mol
# GULP energy per Si atom -5579.975629 kJ/mol
# Density = 2.429956 g / cm^3
# Si number density = 24.354993 Si / 1000 Ang^3
#
#
#
# Elastic Constant Matrix: (Units=GPa)
#
#
# Indices 1 2 3 4 5 6 
#
# 1 55.7262 -0.4980 8.1478 0.0000 -3.6020 0.0000
# 2 -0.4980 56.8917 16.2484 0.0000 -5.0817 0.0000
# 3 8.1478 16.2484 124.4110 0.0000 1.9922 0.0000
# 4 0.0000 0.0000 0.0000 29.3990 0.0000 -7.7865
# 5 -3.6020 -5.0817 1.9922 0.0000 44.0946 0.0000
# 6 0.0000 0.0000 0.0000 -7.7865 0.0000 7.7414
#
#
#
# Elastic Compliance Matrix: (Units=1/GPa)
#
#
# Indices 1 2 3 4 5 6 
#
# 1 0.018248 0.000679 -0.001310 0.000000 0.001628 0.000000
# 2 0.000679 0.018502 -0.002498 0.000000 0.002301 0.000000
# 3 -0.001310 -0.002498 0.008462 0.000000 -0.000777 0.000000
# 4 0.000000 0.000000 0.000000 0.046367 0.000000 0.046637
# 5 0.001628 0.002301 -0.000777 0.000000 0.023112 0.000000
# 6 0.000000 0.000000 0.000000 0.046637 0.000000 0.176085
#
#
# Mechanical properties :
#
#
# Convention : Reuss Voigt Hill
#
# Bulk Modulus (GPa) = 25.67039 31.64725 28.65882
# Shear Modulus (GPa) = 16.12811 30.45572 23.29192
#
# Velocity S-wave (km/s) = 2.57614 3.54007 3.09585
# Velocity P-wave (km/s) = 4.40586 5.45269 4.95698
#
# Compressibility (1/GPa) = 0.03895539
#
# Stress axis : x y z
#
# Youngs Moduli (GPa) = 54.80145 54.04801 118.17104
#
# Poissons Ratio (x) = -0.03671 0.15478
# Poissons Ratio (y) = -0.03722 0.29516
# Poissons Ratio (z) = 0.07178 0.13500
#
# Static dielectric constant tensor:
#      x y z
#    x 2.003110 0.000000 0.056850 
#    y 0.000000 1.977910 0.000000 
#    z 0.056850 0.000000 2.070210 
# 
# From -- ./inp_files/68710.got.cif
#   From: 2010.05.17/outbox.cif.g08.bks.cpg/sg13_35_cif.got.tgz:68710.got - 2010.06.03 16:44:36.
