data_PCOD9230856
_publ_section_title
;
Structure prediction by ZEFSAII (Michael W. Deem and Ramdas Pophale) SiO2 
 PCOD9230856
Probable space group: P 2/C
;
_chemical_formula_sum "Si O2"
_cell_formula_units_Z 28
_cell_length_a 6.335035
_cell_length_b 16.015119
_cell_length_c 12.234256
_cell_angle_alpha 90.000000
_cell_angle_beta 63.586909
_cell_angle_gamma 90.000000
_cell_volume 1111.669671
_symmetry_space_group_name_H-M "P 2/C"
_symmetry_group_IT_number 13
_symmetry_cell_setting 'monoclinic'
loop_
_space_group_symop_operation_xyz
x,y,z
-x,y,1/2-z
-x,-y,-z
x,-y,1/2+z
loop_
_atom_site_type_symbol
_atom_site_label
_atom_site_fract_x
_atom_site_fract_y
_atom_site_fract_z
Si Si1 0.751167 0.571307 0.631435
Si Si2 0.123461 0.050757 0.571899
Si Si3 0.393730 0.079519 0.154922
Si Si4 0.398240 0.346303 0.544968
Si Si5 0.980562 0.225507 0.589217
Si Si6 0.225783 0.610055 0.400010
Si Si7 0.150503 0.757814 0.626317
O O1 0.500000 0.598691 0.750000
O O2 0.669919 0.583646 0.525533
O O3 0.814951 0.477359 0.650367
O O4 0.018147 0.611097 0.544958
O O5 0.371120 0.087890 0.471493
O O6 0.963507 0.131386 0.635759
O O7 0.222023 0.991167 0.644835
O O8 0.000000 0.000000 0.500000
O O9 0.500000 0.062456 0.250000
O O10 0.247094 0.163644 0.174431
O O11 0.199136 0.275427 0.590842
O O12 0.506783 0.394034 0.621111
O O13 0.620566 0.293121 0.455439
O O14 0.790779 0.298487 0.650313
O O15 0.979395 0.214455 0.455986
O O16 0.000000 0.708475 0.750000
#
# Coordination Sequence:
#
# PCOD9230856 Si02
#       7
#     4   4   4   4   4   4   4
#     4  10  21  36  59  87 119 158 203 254 310 378
#     4  11  22  40  62  86 119 166 211 257 320 377
#     4  11  24  37  58  91 123 161 211 260 318 382
#     4  10  21  34  58  86 123 155 190 252 309 377
#     4  10  20  38  58  84 116 166 202 250 307 378
#     4   9  21  38  56  87 120 159 205 254 312 373
#     4  11  22  32  56  90 125 154 192 245 321 385
#
# _framework density 25.187339000000001
#
# number of rings (size 3 to 8) (size 9 to 14) (size 15 to 20)
#    0.000    1.714    2.857    1.286    6.000    0.000 
#    0.000    0.000    0.000    5.143    0.000    0.000 
#    0.000    0.000    0.000    0.000    0.000    0.000 
#
# Total GULP energy -155875.373382 kJ/mol
# GULP energy per Si atom -5566.977621 kJ/mol
# Density = 2.513001 g / cm^3
# Si number density = 25.187339 Si / 1000 Ang^3
#
#
#
# Elastic Constant Matrix: (Units=GPa)
#
#
# Indices 1 2 3 4 5 6 
#
# 1 144.1596 21.1231 26.7296 0.0000 14.7237 0.0000
# 2 21.1231 118.4899 1.5090 0.0000 12.6813 0.0000
# 3 26.7296 1.5090 75.5540 0.0000 2.8120 0.0000
# 4 0.0000 0.0000 0.0000 25.7610 0.0000 -2.1421
# 5 14.7237 12.6813 2.8120 0.0000 49.3540 0.0000
# 6 0.0000 0.0000 0.0000 -2.1421 0.0000 23.4466
#
#
#
# Elastic Compliance Matrix: (Units=1/GPa)
#
#
# Indices 1 2 3 4 5 6 
#
# 1 0.007791 -0.001154 -0.002664 0.000000 -0.001876 0.000000
# 2 -0.001154 0.008850 0.000304 0.000000 -0.001947 0.000000
# 3 -0.002664 0.000304 0.014175 0.000000 -0.000091 0.000000
# 4 0.000000 0.000000 0.000000 0.039116 0.000000 0.003574
# 5 -0.001876 -0.001947 -0.000091 0.000000 0.021327 0.000000
# 6 0.000000 0.000000 0.000000 0.003574 0.000000 0.042977
#
#
# Mechanical properties :
#
#
# Convention : Reuss Voigt Hill
#
# Bulk Modulus (GPa) = 42.03649 48.54743 45.29196
# Shear Modulus (GPa) = 33.51376 38.96845 36.24110
#
# Velocity S-wave (km/s) = 3.65167 3.93764 3.79735
# Velocity P-wave (km/s) = 5.87412 6.32375 6.10308
#
# Compressibility (1/GPa) = 0.02378886
#
# Stress axis : x y z
#
# Youngs Moduli (GPa) = 128.34727 112.99690 70.54572
#
# Poissons Ratio (x) = 0.13043 0.18790
# Poissons Ratio (y) = 0.14815 -0.02145
# Poissons Ratio (z) = 0.34186 -0.03436
#
# Static dielectric constant tensor:
#      x y z
#    x 2.061860 0.000000 0.042130 
#    y 0.000000 2.014270 0.000000 
#    z 0.042130 0.000000 2.215840 
# 
# From -- ./inp_files/44266.got.cif
#   From: 2010.05.17/outbox.cif.g08.bks.cpg/sg13_23_cif.got.tgz:44266.got - 2010.06.03 16:44:36.
