data_PCOD9231639
_publ_section_title
;
Structure prediction by ZEFSAII (Michael W. Deem and Ramdas Pophale) SiO2 
 PCOD9231639
Probable space group: P 2/C
;
_chemical_formula_sum "Si O2"
_cell_formula_units_Z 22
_cell_length_a 13.629775
_cell_length_b 7.727922
_cell_length_c 15.708728
_cell_angle_alpha 90.000000
_cell_angle_beta 35.632760
_cell_angle_gamma 90.000000
_cell_volume 963.948448
_symmetry_space_group_name_H-M "P 2/C"
_symmetry_group_IT_number 13
_symmetry_cell_setting 'monoclinic'
loop_
_space_group_symop_operation_xyz
x,y,z
-x,y,1/2-z
-x,-y,-z
x,-y,1/2+z
loop_
_atom_site_type_symbol
_atom_site_label
_atom_site_fract_x
_atom_site_fract_y
_atom_site_fract_z
Si Si1 0.621335 0.215846 0.330504
Si Si2 0.951287 0.193429 0.003784
Si Si3 0.500000 0.387054 0.250000
Si Si4 0.489576 0.852302 0.419051
Si Si5 0.251073 0.670545 0.378790
Si Si6 0.848942 0.028167 0.423278
O O1 0.808393 0.261089 0.169022
O O2 0.509688 0.276463 0.329677
O O3 0.554026 0.269332 0.470243
O O4 0.619703 0.007847 0.344348
O O5 0.111775 0.319246 0.901124
O O6 0.875125 0.140528 0.965076
O O7 0.000000 0.000000 0.000000
O O8 0.326505 0.499186 0.368294
O O9 0.578831 0.746964 0.282407
O O10 0.324586 0.954654 0.505453
O O11 0.169570 0.800720 0.504517
O O12 0.000000 0.038483 0.250000
#
# Coordination Sequence:
#
# PCOD9231639 Si02
#       6
#     4   4   2   4   4   4
#     4  11  24  39  71  99 132 172 229 285 340 406
#     4  10  20  40  66  99 127 172 232 288 330 385
#     4  12  26  44  64  98 144 184 218 272 356 422
#     4  11  21  41  69  98 127 174 232 283 329 400
#     4  11  23  43  65  93 141 182 219 282 341 409
#     4  11  21  36  67 100 129 172 234 288 332 392
#
# _framework density 22.822796
#
# number of rings (size 3 to 8) (size 9 to 14) (size 15 to 20)
#    0.000    1.091    5.455    3.273    2.545    1.455 
#    0.000    0.000    0.000    0.000    0.000    0.000 
#    0.000    0.000    0.000    0.000    0.000    0.000 
#
# Total GULP energy -122647.232158 kJ/mol
# GULP energy per Si atom -5574.874189 kJ/mol
# Density = 2.277085 g / cm^3
# Si number density = 22.822796 Si / 1000 Ang^3
#
#
#
# Elastic Constant Matrix: (Units=GPa)
#
#
# Indices 1 2 3 4 5 6 
#
# 1 145.4578 38.9051 61.7066 0.0000 -2.0890 0.0000
# 2 38.9051 75.8836 36.6712 0.0000 4.4475 0.0000
# 3 61.7066 36.6712 172.1748 0.0000 8.2849 0.0000
# 4 0.0000 0.0000 0.0000 15.0170 0.0000 -15.6141
# 5 -2.0890 4.4475 8.2849 0.0000 41.6524 0.0000
# 6 0.0000 0.0000 0.0000 -15.6141 0.0000 -0.1141
#
#
#
# Elastic Compliance Matrix: (Units=1/GPa)
#
#
# Indices 1 2 3 4 5 6 
#
# 1 0.008873 -0.003410 -0.002517 0.000000 0.001310 0.000000
# 2 -0.003410 0.016038 -0.002124 0.000000 -0.001461 0.000000
# 3 -0.002517 -0.002124 0.007227 0.000000 -0.001337 0.000000
# 4 0.000000 0.000000 0.000000 0.000465 0.000000 -0.063598
# 5 0.001310 -0.001461 -0.001337 0.000000 0.024496 0.000000
# 6 0.000000 0.000000 0.000000 -0.063598 0.000000 -0.061166
#
#
# Mechanical properties :
#
#
# Convention : Reuss Voigt Hill
#
# Bulk Modulus (GPa) = 62.35331 74.23132 68.29232
# Shear Modulus (GPa) = 287.69449 28.39329 158.04389
#
# Velocity S-wave (km/s) = 11.23964 3.53097 8.33058
# Velocity P-wave (km/s) = 13.99354 7.01565 11.06884
#
# Compressibility (1/GPa) = 0.01603764
#
# Stress axis : x y z
#
# Youngs Moduli (GPa) = 112.69619 62.35149 138.37482
#
# Poissons Ratio (x) = 0.21260 0.34829
# Poissons Ratio (y) = 0.38427 0.29385
# Poissons Ratio (z) = 0.28365 0.13241
#
# Static dielectric constant tensor:
#      x y z
#    x 2.093470 0.000000 -0.001140 
#    y 0.000000 1.888100 0.000000 
#    z -0.001140 0.000000 1.870470 
# 
# From -- ./inp_files/68097.got.cif
#   From: 2010.05.17/outbox.cif.g08.bks.cpg/sg13_35_cif.got.tgz:68097.got - 2010.06.03 16:44:36.
