data_PCOD9231991
_publ_section_title
;
Structure prediction by ZEFSAII (Michael W. Deem and Ramdas Pophale) SiO2 
 PCOD9231991
Probable space group: P 2/C
;
_chemical_formula_sum "Si O2"
_cell_formula_units_Z 32
_cell_length_a 14.359198
_cell_length_b 9.850988
_cell_length_c 15.376689
_cell_angle_alpha 90.000000
_cell_angle_beta 144.352452
_cell_angle_gamma 90.000000
_cell_volume 1267.624173
_symmetry_space_group_name_H-M "P 2/C"
_symmetry_group_IT_number 13
_symmetry_cell_setting 'monoclinic'
loop_
_space_group_symop_operation_xyz
x,y,z
-x,y,1/2-z
-x,-y,-z
x,-y,1/2+z
loop_
_atom_site_type_symbol
_atom_site_label
_atom_site_fract_x
_atom_site_fract_y
_atom_site_fract_z
Si Si1 0.179715 0.545573 0.415447
Si Si2 0.756573 0.666505 0.852982
Si Si3 0.046141 0.149070 0.504118
Si Si4 0.839699 0.013875 0.086861
Si Si5 0.472902 0.128816 0.102888
Si Si6 0.694065 0.721621 0.533271
Si Si7 0.312179 0.498003 0.845381
Si Si8 0.621791 0.150289 0.671254
O O1 0.251597 0.395822 0.491138
O O2 0.203098 0.638050 0.516051
O O3 0.254580 0.597449 0.380501
O O4 0.000000 0.523582 0.250000
O O5 0.585932 0.745290 0.714818
O O6 0.737971 0.645469 0.654891
O O7 0.743277 0.519417 0.794436
O O8 0.899887 0.754456 0.919508
O O9 0.107969 0.109843 0.454246
O O10 0.200677 0.195830 0.675139
O O11 0.000000 0.000000 0.500000
O O12 0.772621 0.131834 0.098541
O O13 0.000000 0.950030 0.250000
O O14 0.687151 0.913240 0.964036
O O15 0.587429 0.995783 0.188528
O O16 0.417697 0.141662 0.960628
O O17 0.506522 0.748147 0.384659
O O18 0.500000 0.500000 0.000000
#
# Coordination Sequence:
#
# PCOD9231991 Si02
#       8
#     4   4   4   4   4   4   4   4
#     4  10  25  49  76 117 157 205 273 329 396 467
#     4  12  25  50  85 110 161 219 255 338 402 483
#     4  12  26  46  72 117 160 198 262 315 404 487
#     4  11  23  42  75 112 154 198 251 328 391 473
#     4  10  21  43  80 110 150 204 257 312 406 475
#     4   9  21  44  72 104 152 199 260 321 387 463
#     4  10  24  49  75 108 151 197 266 323 390 458
#     4  10  20  43  76 113 152 200 252 327 393 480
#
# _framework density 25.244076
#
# number of rings (size 3 to 8) (size 9 to 14) (size 15 to 20)
#    0.750    0.750    2.500    1.875    3.500    4.000 
#    9.000    0.625    2.750    0.000    0.000    0.000 
#    0.000    0.000    0.000    0.000    0.000    0.000 
#
# Total GULP energy -178663.189184 kJ/mol
# GULP energy per Si atom -5583.224662 kJ/mol
# Density = 2.518662 g / cm^3
# Si number density = 25.244076 Si / 1000 Ang^3
#
#
#
# Elastic Constant Matrix: (Units=GPa)
#
#
# Indices 1 2 3 4 5 6 
#
# 1 127.5045 28.9218 77.5131 0.0000 5.5968 0.0000
# 2 28.9218 205.3140 17.0223 0.0000 -12.0420 0.0000
# 3 77.5131 17.0223 161.6171 0.0000 17.0632 0.0000
# 4 0.0000 0.0000 0.0000 30.4528 0.0000 12.9198
# 5 5.5968 -12.0420 17.0632 0.0000 46.0681 0.0000
# 6 0.0000 0.0000 0.0000 12.9198 0.0000 32.8917
#
#
#
# Elastic Compliance Matrix: (Units=1/GPa)
#
#
# Indices 1 2 3 4 5 6 
#
# 1 0.011341 -0.001136 -0.005352 0.000000 0.000308 0.000000
# 2 -0.001136 0.005134 -0.000158 0.000000 0.001539 0.000000
# 3 -0.005352 -0.000158 0.009061 0.000000 -0.002747 0.000000
# 4 0.000000 0.000000 0.000000 0.039404 0.000000 -0.015478
# 5 0.000308 0.001539 -0.002747 0.000000 0.023089 0.000000
# 6 0.000000 0.000000 0.000000 -0.015478 0.000000 0.036483
#
#
# Mechanical properties :
#
#
# Convention : Reuss Voigt Hill
#
# Bulk Modulus (GPa) = 81.67715 82.37221 82.02468
# Shear Modulus (GPa) = 35.23977 46.61441 40.92709
#
# Velocity S-wave (km/s) = 3.74031 4.30181 4.03085
# Velocity P-wave (km/s) = 7.14692 7.57465 7.36389
#
# Compressibility (1/GPa) = 0.01224333
#
# Stress axis : x y z
#
# Youngs Moduli (GPa) = 88.17948 194.78139 110.36278
#
# Poissons Ratio (x) = 0.22122 0.59065
# Poissons Ratio (y) = 0.10015 0.01749
# Poissons Ratio (z) = 0.47193 0.03087
#
# Static dielectric constant tensor:
#      x y z
#    x 2.173870 0.000000 0.074810 
#    y 0.000000 2.024240 0.000000 
#    z 0.074810 0.000000 2.027650 
# 
# From -- ./inp_files/68748.got.cif
#   From: 2010.05.17/outbox.cif.g08.bks.cpg/sg13_35_cif.got.tgz:68748.got - 2010.06.03 16:44:36.
