data_PCOD9231747
_publ_section_title
;
Structure prediction by ZEFSAII (Michael W. Deem and Ramdas Pophale) SiO2 
 PCOD9231747
Probable space group: P 2/C
;
_chemical_formula_sum "Si O2"
_cell_formula_units_Z 20
_cell_length_a 9.069369
_cell_length_b 8.413079
_cell_length_c 27.799320
_cell_angle_alpha 90.000000
_cell_angle_beta 153.433655
_cell_angle_gamma 90.000000
_cell_volume 948.638668
_symmetry_space_group_name_H-M "P 2/C"
_symmetry_group_IT_number 13
_symmetry_cell_setting 'monoclinic'
loop_
_space_group_symop_operation_xyz
x,y,z
-x,y,1/2-z
-x,-y,-z
x,-y,1/2+z
loop_
_atom_site_type_symbol
_atom_site_label
_atom_site_fract_x
_atom_site_fract_y
_atom_site_fract_z
Si Si1 0.121955 0.402625 0.941594
Si Si2 0.763924 0.876053 0.958540
Si Si3 0.448997 0.100625 0.533661
Si Si4 0.815788 0.564606 0.145974
Si Si5 0.204466 0.713061 0.627151
O O1 0.070493 0.232505 0.951429
O O2 0.994703 0.434255 0.849969
O O3 0.964017 0.541788 0.926656
O O4 0.515743 0.437997 0.054762
O O5 0.489329 0.979644 0.904628
O O6 0.660476 0.762528 0.885391
O O7 0.000000 0.000000 0.000000
O O8 0.666079 0.257558 0.601259
O O9 0.076645 0.167675 0.433490
O O10 0.500000 0.000000 0.500000
O O11 0.000000 0.539519 0.250000
O O12 0.500000 0.709501 0.750000
#
# Coordination Sequence:
#
# PCOD9231747 Si02
#       5
#     4   4   4   4   4
#     4  10  21  41  62  89 127 159 211 266 303 379
#     4  10  21  40  62  84 125 165 196 260 318 366
#     4  10  20  41  64  87 130 163 210 267 311 374
#     4  10  22  38  64  93 120 165 215 262 315 368
#     4  10  23  39  60  94 124 165 209 257 321 376
#
# _framework density 21.082840999999998
#
# number of rings (size 3 to 8) (size 9 to 14) (size 15 to 20)
#    0.000    2.000    2.000    0.600    2.800    1.600 
#    0.000    2.000    0.000    0.000    0.000    0.000 
#    0.000    0.000    0.000    0.000    0.000    0.000 
#
# Total GULP energy -111516.155223 kJ/mol
# GULP energy per Si atom -5575.807761 kJ/mol
# Density = 2.103486 g / cm^3
# Si number density = 21.082841 Si / 1000 Ang^3
#
#
#
# Elastic Constant Matrix: (Units=GPa)
#
#
# Indices 1 2 3 4 5 6 
#
# 1 98.0403 39.8750 14.1032 0.0000 -29.0487 0.0000
# 2 39.8750 96.2467 -3.0249 0.0000 -8.5293 0.0000
# 3 14.1032 -3.0249 61.8284 0.0000 -22.0023 0.0000
# 4 0.0000 0.0000 0.0000 13.4072 0.0000 -20.5714
# 5 -29.0487 -8.5293 -22.0023 0.0000 30.0417 0.0000
# 6 0.0000 0.0000 0.0000 -20.5714 0.0000 34.9922
#
#
#
# Elastic Compliance Matrix: (Units=1/GPa)
#
#
# Indices 1 2 3 4 5 6 
#
# 1 0.016971 -0.005569 0.001533 0.000000 0.015951 0.000000
# 2 -0.005569 0.012704 0.001703 0.000000 -0.000531 0.000000
# 3 0.001533 0.001703 0.022461 0.000000 0.018416 0.000000
# 4 0.000000 0.000000 0.000000 0.761292 0.000000 0.447553
# 5 0.015951 -0.000531 0.018416 0.000000 0.062048 0.000000
# 6 0.000000 0.000000 0.000000 0.447553 0.000000 0.291688
#
#
# Mechanical properties :
#
#
# Convention : Reuss Voigt Hill
#
# Bulk Modulus (GPa) = 21.06655 39.78022 30.42339
# Shear Modulus (GPa) = 4.20998 29.36569 16.78784
#
# Velocity S-wave (km/s) = 1.41464 3.73617 2.82490
# Velocity P-wave (km/s) = 3.56121 6.12547 5.01017
#
# Compressibility (1/GPa) = 0.04746862
#
# Stress axis : x y z
#
# Youngs Moduli (GPa) = 58.92478 78.71708 44.52166
#
# Poissons Ratio (x) = 0.43839 -0.06825
# Poissons Ratio (y) = 0.32816 -0.07581
# Poissons Ratio (z) = -0.09033 -0.13404
#
# Static dielectric constant tensor:
#      x y z
#    x 1.814060 0.000000 -0.021730 
#    y 0.000000 1.810890 0.000000 
#    z -0.021730 0.000000 1.749640 
# 
# From -- ./inp_files/28139.got.cif
#   From: 2010.05.17/outbox.cif.g08.bks.cpg/sg13_15_cif.got.tgz:28139.got - 2010.06.03 16:44:36.
