data_PCOD9231492
_publ_section_title
;
Structure prediction by ZEFSAII (Michael W. Deem and Ramdas Pophale) SiO2 
 PCOD9231492
Probable space group: P 2/C
;
_chemical_formula_sum "Si O2"
_cell_formula_units_Z 26
_cell_length_a 22.423955
_cell_length_b 8.975254
_cell_length_c 11.141559
_cell_angle_alpha 90.000000
_cell_angle_beta 148.935815
_cell_angle_gamma 90.000000
_cell_volume 1157.052142
_symmetry_space_group_name_H-M "P 2/C"
_symmetry_group_IT_number 13
_symmetry_cell_setting 'monoclinic'
loop_
_space_group_symop_operation_xyz
x,y,z
-x,y,1/2-z
-x,-y,-z
x,-y,1/2+z
loop_
_atom_site_type_symbol
_atom_site_label
_atom_site_fract_x
_atom_site_fract_y
_atom_site_fract_z
Si Si1 0.650458 0.272986 0.435270
Si Si2 0.000000 0.076955 0.250000
Si Si3 0.186716 0.169929 0.139209
Si Si4 0.500000 0.463744 0.750000
Si Si5 0.559170 0.201450 0.023097
Si Si6 0.103545 0.294652 0.227385
Si Si7 0.500000 0.965721 0.750000
Si Si8 0.126694 0.369788 0.816253
O O1 0.608332 0.428394 0.416464
O O2 0.571473 0.233723 0.183546
O O3 0.612510 0.140296 0.457131
O O4 0.778358 0.291565 0.605937
O O5 0.059326 0.181583 0.252318
O O6 0.100054 0.969642 0.476158
O O7 0.314901 0.152600 0.308699
O O8 0.191709 0.220062 0.286090
O O9 0.137129 0.298921 0.965503
O O10 0.477414 0.356077 0.600136
O O11 0.480082 0.073415 0.829934
O O12 0.145863 0.452420 0.352724
O O13 0.994926 0.334411 0.954582
#
# Coordination Sequence:
#
# PCOD9231492 Si02
#       8
#     4   2   4   2   4   4   2   4
#     4  10  21  39  61  91 118 158 201 250 294 355
#     4  12  26  38  62  92 124 162 198 248 312 358
#     4  11  23  42  62  92 126 162 202 252 301 364
#     4  10  20  40  60  88 120 158 202 252 296 342
#     4  10  22  38  63  88 122 158 200 245 301 356
#     4  11  24  41  62  89 127 159 206 250 297 368
#     4  10  22  38  62  88 124 158 194 248 304 352
#     4  10  23  40  65  87 123 164 206 247 302 356
#
# _framework density 22.470897999999998
#
# number of rings (size 3 to 8) (size 9 to 14) (size 15 to 20)
#    0.000    1.538    1.538    2.308    6.462    1.231 
#    0.000    1.538    0.000    0.000    0.000    0.000 
#    0.000    0.000    0.000    0.000    0.000    0.000 
#
# Total GULP energy -145342.419657 kJ/mol
# GULP energy per Si atom -5590.093064 kJ/mol
# Density = 2.241975 g / cm^3
# Si number density = 22.470898 Si / 1000 Ang^3
#
#
#
# Elastic Constant Matrix: (Units=GPa)
#
#
# Indices 1 2 3 4 5 6 
#
# 1 94.5956 32.0854 -11.8155 0.0000 -0.6517 0.0000
# 2 32.0854 146.2507 9.3490 0.0000 -9.9663 0.0000
# 3 -11.8155 9.3490 24.2209 0.0000 3.5294 0.0000
# 4 0.0000 0.0000 0.0000 15.9085 0.0000 3.0936
# 5 -0.6517 -9.9663 3.5294 0.0000 32.3323 0.0000
# 6 0.0000 0.0000 0.0000 3.0936 0.0000 26.5780
#
#
#
# Elastic Compliance Matrix: (Units=1/GPa)
#
#
# Indices 1 2 3 4 5 6 
#
# 1 0.012674 -0.003386 0.007727 0.000000 -0.001632 0.000000
# 2 -0.003386 0.008119 -0.005223 0.000000 0.003005 0.000000
# 3 0.007727 -0.005223 0.048048 0.000000 -0.006699 0.000000
# 4 0.000000 0.000000 0.000000 0.064315 0.000000 -0.007486
# 5 -0.001632 0.003005 -0.006699 0.000000 0.032553 0.000000
# 6 0.000000 0.000000 0.000000 -0.007486 0.000000 0.038496
#
#
# Mechanical properties :
#
#
# Convention : Reuss Voigt Hill
#
# Bulk Modulus (GPa) = 14.90813 36.03389 25.47101
# Shear Modulus (GPa) = 21.89826 30.66032 26.27929
#
# Velocity S-wave (km/s) = 3.12511 3.69785 3.42348
# Velocity P-wave (km/s) = 4.43515 5.85685 5.19487
#
# Compressibility (1/GPa) = 0.06707749
#
# Stress axis : x y z
#
# Youngs Moduli (GPa) = 78.90453 123.16859 20.81233
#
# Poissons Ratio (x) = 0.41699 -0.16082
# Poissons Ratio (y) = 0.26713 0.10871
# Poissons Ratio (z) = -0.60970 0.64333
#
# Static dielectric constant tensor:
#      x y z
#    x 1.822620 0.000000 0.001510 
#    y 0.000000 1.830220 0.000000 
#    z 0.001510 0.000000 1.845450 
# 
# From -- ./inp_files/36035.got.cif
#   From: 2010.05.17/outbox.cif.g08.bks.cpg/sg13_19_cif.got.tgz:36035.got - 2010.06.03 16:44:36.
