data_PCOD9231871
_publ_section_title
;
Structure prediction by ZEFSAII (Michael W. Deem and Ramdas Pophale) SiO2 
 PCOD9231871
Probable space group: P 2/C
;
_chemical_formula_sum "Si O2"
_cell_formula_units_Z 18
_cell_length_a 9.544718
_cell_length_b 8.489459
_cell_length_c 19.443233
_cell_angle_alpha 90.000000
_cell_angle_beta 153.519530
_cell_angle_gamma 90.000000
_cell_volume 702.492992
_symmetry_space_group_name_H-M "P 2/C"
_symmetry_group_IT_number 13
_symmetry_cell_setting 'monoclinic'
loop_
_space_group_symop_operation_xyz
x,y,z
-x,y,1/2-z
-x,-y,-z
x,-y,1/2+z
loop_
_atom_site_type_symbol
_atom_site_label
_atom_site_fract_x
_atom_site_fract_y
_atom_site_fract_z
Si Si1 0.384063 0.626655 0.792154
Si Si2 0.000000 0.639643 0.750000
Si Si3 0.060871 0.124172 0.964106
Si Si4 0.256365 0.310205 0.573154
Si Si5 0.315603 0.903934 0.977313
O O1 0.604922 0.782625 0.894399
O O2 0.598822 0.481817 0.865785
O O3 0.233617 0.563875 0.798163
O O4 0.096204 0.670809 0.615735
O O5 0.798565 0.753859 0.614189
O O6 0.814721 0.255448 0.880044
O O7 0.051786 0.024180 0.890338
O O8 0.000000 0.000000 0.000000
O O9 0.420725 0.179156 0.595460
O O10 0.500000 0.000000 0.000000
#
# Coordination Sequence:
#
# PCOD9231871 Si02
#       5
#     4   2   4   4   4
#     4  11  22  44  67 102 141 181 229 280 347 407
#     4  10  22  40  70  98 144 178 226 292 342 400
#     4  10  21  41  68  96 132 176 227 279 343 399
#     4  10  24  42  71  99 140 181 224 285 345 407
#     4  10  20  42  65  95 130 175 227 278 340 400
#
# _framework density 25.623031000000001
#
# number of rings (size 3 to 8) (size 9 to 14) (size 15 to 20)
#    0.000    1.778    2.222    1.333    0.000    3.556 
#    4.000    8.889    0.000    0.000    0.000    0.000 
#    0.000    0.000    0.000    0.000    0.000    0.000 
#
# Total GULP energy -100474.763960 kJ/mol
# GULP energy per Si atom -5581.931331 kJ/mol
# Density = 2.556471 g / cm^3
# Si number density = 25.623031 Si / 1000 Ang^3
#
#
#
# Elastic Constant Matrix: (Units=GPa)
#
#
# Indices 1 2 3 4 5 6 
#
# 1 202.4936 23.4577 17.8734 0.0000 14.2358 0.0000
# 2 23.4577 108.0784 24.3060 0.0000 23.4574 0.0000
# 3 17.8734 24.3060 61.0074 0.0000 9.1573 0.0000
# 4 0.0000 0.0000 0.0000 56.5293 0.0000 13.8599
# 5 14.2358 23.4574 9.1573 0.0000 40.3267 0.0000
# 6 0.0000 0.0000 0.0000 13.8599 0.0000 66.5063
#
#
#
# Elastic Compliance Matrix: (Units=1/GPa)
#
#
# Indices 1 2 3 4 5 6 
#
# 1 0.005192 -0.000615 -0.001092 0.000000 -0.001227 0.000000
# 2 -0.000615 0.011395 -0.003517 0.000000 -0.005613 0.000000
# 3 -0.001092 -0.003517 0.018374 0.000000 -0.001741 0.000000
# 4 0.000000 0.000000 0.000000 0.018643 0.000000 -0.003885
# 5 -0.001227 -0.005613 -0.001741 0.000000 0.028891 0.000000
# 6 0.000000 0.000000 0.000000 -0.003885 0.000000 0.015846
#
#
# Mechanical properties :
#
#
# Convention : Reuss Voigt Hill
#
# Bulk Modulus (GPa) = 40.79484 55.87264 48.33374
# Shear Modulus (GPa) = 42.74956 53.06860 47.90908
#
# Velocity S-wave (km/s) = 4.08904 4.55590 4.32877
# Velocity P-wave (km/s) = 6.18461 7.03761 6.62485
#
# Compressibility (1/GPa) = 0.02451290
#
# Stress axis : x y z
#
# Youngs Moduli (GPa) = 192.59148 87.75616 54.42470
#
# Poissons Ratio (x) = 0.05397 0.05943
# Poissons Ratio (y) = 0.11845 0.19143
# Poissons Ratio (z) = 0.21030 0.30867
#
# Static dielectric constant tensor:
#      x y z
#    x 2.154860 0.000000 0.027700 
#    y 0.000000 2.012430 0.000000 
#    z 0.027700 0.000000 1.122090 
# 
# From -- ./inp_files/22929.got.cif
#   From: 2010.05.17/outbox.cif.g08.bks.cpg/sg13_12_cif.got.tgz:22929.got - 2010.06.03 16:44:36.
