data_PCOD9231471
_publ_section_title
;
Structure prediction by ZEFSAII (Michael W. Deem and Ramdas Pophale) SiO2 
 PCOD9231471
Probable space group: P 2/C
;
_chemical_formula_sum "Si O2"
_cell_formula_units_Z 32
_cell_length_a 10.245692
_cell_length_b 11.561955
_cell_length_c 12.537840
_cell_angle_alpha 90.000000
_cell_angle_beta 93.948136
_cell_angle_gamma 90.000000
_cell_volume 1481.710625
_symmetry_space_group_name_H-M "P 2/C"
_symmetry_group_IT_number 13
_symmetry_cell_setting 'monoclinic'
loop_
_space_group_symop_operation_xyz
x,y,z
-x,y,1/2-z
-x,-y,-z
x,-y,1/2+z
loop_
_atom_site_type_symbol
_atom_site_label
_atom_site_fract_x
_atom_site_fract_y
_atom_site_fract_z
Si Si1 0.089557 0.073650 0.926698
Si Si2 0.515273 0.877693 0.555853
Si Si3 0.259586 0.785017 0.608329
Si Si4 0.818792 0.652430 0.492473
Si Si5 0.199734 0.848481 0.835182
Si Si6 0.692189 0.584788 0.045800
Si Si7 0.050146 0.678762 0.361866
Si Si8 0.452222 0.307476 0.627206
O O1 0.023101 0.183691 0.867918
O O2 0.141720 0.976938 0.848000
O O3 0.191678 0.138549 0.011529
O O4 0.000000 0.000000 0.000000
O O5 0.398743 0.846167 0.627829
O O6 0.649145 0.863301 0.625259
O O7 0.510414 0.791079 0.455144
O O8 0.500000 0.000000 0.500000
O O9 0.183883 0.797682 0.715455
O O10 0.289361 0.655569 0.565251
O O11 0.844553 0.756389 0.577229
O O12 0.751352 0.542738 0.544005
O O13 0.958965 0.626368 0.448778
O O14 0.704707 0.680975 0.397995
O O15 0.547050 0.589947 0.087625
O O16 0.796197 0.655471 0.122846
O O17 0.000000 0.628429 0.250000
O O18 0.500000 0.284791 0.750000
#
# Coordination Sequence:
#
# PCOD9231471 Si02
#       8
#     4   4   4   4   4   4   4   4
#     4  11  23  41  58  89 127 159 207 259 309 372
#     4  10  20  40  58  91 129 159 207 256 312 378
#     4  10  23  40  62  91 126 166 204 259 322 376
#     4  11  23  43  65  93 129 167 217 266 314 380
#     4  11  23  38  65  92 123 168 210 255 321 386
#     4  10  23  45  63  93 134 162 214 276 309 374
#     4  11  24  41  66  92 126 169 210 260 323 379
#     4  10  22  39  66  96 125 167 212 259 324 377
#
# _framework density 21.59666
#
# number of rings (size 3 to 8) (size 9 to 14) (size 15 to 20)
#    0.000    1.500    2.500    1.875    1.750    3.000 
#    0.000    0.000    0.000    0.000    0.000    0.000 
#    0.000    0.000    0.000    0.000    0.000    0.000 
#
# Total GULP energy -178457.426780 kJ/mol
# GULP energy per Si atom -5576.794587 kJ/mol
# Density = 2.154751 g / cm^3
# Si number density = 21.596660 Si / 1000 Ang^3
#
#
#
# Elastic Constant Matrix: (Units=GPa)
#
#
# Indices 1 2 3 4 5 6 
#
# 1 41.3971 -14.1292 -2.3903 0.0000 -7.3851 0.0000
# 2 -14.1292 60.8117 -4.2939 0.0000 3.0902 0.0000
# 3 -2.3903 -4.2939 85.4301 0.0000 1.9734 0.0000
# 4 0.0000 0.0000 0.0000 8.9340 0.0000 2.0463
# 5 -7.3851 3.0902 1.9734 0.0000 20.2924 0.0000
# 6 0.0000 0.0000 0.0000 2.0463 0.0000 29.6990
#
#
#
# Elastic Compliance Matrix: (Units=1/GPa)
#
#
# Indices 1 2 3 4 5 6 
#
# 1 0.027915 0.006083 0.000875 0.000000 0.009148 0.000000
# 2 0.006083 0.017966 0.001088 0.000000 -0.000628 0.000000
# 3 0.000875 0.001088 0.011808 0.000000 -0.000995 0.000000
# 4 0.000000 0.000000 0.000000 0.113727 0.000000 -0.007836
# 5 0.009148 -0.000628 -0.000995 0.000000 0.052801 0.000000
# 6 0.000000 0.000000 0.000000 -0.007836 0.000000 0.034211
#
#
# Mechanical properties :
#
#
# Convention : Reuss Voigt Hill
#
# Bulk Modulus (GPa) = 13.55367 16.22356 14.88861
# Shear Modulus (GPa) = 18.73155 25.68188 22.20672
#
# Velocity S-wave (km/s) = 2.94825 3.45216 3.21011
# Velocity P-wave (km/s) = 4.22836 4.83924 4.54408
#
# Compressibility (1/GPa) = 0.07378076
#
# Stress axis : x y z
#
# Youngs Moduli (GPa) = 35.82320 55.65997 84.69095
#
# Poissons Ratio (x) = -0.33857 -0.07414
# Poissons Ratio (y) = -0.21791 -0.09212
# Poissons Ratio (z) = -0.03136 -0.06054
#
# Static dielectric constant tensor:
#      x y z
#    x 1.831440 0.000000 0.035180 
#    y 0.000000 1.792310 0.000000 
#    z 0.035180 0.000000 1.819970 
# 
# From -- ./inp_files/33855.got.cif
#   From: 2010.05.17/outbox.cif.g08.bks.cpg/sg13_17_cif.got.tgz:33855.got - 2010.06.03 16:44:36.
