data_PCOD9231064
_publ_section_title
;
Structure prediction by ZEFSAII (Michael W. Deem and Ramdas Pophale) SiO2 
 PCOD9231064
Probable space group: P 2/C
;
_chemical_formula_sum "Si O2"
_cell_formula_units_Z 24
_cell_length_a 5.535837
_cell_length_b 12.491378
_cell_length_c 17.602510
_cell_angle_alpha 90.000000
_cell_angle_beta 105.069690
_cell_angle_gamma 90.000000
_cell_volume 1175.357915
_symmetry_space_group_name_H-M "P 2/C"
_symmetry_group_IT_number 13
_symmetry_cell_setting 'monoclinic'
loop_
_space_group_symop_operation_xyz
x,y,z
-x,y,1/2-z
-x,-y,-z
x,-y,1/2+z
loop_
_atom_site_type_symbol
_atom_site_label
_atom_site_fract_x
_atom_site_fract_y
_atom_site_fract_z
Si Si1 0.291185 0.503076 0.051012
Si Si2 0.245850 0.105863 0.321259
Si Si3 0.293574 0.137374 0.794501
Si Si4 0.428818 0.733926 0.067680
Si Si5 0.592650 0.272972 0.406026
Si Si6 0.945850 0.117085 0.024959
O O1 0.344479 0.618928 0.092023
O O2 0.334313 0.395827 0.103909
O O3 0.500000 0.500000 0.000000
O O4 0.000000 0.500000 0.000000
O O5 0.419134 0.210857 0.332079
O O6 0.188099 0.099468 0.405784
O O7 0.000000 0.119674 0.250000
O O8 0.354878 0.988699 0.312059
O O9 0.500000 0.175435 0.750000
O O10 0.340099 0.211829 0.871420
O O11 0.000000 0.142433 0.750000
O O12 0.472623 0.721675 0.980807
O O13 0.211732 0.821894 0.051987
O O14 0.826211 0.194703 0.436501
O O15 0.000000 0.000000 0.000000
#
# Coordination Sequence:
#
# PCOD9231064 Si02
#       6
#     4   4   4   4   4   4
#     4  10  20  38  63  93 121 159 203 259 316 359
#     4  10  24  39  57  90 129 170 203 254 319 378
#     4  11  26  41  62  88 128 170 206 249 319 375
#     4  10  22  39  61  91 123 159 208 265 302 369
#     4  10  21  37  63  92 120 162 209 257 311 368
#     4  11  21  34  64  92 122 156 214 256 310 366
#
# _framework density 20.419314
#
# number of rings (size 3 to 8) (size 9 to 14) (size 15 to 20)
#    0.000    1.667    1.667    2.000   11.667    2.667 
#    0.000    0.833    3.667    0.000    0.000    0.000 
#    0.000    0.000    0.000    0.000    0.000    0.000 
#
# Total GULP energy -133784.446345 kJ/mol
# GULP energy per Si atom -5574.351931 kJ/mol
# Density = 2.037284 g / cm^3
# Si number density = 20.419314 Si / 1000 Ang^3
#
#
#
# Elastic Constant Matrix: (Units=GPa)
#
#
# Indices 1 2 3 4 5 6 
#
# 1 66.5256 30.5176 11.1841 0.0000 9.6318 0.0000
# 2 30.5176 196.8591 57.1508 0.0000 27.1676 0.0000
# 3 11.1841 57.1508 72.5029 0.0000 19.2803 0.0000
# 4 0.0000 0.0000 0.0000 27.4260 0.0000 -8.3423
# 5 9.6318 27.1676 19.2803 0.0000 25.8724 0.0000
# 6 0.0000 0.0000 0.0000 -8.3423 0.0000 5.1210
#
#
#
# Elastic Compliance Matrix: (Units=1/GPa)
#
#
# Indices 1 2 3 4 5 6 
#
# 1 0.016539 -0.002039 0.000154 0.000000 -0.004132 0.000000
# 2 -0.002039 0.007152 -0.004400 0.000000 -0.003473 0.000000
# 3 0.000154 -0.004400 0.019984 0.000000 -0.010329 0.000000
# 4 0.000000 0.000000 0.000000 0.072274 0.000000 0.117737
# 5 -0.004132 -0.003473 -0.010329 0.000000 0.051533 0.000000
# 6 0.000000 0.000000 0.000000 0.117737 0.000000 0.387073
#
#
# Mechanical properties :
#
#
# Convention : Reuss Voigt Hill
#
# Bulk Modulus (GPa) = 32.14713 59.28807 45.71760
# Shear Modulus (GPa) = 8.65810 27.48622 18.07216
#
# Velocity S-wave (km/s) = 2.06140 3.67289 2.97821
# Velocity P-wave (km/s) = 4.63071 6.86186 5.85357
#
# Compressibility (1/GPa) = 0.03110698
#
# Stress axis : x y z
#
# Youngs Moduli (GPa) = 60.46233 139.81283 50.04035
#
# Poissons Ratio (x) = 0.28502 -0.00772
# Poissons Ratio (y) = 0.12326 0.22018
# Poissons Ratio (z) = -0.00933 0.61518
#
# Static dielectric constant tensor:
#      x y z
#    x 1.835620 0.000000 -0.018930 
#    y 0.000000 1.766320 0.000000 
#    z -0.018930 0.000000 1.727620 
# 
# From -- ./inp_files/69902.got.cif
#   From: 2010.05.17/outbox.cif.g08.bks.cpg/sg13_35_cif.got.tgz:69902.got - 2010.06.03 16:44:36.
