data_PCOD9231949
_publ_section_title
;
Structure prediction by ZEFSAII (Michael W. Deem and Ramdas Pophale) SiO2 
 PCOD9231949
Probable space group: P 2/C
;
_chemical_formula_sum "Si O2"
_cell_formula_units_Z 26
_cell_length_a 8.849969
_cell_length_b 8.908388
_cell_length_c 22.682917
_cell_angle_alpha 90.000000
_cell_angle_beta 139.294539
_cell_angle_gamma 90.000000
_cell_volume 1166.275183
_symmetry_space_group_name_H-M "P 2/C"
_symmetry_group_IT_number 13
_symmetry_cell_setting 'monoclinic'
loop_
_space_group_symop_operation_xyz
x,y,z
-x,y,1/2-z
-x,-y,-z
x,-y,1/2+z
loop_
_atom_site_type_symbol
_atom_site_label
_atom_site_fract_x
_atom_site_fract_y
_atom_site_fract_z
Si Si1 0.676553 0.238777 0.548716
Si Si2 0.259949 0.435924 0.814800
Si Si3 0.260888 0.516294 0.101488
Si Si4 0.826813 0.254884 0.832289
Si Si5 0.500000 0.705483 0.750000
Si Si6 0.746973 0.940229 0.749357
Si Si7 0.265433 0.909463 0.886595
O O1 0.693559 0.330123 0.614517
O O2 0.422598 0.234883 0.446022
O O3 0.897838 0.278860 0.575460
O O4 0.708711 0.059551 0.567041
O O5 0.514646 0.507409 0.874864
O O6 0.215848 0.342468 0.741572
O O7 0.000000 0.508201 0.750000
O O8 0.288452 0.676548 0.143610
O O9 0.297006 0.398521 0.165399
O O10 0.000000 0.500000 0.000000
O O11 0.763011 0.083896 0.796902
O O12 0.576571 0.815355 0.721507
O O13 0.687021 0.975438 0.664314
O O14 0.000545 0.868043 0.818629
#
# Coordination Sequence:
#
# PCOD9231949 Si02
#       7
#     4   4   4   4   2   4   4
#     4   9  18  33  66 102 127 164 227 272 325 406
#     4  10  20  42  72  95 123 179 233 269 331 409
#     4  12  28  48  67  95 143 183 227 285 335 404
#     4  10  20  43  70  95 127 182 218 270 342 413
#     4  12  28  44  60 100 138 174 230 282 342 396
#     4  10  22  39  66  95 132 174 219 274 346 396
#     4   9  18  37  59  98 140 162 208 288 336 387
#
# _framework density 22.293195999999998
#
# number of rings (size 3 to 8) (size 9 to 14) (size 15 to 20)
#    0.000    1.846    3.077    0.000    6.462    0.000 
#    2.769    3.846    0.000    0.000    0.000    0.000 
#    0.000    0.000    0.000    0.000    0.000    0.000 
#
# Total GULP energy -144796.854532 kJ/mol
# GULP energy per Si atom -5569.109790 kJ/mol
# Density = 2.224246 g / cm^3
# Si number density = 22.293196 Si / 1000 Ang^3
#
#
#
# Elastic Constant Matrix: (Units=GPa)
#
#
# Indices 1 2 3 4 5 6 
#
# 1 94.0932 19.2036 20.2124 0.0000 22.3576 0.0000
# 2 19.2036 48.2213 22.6110 0.0000 5.5012 0.0000
# 3 20.2124 22.6110 87.5712 0.0000 13.6862 0.0000
# 4 0.0000 0.0000 0.0000 24.0074 0.0000 -1.5451
# 5 22.3576 5.5012 13.6862 0.0000 20.9922 0.0000
# 6 0.0000 0.0000 0.0000 -1.5451 0.0000 32.9800
#
#
#
# Elastic Compliance Matrix: (Units=1/GPa)
#
#
# Indices 1 2 3 4 5 6 
#
# 1 0.015043 -0.004273 -0.000044 0.000000 -0.014873 0.000000
# 2 -0.004273 0.024923 -0.005722 0.000000 0.001751 0.000000
# 3 -0.000044 -0.005722 0.014102 0.000000 -0.007647 0.000000
# 4 0.000000 0.000000 0.000000 0.041780 0.000000 0.001957
# 5 -0.014873 0.001751 -0.007647 0.000000 0.068005 0.000000
# 6 0.000000 0.000000 0.000000 0.001957 0.000000 0.030413
#
#
# Mechanical properties :
#
#
# Convention : Reuss Voigt Hill
#
# Bulk Modulus (GPa) = 29.42169 39.32663 34.37416
# Shear Modulus (GPa) = 22.15566 26.78650 24.47108
#
# Velocity S-wave (km/s) = 3.15593 3.47011 3.31674
# Velocity P-wave (km/s) = 5.14841 5.80814 5.48819
#
# Compressibility (1/GPa) = 0.03398853
#
# Stress axis : x y z
#
# Youngs Moduli (GPa) = 66.47396 40.12344 70.91069
#
# Poissons Ratio (x) = 0.17146 0.00314
# Poissons Ratio (y) = 0.28406 0.40579
# Poissons Ratio (z) = 0.00295 0.22961
#
# Static dielectric constant tensor:
#      x y z
#    x 1.864680 0.000000 0.070820 
#    y 0.000000 1.798600 0.000000 
#    z 0.070820 0.000000 2.038840 
# 
# From -- ./inp_files/91334.got.cif
#   From: 2010.05.17/outbox.cif.g08.bks.cpg/sg13_46_cif.got.tgz:91334.got - 2010.06.03 16:44:36.
