data_PCOD9231153
_publ_section_title
;
Structure prediction by ZEFSAII (Michael W. Deem and Ramdas Pophale) SiO2 
 PCOD9231153
Probable space group: P 2/C
;
_chemical_formula_sum "Si O2"
_cell_formula_units_Z 26
_cell_length_a 11.448822
_cell_length_b 19.949121
_cell_length_c 5.838519
_cell_angle_alpha 90.000000
_cell_angle_beta 66.765937
_cell_angle_gamma 90.000000
_cell_volume 1225.338213
_symmetry_space_group_name_H-M "P 2/C"
_symmetry_group_IT_number 13
_symmetry_cell_setting 'monoclinic'
loop_
_space_group_symop_operation_xyz
x,y,z
-x,y,1/2-z
-x,-y,-z
x,-y,1/2+z
loop_
_atom_site_type_symbol
_atom_site_label
_atom_site_fract_x
_atom_site_fract_y
_atom_site_fract_z
Si Si1 0.000000 0.223747 0.250000
Si Si2 0.228371 0.157879 0.182808
Si Si3 0.226417 0.010486 0.283272
Si Si4 0.128326 0.679911 0.305272
Si Si5 0.852776 0.475358 0.612349
Si Si6 0.634011 0.750072 0.620365
Si Si7 0.379377 0.118457 0.674177
O O1 0.084636 0.177181 0.346914
O O2 0.905833 0.270809 0.461634
O O3 0.265815 0.088304 0.271952
O O4 0.313587 0.220714 0.183059
O O5 0.250352 0.141786 0.902300
O O6 0.161535 0.994603 0.579752
O O7 0.345105 0.959389 0.156238
O O8 0.150690 0.604877 0.375220
O O9 0.000000 0.678807 0.250000
O O10 0.252215 0.708229 0.080102
O O11 0.800327 0.499376 0.402851
O O12 0.000000 0.500000 0.500000
O O13 0.500000 0.713161 0.750000
O O14 0.604098 0.819786 0.509813
O O15 0.500000 0.119087 0.750000
#
# Coordination Sequence:
#
# PCOD9231153 Si02
#       7
#     2   4   4   4   4   4   4
#     4  12  24  40  64  96 134 180 226 278 344 426
#     4  11  23  39  60  90 129 168 224 289 350 405
#     4  10  22  38  61  88 120 163 230 290 350 405
#     4  12  24  39  69 101 135 177 221 274 331 401
#     4  10  20  38  66 104 136 170 223 277 317 375
#     4  12  24  41  63  97 135 173 225 279 348 408
#     4  11  22  39  61  87 123 171 228 287 343 407
#
# _framework density 21.218631999999999
#
# number of rings (size 3 to 8) (size 9 to 14) (size 15 to 20)
#    0.000    0.923    7.692    0.923    0.000    3.077 
#    0.000    3.077    1.692    0.923    0.000    0.000 
#    0.000    0.000    0.000    0.000    0.000    0.000 
#
# Total GULP energy -144761.992133 kJ/mol
# GULP energy per Si atom -5567.768928 kJ/mol
# Density = 2.117034 g / cm^3
# Si number density = 21.218632 Si / 1000 Ang^3
#
#
#
# Elastic Constant Matrix: (Units=GPa)
#
#
# Indices 1 2 3 4 5 6 
#
# 1 69.3083 27.4407 33.3186 0.0000 -9.8321 0.0000
# 2 27.4407 111.6027 35.0124 0.0000 -15.8426 0.0000
# 3 33.3186 35.0124 102.3312 0.0000 1.6947 0.0000
# 4 0.0000 0.0000 0.0000 4.3927 0.0000 18.1059
# 5 -9.8321 -15.8426 1.6947 0.0000 38.5761 0.0000
# 6 0.0000 0.0000 0.0000 18.1059 0.0000 6.0169
#
#
#
# Elastic Compliance Matrix: (Units=1/GPa)
#
#
# Indices 1 2 3 4 5 6 
#
# 1 0.018448 -0.002314 -0.005281 0.000000 0.003984 0.000000
# 2 -0.002314 0.011086 -0.003108 0.000000 0.004100 0.000000
# 3 -0.005281 -0.003108 0.012608 0.000000 -0.003176 0.000000
# 4 0.000000 0.000000 0.000000 -0.019963 0.000000 0.060074
# 5 0.003984 0.004100 -0.003176 0.000000 0.028761 0.000000
# 6 0.000000 0.000000 0.000000 0.060074 0.000000 -0.014575
#
#
# Mechanical properties :
#
#
# Convention : Reuss Voigt Hill
#
# Bulk Modulus (GPa) = 48.22265 52.75397 50.48831
# Shear Modulus (GPa) = 77.30085 22.29517 49.79801
#
# Velocity S-wave (km/s) = 6.04233 3.24502 4.84974
# Velocity P-wave (km/s) = 8.45314 6.24150 7.43007
#
# Compressibility (1/GPa) = 0.02073714
#
# Stress axis : x y z
#
# Youngs Moduli (GPa) = 54.20581 90.20232 79.31756
#
# Poissons Ratio (x) = 0.20870 0.41888
# Poissons Ratio (y) = 0.12542 0.24649
# Poissons Ratio (z) = 0.28626 0.28032
#
# Static dielectric constant tensor:
#      x y z
#    x 1.787550 0.000000 0.053530 
#    y 0.000000 1.748290 0.000000 
#    z 0.053530 0.000000 1.885300 
# 
# From -- ./inp_files/4041.got.cif
#   From: 2010.05.17/outbox.cif.g08.bks.cpg/sg13_3_cif.got.tgz:4041.got - 2010.06.03 16:44:36.
