data_PCOD9231688
_publ_section_title
;
Structure prediction by ZEFSAII (Michael W. Deem and Ramdas Pophale) SiO2 
 PCOD9231688
Probable space group: P 2/C
;
_chemical_formula_sum "Si O2"
_cell_formula_units_Z 22
_cell_length_a 19.579262
_cell_length_b 5.357110
_cell_length_c 13.891869
_cell_angle_alpha 90.000000
_cell_angle_beta 130.935000
_cell_angle_gamma 90.000000
_cell_volume 1100.766551
_symmetry_space_group_name_H-M "P 2/C"
_symmetry_group_IT_number 13
_symmetry_cell_setting 'monoclinic'
loop_
_space_group_symop_operation_xyz
x,y,z
-x,y,1/2-z
-x,-y,-z
x,-y,1/2+z
loop_
_atom_site_type_symbol
_atom_site_label
_atom_site_fract_x
_atom_site_fract_y
_atom_site_fract_z
Si Si1 0.500000 0.921184 0.250000
Si Si2 0.060660 0.249302 0.048820
Si Si3 0.468654 0.194569 0.391358
Si Si4 0.822488 0.328457 0.154553
Si Si5 0.614007 0.410373 0.005350
Si Si6 0.104769 0.835767 0.373905
O O1 0.558659 0.763246 0.379510
O O2 0.434815 0.077198 0.261228
O O3 0.129960 0.260440 0.200846
O O4 0.108833 0.228753 0.990306
O O5 0.000000 0.500000 0.000000
O O6 0.000000 0.000000 0.000000
O O7 0.401246 0.357347 0.393949
O O8 0.560570 0.332096 0.444967
O O9 0.500000 0.000000 0.500000
O O10 0.717518 0.385972 0.074598
O O11 0.865696 0.584591 0.154304
O O12 0.840461 0.085677 0.104162
O O13 0.000000 0.887728 0.250000
#
# Coordination Sequence:
#
# PCOD9231688 Si02
#       6
#     2   4   4   4   4   4
#     4  10  20  40  70  88 132 174 214 272 348 402
#     4  12  23  43  70  95 134 185 222 273 349 396
#     4   9  20  41  66  86 133 173 208 274 346 399
#     4  12  26  43  69 103 138 171 239 284 315 424
#     4  10  23  41  64 100 127 174 224 278 333 398
#     4  12  24  44  70  96 139 184 221 279 352 392
#
# _framework density 19.986073999999999
#
# number of rings (size 3 to 8) (size 9 to 14) (size 15 to 20)
#    0.000    1.091    3.636    2.182    5.091    1.455 
#    9.818    0.000    0.000    0.000    0.000    0.000 
#    0.000    0.000    0.000    0.000    0.000    0.000 
#
# Total GULP energy -122708.076808 kJ/mol
# GULP energy per Si atom -5577.639855 kJ/mol
# Density = 1.994058 g / cm^3
# Si number density = 19.986074 Si / 1000 Ang^3
#
#
#
# Elastic Constant Matrix: (Units=GPa)
#
#
# Indices 1 2 3 4 5 6 
#
# 1 132.6634 61.3085 67.4376 0.0000 -1.3421 0.0000
# 2 61.3085 124.1805 23.6587 0.0000 2.6553 0.0000
# 3 67.4376 23.6587 69.1806 0.0000 -12.2386 0.0000
# 4 0.0000 0.0000 0.0000 -37.1580 0.0000 -53.1794
# 5 -1.3421 2.6553 -12.2386 0.0000 43.1058 0.0000
# 6 0.0000 0.0000 0.0000 -53.1794 0.0000 12.3685
#
#
#
# Elastic Compliance Matrix: (Units=1/GPa)
#
#
# Indices 1 2 3 4 5 6 
#
# 1 0.019007 -0.006032 -0.017157 0.000000 -0.003908 0.000000
# 2 -0.006032 0.010614 0.002212 0.000000 -0.000214 0.000000
# 3 -0.017157 0.002212 0.031907 0.000000 0.008389 0.000000
# 4 0.000000 0.000000 0.000000 -0.003762 0.000000 -0.016176
# 5 -0.003908 -0.000214 0.008389 0.000000 0.025472 0.000000
# 6 0.000000 0.000000 0.000000 -0.016176 0.000000 0.011302
#
#
# Mechanical properties :
#
#
# Convention : Reuss Voigt Hill
#
# Bulk Modulus (GPa) = 51.08501 70.09268 60.58884
# Shear Modulus (GPa) = 34.96047 15.23789 25.09918
#
# Velocity S-wave (km/s) = 4.18693 2.76420 3.54762
# Velocity P-wave (km/s) = 6.99926 6.73310 6.86747
#
# Compressibility (1/GPa) = 0.01957521
#
# Stress axis : x y z
#
# Youngs Moduli (GPa) = 52.61114 94.21709 31.34092
#
# Poissons Ratio (x) = 0.56829 0.53772
# Poissons Ratio (y) = 0.31734 -0.06933
# Poissons Ratio (z) = 0.90265 -0.20843
#
# Static dielectric constant tensor:
#      x y z
#    x 1.747410 0.000000 -0.025800 
#    y 0.000000 1.767520 0.000000 
#    z -0.025800 0.000000 1.679430 
# 
# From -- ./inp_files/54345.got.cif
#   From: 2010.05.17/outbox.cif.g08.bks.cpg/sg13_28_cif.got.tgz:54345.got - 2010.06.03 16:44:36.
