data_PCOD9231452
_publ_section_title
;
Structure prediction by ZEFSAII (Michael W. Deem and Ramdas Pophale) SiO2 
 PCOD9231452
Probable space group: P 2/C
;
_chemical_formula_sum "Si O2"
_cell_formula_units_Z 22
_cell_length_a 24.671813
_cell_length_b 7.983395
_cell_length_c 15.897398
_cell_angle_alpha 90.000000
_cell_angle_beta 160.489547
_cell_angle_gamma 90.000000
_cell_volume 1045.763950
_symmetry_space_group_name_H-M "P 2/C"
_symmetry_group_IT_number 13
_symmetry_cell_setting 'monoclinic'
loop_
_space_group_symop_operation_xyz
x,y,z
-x,y,1/2-z
-x,-y,-z
x,-y,1/2+z
loop_
_atom_site_type_symbol
_atom_site_label
_atom_site_fract_x
_atom_site_fract_y
_atom_site_fract_z
Si Si1 0.807212 0.517665 0.727672
Si Si2 0.716134 0.508186 0.908491
Si Si3 0.000000 0.720832 0.750000
Si Si4 0.347603 0.878579 0.964025
Si Si5 0.542037 0.738126 0.543951
Si Si6 0.744475 0.799636 0.246355
O O1 0.725905 0.460599 0.521276
O O2 0.756198 0.710882 0.668836
O O3 0.755906 0.387097 0.724408
O O4 0.000000 0.500000 0.000000
O O5 0.696683 0.668362 0.820516
O O6 0.554634 0.403926 0.650105
O O7 0.868953 0.396196 0.105067
O O8 0.899415 0.823477 0.533828
O O9 0.405873 0.860927 0.953001
O O10 0.261055 0.059422 0.834056
O O11 0.500000 0.880864 0.250000
O O12 0.413895 0.797494 0.425942
#
# Coordination Sequence:
#
# PCOD9231452 Si02
#       6
#     4   4   2   4   4   4
#     4  12  25  45  68  99 139 176 219 277 335 394
#     4  10  20  39  70  96 132 175 222 267 332 392
#     4  10  20  44  62  94 142 176 218 282 316 398
#     4  12  26  45  69 100 136 173 224 281 328 389
#     4  10  22  42  68  97 128 177 223 272 329 389
#     4  11  26  44  71  98 134 178 224 271 337 395
#
# _framework density 21.037251999999999
#
# number of rings (size 3 to 8) (size 9 to 14) (size 15 to 20)
#    0.000    1.091    3.636    3.818    2.545    0.727 
#    3.273    0.000    0.000    0.000    0.000    0.000 
#    0.000    0.000    0.000    0.000    0.000    0.000 
#
# Total GULP energy -122878.603210 kJ/mol
# GULP energy per Si atom -5585.391055 kJ/mol
# Density = 2.098937 g / cm^3
# Si number density = 21.037252 Si / 1000 Ang^3
#
#
#
# Elastic Constant Matrix: (Units=GPa)
#
#
# Indices 1 2 3 4 5 6 
#
# 1 65.5461 21.0495 12.6806 0.0000 -5.9155 0.0000
# 2 21.0495 101.7392 53.9077 0.0000 -9.4896 0.0000
# 3 12.6806 53.9077 88.1330 0.0000 -6.8843 0.0000
# 4 0.0000 0.0000 0.0000 -8.8429 0.0000 14.1660
# 5 -5.9155 -9.4896 -6.8843 0.0000 35.9972 0.0000
# 6 0.0000 0.0000 0.0000 14.1660 0.0000 -5.5800
#
#
#
# Elastic Compliance Matrix: (Units=1/GPa)
#
#
# Indices 1 2 3 4 5 6 
#
# 1 0.016470 -0.003043 -0.000365 0.000000 0.001835 0.000000
# 2 -0.003043 0.015272 -0.008759 0.000000 0.001851 0.000000
# 3 -0.000365 -0.008759 0.016823 0.000000 0.000848 0.000000
# 4 0.000000 0.000000 0.000000 0.036872 0.000000 0.093608
# 5 0.001835 0.001851 0.000848 0.000000 0.028732 0.000000
# 6 0.000000 0.000000 0.000000 0.093608 0.000000 0.058433
#
#
# Mechanical properties :
#
#
# Convention : Reuss Voigt Hill
#
# Bulk Modulus (GPa) = 41.26997 47.85487 44.56242
# Shear Modulus (GPa) = 24.38869 15.50024 19.94446
#
# Velocity S-wave (km/s) = 3.40856 2.71735 3.08239
# Velocity P-wave (km/s) = 5.92884 5.71335 5.82209
#
# Compressibility (1/GPa) = 0.02423069
#
# Stress axis : x y z
#
# Youngs Moduli (GPa) = 60.71698 65.47746 59.44270
#
# Poissons Ratio (x) = 0.19925 0.02170
# Poissons Ratio (y) = 0.18476 0.52067
# Poissons Ratio (z) = 0.02217 0.57353
#
# Static dielectric constant tensor:
#      x y z
#    x 1.777070 0.000000 0.021720 
#    y 0.000000 1.833690 0.000000 
#    z 0.021720 0.000000 1.765950 
# 
# From -- ./inp_files/58760.got.cif
#   From: 2010.05.17/outbox.cif.g08.bks.cpg/sg13_30_cif.got.tgz:58760.got - 2010.06.03 16:44:36.
