data_PCOD9231070
_publ_section_title
;
Structure prediction by ZEFSAII (Michael W. Deem and Ramdas Pophale) SiO2 
 PCOD9231070
Probable space group: P 2/C
;
_chemical_formula_sum "Si O2"
_cell_formula_units_Z 28
_cell_length_a 8.416810
_cell_length_b 15.731759
_cell_length_c 19.146651
_cell_angle_alpha 90.000000
_cell_angle_beta 148.574545
_cell_angle_gamma 90.000000
_cell_volume 1321.841307
_symmetry_space_group_name_H-M "P 2/C"
_symmetry_group_IT_number 13
_symmetry_cell_setting 'monoclinic'
loop_
_space_group_symop_operation_xyz
x,y,z
-x,y,1/2-z
-x,-y,-z
x,-y,1/2+z
loop_
_atom_site_type_symbol
_atom_site_label
_atom_site_fract_x
_atom_site_fract_y
_atom_site_fract_z
Si Si1 0.348424 0.402579 0.116746
Si Si2 0.759463 0.134831 0.905607
Si Si3 0.632875 0.540914 0.121531
Si Si4 0.799612 0.325150 0.978175
Si Si5 0.718264 0.079440 0.194558
Si Si6 0.214694 0.267872 0.262116
Si Si7 0.129667 0.989377 0.452234
O O1 0.500000 0.405016 0.250000
O O2 0.492047 0.479752 0.127970
O O3 0.477012 0.322204 0.121362
O O4 0.989583 0.388220 0.997565
O O5 0.500000 0.126346 0.750000
O O6 0.037898 0.081749 0.975298
O O7 0.768005 0.234086 0.928308
O O8 0.741069 0.078307 0.968769
O O9 0.000000 0.541548 0.250000
O O10 0.500000 0.500000 0.000000
O O11 0.496156 0.631277 0.097193
O O12 0.017097 0.305044 0.125172
O O13 0.689131 0.171657 0.217615
O O14 0.000000 0.087106 0.250000
O O15 0.434129 0.055261 0.039680
O O16 0.836960 0.012021 0.296350
O O17 0.000000 0.274209 0.250000
#
# Coordination Sequence:
#
# PCOD9231070 Si02
#       7
#     4   4   4   4   4   4   4
#     4  10  21  40  67  98 129 172 222 277 328 405
#     4  11  23  39  62  88 130 170 216 280 331 393
#     4  12  26  46  71  99 136 179 217 275 348 415
#     4  11  23  40  65  98 130 170 226 277 332 399
#     4  11  22  38  64  92 128 174 222 271 328 401
#     4  10  20  38  63  95 131 171 222 276 330 401
#     4  11  22  41  61  92 127 174 224 270 339 388
#
# _framework density 21.182573000000001
#
# number of rings (size 3 to 8) (size 9 to 14) (size 15 to 20)
#    0.000    1.143    2.857    4.714    0.000    1.714 
#    0.000    3.571    0.000    0.000    0.000    0.000 
#    0.000    0.000    0.000    0.000    0.000    0.000 
#
# Total GULP energy -155869.492064 kJ/mol
# GULP energy per Si atom -5566.767574 kJ/mol
# Density = 2.113436 g / cm^3
# Si number density = 21.182573 Si / 1000 Ang^3
#
#
#
# Elastic Constant Matrix: (Units=GPa)
#
#
# Indices 1 2 3 4 5 6 
#
# 1 83.0972 51.5869 28.7297 0.0000 9.8615 0.0000
# 2 51.5869 124.9237 32.7098 0.0000 18.0477 0.0000
# 3 28.7297 32.7098 63.2878 0.0000 12.4697 0.0000
# 4 0.0000 0.0000 0.0000 25.2742 0.0000 2.1229
# 5 9.8615 18.0477 12.4697 0.0000 30.2487 0.0000
# 6 0.0000 0.0000 0.0000 2.1229 0.0000 38.5326
#
#
#
# Elastic Compliance Matrix: (Units=1/GPa)
#
#
# Indices 1 2 3 4 5 6 
#
# 1 0.017374 -0.005891 -0.004809 0.000000 -0.000167 0.000000
# 2 -0.005891 0.011690 -0.002581 0.000000 -0.003990 0.000000
# 3 -0.004809 -0.002581 0.020359 0.000000 -0.005285 0.000000
# 4 0.000000 0.000000 0.000000 0.039750 0.000000 -0.002190
# 5 -0.000167 -0.003990 -0.005285 0.000000 0.037673 0.000000
# 6 0.000000 0.000000 0.000000 -0.002190 0.000000 0.026073
#
#
# Mechanical properties :
#
#
# Convention : Reuss Voigt Hill
#
# Bulk Modulus (GPa) = 43.74529 55.26238 49.50384
# Shear Modulus (GPa) = 26.72334 29.36327 28.04330
#
# Velocity S-wave (km/s) = 3.55571 3.72721 3.64247
# Velocity P-wave (km/s) = 6.12812 6.68341 6.41178
#
# Compressibility (1/GPa) = 0.02285960
#
# Stress axis : x y z
#
# Youngs Moduli (GPa) = 57.55765 85.54342 49.11715
#
# Poissons Ratio (x) = 0.50395 0.23622
# Poissons Ratio (y) = 0.33908 0.12679
# Poissons Ratio (z) = 0.27681 0.22082
#
# Static dielectric constant tensor:
#      x y z
#    x 1.830980 0.000000 0.006320 
#    y 0.000000 1.833490 0.000000 
#    z 0.006320 0.000000 1.790020 
# 
# From -- ./inp_files/76773.got.cif
#   From: 2010.05.17/outbox.cif.g08.bks.cpg/sg13_39_cif.got.tgz:76773.got - 2010.06.03 16:44:36.
