data_PCOD9231386
_publ_section_title
;
Structure prediction by ZEFSAII (Michael W. Deem and Ramdas Pophale) SiO2 
 PCOD9231386
Probable space group: P 2/C
;
_chemical_formula_sum "Si O2"
_cell_formula_units_Z 22
_cell_length_a 4.886315
_cell_length_b 12.395739
_cell_length_c 15.480849
_cell_angle_alpha 90.000000
_cell_angle_beta 94.123481
_cell_angle_gamma 90.000000
_cell_volume 935.239811
_symmetry_space_group_name_H-M "P 2/C"
_symmetry_group_IT_number 13
_symmetry_cell_setting 'monoclinic'
loop_
_space_group_symop_operation_xyz
x,y,z
-x,y,1/2-z
-x,-y,-z
x,-y,1/2+z
loop_
_atom_site_type_symbol
_atom_site_label
_atom_site_fract_x
_atom_site_fract_y
_atom_site_fract_z
Si Si1 0.726973 0.144701 0.187741
Si Si2 0.267123 0.081070 0.815937
Si Si3 0.853146 0.304933 0.658448
Si Si4 0.129627 0.381448 0.500305
Si Si5 0.500000 0.517762 0.250000
Si Si6 0.617693 0.655836 0.892826
O O1 0.500000 0.105211 0.250000
O O2 0.570559 0.246776 0.144777
O O3 0.000000 0.172741 0.250000
O O4 0.743887 0.033726 0.132961
O O5 0.500000 0.103791 0.750000
O O6 0.274541 0.190522 0.873076
O O7 0.000000 0.065114 0.750000
O O8 0.080727 0.337772 0.594500
O O9 0.668932 0.405394 0.687764
O O10 0.000000 0.275224 0.750000
O O11 0.919605 0.315967 0.433287
O O12 0.000000 0.500000 0.500000
O O13 0.433961 0.383491 0.469921
O O14 0.348791 0.434702 0.181059
#
# Coordination Sequence:
#
# PCOD9231386 Si02
#       6
#     4   4   4   4   2   4
#     4  10  20  39  65  92 126 164 215 261 310 375
#     4   9  19  36  62  92 119 160 213 264 307 367
#     4  11  24  41  66  92 123 170 217 259 313 388
#     4  12  26  43  61  93 138 165 206 266 324 364
#     4  12  24  38  68  90 126 162 222 246 310 388
#     4  12  26  41  64  97 129 168 210 262 318 377
#
# _framework density 23.52338
#
# number of rings (size 3 to 8) (size 9 to 14) (size 15 to 20)
#    0.000    1.091    3.636    2.727    2.545    0.000 
#    0.000    1.818    0.000    0.000    0.000    0.000 
#    0.000    0.000    0.000    0.000    0.000    0.000 
#
# Total GULP energy -122583.286621 kJ/mol
# GULP energy per Si atom -5571.967574 kJ/mol
# Density = 2.346984 g / cm^3
# Si number density = 23.523380 Si / 1000 Ang^3
#
#
#
# Elastic Constant Matrix: (Units=GPa)
#
#
# Indices 1 2 3 4 5 6 
#
# 1 98.2338 -13.6594 -1.2211 0.0000 2.1844 0.0000
# 2 -13.6594 139.7218 14.8333 0.0000 4.8027 0.0000
# 3 -1.2211 14.8333 63.2799 0.0000 -0.3798 0.0000
# 4 0.0000 0.0000 0.0000 -17.7316 0.0000 -8.1673
# 5 2.1844 4.8027 -0.3798 0.0000 26.6189 0.0000
# 6 0.0000 0.0000 0.0000 -8.1673 0.0000 23.4740
#
#
#
# Elastic Compliance Matrix: (Units=1/GPa)
#
#
# Indices 1 2 3 4 5 6 
#
# 1 0.010349 0.001053 -0.000053 0.000000 -0.001040 0.000000
# 2 0.001053 0.007496 -0.001746 0.000000 -0.001464 0.000000
# 3 -0.000053 -0.001746 0.016214 0.000000 0.000551 0.000000
# 4 0.000000 0.000000 0.000000 -0.048607 0.000000 -0.016912
# 5 -0.001040 -0.001464 0.000551 0.000000 0.037925 0.000000
# 6 0.000000 0.000000 0.000000 -0.016912 0.000000 0.036716
#
#
# Mechanical properties :
#
#
# Convention : Reuss Voigt Hill
#
# Bulk Modulus (GPa) = 30.70591 33.46011 32.08301
# Shear Modulus (GPa) = 69.02268 26.55775 47.79022
#
# Velocity S-wave (km/s) = 5.42272 3.36370 4.51222
# Velocity P-wave (km/s) = 7.23115 5.41673 6.38868
#
# Compressibility (1/GPa) = 0.03256702
#
# Stress axis : x y z
#
# Youngs Moduli (GPa) = 96.63051 133.41060 61.67413
#
# Poissons Ratio (x) = -0.14050 0.00329
# Poissons Ratio (y) = -0.10176 0.10765
# Poissons Ratio (z) = 0.00516 0.23287
#
# Static dielectric constant tensor:
#      x y z
#    x 1.933340 0.000000 0.026750 
#    y 0.000000 2.135760 0.000000 
#    z 0.026750 0.000000 1.899780 
# 
# From -- ./inp_files/43705.got.cif
#   From: 2010.05.17/outbox.cif.g08.bks.cpg/sg13_22_cif.got.tgz:43705.got - 2010.06.03 16:44:36.
