data_PCOD9231738
_publ_section_title
;
Structure prediction by ZEFSAII (Michael W. Deem and Ramdas Pophale) SiO2 
 PCOD9231738
Probable space group: P 2/C
;
_chemical_formula_sum "Si O2"
_cell_formula_units_Z 20
_cell_length_a 7.860573
_cell_length_b 5.910027
_cell_length_c 18.347447
_cell_angle_alpha 90.000000
_cell_angle_beta 68.564314
_cell_angle_gamma 90.000000
_cell_volume 793.394026
_symmetry_space_group_name_H-M "P 2/C"
_symmetry_group_IT_number 13
_symmetry_cell_setting 'monoclinic'
loop_
_space_group_symop_operation_xyz
x,y,z
-x,y,1/2-z
-x,-y,-z
x,-y,1/2+z
loop_
_atom_site_type_symbol
_atom_site_label
_atom_site_fract_x
_atom_site_fract_y
_atom_site_fract_z
Si Si1 0.318145 0.854415 0.754532
Si Si2 0.817631 0.122014 0.462007
Si Si3 0.573539 0.567830 0.897503
Si Si4 0.863291 0.802033 0.324649
Si Si5 0.199070 0.272170 0.429828
O O1 0.500000 0.988459 0.750000
O O2 0.194340 0.016472 0.726834
O O3 0.229926 0.745588 0.838756
O O4 0.387980 0.665408 0.688510
O O5 0.913582 0.943584 0.389525
O O6 0.979285 0.280053 0.468435
O O7 0.665164 0.254230 0.439542
O O8 0.747787 0.964092 0.538268
O O9 0.691444 0.341509 0.880256
O O10 0.353644 0.558484 0.936803
O O11 0.000000 0.656915 0.250000
#
# Coordination Sequence:
#
# PCOD9231738 Si02
#       5
#     4   4   4   4   4
#     4   9  20  39  61  85 119 161 205 254 305 369
#     4  10  22  41  64  85 124 166 200 254 310 373
#     4  10  23  38  61  90 120 161 202 258 307 367
#     4  11  22  38  61  91 123 162 210 256 311 369
#     4  10  20  41  63  88 122 162 207 249 312 370
#
# _framework density 25.208155999999999
#
# number of rings (size 3 to 8) (size 9 to 14) (size 15 to 20)
#    0.000    2.000    2.000    0.600    2.800    3.200 
#    0.000    6.000    0.000    0.000    0.000    0.000 
#    0.000    0.000    0.000    0.000    0.000    0.000 
#
# Total GULP energy -111652.688804 kJ/mol
# GULP energy per Si atom -5582.634440 kJ/mol
# Density = 2.515078 g / cm^3
# Si number density = 25.208156 Si / 1000 Ang^3
#
#
#
# Elastic Constant Matrix: (Units=GPa)
#
#
# Indices 1 2 3 4 5 6 
#
# 1 156.0071 37.1813 8.1786 0.0000 -6.2794 0.0000
# 2 37.1813 42.8299 32.9713 0.0000 1.0338 0.0000
# 3 8.1786 32.9713 131.2211 0.0000 18.5291 0.0000
# 4 0.0000 0.0000 0.0000 92.8385 0.0000 70.2353
# 5 -6.2794 1.0338 18.5291 0.0000 40.5712 0.0000
# 6 0.0000 0.0000 0.0000 70.2353 0.0000 122.3631
#
#
#
# Elastic Compliance Matrix: (Units=1/GPa)
#
#
# Indices 1 2 3 4 5 6 
#
# 1 0.008375 -0.008428 0.001478 0.000000 0.000836 0.000000
# 2 -0.008428 0.037722 -0.009228 0.000000 0.001949 0.000000
# 3 0.001478 -0.009228 0.010456 0.000000 -0.004312 0.000000
# 4 0.000000 0.000000 0.000000 0.019039 0.000000 -0.010928
# 5 0.000836 0.001949 -0.004312 0.000000 0.026697 0.000000
# 6 0.000000 0.000000 0.000000 -0.010928 0.000000 0.014445
#
#
# Mechanical properties :
#
#
# Convention : Reuss Voigt Hill
#
# Bulk Modulus (GPa) = 41.32967 54.08006 47.70486
# Shear Modulus (GPa) = 31.81568 67.93638 49.87603
#
# Velocity S-wave (km/s) = 3.55648 5.19699 4.45293
# Velocity P-wave (km/s) = 5.77024 7.58364 6.73822
#
# Compressibility (1/GPa) = 0.02419569
#
# Stress axis : x y z
#
# Youngs Moduli (GPa) = 119.40578 26.51006 95.63773
#
# Poissons Ratio (x) = 0.22343 -0.14132
# Poissons Ratio (y) = 1.00635 0.88255
# Poissons Ratio (z) = -0.17644 0.24464
#
# Static dielectric constant tensor:
#      x y z
#    x 2.103620 0.000000 -0.093850 
#    y 0.000000 1.979440 0.000000 
#    z -0.093850 0.000000 2.014130 
# 
# From -- ./inp_files/74193.got.cif
#   From: 2010.05.17/outbox.cif.g08.bks.cpg/sg13_38_cif.got.tgz:74193.got - 2010.06.03 16:44:36.
