data_PCOD9231966
_publ_section_title
;
Structure prediction by ZEFSAII (Michael W. Deem and Ramdas Pophale) SiO2 
 PCOD9231966
Probable space group: P 2/C
;
_chemical_formula_sum "Si O2"
_cell_formula_units_Z 28
_cell_length_a 21.135177
_cell_length_b 6.881484
_cell_length_c 18.754977
_cell_angle_alpha 90.000000
_cell_angle_beta 28.322850
_cell_angle_gamma 90.000000
_cell_volume 1294.151731
_symmetry_space_group_name_H-M "P 2/C"
_symmetry_group_IT_number 13
_symmetry_cell_setting 'monoclinic'
loop_
_space_group_symop_operation_xyz
x,y,z
-x,y,1/2-z
-x,-y,-z
x,-y,1/2+z
loop_
_atom_site_type_symbol
_atom_site_label
_atom_site_fract_x
_atom_site_fract_y
_atom_site_fract_z
Si Si1 0.000000 0.986113 0.250000
Si Si2 0.702455 0.921850 0.042916
Si Si3 0.914957 0.682531 0.062727
Si Si4 0.573574 0.262164 0.072082
Si Si5 0.045802 0.060620 0.547981
Si Si6 0.500000 0.415776 0.750000
Si Si7 0.343048 0.982481 0.745507
Si Si8 0.627998 0.640871 0.374223
O O1 0.860098 0.094145 0.374265
O O2 0.029016 0.876477 0.146665
O O3 0.621229 0.725983 0.109870
O O4 0.678004 0.954375 0.151274
O O5 0.640325 0.102890 0.058822
O O6 0.768077 0.594686 0.196324
O O7 0.938170 0.835434 0.104987
O O8 0.000000 0.500000 0.000000
O O9 0.959903 0.823911 0.953156
O O10 0.496914 0.433961 0.188161
O O11 0.461596 0.166368 0.133912
O O12 0.670979 0.341807 0.914824
O O13 0.197185 0.098215 0.369838
O O14 0.393018 0.154368 0.645301
O O15 0.500000 0.500000 0.500000
#
# Coordination Sequence:
#
# PCOD9231966 Si02
#       8
#     2   4   4   4   4   2   4   4
#     4  10  22  42  66  94 126 164 214 268 314 370
#     4  11  22  43  66  92 129 169 211 263 320 381
#     4  10  22  43  63  89 127 169 208 253 324 378
#     4  12  23  41  67  93 128 170 212 262 323 374
#     4   9  21  41  66  88 125 168 210 259 315 379
#     4  12  22  40  66  90 126 168 214 252 322 390
#     4  10  20  43  62  91 127 168 206 263 320 369
#     4  11  25  39  64 101 125 163 217 267 313 380
#
# _framework density 21.635793
#
# number of rings (size 3 to 8) (size 9 to 14) (size 15 to 20)
#    0.000    1.429    2.857    2.143    2.000    1.143 
#    2.571    1.429    0.000    0.000    0.000    0.000 
#    0.000    0.000    0.000    0.000    0.000    0.000 
#
# Total GULP energy -155888.812090 kJ/mol
# GULP energy per Si atom -5567.457575 kJ/mol
# Density = 2.158655 g / cm^3
# Si number density = 21.635793 Si / 1000 Ang^3
#
#
#
# Elastic Constant Matrix: (Units=GPa)
#
#
# Indices 1 2 3 4 5 6 
#
# 1 83.1345 22.8584 26.3002 0.0000 1.3764 0.0000
# 2 22.8584 83.5667 34.4114 0.0000 -10.8924 0.0000
# 3 26.3002 34.4114 103.2427 0.0000 -14.9895 0.0000
# 4 0.0000 0.0000 0.0000 18.5848 0.0000 -4.1549
# 5 1.3764 -10.8924 -14.9895 0.0000 53.4893 0.0000
# 6 0.0000 0.0000 0.0000 -4.1549 0.0000 29.1938
#
#
#
# Elastic Compliance Matrix: (Units=1/GPa)
#
#
# Indices 1 2 3 4 5 6 
#
# 1 0.013720 -0.002822 -0.002803 0.000000 -0.001713 0.000000
# 2 -0.002822 0.014582 -0.003857 0.000000 0.001961 0.000000
# 3 -0.002803 -0.003857 0.012073 0.000000 0.002670 0.000000
# 4 0.000000 0.000000 0.000000 0.055576 0.000000 0.007910
# 5 -0.001713 0.001961 0.002670 0.000000 0.019887 0.000000
# 6 0.000000 0.000000 0.000000 0.007910 0.000000 0.035379
#
#
# Mechanical properties :
#
#
# Convention : Reuss Voigt Hill
#
# Bulk Modulus (GPa) = 46.70382 48.56490 47.63436
# Shear Modulus (GPa) = 28.19793 32.67852 30.43822
#
# Velocity S-wave (km/s) = 3.61404 3.89059 3.75486
# Velocity P-wave (km/s) = 6.24886 6.53281 6.39241
#
# Compressibility (1/GPa) = 0.02141152
#
# Stress axis : x y z
#
# Youngs Moduli (GPa) = 72.88763 68.57703 82.82858
#
# Poissons Ratio (x) = 0.19351 0.23218
# Poissons Ratio (y) = 0.20568 0.31945
# Poissons Ratio (z) = 0.20432 0.26448
#
# Static dielectric constant tensor:
#      x y z
#    x 1.848240 0.000000 0.005230 
#    y 0.000000 1.835190 0.000000 
#    z 0.005230 0.000000 1.882270 
# 
# From -- ./inp_files/81950.got.cif
#   From: 2010.05.17/outbox.cif.g08.bks.cpg/sg13_41_cif.got.tgz:81950.got - 2010.06.03 16:44:36.
