data_PCOD9231231
_publ_section_title
;
Structure prediction by ZEFSAII (Michael W. Deem and Ramdas Pophale) SiO2 
 PCOD9231231
Probable space group: P 2/C
;
_chemical_formula_sum "Si O2"
_cell_formula_units_Z 28
_cell_length_a 14.651946
_cell_length_b 9.396118
_cell_length_c 16.758711
_cell_angle_alpha 90.000000
_cell_angle_beta 31.762604
_cell_angle_gamma 90.000000
_cell_volume 1214.509919
_symmetry_space_group_name_H-M "P 2/C"
_symmetry_group_IT_number 13
_symmetry_cell_setting 'monoclinic'
loop_
_space_group_symop_operation_xyz
x,y,z
-x,y,1/2-z
-x,-y,-z
x,-y,1/2+z
loop_
_atom_site_type_symbol
_atom_site_label
_atom_site_fract_x
_atom_site_fract_y
_atom_site_fract_z
Si Si1 0.419577 0.744657 0.431167
Si Si2 0.506933 0.448437 0.403262
Si Si3 0.662239 0.207695 0.073425
Si Si4 0.833689 0.689300 0.600698
Si Si5 0.847296 0.927300 0.958286
Si Si6 0.223314 0.902233 0.713636
Si Si7 0.193603 0.834091 0.340004
O O1 0.400924 0.575849 0.441372
O O2 0.365743 0.829650 0.551940
O O3 0.622872 0.768899 0.274932
O O4 0.295571 0.812896 0.458402
O O5 0.500000 0.500000 0.500000
O O6 0.413400 0.303321 0.441915
O O7 0.709333 0.435798 0.226868
O O8 0.500000 0.157179 0.250000
O O9 0.774607 0.296353 0.053327
O O10 0.779854 0.071374 0.967007
O O11 0.775252 0.813573 0.705588
O O12 0.040922 0.716665 0.447353
O O13 0.848940 0.938341 0.053553
O O14 0.044047 0.880567 0.798977
O O15 0.220694 0.066967 0.741964
#
# Coordination Sequence:
#
# PCOD9231231 Si02
#       7
#     4   4   4   4   4   4   4
#     4  12  26  39  65 103 148 187 230 299 371 436
#     4  11  25  44  66  98 144 192 234 286 364 431
#     4  10  20  38  72  99 132 181 246 297 353 431
#     4  10  20  42  73  97 132 188 238 297 354 433
#     4  11  22  41  70 104 135 181 244 302 364 431
#     4  11  21  42  70 103 142 179 236 312 376 419
#     4  11  22  40  72 108 138 176 248 306 368 429
#
# _framework density 23.054566999999999
#
# number of rings (size 3 to 8) (size 9 to 14) (size 15 to 20)
#    0.000    1.143    4.286    3.000    2.000    5.143 
#    0.000    1.429    0.000    0.000    0.000    0.000 
#    0.000    0.000    0.000    0.000    0.000    0.000 
#
# Total GULP energy -156138.086463 kJ/mol
# GULP energy per Si atom -5576.360231 kJ/mol
# Density = 2.300209 g / cm^3
# Si number density = 23.054567 Si / 1000 Ang^3
#
#
#
# Elastic Constant Matrix: (Units=GPa)
#
#
# Indices 1 2 3 4 5 6 
#
# 1 118.2403 49.2914 38.4078 0.0000 -23.0905 0.0000
# 2 49.2914 100.7864 47.4518 0.0000 -7.2032 0.0000
# 3 38.4078 47.4518 117.3317 0.0000 -15.9166 0.0000
# 4 0.0000 0.0000 0.0000 28.8692 0.0000 7.1748
# 5 -23.0905 -7.2032 -15.9166 0.0000 32.5280 0.0000
# 6 0.0000 0.0000 0.0000 7.1748 0.0000 16.6364
#
#
#
# Elastic Compliance Matrix: (Units=1/GPa)
#
#
# Indices 1 2 3 4 5 6 
#
# 1 0.012264 -0.005007 -0.001027 0.000000 0.007094 0.000000
# 2 -0.005007 0.014303 -0.004496 0.000000 -0.002587 0.000000
# 3 -0.001027 -0.004496 0.011186 0.000000 0.003749 0.000000
# 4 0.000000 0.000000 0.000000 0.038798 0.000000 -0.016732
# 5 0.007094 -0.002587 0.003749 0.000000 0.037040 0.000000
# 6 0.000000 0.000000 0.000000 -0.016732 0.000000 0.067325
#
#
# Mechanical properties :
#
#
# Convention : Reuss Voigt Hill
#
# Bulk Modulus (GPa) = 59.91100 67.40670 63.65885
# Shear Modulus (GPa) = 24.09170 29.02054 26.55612
#
# Velocity S-wave (km/s) = 3.23613 3.55177 3.39762
# Velocity P-wave (km/s) = 6.32506 6.79128 6.56231
#
# Compressibility (1/GPa) = 0.01669143
#
# Stress axis : x y z
#
# Youngs Moduli (GPa) = 81.54111 69.91603 89.39743
#
# Poissons Ratio (x) = 0.35009 0.09182
# Poissons Ratio (y) = 0.40830 0.40196
# Poissons Ratio (z) = 0.08375 0.31436
#
# Static dielectric constant tensor:
#      x y z
#    x 1.924990 0.000000 0.071790 
#    y 0.000000 1.931550 0.000000 
#    z 0.071790 0.000000 1.933200 
# 
# From -- ./inp_files/79938.got.cif
#   From: 2010.05.17/outbox.cif.g08.bks.cpg/sg13_40_cif.got.tgz:79938.got - 2010.06.03 16:44:36.
