data_PCOD9231469
_publ_section_title
;
Structure prediction by ZEFSAII (Michael W. Deem and Ramdas Pophale) SiO2 
 PCOD9231469
Probable space group: P 2/C
;
_chemical_formula_sum "Si O2"
_cell_formula_units_Z 26
_cell_length_a 13.334837
_cell_length_b 8.696457
_cell_length_c 19.492969
_cell_angle_alpha 90.000000
_cell_angle_beta 37.886112
_cell_angle_gamma 90.000000
_cell_volume 1388.170629
_symmetry_space_group_name_H-M "P 2/C"
_symmetry_group_IT_number 13
_symmetry_cell_setting 'monoclinic'
loop_
_space_group_symop_operation_xyz
x,y,z
-x,y,1/2-z
-x,-y,-z
x,-y,1/2+z
loop_
_atom_site_type_symbol
_atom_site_label
_atom_site_fract_x
_atom_site_fract_y
_atom_site_fract_z
Si Si1 0.500000 0.282242 0.750000
Si Si2 0.864326 0.156157 0.733953
Si Si3 0.500000 0.215464 0.250000
Si Si4 0.928834 0.493768 0.156901
Si Si5 0.811900 0.986570 0.405220
Si Si6 0.000000 0.278147 0.250000
Si Si7 0.761859 0.457301 0.106581
Si Si8 0.460259 0.970578 0.159892
O O1 0.341875 0.387844 0.832836
O O2 0.492802 0.176525 0.820157
O O3 0.871023 0.335042 0.709947
O O4 0.709212 0.070598 0.784733
O O5 0.830082 0.132666 0.832940
O O6 0.039529 0.070802 0.625115
O O7 0.642879 0.323701 0.145857
O O8 0.430944 0.109012 0.227950
O O9 0.819156 0.425647 0.153951
O O10 0.947158 0.384652 0.213784
O O11 0.097231 0.519557 0.024737
O O12 0.625200 0.989178 0.529672
O O13 0.862230 0.156969 0.350852
#
# Coordination Sequence:
#
# PCOD9231469 Si02
#       8
#     2   4   2   4   4   2   4   4
#     4  10  20  40  58  88 120 154 200 244 298 360
#     4  10  21  39  61  86 119 158 198 243 299 357
#     4  10  24  36  60  84 118 152 204 246 292 360
#     4  11  21  39  63  87 118 159 198 244 308 350
#     4  10  23  39  61  88 123 155 199 249 297 357
#     4  10  22  38  62  90 118 154 204 252 290 364
#     4  10  22  39  60  87 121 156 194 252 297 357
#     4  11  21  40  61  88 119 160 196 250 297 352
#
# _framework density 18.729686000000001
#
# number of rings (size 3 to 8) (size 9 to 14) (size 15 to 20)
#    0.000    1.846    1.538    3.231    4.308    0.000 
#    0.000    3.077    0.000    0.000    0.000    0.000 
#    0.000    0.000    0.000    0.000    0.000    0.000 
#
# Total GULP energy -144883.895347 kJ/mol
# GULP energy per Si atom -5572.457513 kJ/mol
# Density = 1.868706 g / cm^3
# Si number density = 18.729686 Si / 1000 Ang^3
#
#
#
# Elastic Constant Matrix: (Units=GPa)
#
#
# Indices 1 2 3 4 5 6 
#
# 1 61.3178 -6.1016 6.0230 0.0000 -1.0175 0.0000
# 2 -6.1016 60.1195 14.3998 0.0000 4.0478 0.0000
# 3 6.0230 14.3998 59.5119 0.0000 -3.0120 0.0000
# 4 0.0000 0.0000 0.0000 166.2251 0.0000 126.6442
# 5 -1.0175 4.0478 -3.0120 0.0000 20.2867 0.0000
# 6 0.0000 0.0000 0.0000 126.6442 0.0000 155.2188
#
#
#
# Elastic Compliance Matrix: (Units=1/GPa)
#
#
# Indices 1 2 3 4 5 6 
#
# 1 0.016751 0.002230 -0.002232 0.000000 0.000064 0.000000
# 2 0.002230 0.018314 -0.004873 0.000000 -0.004266 0.000000
# 3 -0.002232 -0.004873 0.018390 0.000000 0.003591 0.000000
# 4 0.000000 0.000000 0.000000 0.015899 0.000000 -0.012972
# 5 0.000064 -0.004266 0.003591 0.000000 0.050681 0.000000
# 6 0.000000 0.000000 0.000000 -0.012972 0.000000 0.017027
#
#
# Mechanical properties :
#
#
# Convention : Reuss Voigt Hill
#
# Bulk Modulus (GPa) = 22.88007 23.28794 23.08401
# Shear Modulus (GPa) = 30.98277 79.45463 55.21870
#
# Velocity S-wave (km/s) = 4.07161 6.52027 5.43562
# Velocity P-wave (km/s) = 5.86058 8.31540 7.19348
#
# Compressibility (1/GPa) = 0.04370616
#
# Stress axis : x y z
#
# Youngs Moduli (GPa) = 59.69901 54.60209 54.37711
#
# Poissons Ratio (x) = -0.12178 0.12135
# Poissons Ratio (y) = -0.13315 0.26498
# Poissons Ratio (z) = 0.13323 0.26608
#
# Static dielectric constant tensor:
#      x y z
#    x 1.804660 0.000000 -0.138680 
#    y 0.000000 1.622430 0.000000 
#    z -0.138680 0.000000 1.823010 
# 
# From -- ./inp_files/65978.got.cif
#   From: 2010.05.17/outbox.cif.g08.bks.cpg/sg13_33_cif.got.tgz:65978.got - 2010.06.03 16:44:36.
