data_PCOD9231755
_publ_section_title
;
Structure prediction by ZEFSAII (Michael W. Deem and Ramdas Pophale) SiO2 
 PCOD9231755
Probable space group: P 2/C
;
_chemical_formula_sum "Si O2"
_cell_formula_units_Z 32
_cell_length_a 12.454651
_cell_length_b 5.405792
_cell_length_c 19.362218
_cell_angle_alpha 90.000000
_cell_angle_beta 84.536851
_cell_angle_gamma 90.000000
_cell_volume 1297.683499
_symmetry_space_group_name_H-M "P 2/C"
_symmetry_group_IT_number 13
_symmetry_cell_setting 'monoclinic'
loop_
_space_group_symop_operation_xyz
x,y,z
-x,y,1/2-z
-x,-y,-z
x,-y,1/2+z
loop_
_atom_site_type_symbol
_atom_site_label
_atom_site_fract_x
_atom_site_fract_y
_atom_site_fract_z
Si Si1 0.681065 0.594777 0.347613
Si Si2 0.650278 0.702036 0.557245
Si Si3 0.150264 0.298057 0.557239
Si Si4 0.818938 0.594862 0.652396
Si Si5 0.808645 0.805073 0.795324
Si Si6 0.538133 0.807826 0.089139
Si Si7 0.691341 0.195025 0.704689
Si Si8 0.038132 0.192084 0.089131
O O1 0.791650 0.713443 0.370736
O O2 0.714123 0.306453 0.350750
O O3 0.583675 0.715362 0.394906
O O4 0.655051 0.619048 0.268213
O O5 0.750009 0.731712 0.500002
O O6 0.708362 0.713560 0.629270
O O7 0.599236 0.429730 0.552830
O O8 0.566379 0.926047 0.554915
O O9 0.099241 0.570379 0.552813
O O10 0.066352 0.074068 0.554914
O O11 0.844945 0.619169 0.731796
O O12 0.785866 0.306545 0.649265
O O13 0.916333 0.715409 0.605099
O O14 0.911034 0.841083 0.837192
O O15 0.749989 0.000053 0.750010
O O16 0.588951 0.840990 0.162822
#
# Coordination Sequence:
#
# PCOD9231755 Si02
#       8
#     4   4   4   4   4   4   4   4
#     4  10  23  40  64  95 129 166 207 259 319 376
#     4  11  25  43  63  92 129 168 217 265 305 368
#     4  11  25  43  63  92 129 168 217 265 305 368
#     4  10  23  40  64  95 129 166 207 259 319 376
#     4  10  20  41  64  93 131 161 204 265 315 378
#     4  11  24  41  67  94 124 170 212 258 321 376
#     4  10  20  41  64  93 131 161 204 265 315 378
#     4  11  24  41  67  94 124 170 212 258 321 376
#
# _framework density 24.659327999999999
#
# number of rings (size 3 to 8) (size 9 to 14) (size 15 to 20)
#    0.000    1.500    2.500    1.500    3.500    2.000 
#    0.000    0.000    0.000    0.000    0.000    0.000 
#    0.000    0.000    0.000    0.000    0.000    0.000 
#
# Total GULP energy -178441.214081 kJ/mol
# GULP energy per Si atom -5576.287940 kJ/mol
# Density = 2.460320 g / cm^3
# Si number density = 24.659328 Si / 1000 Ang^3
#
#
#
# Elastic Constant Matrix: (Units=GPa)
#
#
# Indices 1 2 3 4 5 6 
#
# 1 85.6168 45.4035 -1.4255 0.0000 1.4551 0.0000
# 2 45.4035 135.9612 13.3982 0.0000 -20.0342 0.0000
# 3 -1.4255 13.3982 57.6715 0.0000 3.8703 0.0000
# 4 0.0000 0.0000 0.0000 23.4786 0.0000 -8.1941
# 5 1.4551 -20.0342 3.8703 0.0000 53.8215 0.0000
# 6 0.0000 0.0000 0.0000 -8.1941 0.0000 21.5076
#
#
#
# Elastic Compliance Matrix: (Units=1/GPa)
#
#
# Indices 1 2 3 4 5 6 
#
# 1 0.014639 -0.005442 0.001797 0.000000 -0.002551 0.000000
# 2 -0.005442 0.010044 -0.002742 0.000000 0.004083 0.000000
# 3 0.001797 -0.002742 0.018180 0.000000 -0.002377 0.000000
# 4 0.000000 0.000000 0.000000 0.049124 0.000000 0.018715
# 5 -0.002551 0.004083 -0.002377 0.000000 0.020340 0.000000
# 6 0.000000 0.000000 0.000000 0.018715 0.000000 0.053625
#
#
# Mechanical properties :
#
#
# Convention : Reuss Voigt Hill
#
# Bulk Modulus (GPa) = 33.23264 43.77797 38.50531
# Shear Modulus (GPa) = 26.48937 34.55311 30.52124
#
# Velocity S-wave (km/s) = 3.28107 3.74735 3.52194
# Velocity P-wave (km/s) = 5.27825 6.04277 5.67340
#
# Compressibility (1/GPa) = 0.03009090
#
# Stress axis : x y z
#
# Youngs Moduli (GPa) = 68.31110 99.56148 55.00402
#
# Poissons Ratio (x) = 0.54176 -0.09885
# Poissons Ratio (y) = 0.37172 0.15082
# Poissons Ratio (z) = -0.12277 0.27299
#
# Static dielectric constant tensor:
#      x y z
#    x 1.981020 0.000000 0.024150 
#    y 0.000000 2.220570 0.000000 
#    z 0.024150 0.000000 2.078240 
# 
# From -- ./inp_files/85982.got.cif
#   From: 2010.05.17/outbox.cif.g08.bks.cpg/sg13_43_cif.got.tgz:85982.got - 2010.06.03 16:44:36.
