data_PCOD9231283
_publ_section_title
;
Structure prediction by ZEFSAII (Michael W. Deem and Ramdas Pophale) SiO2 
 PCOD9231283
Probable space group: P 2/C
;
_chemical_formula_sum "Si O2"
_cell_formula_units_Z 26
_cell_length_a 12.610738
_cell_length_b 13.246745
_cell_length_c 8.278079
_cell_angle_alpha 90.000000
_cell_angle_beta 122.001164
_cell_angle_gamma 90.000000
_cell_volume 1172.719687
_symmetry_space_group_name_H-M "P 2/C"
_symmetry_group_IT_number 13
_symmetry_cell_setting 'monoclinic'
loop_
_space_group_symop_operation_xyz
x,y,z
-x,y,1/2-z
-x,-y,-z
x,-y,1/2+z
loop_
_atom_site_type_symbol
_atom_site_label
_atom_site_fract_x
_atom_site_fract_y
_atom_site_fract_z
Si Si1 0.360585 0.376782 0.710602
Si Si2 0.130576 0.958227 0.783478
Si Si3 0.256080 0.443427 0.958713
Si Si4 0.855515 0.848361 0.037700
Si Si5 0.629228 0.727748 0.763781
Si Si6 0.000000 0.334362 0.750000
Si Si7 0.635006 0.168037 0.917328
O O1 0.500000 0.391506 0.750000
O O2 0.344920 0.415792 0.880082
O O3 0.268119 0.441583 0.522927
O O4 0.330705 0.258124 0.677964
O O5 0.134768 0.922806 0.604078
O O6 0.000000 0.919017 0.750000
O O7 0.125575 0.079433 0.794352
O O8 0.254313 0.911924 0.967963
O O9 0.117779 0.403892 0.801073
O O10 0.304371 0.379915 0.153688
O O11 0.941994 0.749616 0.081597
O O12 0.717182 0.804885 0.930563
O O13 0.500000 0.722663 0.750000
O O14 0.619325 0.770807 0.574933
O O15 0.500000 0.126378 0.750000
#
# Coordination Sequence:
#
# PCOD9231283 Si02
#       7
#     4   4   4   4   4   2   4
#     4  11  22  39  63  93 122 164 205 256 309 369
#     4  11  23  39  64  88 121 165 203 255 303 369
#     4  11  23  39  65  88 129 163 208 252 310 371
#     4  10  23  39  62  89 123 156 213 250 309 366
#     4  10  20  39  61  89 123 163 200 258 308 364
#     4  10  24  42  60  92 124 168 206 256 308 368
#     4  10  23  40  60  95 127 157 210 254 310 366
#
# _framework density 22.170687000000001
#
# number of rings (size 3 to 8) (size 9 to 14) (size 15 to 20)
#    0.000    1.538    0.769    4.154    2.154    3.692 
#    1.385    3.077    0.000    0.000    0.000    0.000 
#    0.000    0.000    0.000    0.000    0.000    0.000 
#
# Total GULP energy -145154.222185 kJ/mol
# GULP energy per Si atom -5582.854699 kJ/mol
# Density = 2.212023 g / cm^3
# Si number density = 22.170687 Si / 1000 Ang^3
#
#
#
# Elastic Constant Matrix: (Units=GPa)
#
#
# Indices 1 2 3 4 5 6 
#
# 1 77.9791 26.5085 32.0999 0.0000 27.5719 0.0000
# 2 26.5085 69.2125 20.1024 0.0000 19.1797 0.0000
# 3 32.0999 20.1024 86.4228 0.0000 24.2163 0.0000
# 4 0.0000 0.0000 0.0000 22.9171 0.0000 10.9142
# 5 27.5719 19.1797 24.2163 0.0000 39.9526 0.0000
# 6 0.0000 0.0000 0.0000 10.9142 0.0000 17.1227
#
#
#
# Elastic Compliance Matrix: (Units=1/GPa)
#
#
# Indices 1 2 3 4 5 6 
#
# 1 0.018717 -0.003633 -0.003585 0.000000 -0.009000 0.000000
# 2 -0.003633 0.017654 -0.001307 0.000000 -0.005175 0.000000
# 3 -0.003585 -0.001307 0.014862 0.000000 -0.005907 0.000000
# 4 0.000000 0.000000 0.000000 0.062656 0.000000 -0.039937
# 5 -0.009000 -0.005175 -0.005907 0.000000 0.037305 0.000000
# 6 0.000000 0.000000 0.000000 -0.039937 0.000000 0.083859
#
#
# Mechanical properties :
#
#
# Convention : Reuss Voigt Hill
#
# Bulk Modulus (GPa) = 29.25531 43.44844 36.35188
# Shear Modulus (GPa) = 18.97565 26.32539 22.65052
#
# Velocity S-wave (km/s) = 2.92873 3.44960 3.19978
# Velocity P-wave (km/s) = 4.96596 5.95870 5.48484
#
# Compressibility (1/GPa) = 0.03418182
#
# Stress axis : x y z
#
# Youngs Moduli (GPa) = 53.42741 56.64597 67.28744
#
# Poissons Ratio (x) = 0.20582 0.24123
# Poissons Ratio (y) = 0.19413 0.08792
# Poissons Ratio (z) = 0.19154 0.07401
#
# Static dielectric constant tensor:
#      x y z
#    x 1.803370 0.000000 0.025480 
#    y 0.000000 1.806660 0.000000 
#    z 0.025480 0.000000 1.921950 
# 
# From -- ./inp_files/16594.got.cif
#   From: 2010.05.17/outbox.cif.g08.bks.cpg/sg13_9_cif.got.tgz:16594.got - 2010.06.03 16:44:36.
