data_PCOD9231069
_publ_section_title
;
Structure prediction by ZEFSAII (Michael W. Deem and Ramdas Pophale) SiO2 
 PCOD9231069
Probable space group: P 2/C
;
_chemical_formula_sum "Si O2"
_cell_formula_units_Z 32
_cell_length_a 20.434307
_cell_length_b 15.969120
_cell_length_c 14.528134
_cell_angle_alpha 90.000000
_cell_angle_beta 161.462172
_cell_angle_gamma 90.000000
_cell_volume 1507.242707
_symmetry_space_group_name_H-M "P 2/C"
_symmetry_group_IT_number 13
_symmetry_cell_setting 'monoclinic'
loop_
_space_group_symop_operation_xyz
x,y,z
-x,y,1/2-z
-x,-y,-z
x,-y,1/2+z
loop_
_atom_site_type_symbol
_atom_site_label
_atom_site_fract_x
_atom_site_fract_y
_atom_site_fract_z
Si Si1 0.678968 0.956955 0.298553
Si Si2 0.438602 0.827833 0.062554
Si Si3 0.208108 0.600062 0.362522
Si Si4 0.078328 0.052018 0.019513
Si Si5 0.502812 0.510878 0.616008
Si Si6 0.726583 0.648257 0.713705
Si Si7 0.243910 0.727458 0.558657
Si Si8 0.322168 0.111467 0.084147
O O1 0.635269 0.860810 0.264770
O O2 0.872199 0.985804 0.495386
O O3 0.670035 0.014940 0.376690
O O4 0.500000 0.000000 0.000000
O O5 0.500000 0.832511 0.250000
O O6 0.273138 0.897139 0.813806
O O7 0.328660 0.739359 0.898701
O O8 0.332083 0.573260 0.435905
O O9 0.287126 0.534788 0.548247
O O10 0.276255 0.687422 0.501380
O O11 0.961957 0.612509 0.020911
O O12 0.906977 0.118841 0.760683
O O13 0.000000 0.000000 0.000000
O O14 0.500000 0.500000 0.500000
O O15 0.420406 0.418502 0.530419
O O16 0.680210 0.664880 0.760853
O O17 0.336189 0.820511 0.684217
O O18 0.000000 0.732647 0.250000
O O19 0.500000 0.128408 0.250000
#
# Coordination Sequence:
#
# PCOD9231069 Si02
#       8
#     4   4   4   4   4   4   4   4
#     4  10  20  39  61  90 131 178 227 277 337 403
#     4  11  24  42  66  95 134 180 234 284 353 416
#     4  10  23  42  67  99 138 172 225 278 346 413
#     4  11  22  39  63  95 130 181 232 286 343 401
#     4  11  23  41  70 102 132 173 222 279 347 417
#     4  11  23  43  66  97 136 179 218 279 349 419
#     4  10  20  38  63  94 134 177 223 279 339 398
#     4  12  23  35  63 100 135 177 233 276 333 405
#
# _framework density 21.230820999999999
#
# number of rings (size 3 to 8) (size 9 to 14) (size 15 to 20)
#    0.000    1.250    1.250    7.125    3.500    0.000 
#    0.000    1.250    0.000    0.000    0.000    0.000 
#    0.000    0.000    0.000    0.000    0.000    0.000 
#
# Total GULP energy -178276.332796 kJ/mol
# GULP energy per Si atom -5571.135400 kJ/mol
# Density = 2.118250 g / cm^3
# Si number density = 21.230821 Si / 1000 Ang^3
#
#
#
# Elastic Constant Matrix: (Units=GPa)
#
#
# Indices 1 2 3 4 5 6 
#
# 1 133.7804 44.0432 41.0016 0.0000 3.3931 0.0000
# 2 44.0432 119.9068 49.9981 0.0000 8.4223 0.0000
# 3 41.0016 49.9981 96.3460 0.0000 -5.9472 0.0000
# 4 0.0000 0.0000 0.0000 35.9383 0.0000 -11.7779
# 5 3.3931 8.4223 -5.9472 0.0000 29.8442 0.0000
# 6 0.0000 0.0000 0.0000 -11.7779 0.0000 28.7367
#
#
#
# Elastic Compliance Matrix: (Units=1/GPa)
#
#
# Indices 1 2 3 4 5 6 
#
# 1 0.009053 -0.002069 -0.002841 0.000000 -0.001011 0.000000
# 2 -0.002069 0.011650 -0.005420 0.000000 -0.004133 0.000000
# 3 -0.002841 -0.005420 0.014696 0.000000 0.004781 0.000000
# 4 0.000000 0.000000 0.000000 0.032143 0.000000 0.013174
# 5 -0.001011 -0.004133 0.004781 0.000000 0.035741 0.000000
# 6 0.000000 0.000000 0.000000 0.013174 0.000000 0.040198
#
#
# Mechanical properties :
#
#
# Convention : Reuss Voigt Hill
#
# Bulk Modulus (GPa) = 67.85296 68.90210 68.37753
# Shear Modulus (GPa) = 29.57610 33.23654 31.40632
#
# Velocity S-wave (km/s) = 3.73644 3.96091 3.85031
# Velocity P-wave (km/s) = 7.11644 7.31045 7.21410
#
# Compressibility (1/GPa) = 0.01473775
#
# Stress axis : x y z
#
# Youngs Moduli (GPa) = 110.46537 85.83437 68.04473
#
# Poissons Ratio (x) = 0.17763 0.19331
# Poissons Ratio (y) = 0.22861 0.36882
# Poissons Ratio (z) = 0.31383 0.46524
#
# Static dielectric constant tensor:
#      x y z
#    x 1.843890 0.000000 0.008170 
#    y 0.000000 1.770830 0.000000 
#    z 0.008170 0.000000 1.876820 
# 
# From -- ./inp_files/57872.got.cif
#   From: 2010.05.17/outbox.cif.g08.bks.cpg/sg13_29_cif.got.tgz:57872.got - 2010.06.03 16:44:36.
