data_PCOD9231050
_publ_section_title
;
Structure prediction by ZEFSAII (Michael W. Deem and Ramdas Pophale) SiO2 
 PCOD9231050
Probable space group: P 2/C
;
_chemical_formula_sum "Si O2"
_cell_formula_units_Z 24
_cell_length_a 9.449453
_cell_length_b 17.985824
_cell_length_c 9.309916
_cell_angle_alpha 90.000000
_cell_angle_beta 133.224532
_cell_angle_gamma 90.000000
_cell_volume 1152.967103
_symmetry_space_group_name_H-M "P 2/C"
_symmetry_group_IT_number 13
_symmetry_cell_setting 'monoclinic'
loop_
_space_group_symop_operation_xyz
x,y,z
-x,y,1/2-z
-x,-y,-z
x,-y,1/2+z
loop_
_atom_site_type_symbol
_atom_site_label
_atom_site_fract_x
_atom_site_fract_y
_atom_site_fract_z
Si Si1 0.202569 0.408440 0.811059
Si Si2 0.537291 0.310082 0.934447
Si Si3 0.796189 0.550083 0.524194
Si Si4 0.906186 0.920063 0.815495
Si Si5 0.827877 0.915740 0.228797
Si Si6 0.550159 0.825813 0.627021
O O1 0.344701 0.339636 0.881504
O O2 0.289300 0.471877 0.977417
O O3 0.178783 0.442034 0.631212
O O4 0.000000 0.388115 0.750000
O O5 0.500000 0.278635 0.750000
O O6 0.666048 0.382604 0.991742
O O7 0.621505 0.243933 0.085343
O O8 0.000000 0.554516 0.750000
O O9 0.725017 0.883027 0.764592
O O10 0.000000 0.875276 0.750000
O O11 0.817828 0.996189 0.684490
O O12 0.081705 0.923824 0.050140
O O13 0.000000 0.882842 0.250000
O O14 0.633211 0.868712 0.072364
O O15 0.500000 0.798832 0.750000
#
# Coordination Sequence:
#
# PCOD9231050 Si02
#       6
#     4   4   4   4   4   4
#     4  10  20  38  63  90 118 156 202 251 302 354
#     4  10  25  42  56  86 126 163 201 249 305 365
#     4  10  20  38  63  89 118 154 203 252 298 360
#     4  10  23  41  67  95 119 163 208 259 315 361
#     4  10  21  43  66  92 127 156 210 264 305 369
#     4  12  25  41  62  92 128 168 207 251 314 375
#
# _framework density 20.815859
#
# number of rings (size 3 to 8) (size 9 to 14) (size 15 to 20)
#    0.000    1.667    1.667    3.000    2.333    4.000 
#    3.000    0.000    0.000    0.000    0.000    0.000 
#    0.000    0.000    0.000    0.000    0.000    0.000 
#
# Total GULP energy -133748.383826 kJ/mol
# GULP energy per Si atom -5572.849326 kJ/mol
# Density = 2.076848 g / cm^3
# Si number density = 20.815859 Si / 1000 Ang^3
#
#
#
# Elastic Constant Matrix: (Units=GPa)
#
#
# Indices 1 2 3 4 5 6 
#
# 1 92.1745 11.5793 10.3873 0.0000 -13.7961 0.0000
# 2 11.5793 39.9918 3.9086 0.0000 -1.2852 0.0000
# 3 10.3873 3.9086 65.6345 0.0000 -7.4856 0.0000
# 4 0.0000 0.0000 0.0000 6.1865 0.0000 -21.1958
# 5 -13.7961 -1.2852 -7.4856 0.0000 29.1380 0.0000
# 6 0.0000 0.0000 0.0000 -21.1958 0.0000 -16.7526
#
#
#
# Elastic Compliance Matrix: (Units=1/GPa)
#
#
# Indices 1 2 3 4 5 6 
#
# 1 0.012182 -0.003246 -0.001126 0.000000 0.005335 0.000000
# 2 -0.003246 0.026032 -0.001114 0.000000 -0.000675 0.000000
# 3 -0.001126 -0.001114 0.015879 0.000000 0.003497 0.000000
# 4 0.000000 0.000000 0.000000 0.030299 0.000000 -0.038336
# 5 0.005335 -0.000675 0.003497 0.000000 0.037714 0.000000
# 6 0.000000 0.000000 0.000000 -0.038336 0.000000 -0.011189
#
#
# Mechanical properties :
#
#
# Convention : Reuss Voigt Hill
#
# Bulk Modulus (GPa) = 23.18964 27.72791 25.45878
# Shear Modulus (GPa) = 36.69373 15.17609 25.93491
#
# Velocity S-wave (km/s) = 4.20310 2.70305 3.53359
# Velocity P-wave (km/s) = 5.89231 4.80536 5.37637
#
# Compressibility (1/GPa) = 0.04312271
#
# Stress axis : x y z
#
# Youngs Moduli (GPa) = 82.08685 38.41422 62.97520
#
# Poissons Ratio (x) = 0.12468 0.07092
# Poissons Ratio (y) = 0.26643 0.07012
# Poissons Ratio (z) = 0.09244 0.04278
#
# Static dielectric constant tensor:
#      x y z
#    x 1.779330 0.000000 0.016320 
#    y 0.000000 1.758040 0.000000 
#    z 0.016320 0.000000 1.751150 
# 
# From -- ./inp_files/13453.got.cif
#   From: 2010.05.17/outbox.cif.g08.bks.cpg/sg13_7_cif.got.tgz:13453.got - 2010.06.03 16:44:36.
