data_PCOD9231249
_publ_section_title
;
Structure prediction by ZEFSAII (Michael W. Deem and Ramdas Pophale) SiO2 
 PCOD9231249
Probable space group: P 2/C
;
_chemical_formula_sum "Si O2"
_cell_formula_units_Z 32
_cell_length_a 15.116145
_cell_length_b 17.708695
_cell_length_c 10.663406
_cell_angle_alpha 90.000000
_cell_angle_beta 150.988367
_cell_angle_gamma 90.000000
_cell_volume 1384.375223
_symmetry_space_group_name_H-M "P 2/C"
_symmetry_group_IT_number 13
_symmetry_cell_setting 'monoclinic'
loop_
_space_group_symop_operation_xyz
x,y,z
-x,y,1/2-z
-x,-y,-z
x,-y,1/2+z
loop_
_atom_site_type_symbol
_atom_site_label
_atom_site_fract_x
_atom_site_fract_y
_atom_site_fract_z
Si Si1 0.803567 0.392592 0.059299
Si Si2 0.868759 0.049430 0.744505
Si Si3 0.186272 0.161238 0.142394
Si Si4 0.543192 0.413458 0.519609
Si Si5 0.131241 0.450570 0.755495
Si Si6 0.543192 0.913458 0.019609
Si Si7 0.803567 0.107408 0.059299
Si Si8 0.186272 0.338762 0.142394
O O1 0.811710 0.484545 0.076483
O O2 0.773410 0.360999 0.161182
O O3 0.000000 0.367293 0.250000
O O4 0.647760 0.374840 0.766476
O O5 0.689241 0.080378 0.589806
O O6 0.811711 0.984545 0.576483
O O7 0.000033 0.118611 0.878473
O O8 0.000000 0.000000 0.000000
O O9 0.353548 0.129458 0.267834
O O10 0.226590 0.139001 0.338818
O O11 0.169495 0.250000 0.110092
O O12 0.500000 0.500000 0.500000
O O13 0.689241 0.419622 0.589807
O O14 0.353548 0.370542 0.267834
O O15 0.000000 0.500000 0.500000
O O16 0.999967 0.381389 0.621527
O O17 0.647760 0.874840 0.266476
O O18 0.500000 0.000000 0.000000
O O19 0.000000 0.132707 0.250000
#
# Coordination Sequence:
#
# PCOD9231249 Si02
#       8
#     4   4   4   4   4   4   4   4
#     4  11  20  37  62  90 119 155 201 238 295 353
#     4  10  20  39  59  86 119 159 199 242 290 349
#     4  11  24  39  58  91 128 156 190 245 307 357
#     4  12  21  37  62  89 119 155 204 246 288 349
#     4  10  20  39  59  86 119 159 199 242 290 349
#     4  12  21  37  62  89 119 155 204 246 288 349
#     4  11  20  37  62  90 119 155 201 238 295 353
#     4  11  24  39  58  91 128 156 190 245 307 357
#
# _framework density 23.115120000000001
#
# number of rings (size 3 to 8) (size 9 to 14) (size 15 to 20)
#    0.000    1.000   10.000    0.750    0.000    3.500 
#    0.000    0.000    0.000    6.750    0.000    8.750 
#    0.000    0.000    0.000    0.000    0.000    0.000 
#
# Total GULP energy -179122.150344 kJ/mol
# GULP energy per Si atom -5597.567198 kJ/mol
# Density = 2.306251 g / cm^3
# Si number density = 23.115120 Si / 1000 Ang^3
#
#
#
# Elastic Constant Matrix: (Units=GPa)
#
#
# Indices 1 2 3 4 5 6 
#
# 1 122.8830 26.5086 53.8344 0.0000 41.9829 0.0000
# 2 26.5086 158.3306 38.4553 0.0000 35.4167 0.0000
# 3 53.8344 38.4553 107.8470 0.0000 50.9383 0.0000
# 4 0.0000 0.0000 0.0000 15.3359 0.0000 6.9154
# 5 41.9829 35.4167 50.9383 0.0000 57.3786 0.0000
# 6 0.0000 0.0000 0.0000 6.9154 0.0000 22.8650
#
#
#
# Elastic Compliance Matrix: (Units=1/GPa)
#
#
# Indices 1 2 3 4 5 6 
#
# 1 0.011393 0.000106 -0.003025 0.000000 -0.005716 0.000000
# 2 0.000106 0.007371 -0.000854 0.000000 -0.003869 0.000000
# 3 -0.003025 -0.000854 0.016863 0.000000 -0.012230 0.000000
# 4 0.000000 0.000000 0.000000 0.075504 0.000000 -0.022836
# 5 -0.005716 -0.003869 -0.012230 0.000000 0.034856 0.000000
# 6 0.000000 0.000000 0.000000 -0.022836 0.000000 0.050642
#
#
# Mechanical properties :
#
#
# Convention : Reuss Voigt Hill
#
# Bulk Modulus (GPa) = 35.61010 69.62859 52.61935
# Shear Modulus (GPa) = 23.41529 37.13337 30.27433
#
# Velocity S-wave (km/s) = 3.18620 4.01241 3.62293
# Velocity P-wave (km/s) = 5.38282 7.18706 6.34935
#
# Compressibility (1/GPa) = 0.02808192
#
# Stress axis : x y z
#
# Youngs Moduli (GPa) = 87.77226 135.66611 59.29970
#
# Poissons Ratio (x) = -0.01436 0.17939
# Poissons Ratio (y) = -0.00929 0.05061
# Poissons Ratio (z) = 0.26553 0.11579
#
# Static dielectric constant tensor:
#      x y z
#    x 1.946370 0.000000 -0.057290 
#    y 0.000000 1.815200 0.000000 
#    z -0.057290 0.000000 1.970690 
# 
# From -- ./inp_files/37714.got.cif
#   From: 2010.05.17/outbox.cif.g08.bks.cpg/sg13_19_cif.got.tgz:37714.got - 2010.06.03 16:44:36.
