data_PCOD9231001
_publ_section_title
;
Structure prediction by ZEFSAII (Michael W. Deem and Ramdas Pophale) SiO2 
 PCOD9231001
Probable space group: P 2/C
;
_chemical_formula_sum "Si O2"
_cell_formula_units_Z 20
_cell_length_a 8.023035
_cell_length_b 6.372662
_cell_length_c 22.084077
_cell_angle_alpha 90.000000
_cell_angle_beta 122.504560
_cell_angle_gamma 90.000000
_cell_volume 952.239065
_symmetry_space_group_name_H-M "P 2/C"
_symmetry_group_IT_number 13
_symmetry_cell_setting 'monoclinic'
loop_
_space_group_symop_operation_xyz
x,y,z
-x,y,1/2-z
-x,-y,-z
x,-y,1/2+z
loop_
_atom_site_type_symbol
_atom_site_label
_atom_site_fract_x
_atom_site_fract_y
_atom_site_fract_z
Si Si1 0.687386 0.785413 0.828303
Si Si2 0.002548 0.508026 0.321952
Si Si3 0.315868 0.261341 0.454741
Si Si4 0.009400 0.885339 0.411176
Si Si5 0.306879 0.634931 0.539473
O O1 0.500000 0.836792 0.750000
O O2 0.834682 0.644232 0.816564
O O3 0.642427 0.656134 0.880530
O O4 0.805047 0.988796 0.876266
O O5 0.000000 0.515306 0.250000
O O6 0.207534 0.412708 0.385513
O O7 0.986270 0.735201 0.348984
O O8 0.318941 0.398381 0.516664
O O9 0.533075 0.236949 0.469629
O O10 0.176542 0.061717 0.433928
O O11 0.092519 0.735694 0.481055
#
# Coordination Sequence:
#
# PCOD9231001 Si02
#       5
#     4   4   4   4   4
#     4  11  24  39  58  86 120 155 193 242 293 342
#     4  10  22  39  57  82 117 156 197 240 289 344
#     4   9  20  38  62  87 115 154 193 236 288 345
#     4  10  22  38  61  89 116 153 195 240 289 343
#     4  10  20  38  62  89 118 150 193 239 288 347
#
# _framework density 21.003129000000001
#
# number of rings (size 3 to 8) (size 9 to 14) (size 15 to 20)
#    0.000    2.000    0.000    2.400    0.000   14.400 
#    0.000    0.000    0.000    0.000    0.000    0.000 
#    0.000    0.000    0.000    0.000    0.000    0.000 
#
# Total GULP energy -111725.039890 kJ/mol
# GULP energy per Si atom -5586.251995 kJ/mol
# Density = 2.095533 g / cm^3
# Si number density = 21.003129 Si / 1000 Ang^3
#
#
#
# Elastic Constant Matrix: (Units=GPa)
#
#
# Indices 1 2 3 4 5 6 
#
# 1 73.4645 14.2512 46.4249 0.0000 14.7097 0.0000
# 2 14.2512 38.8300 8.8605 0.0000 3.4352 0.0000
# 3 46.4249 8.8605 112.7762 0.0000 -7.2021 0.0000
# 4 0.0000 0.0000 0.0000 14.6232 0.0000 11.0543
# 5 14.7097 3.4352 -7.2021 0.0000 38.6137 0.0000
# 6 0.0000 0.0000 0.0000 11.0543 0.0000 18.5528
#
#
#
# Elastic Compliance Matrix: (Units=1/GPa)
#
#
# Indices 1 2 3 4 5 6 
#
# 1 0.022657 -0.005257 -0.009549 0.000000 -0.009945 0.000000
# 2 -0.005257 0.027735 -0.000045 0.000000 -0.000473 0.000000
# 3 -0.009549 -0.000045 0.013191 0.000000 0.006102 0.000000
# 4 0.000000 0.000000 0.000000 0.124429 0.000000 -0.074139
# 5 -0.009945 -0.000473 0.006102 0.000000 0.030866 0.000000
# 6 0.000000 0.000000 0.000000 -0.074139 0.000000 0.098075
#
#
# Mechanical properties :
#
#
# Convention : Reuss Voigt Hill
#
# Bulk Modulus (GPa) = 29.51498 40.46044 34.98771
# Shear Modulus (GPa) = 13.96843 24.72688 19.34766
#
# Velocity S-wave (km/s) = 2.58168 3.43490 3.03839
# Velocity P-wave (km/s) = 4.79270 5.91922 5.38549
#
# Compressibility (1/GPa) = 0.03388110
#
# Stress axis : x y z
#
# Youngs Moduli (GPa) = 44.13573 36.05574 75.80761
#
# Poissons Ratio (x) = 0.18954 0.72389
# Poissons Ratio (y) = 0.23202 0.00343
# Poissons Ratio (z) = 0.42146 0.00163
#
# Static dielectric constant tensor:
#      x y z
#    x 1.775270 0.000000 0.019220 
#    y 0.000000 1.780460 0.000000 
#    z 0.019220 0.000000 1.722450 
# 
# From -- ./inp_files/62323.got.cif
#   From: 2010.05.17/outbox.cif.g08.bks.cpg/sg13_32_cif.got.tgz:62323.got - 2010.06.03 16:44:36.
