data_PCOD9231258
_publ_section_title
;
Structure prediction by ZEFSAII (Michael W. Deem and Ramdas Pophale) SiO2 
 PCOD9231258
Probable space group: P 2/C
;
_chemical_formula_sum "Si O2"
_cell_formula_units_Z 26
_cell_length_a 15.571550
_cell_length_b 4.698844
_cell_length_c 15.829916
_cell_angle_alpha 90.000000
_cell_angle_beta 75.775345
_cell_angle_gamma 90.000000
_cell_volume 1122.735571
_symmetry_space_group_name_H-M "P 2/C"
_symmetry_group_IT_number 13
_symmetry_cell_setting 'monoclinic'
loop_
_space_group_symop_operation_xyz
x,y,z
-x,y,1/2-z
-x,-y,-z
x,-y,1/2+z
loop_
_atom_site_type_symbol
_atom_site_label
_atom_site_fract_x
_atom_site_fract_y
_atom_site_fract_z
Si Si1 0.500000 0.853584 0.250000
Si Si2 0.677233 0.151429 0.159442
Si Si3 0.695590 0.347728 0.381621
Si Si4 0.897289 0.436337 0.527435
Si Si5 0.202491 0.057187 0.520431
Si Si6 0.434612 0.847374 0.085161
Si Si7 0.230950 0.644232 0.295270
O O1 0.580897 0.049428 0.201570
O O2 0.473970 0.717374 0.164218
O O3 0.748287 0.976299 0.200111
O O4 0.690568 0.484066 0.171783
O O5 0.710979 0.068918 0.059421
O O6 0.764076 0.135915 0.411728
O O7 0.630390 0.597028 0.435977
O O8 0.753533 0.527917 0.301239
O O9 0.624468 0.113426 0.369018
O O10 0.875629 0.117834 0.505610
O O11 0.855281 0.453455 0.631943
O O12 0.000000 0.500000 0.500000
O O13 0.839193 0.629636 0.476514
O O14 0.500000 0.000000 0.000000
#
# Coordination Sequence:
#
# PCOD9231258 Si02
#       7
#     2   4   4   4   4   4   4
#     4  12  22  40  62  88 128 170 232 270 336 366
#     4  10  21  36  56  86 118 166 216 261 318 381
#     4  12  22  44  60  90 130 173 222 266 345 395
#     4  10  21  40  67  98 125 159 216 265 328 409
#     4  10  22  38  65  90 126 168 207 266 336 401
#     4  12  27  40  61  93 133 177 232 292 327 389
#     4  10  20  39  60  86 123 168 207 263 321 393
#
# _framework density 23.157726
#
# number of rings (size 3 to 8) (size 9 to 14) (size 15 to 20)
#    0.000    1.231    3.077    2.769    0.000    4.923 
#    0.000    0.769    0.000    1.846    0.000    0.000 
#    0.000    0.000    0.000    0.000    0.000    0.000 
#
# Total GULP energy -144879.172274 kJ/mol
# GULP energy per Si atom -5572.275857 kJ/mol
# Density = 2.310502 g / cm^3
# Si number density = 23.157726 Si / 1000 Ang^3
#
#
#
# Elastic Constant Matrix: (Units=GPa)
#
#
# Indices 1 2 3 4 5 6 
#
# 1 104.5697 6.2218 39.4884 0.0000 -29.2118 0.0000
# 2 6.2218 104.7627 11.9024 0.0000 -2.1773 0.0000
# 3 39.4884 11.9024 94.1819 0.0000 -3.7859 0.0000
# 4 0.0000 0.0000 0.0000 33.8701 0.0000 3.7443
# 5 -29.2118 -2.1773 -3.7859 0.0000 33.7608 0.0000
# 6 0.0000 0.0000 0.0000 3.7443 0.0000 20.7154
#
#
#
# Elastic Compliance Matrix: (Units=1/GPa)
#
#
# Indices 1 2 3 4 5 6 
#
# 1 0.015312 0.000024 -0.005917 0.000000 0.012587 0.000000
# 2 0.000024 0.009693 -0.001215 0.000000 0.000510 0.000000
# 3 -0.005917 -0.001215 0.013102 0.000000 -0.003729 0.000000
# 4 0.000000 0.000000 0.000000 0.030127 0.000000 -0.005445
# 5 0.012587 0.000510 -0.003729 0.000000 0.040126 0.000000
# 6 0.000000 0.000000 0.000000 -0.005445 0.000000 0.049257
#
#
# Mechanical properties :
#
#
# Convention : Reuss Voigt Hill
#
# Bulk Modulus (GPa) = 41.85445 46.52660 44.19052
# Shear Modulus (GPa) = 27.80929 34.06272 30.93600
#
# Velocity S-wave (km/s) = 3.46911 3.83939 3.65894
# Velocity P-wave (km/s) = 5.84458 6.30788 6.08065
#
# Compressibility (1/GPa) = 0.02389232
#
# Stress axis : x y z
#
# Youngs Moduli (GPa) = 65.30696 103.17222 76.32234
#
# Poissons Ratio (x) = -0.00253 0.45162
# Poissons Ratio (y) = -0.00160 0.09271
# Poissons Ratio (z) = 0.38644 0.12532
#
# Static dielectric constant tensor:
#      x y z
#    x 1.869020 0.000000 0.073270 
#    y 0.000000 1.859040 0.000000 
#    z 0.073270 0.000000 1.996620 
# 
# From -- ./inp_files/52222.got.cif
#   From: 2010.05.17/outbox.cif.g08.bks.cpg/sg13_27_cif.got.tgz:52222.got - 2010.06.03 16:44:36.
