data_PCOD9231411
_publ_section_title
;
Structure prediction by ZEFSAII (Michael W. Deem and Ramdas Pophale) SiO2 
 PCOD9231411
Probable space group: P 2/C
;
_chemical_formula_sum "Si O2"
_cell_formula_units_Z 18
_cell_length_a 9.136278
_cell_length_b 7.841380
_cell_length_c 10.334993
_cell_angle_alpha 90.000000
_cell_angle_beta 116.017604
_cell_angle_gamma 90.000000
_cell_volume 665.375911
_symmetry_space_group_name_H-M "P 2/C"
_symmetry_group_IT_number 13
_symmetry_cell_setting 'monoclinic'
loop_
_space_group_symop_operation_xyz
x,y,z
-x,y,1/2-z
-x,-y,-z
x,-y,1/2+z
loop_
_atom_site_type_symbol
_atom_site_label
_atom_site_fract_x
_atom_site_fract_y
_atom_site_fract_z
Si Si1 0.284881 0.580269 0.828110
Si Si2 0.500000 0.834046 0.250000
Si Si3 0.415473 0.209002 0.982163
Si Si4 0.179572 0.614837 0.061061
Si Si5 0.937621 0.128658 0.582923
O O1 0.574693 0.722537 0.616687
O O2 0.220327 0.554369 0.658862
O O3 0.354802 0.393426 0.897350
O O4 0.162442 0.614315 0.899850
O O5 0.447907 0.910326 0.367940
O O6 0.343554 0.726310 0.143154
O O7 0.256976 0.139519 0.992219
O O8 0.033686 0.699374 0.083595
O O9 0.000000 0.079458 0.750000
O O10 0.000000 0.000000 0.500000
#
# Coordination Sequence:
#
# PCOD9231411 Si02
#       5
#     4   2   4   4   4
#     4   9  18  37  69 100 137 167 221 291 356 411
#     4   8  14  32  64  84 126 164 212 254 334 392
#     4   9  18  36  66 102 129 176 222 280 349 407
#     4  10  20  39  67 103 135 180 220 286 359 404
#     4  12  25  47  69  92 144 196 234 276 331 420
#
# _framework density 27.052375000000001
#
# number of rings (size 3 to 8) (size 9 to 14) (size 15 to 20)
#    0.000    2.222    4.444    1.333    0.000    0.889 
#    4.000    4.444    0.000    0.000    0.000    0.000 
#    0.000    0.000    0.000    0.000    0.000    0.000 
#
# Total GULP energy -100716.209569 kJ/mol
# GULP energy per Si atom -5595.344976 kJ/mol
# Density = 2.699080 g / cm^3
# Si number density = 27.052375 Si / 1000 Ang^3
#
#
#
# Elastic Constant Matrix: (Units=GPa)
#
#
# Indices 1 2 3 4 5 6 
#
# 1 203.2561 53.2589 80.1302 0.0000 -34.4951 0.0000
# 2 53.2589 82.1772 44.2282 0.0000 -3.7485 0.0000
# 3 80.1302 44.2282 192.5310 0.0000 -25.8062 0.0000
# 4 0.0000 0.0000 0.0000 36.3297 0.0000 -20.0542
# 5 -34.4951 -3.7485 -25.8062 0.0000 49.4476 0.0000
# 6 0.0000 0.0000 0.0000 -20.0542 0.0000 48.1367
#
#
#
# Elastic Compliance Matrix: (Units=1/GPa)
#
#
# Indices 1 2 3 4 5 6 
#
# 1 0.007161 -0.003583 -0.001639 0.000000 0.003869 0.000000
# 2 -0.003583 0.015698 -0.002463 0.000000 -0.002595 0.000000
# 3 -0.001639 -0.002463 0.006735 0.000000 0.002185 0.000000
# 4 0.000000 0.000000 0.000000 0.035746 0.000000 0.014892
# 5 0.003869 -0.002595 0.002185 0.000000 0.023866 0.000000
# 6 0.000000 0.000000 0.000000 0.014892 0.000000 0.026978
#
#
# Mechanical properties :
#
#
# Convention : Reuss Voigt Hill
#
# Bulk Modulus (GPa) = 70.29830 92.57762 81.43796
# Shear Modulus (GPa) = 36.68508 46.80595 41.74552
#
# Velocity S-wave (km/s) = 3.68649 4.16408 3.93254
# Velocity P-wave (km/s) = 6.64550 7.57729 7.12664
#
# Compressibility (1/GPa) = 0.01422509
#
# Stress axis : x y z
#
# Youngs Moduli (GPa) = 139.63748 63.70270 148.48547
#
# Poissons Ratio (x) = 0.22823 0.24336
# Poissons Ratio (y) = 0.50028 0.36569
# Poissons Ratio (z) = 0.22886 0.15689
#
# Static dielectric constant tensor:
#      x y z
#    x 2.129830 0.000000 0.022830 
#    y 0.000000 2.347930 0.000000 
#    z 0.022830 0.000000 2.142900 
# 
# From -- ./inp_files/11318.got.cif
#   From: 2010.05.17/outbox.cif.g08.bks.cpg/sg13_6_cif.got.tgz:11318.got - 2010.06.03 16:44:36.
