data_PCOD9231257
_publ_section_title
;
Structure prediction by ZEFSAII (Michael W. Deem and Ramdas Pophale) SiO2 
 PCOD9231257
Probable space group: P 2/C
;
_chemical_formula_sum "Si O2"
_cell_formula_units_Z 20
_cell_length_a 15.409010
_cell_length_b 8.788283
_cell_length_c 22.061816
_cell_angle_alpha 90.000000
_cell_angle_beta 159.125883
_cell_angle_gamma 90.000000
_cell_volume 1064.523572
_symmetry_space_group_name_H-M "P 2/C"
_symmetry_group_IT_number 13
_symmetry_cell_setting 'monoclinic'
loop_
_space_group_symop_operation_xyz
x,y,z
-x,y,1/2-z
-x,-y,-z
x,-y,1/2+z
loop_
_atom_site_type_symbol
_atom_site_label
_atom_site_fract_x
_atom_site_fract_y
_atom_site_fract_z
Si Si1 0.803253 0.952948 0.285050
Si Si2 0.068653 0.253436 0.199825
Si Si3 0.289089 0.149625 0.155149
Si Si4 0.597612 0.703480 0.469652
Si Si5 0.769928 0.560431 0.812380
O O1 0.750178 0.042806 0.312669
O O2 0.859408 0.079921 0.270951
O O3 0.575758 0.844371 0.126330
O O4 0.041280 0.851960 0.454643
O O5 0.238215 0.321347 0.363619
O O6 0.791679 0.259220 0.043139
O O7 0.119231 0.352245 0.173247
O O8 0.500000 0.089786 0.250000
O O9 0.352736 0.313886 0.224054
O O10 0.422325 0.566295 0.334411
O O11 0.000000 0.500000 0.000000
#
# Coordination Sequence:
#
# PCOD9231257 Si02
#       5
#     4   4   4   4   4
#     4  10  20  39  60  86 123 156 199 251 299 358
#     4  10  24  40  60  92 121 160 204 247 305 360
#     4  10  21  36  56  89 118 152 199 247 301 356
#     4  11  22  40  64  87 122 163 201 249 303 360
#     4  11  23  39  58  87 121 157 200 249 297 355
#
# _framework density 18.787748000000001
#
# number of rings (size 3 to 8) (size 9 to 14) (size 15 to 20)
#    0.000    1.600    2.000    2.400    2.800    0.000 
#    0.000    0.000    0.000    9.600    0.000    0.000 
#    0.000    0.000    0.000    0.000    0.000    0.000 
#
# Total GULP energy -111601.015035 kJ/mol
# GULP energy per Si atom -5580.050752 kJ/mol
# Density = 1.874499 g / cm^3
# Si number density = 18.787748 Si / 1000 Ang^3
#
#
#
# Elastic Constant Matrix: (Units=GPa)
#
#
# Indices 1 2 3 4 5 6 
#
# 1 93.8182 29.6630 38.7010 0.0000 12.4143 0.0000
# 2 29.6630 97.0168 40.8755 0.0000 1.5339 0.0000
# 3 38.7010 40.8755 92.0127 0.0000 3.0741 0.0000
# 4 0.0000 0.0000 0.0000 30.1766 0.0000 -1.0284
# 5 12.4143 1.5339 3.0741 0.0000 31.8033 0.0000
# 6 0.0000 0.0000 0.0000 -1.0284 0.0000 12.6286
#
#
#
# Elastic Compliance Matrix: (Units=1/GPa)
#
#
# Indices 1 2 3 4 5 6 
#
# 1 0.013950 -0.002196 -0.004729 0.000000 -0.004882 0.000000
# 2 -0.002196 0.013027 -0.004887 0.000000 0.000701 0.000000
# 3 -0.004729 -0.004887 0.015007 0.000000 0.000631 0.000000
# 4 0.000000 0.000000 0.000000 0.033230 0.000000 0.002706
# 5 -0.004882 0.000701 0.000631 0.000000 0.033254 0.000000
# 6 0.000000 0.000000 0.000000 0.002706 0.000000 0.079406
#
#
# Mechanical properties :
#
#
# Convention : Reuss Voigt Hill
#
# Bulk Modulus (GPa) = 54.46417 55.70296 55.08356
# Shear Modulus (GPa) = 22.97617 26.49559 24.73588
#
# Velocity S-wave (km/s) = 3.50084 3.75942 3.63243
# Velocity P-wave (km/s) = 6.73746 6.96830 6.85385
#
# Compressibility (1/GPa) = 0.01836070
#
# Stress axis : x y z
#
# Youngs Moduli (GPa) = 71.68535 76.76558 66.63594
#
# Poissons Ratio (x) = 0.16855 0.31511
# Poissons Ratio (y) = 0.15739 0.32564
# Poissons Ratio (z) = 0.33899 0.37514
#
# Static dielectric constant tensor:
#      x y z
#    x 1.635290 0.000000 -0.003630 
#    y 0.000000 1.665930 0.000000 
#    z -0.003630 0.000000 1.653060 
# 
# From -- ./inp_files/80092.got.cif
#   From: 2010.05.17/outbox.cif.g08.bks.cpg/sg13_41_cif.got.tgz:80092.got - 2010.06.03 16:44:36.
