data_PCOD9231999
_publ_section_title
;
Structure prediction by ZEFSAII (Michael W. Deem and Ramdas Pophale) SiO2 
 PCOD9231999
Probable space group: P 2/C
;
_chemical_formula_sum "Si O2"
_cell_formula_units_Z 26
_cell_length_a 12.058822
_cell_length_b 8.685322
_cell_length_c 14.232824
_cell_angle_alpha 90.000000
_cell_angle_beta 114.110549
_cell_angle_gamma 90.000000
_cell_volume 1360.623611
_symmetry_space_group_name_H-M "P 2/C"
_symmetry_group_IT_number 13
_symmetry_cell_setting 'monoclinic'
loop_
_space_group_symop_operation_xyz
x,y,z
-x,y,1/2-z
-x,-y,-z
x,-y,1/2+z
loop_
_atom_site_type_symbol
_atom_site_label
_atom_site_fract_x
_atom_site_fract_y
_atom_site_fract_z
Si Si1 0.000000 0.387664 0.250000
Si Si2 0.098139 0.433921 0.607528
Si Si3 0.500000 0.167960 0.750000
Si Si4 0.324040 0.075857 0.268693
Si Si5 0.648316 0.430043 0.903150
Si Si6 0.773099 0.221396 0.079758
Si Si7 0.876071 0.917904 0.427568
Si Si8 0.500000 0.670325 0.750000
O O1 0.931172 0.491248 0.302958
O O2 0.900587 0.284108 0.163212
O O3 0.231178 0.474476 0.613670
O O4 0.094283 0.248357 0.607839
O O5 0.000000 0.500000 0.500000
O O6 0.590026 0.278973 0.836339
O O7 0.578195 0.061003 0.708027
O O8 0.289954 0.121289 0.362172
O O9 0.389918 0.222263 0.245010
O O10 0.205882 0.021384 0.169555
O O11 0.549934 0.562991 0.851815
O O12 0.694424 0.370463 0.019939
O O13 0.802115 0.122753 0.996865
O O14 0.000000 0.000000 0.500000
#
# Coordination Sequence:
#
# PCOD9231999 Si02
#       8
#     2   4   2   4   4   4   4   2
#     4  12  22  38  70 102 130 168 220 270 326 398
#     4  11  22  41  67  94 129 170 213 268 325 387
#     4  10  20  44  64  86 134 174 220 268 320 380
#     4  11  23  41  65  98 128 175 218 268 329 391
#     4  10  21  43  65  92 128 179 214 275 322 378
#     4  11  23  40  67  96 131 171 218 273 328 389
#     4  11  24  43  65  94 137 168 208 273 336 388
#     4  10  24  40  68  90 136 174 220 270 320 394
#
# _framework density 19.108885999999998
#
# number of rings (size 3 to 8) (size 9 to 14) (size 15 to 20)
#    0.000    1.231    6.154    1.846    2.154    2.462 
#    0.000    0.000    0.000    0.000    0.000    0.000 
#    0.000    0.000    0.000    0.000    0.000    0.000 
#
# Total GULP energy -145183.515864 kJ/mol
# GULP energy per Si atom -5583.981379 kJ/mol
# Density = 1.906539 g / cm^3
# Si number density = 19.108886 Si / 1000 Ang^3
#
#
#
# Elastic Constant Matrix: (Units=GPa)
#
#
# Indices 1 2 3 4 5 6 
#
# 1 85.4779 36.3214 37.9638 0.0000 5.3917 0.0000
# 2 36.3214 88.7384 29.8387 0.0000 8.3198 0.0000
# 3 37.9638 29.8387 97.5050 0.0000 11.2003 0.0000
# 4 0.0000 0.0000 0.0000 24.8115 0.0000 28.6257
# 5 5.3917 8.3198 11.2003 0.0000 43.3718 0.0000
# 6 0.0000 0.0000 0.0000 28.6257 0.0000 18.5672
#
#
#
# Elastic Compliance Matrix: (Units=1/GPa)
#
#
# Indices 1 2 3 4 5 6 
#
# 1 0.015867 -0.004935 -0.004689 0.000000 0.000185 0.000000
# 2 -0.004935 0.014187 -0.002245 0.000000 -0.001528 0.000000
# 3 -0.004689 -0.002245 0.013039 0.000000 -0.002354 0.000000
# 4 0.000000 0.000000 0.000000 -0.051755 0.000000 0.079792
# 5 0.000185 -0.001528 -0.002354 0.000000 0.023934 0.000000
# 6 0.000000 0.000000 0.000000 0.079792 0.000000 -0.069160
#
#
# Mechanical properties :
#
#
# Convention : Reuss Voigt Hill
#
# Bulk Modulus (GPa) = 51.66422 53.32991 52.49706
# Shear Modulus (GPa) = -210.97579 28.52325 -91.22627
#
# Velocity S-wave (km/s) = -10.51888 3.86770 -6.91693
# Velocity P-wave (km/s) = 10.97423 6.92203 6.02159
#
# Compressibility (1/GPa) = 0.01935575
#
# Stress axis : x y z
#
# Youngs Moduli (GPa) = 63.02490 70.48657 76.69487
#
# Poissons Ratio (x) = 0.34786 0.35960
# Poissons Ratio (y) = 0.31104 0.17214
# Poissons Ratio (z) = 0.29551 0.15821
#
# Static dielectric constant tensor:
#      x y z
#    x 1.665520 0.000000 0.023950 
#    y 0.000000 1.797360 0.000000 
#    z 0.023950 0.000000 1.666990 
# 
# From -- ./inp_files/50204.got.cif
#   From: 2010.05.17/outbox.cif.g08.bks.cpg/sg13_26_cif.got.tgz:50204.got - 2010.06.03 16:44:36.
