data_PCOD9231988
_publ_section_title
;
Structure prediction by ZEFSAII (Michael W. Deem and Ramdas Pophale) SiO2 
 PCOD9231988
Probable space group: P 2/C
;
_chemical_formula_sum "Si O2"
_cell_formula_units_Z 26
_cell_length_a 19.741256
_cell_length_b 11.498916
_cell_length_c 14.452706
_cell_angle_alpha 90.000000
_cell_angle_beta 18.572917
_cell_angle_gamma 90.000000
_cell_volume 1044.974424
_symmetry_space_group_name_H-M "P 2/C"
_symmetry_group_IT_number 13
_symmetry_cell_setting 'monoclinic'
loop_
_space_group_symop_operation_xyz
x,y,z
-x,y,1/2-z
-x,-y,-z
x,-y,1/2+z
loop_
_atom_site_type_symbol
_atom_site_label
_atom_site_fract_x
_atom_site_fract_y
_atom_site_fract_z
Si Si1 0.397997 0.382333 0.091845
Si Si2 0.901286 0.117955 0.674202
Si Si3 0.500000 0.552298 0.250000
Si Si4 0.000000 0.869899 0.250000
Si Si5 0.806258 0.733063 0.128852
Si Si6 0.500000 0.977363 0.250000
Si Si7 0.972090 0.493760 0.646554
Si Si8 0.663240 0.056346 0.717185
O O1 0.151592 0.399099 0.441204
O O2 0.500000 0.500000 0.000000
O O3 0.435028 0.383345 0.931470
O O4 0.552816 0.289141 0.940414
O O5 0.879608 0.227367 0.634710
O O6 0.006778 0.164661 0.632262
O O7 0.000000 0.000000 0.500000
O O8 0.670247 0.065928 0.989154
O O9 0.280697 0.482766 0.508424
O O10 0.791594 0.947601 0.514296
O O11 0.828074 0.852298 0.044799
O O12 0.940706 0.618961 0.929292
O O13 0.442157 0.895133 0.238976
O O14 0.000000 0.500000 0.500000
O O15 0.500000 0.000000 0.000000
#
# Coordination Sequence:
#
# PCOD9231988 Si02
#       8
#     4   4   2   2   4   2   4   4
#     4   9  21  41  68 101 139 179 234 293 353 419
#     4  11  21  43  61  97 141 183 232 301 335 423
#     4  10  20  43  71  98 142 178 226 297 363 418
#     4  10  22  38  66  92 142 186 236 276 358 398
#     4  11  22  40  67  94 144 186 233 291 361 402
#     4  10  22  39  65  92 136 180 234 279 353 400
#     4   9  21  45  68 101 138 178 230 298 354 419
#     4  11  21  40  62  94 133 181 228 288 336 411
#
# _framework density 24.880991999999999
#
# number of rings (size 3 to 8) (size 9 to 14) (size 15 to 20)
#    0.000    1.846    3.077    0.000    0.000    4.308 
#   11.077    6.923    0.000    0.000    0.000    0.000 
#    0.000    1.231    0.000    0.000    0.000    0.000 
#
# Total GULP energy -144775.195570 kJ/mol
# GULP energy per Si atom -5568.276753 kJ/mol
# Density = 2.482436 g / cm^3
# Si number density = 24.880992 Si / 1000 Ang^3
#
#
#
# Elastic Constant Matrix: (Units=GPa)
#
#
# Indices 1 2 3 4 5 6 
#
# 1 191.4688 38.4621 5.9403 0.0000 5.4907 0.0000
# 2 38.4621 79.9940 38.6241 0.0000 4.9042 0.0000
# 3 5.9403 38.6241 162.1323 0.0000 -15.2326 0.0000
# 4 0.0000 0.0000 0.0000 5.7023 0.0000 -23.3951
# 5 5.4907 4.9042 -15.2326 0.0000 37.0861 0.0000
# 6 0.0000 0.0000 0.0000 -23.3951 0.0000 35.8060
#
#
#
# Elastic Compliance Matrix: (Units=1/GPa)
#
#
# Indices 1 2 3 4 5 6 
#
# 1 0.005821 -0.003014 0.000480 0.000000 -0.000266 0.000000
# 2 -0.003014 0.016106 -0.004041 0.000000 -0.003343 0.000000
# 3 0.000480 -0.004041 0.007444 0.000000 0.003521 0.000000
# 4 0.000000 0.000000 0.000000 -0.104344 0.000000 -0.068177
# 5 -0.000266 -0.003343 0.003521 0.000000 0.028892 0.000000
# 6 0.000000 0.000000 0.000000 -0.068177 0.000000 -0.016617
#
#
# Mechanical properties :
#
#
# Convention : Reuss Voigt Hill
#
# Bulk Modulus (GPa) = 61.64929 66.62756 64.13842
# Shear Modulus (GPa) = -113.27021 39.09012 -37.09004
#
# Velocity S-wave (km/s) = -6.75453 3.96799 -3.86514
# Velocity P-wave (km/s) = 6.00000 6.91592 2.43206
#
# Compressibility (1/GPa) = 0.01622079
#
# Stress axis : x y z
#
# Youngs Moduli (GPa) = 171.79141 62.08842 134.34450
#
# Poissons Ratio (x) = 0.18714 -0.06445
# Poissons Ratio (y) = 0.51780 0.54282
# Poissons Ratio (z) = -0.08242 0.25087
#
# Static dielectric constant tensor:
#      x y z
#    x 2.883480 0.000000 0.463490 
#    y 0.000000 2.039680 0.000000 
#    z 0.463490 0.000000 2.219190 
# 
# From -- ./inp_files/57705.got.cif
#   From: 2010.05.17/outbox.cif.g08.bks.cpg/sg13_29_cif.got.tgz:57705.got - 2010.06.03 16:44:36.
