data_PCOD9231731
_publ_section_title
;
Structure prediction by ZEFSAII (Michael W. Deem and Ramdas Pophale) SiO2 
 PCOD9231731
Probable space group: P 2/C
;
_chemical_formula_sum "Si O2"
_cell_formula_units_Z 20
_cell_length_a 10.310326
_cell_length_b 8.280144
_cell_length_c 19.344388
_cell_angle_alpha 90.000000
_cell_angle_beta 143.985474
_cell_angle_gamma 90.000000
_cell_volume 971.036318
_symmetry_space_group_name_H-M "P 2/C"
_symmetry_group_IT_number 13
_symmetry_cell_setting 'monoclinic'
loop_
_space_group_symop_operation_xyz
x,y,z
-x,y,1/2-z
-x,-y,-z
x,-y,1/2+z
loop_
_atom_site_type_symbol
_atom_site_label
_atom_site_fract_x
_atom_site_fract_y
_atom_site_fract_z
Si Si1 0.616366 0.405086 0.224132
Si Si2 0.000000 0.149293 0.750000
Si Si3 0.500000 0.846198 0.250000
Si Si4 0.898298 0.353240 0.913009
Si Si5 0.317723 0.063256 0.292985
Si Si6 0.717834 0.253534 0.508557
O O1 0.500000 0.390725 0.250000
O O2 0.772033 0.559307 0.294751
O O3 0.749521 0.239488 0.266250
O O4 0.429747 0.402001 0.084184
O O5 0.141030 0.031625 0.761364
O O6 0.162985 0.255829 0.867142
O O7 0.299297 0.738516 0.134200
O O8 0.390523 0.954126 0.260849
O O9 0.090655 0.240299 0.966872
O O10 0.000000 0.500000 0.000000
O O11 0.542558 0.107896 0.431050
#
# Coordination Sequence:
#
# PCOD9231731 Si02
#       6
#     4   2   2   4   4   4
#     4  10  20  41  62  97 133 160 220 279 319 387
#     4  12  22  44  66  94 134 184 204 274 340 382
#     4  12  22  38  70 102 124 172 224 280 326 378
#     4  12  21  39  68  98 135 172 209 276 340 380
#     4  10  23  41  67  97 130 164 231 270 324 388
#     4  10  23  40  66  92 134 170 220 268 318 405
#
# _framework density 20.596551999999999
#
# number of rings (size 3 to 8) (size 9 to 14) (size 15 to 20)
#    1.200    0.000    6.000    0.600    0.000    2.400 
#    0.000    2.000    0.000    0.000    0.000    0.000 
#    0.000    0.000    0.000    0.000    0.000    0.000 
#
# Total GULP energy -111419.324930 kJ/mol
# GULP energy per Si atom -5570.966246 kJ/mol
# Density = 2.054967 g / cm^3
# Si number density = 20.596552 Si / 1000 Ang^3
#
#
#
# Elastic Constant Matrix: (Units=GPa)
#
#
# Indices 1 2 3 4 5 6 
#
# 1 83.0170 12.8624 11.6189 0.0000 7.9679 0.0000
# 2 12.8624 40.4745 12.2181 0.0000 3.1506 0.0000
# 3 11.6189 12.2181 98.1885 0.0000 -5.8073 0.0000
# 4 0.0000 0.0000 0.0000 -0.5278 0.0000 -6.5377
# 5 7.9679 3.1506 -5.8073 0.0000 33.2054 0.0000
# 6 0.0000 0.0000 0.0000 -6.5377 0.0000 10.4896
#
#
#
# Elastic Compliance Matrix: (Units=1/GPa)
#
#
# Indices 1 2 3 4 5 6 
#
# 1 0.013063 -0.003528 -0.001286 0.000000 -0.003025 0.000000
# 2 -0.003528 0.026928 -0.003066 0.000000 -0.002245 0.000000
# 3 -0.001286 -0.003066 0.010866 0.000000 0.002500 0.000000
# 4 0.000000 0.000000 0.000000 -0.217276 0.000000 -0.135419
# 5 -0.003025 -0.002245 0.002500 0.000000 0.031492 0.000000
# 6 0.000000 0.000000 0.000000 -0.135419 0.000000 0.010932
#
#
# Mechanical properties :
#
#
# Convention : Reuss Voigt Hill
#
# Bulk Modulus (GPa) = 28.49166 32.78653 30.63909
# Shear Modulus (GPa) = -51.79345 20.96548 -15.41398
#
# Velocity S-wave (km/s) = -5.02008 3.19393 -2.73862
# Velocity P-wave (km/s) = 4.44279 5.43642 2.21543
#
# Compressibility (1/GPa) = 0.03509799
#
# Stress axis : x y z
#
# Youngs Moduli (GPa) = 76.55486 37.13568 92.03003
#
# Poissons Ratio (x) = 0.13100 0.11832
# Poissons Ratio (y) = 0.27006 0.28218
# Poissons Ratio (z) = 0.09842 0.11386
#
# Static dielectric constant tensor:
#      x y z
#    x 1.711290 0.000000 0.002580 
#    y 0.000000 1.757230 0.000000 
#    z 0.002580 0.000000 1.807950 
# 
# From -- ./inp_files/75461.got.cif
#   From: 2010.05.17/outbox.cif.g08.bks.cpg/sg13_38_cif.got.tgz:75461.got - 2010.06.03 16:44:36.
