data_PCOD9231894
_publ_section_title
;
Structure prediction by ZEFSAII (Michael W. Deem and Ramdas Pophale) SiO2 
 PCOD9231894
Probable space group: P 2/C
;
_chemical_formula_sum "Si O2"
_cell_formula_units_Z 28
_cell_length_a 8.225984
_cell_length_b 11.645397
_cell_length_c 15.896392
_cell_angle_alpha 90.000000
_cell_angle_beta 61.684986
_cell_angle_gamma 90.000000
_cell_volume 1340.595065
_symmetry_space_group_name_H-M "P 2/C"
_symmetry_group_IT_number 13
_symmetry_cell_setting 'monoclinic'
loop_
_space_group_symop_operation_xyz
x,y,z
-x,y,1/2-z
-x,-y,-z
x,-y,1/2+z
loop_
_atom_site_type_symbol
_atom_site_label
_atom_site_fract_x
_atom_site_fract_y
_atom_site_fract_z
Si Si1 0.654672 0.031464 0.388361
Si Si2 0.000000 0.868611 0.250000
Si Si3 0.681395 0.557666 0.235003
Si Si4 0.059932 0.509066 0.581590
Si Si5 0.248677 0.752126 0.539122
Si Si6 0.797537 0.792290 0.137270
Si Si7 0.606664 0.385962 0.943109
Si Si8 0.500000 0.014170 0.750000
O O1 0.760789 0.145094 0.393142
O O2 0.500000 0.000000 0.500000
O O3 0.818196 0.939322 0.327066
O O4 0.553813 0.050039 0.322984
O O5 0.937557 0.799532 0.181651
O O6 0.500000 0.489631 0.250000
O O7 0.697287 0.669609 0.172115
O O8 0.652114 0.599625 0.335198
O O9 0.874745 0.496030 0.180587
O O10 0.156812 0.629271 0.579028
O O11 0.197113 0.401035 0.560144
O O12 0.000000 0.500000 0.500000
O O13 0.159859 0.793572 0.472378
O O14 0.468999 0.721183 0.482896
O O15 0.664969 0.900042 0.184544
O O16 0.500000 0.500000 0.000000
#
# Coordination Sequence:
#
# PCOD9231894 Si02
#       8
#     4   2   4   4   4   4   4   2
#     4  11  24  46  73  98 139 188 229 299 363 420
#     4  10  28  42  66 110 138 172 244 290 356 430
#     4  12  21  37  66  95 129 175 218 286 345 403
#     4  11  23  40  62  98 136 169 220 288 348 422
#     4  11  22  44  69  96 138 182 230 283 360 423
#     4  11  20  39  68  99 130 168 228 298 340 406
#     4  10  22  40  62  91 127 170 223 276 331 416
#     4  10  20  42  68 102 136 172 242 292 350 428
#
# _framework density 20.886247999999998
#
# number of rings (size 3 to 8) (size 9 to 14) (size 15 to 20)
#    0.000    1.143    5.000    1.286    4.000    0.571 
#    5.143    0.000    6.286    0.000    0.000    0.000 
#    0.000    0.000    0.000    0.000    0.000    0.000 
#
# Total GULP energy -156073.482740 kJ/mol
# GULP energy per Si atom -5574.052955 kJ/mol
# Density = 2.083871 g / cm^3
# Si number density = 20.886248 Si / 1000 Ang^3
#
#
#
# Elastic Constant Matrix: (Units=GPa)
#
#
# Indices 1 2 3 4 5 6 
#
# 1 143.3173 30.5221 35.5528 0.0000 13.3011 0.0000
# 2 30.5221 69.3294 28.9078 0.0000 3.1932 0.0000
# 3 35.5528 28.9078 75.1702 0.0000 4.7979 0.0000
# 4 0.0000 0.0000 0.0000 31.3153 0.0000 5.5045
# 5 13.3011 3.1932 4.7979 0.0000 46.1717 0.0000
# 6 0.0000 0.0000 0.0000 5.5045 0.0000 40.1839
#
#
#
# Elastic Compliance Matrix: (Units=1/GPa)
#
#
# Indices 1 2 3 4 5 6 
#
# 1 0.008392 -0.002384 -0.002928 0.000000 -0.001949 0.000000
# 2 -0.002384 0.017867 -0.005747 0.000000 0.000048 0.000000
# 3 -0.002928 -0.005747 0.016931 0.000000 -0.000518 0.000000
# 4 0.000000 0.000000 0.000000 0.032721 0.000000 -0.004482
# 5 -0.001949 0.000048 -0.000518 0.000000 0.022270 0.000000
# 6 0.000000 0.000000 0.000000 -0.004482 0.000000 0.025500
#
#
# Mechanical properties :
#
#
# Convention : Reuss Voigt Hill
#
# Bulk Modulus (GPa) = 47.45364 53.08693 50.27028
# Shear Modulus (GPa) = 32.71737 36.38980 34.55359
#
# Velocity S-wave (km/s) = 3.96214 4.17860 4.07181
# Velocity P-wave (km/s) = 6.61066 6.98235 6.79904
#
# Compressibility (1/GPa) = 0.02107320
#
# Stress axis : x y z
#
# Youngs Moduli (GPa) = 119.15419 55.96787 59.06292
#
# Poissons Ratio (x) = 0.13343 0.17294
# Poissons Ratio (y) = 0.28408 0.33941
# Poissons Ratio (z) = 0.34890 0.32163
#
# Static dielectric constant tensor:
#      x y z
#    x 1.867510 0.000000 -0.110680 
#    y 0.000000 1.739430 0.000000 
#    z -0.110680 0.000000 1.875900 
# 
# From -- ./inp_files/47180.got.cif
#   From: 2010.05.17/outbox.cif.g08.bks.cpg/sg13_24_cif.got.tgz:47180.got - 2010.06.03 16:44:36.
