data_PCOD9231151
_publ_section_title
;
Structure prediction by ZEFSAII (Michael W. Deem and Ramdas Pophale) SiO2 
 PCOD9231151
Probable space group: P 2/C
;
_chemical_formula_sum "Si O2"
_cell_formula_units_Z 30
_cell_length_a 12.922247
_cell_length_b 18.517066
_cell_length_c 12.862536
_cell_angle_alpha 90.000000
_cell_angle_beta 156.476119
_cell_angle_gamma 90.000000
_cell_volume 1228.436088
_symmetry_space_group_name_H-M "P 2/C"
_symmetry_group_IT_number 13
_symmetry_cell_setting 'monoclinic'
loop_
_space_group_symop_operation_xyz
x,y,z
-x,y,1/2-z
-x,-y,-z
x,-y,1/2+z
loop_
_atom_site_type_symbol
_atom_site_label
_atom_site_fract_x
_atom_site_fract_y
_atom_site_fract_z
Si Si1 0.393325 0.588162 0.462736
Si Si2 0.000000 0.442430 0.750000
Si Si3 0.307135 0.933818 0.837023
Si Si4 0.829105 0.785797 0.199239
Si Si5 0.281805 0.282226 0.248478
Si Si6 0.713192 0.201379 0.035197
Si Si7 0.986506 0.062965 0.859704
Si Si8 0.652027 0.548216 0.294899
O O1 0.196193 0.609998 0.371114
O O2 0.655988 0.633296 0.706191
O O3 0.271921 0.593571 0.235760
O O4 0.449179 0.507114 0.554453
O O5 0.865821 0.496276 0.542941
O O6 0.355987 0.871685 0.964487
O O7 0.230723 0.909800 0.650977
O O8 0.060948 0.979900 0.653310
O O9 0.500000 0.000000 0.000000
O O10 0.793619 0.869808 0.202629
O O11 0.000000 0.785198 0.250000
O O12 0.017373 0.746094 0.455025
O O13 0.541126 0.752825 0.935029
O O14 0.285517 0.261729 0.373575
O O15 0.000000 0.195683 0.250000
O O16 0.500000 0.213704 0.750000
O O17 0.000000 0.060793 0.750000
O O18 0.500000 0.585691 0.250000
#
# Coordination Sequence:
#
# PCOD9231151 Si02
#       8
#     4   2   4   4   4   4   4   4
#     4  10  23  39  69  98 142 181 236 295 351 432
#     4  10  20  38  66 102 140 182 230 292 372 422
#     4  11  24  40  70 100 136 177 234 299 363 430
#     4  11  25  45  69 101 144 185 227 295 364 427
#     4  12  26  47  70 103 142 188 246 287 353 432
#     4  12  28  49  74  99 145 198 244 299 366 435
#     4  10  23  41  64  97 133 174 230 287 358 419
#     4   9  20  41  65 101 139 180 230 294 359 418
#
# _framework density 24.421295000000001
#
# number of rings (size 3 to 8) (size 9 to 14) (size 15 to 20)
#    0.000    1.333    1.333    2.800    8.400    2.667 
#    0.000    0.000    7.333    0.000    0.000    0.000 
#    0.000    0.000    0.000    0.000    0.000    0.000 
#
# Total GULP energy -167513.421330 kJ/mol
# GULP energy per Si atom -5583.780711 kJ/mol
# Density = 2.436571 g / cm^3
# Si number density = 24.421295 Si / 1000 Ang^3
#
#
#
# Elastic Constant Matrix: (Units=GPa)
#
#
# Indices 1 2 3 4 5 6 
#
# 1 118.3911 12.6472 38.8558 0.0000 -10.3884 0.0000
# 2 12.6472 40.9440 -0.6811 0.0000 -2.9172 0.0000
# 3 38.8558 -0.6811 101.8690 0.0000 -13.2634 0.0000
# 4 0.0000 0.0000 0.0000 30.4305 0.0000 4.1181
# 5 -10.3884 -2.9172 -13.2634 0.0000 45.2874 0.0000
# 6 0.0000 0.0000 0.0000 4.1181 0.0000 19.6812
#
#
#
# Elastic Compliance Matrix: (Units=1/GPa)
#
#
# Indices 1 2 3 4 5 6 
#
# 1 0.010095 -0.003108 -0.003738 0.000000 0.001021 0.000000
# 2 -0.003108 0.025507 0.001536 0.000000 0.001380 0.000000
# 3 -0.003738 0.001536 0.011596 0.000000 0.002638 0.000000
# 4 0.000000 0.000000 0.000000 0.033819 0.000000 -0.007076
# 5 0.001021 0.001380 0.002638 0.000000 0.023177 0.000000
# 6 0.000000 0.000000 0.000000 -0.007076 0.000000 0.052291
#
#
# Mechanical properties :
#
#
# Convention : Reuss Voigt Hill
#
# Bulk Modulus (GPa) = 27.33924 40.31643 33.82784
# Shear Modulus (GPa) = 27.88636 33.10529 30.49583
#
# Velocity S-wave (km/s) = 3.38285 3.68583 3.53758
# Velocity P-wave (km/s) = 5.14562 5.88713 5.52882
#
# Compressibility (1/GPa) = 0.03657746
#
# Stress axis : x y z
#
# Youngs Moduli (GPa) = 99.05816 39.20430 86.23545
#
# Poissons Ratio (x) = 0.12184 0.32239
# Poissons Ratio (y) = 0.30785 -0.13242
# Poissons Ratio (z) = 0.37032 -0.06020
#
# Static dielectric constant tensor:
#      x y z
#    x 1.880900 0.000000 -0.450850 
#    y 0.000000 2.051540 0.000000 
#    z -0.450850 0.000000 0.594520 
# 
# From -- ./inp_files/34885.got.cif
#   From: 2010.05.17/outbox.cif.g08.bks.cpg/sg13_18_cif.got.tgz:34885.got - 2010.06.03 16:44:36.
