data_PCOD9231473
_publ_section_title
;
Structure prediction by ZEFSAII (Michael W. Deem and Ramdas Pophale) SiO2 
 PCOD9231473
Probable space group: P 2/C
;
_chemical_formula_sum "Si O2"
_cell_formula_units_Z 28
_cell_length_a 17.651615
_cell_length_b 8.661658
_cell_length_c 20.372457
_cell_angle_alpha 90.000000
_cell_angle_beta 155.605578
_cell_angle_gamma 90.000000
_cell_volume 1286.457731
_symmetry_space_group_name_H-M "P 2/C"
_symmetry_group_IT_number 13
_symmetry_cell_setting 'monoclinic'
loop_
_space_group_symop_operation_xyz
x,y,z
-x,y,1/2-z
-x,-y,-z
x,-y,1/2+z
loop_
_atom_site_type_symbol
_atom_site_label
_atom_site_fract_x
_atom_site_fract_y
_atom_site_fract_z
Si Si1 0.350528 0.190422 0.997197
Si Si2 0.500000 0.185327 0.250000
Si Si3 0.000000 0.400078 0.750000
Si Si4 0.139123 0.768493 0.098505
Si Si5 0.882085 0.076552 0.496175
Si Si6 0.361285 0.636245 0.379064
Si Si7 0.142729 0.905524 0.803367
Si Si8 0.043727 0.407706 0.164443
O O1 0.163163 0.286564 0.858931
O O2 0.413741 0.238071 0.974865
O O3 0.310318 0.007235 0.963191
O O4 0.474705 0.247517 0.155638
O O5 0.704518 0.113467 0.400282
O O6 0.938884 0.513020 0.642671
O O7 0.322904 0.711382 0.278919
O O8 0.172691 0.936355 0.094345
O O9 0.974377 0.794822 0.021892
O O10 0.075532 0.658217 0.989234
O O11 0.043600 0.013274 0.670653
O O12 0.500000 0.500000 0.500000
O O13 0.171333 0.545256 0.241311
O O14 0.162475 0.737122 0.786356
O O15 0.000000 0.885273 0.750000
#
# Coordination Sequence:
#
# PCOD9231473 Si02
#       8
#     4   2   2   4   4   4   4   4
#     4  11  23  38  64  85 130 166 212 266 317 390
#     4  12  24  36  62 102 122 160 218 276 320 368
#     4  10  20  40  58  92 120 170 206 260 322 386
#     4  10  22  43  65  90 130 174 212 262 327 403
#     4  10  22  39  65  99 126 163 219 268 325 383
#     4  11  25  43  59  93 131 171 210 266 326 387
#     4  11  18  40  65  92 118 165 210 259 317 386
#     4  10  23  37  68  92 122 163 218 259 317 390
#
# _framework density 21.765193
#
# number of rings (size 3 to 8) (size 9 to 14) (size 15 to 20)
#    0.000    1.429    4.286    0.429    4.000    2.286 
#    0.000    1.429    0.000    0.857    0.000    0.000 
#    0.000    0.000    0.000    0.000    0.000    0.000 
#
# Total GULP energy -156069.306253 kJ/mol
# GULP energy per Si atom -5573.903795 kJ/mol
# Density = 2.171565 g / cm^3
# Si number density = 21.765193 Si / 1000 Ang^3
#
#
#
# Elastic Constant Matrix: (Units=GPa)
#
#
# Indices 1 2 3 4 5 6 
#
# 1 63.4427 16.6752 13.4475 0.0000 -28.0045 0.0000
# 2 16.6752 75.1845 16.7084 0.0000 -21.2219 0.0000
# 3 13.4475 16.7084 58.2413 0.0000 -36.3178 0.0000
# 4 0.0000 0.0000 0.0000 23.6370 0.0000 -12.7051
# 5 -28.0045 -21.2219 -36.3178 0.0000 45.9253 0.0000
# 6 0.0000 0.0000 0.0000 -12.7051 0.0000 31.5056
#
#
#
# Elastic Compliance Matrix: (Units=1/GPa)
#
#
# Indices 1 2 3 4 5 6 
#
# 1 0.022940 -0.001303 0.006756 0.000000 0.018729 0.000000
# 2 -0.001303 0.015370 -0.000345 0.000000 0.006035 0.000000
# 3 0.006756 -0.000345 0.035864 0.000000 0.032321 0.000000
# 4 0.000000 0.000000 0.000000 0.054015 0.000000 0.021782
# 5 0.018729 0.006035 0.032321 0.000000 0.061544 0.000000
# 6 0.000000 0.000000 0.000000 0.021782 0.000000 0.040524
#
#
# Mechanical properties :
#
#
# Convention : Reuss Voigt Hill
#
# Bulk Modulus (GPa) = 11.84984 32.28121 22.06553
# Shear Modulus (GPa) = 20.14747 30.21606 25.18176
#
# Velocity S-wave (km/s) = 3.04579 3.73000 3.40512
# Velocity P-wave (km/s) = 4.22201 5.78051 5.06160
#
# Compressibility (1/GPa) = 0.08438931
#
# Stress axis : x y z
#
# Youngs Moduli (GPa) = 43.59216 65.06315 27.88320
#
# Poissons Ratio (x) = 0.08476 -0.18838
# Poissons Ratio (y) = 0.05679 0.00963
# Poissons Ratio (z) = -0.29451 0.02247
#
# Static dielectric constant tensor:
#      x y z
#    x 1.868260 0.000000 -0.012470 
#    y 0.000000 1.816700 0.000000 
#    z -0.012470 0.000000 1.830910 
# 
# From -- ./inp_files/88562.got.cif
#   From: 2010.05.17/outbox.cif.g08.bks.cpg/sg13_45_cif.got.tgz:88562.got - 2010.06.03 16:44:36.
