data_PCOD9231662
_publ_section_title
;
Structure prediction by ZEFSAII (Michael W. Deem and Ramdas Pophale) SiO2 
 PCOD9231662
Probable space group: P 2/C
;
_chemical_formula_sum "Si O2"
_cell_formula_units_Z 28
_cell_length_a 23.676613
_cell_length_b 9.177534
_cell_length_c 26.277864
_cell_angle_alpha 90.000000
_cell_angle_beta 15.315678
_cell_angle_gamma 90.000000
_cell_volume 1508.220493
_symmetry_space_group_name_H-M "P 2/C"
_symmetry_group_IT_number 13
_symmetry_cell_setting 'monoclinic'
loop_
_space_group_symop_operation_xyz
x,y,z
-x,y,1/2-z
-x,-y,-z
x,-y,1/2+z
loop_
_atom_site_type_symbol
_atom_site_label
_atom_site_fract_x
_atom_site_fract_y
_atom_site_fract_z
Si Si1 0.523817 0.480725 0.330481
Si Si2 0.128827 0.028153 0.960085
Si Si3 0.587416 0.384175 0.964282
Si Si4 0.932271 0.699776 0.451036
Si Si5 0.337827 0.079993 0.179270
Si Si6 0.172387 0.461508 0.556778
Si Si7 0.331136 0.261565 0.855609
O O1 0.407590 0.456530 0.484348
O O2 0.387106 0.421756 0.401355
O O3 0.555369 0.649009 0.288599
O O4 0.751171 0.399143 0.135044
O O5 0.101307 0.867110 0.006656
O O6 0.300412 0.006596 0.765006
O O7 0.902121 0.083312 0.134955
O O8 0.198747 0.137040 0.943677
O O9 0.828596 0.341054 0.740496
O O10 0.500000 0.500000 0.000000
O O11 0.438200 0.240907 0.098265
O O12 0.901251 0.661857 0.418450
O O13 0.500000 0.000000 0.000000
O O14 0.208387 0.609078 0.492710
O O15 0.000000 0.488639 0.750000
O O16 0.500000 0.202957 0.750000
#
# Coordination Sequence:
#
# PCOD9231662 Si02
#       7
#     4   4   4   4   4   4   4
#     4  10  22  42  62  92 130 160 209 267 307 372
#     4  11  24  43  65  89 134 168 204 263 314 385
#     4  12  26  39  65  98 121 167 220 260 309 379
#     4  11  22  41  63  94 125 167 210 254 322 368
#     4  11  25  44  61  91 132 170 209 254 320 370
#     4  10  20  40  68  92 127 164 209 264 317 368
#     4   9  22  41  64  95 124 167 206 257 321 370
#
# _framework density 18.564924999999999
#
# number of rings (size 3 to 8) (size 9 to 14) (size 15 to 20)
#    0.000    1.429    4.286    1.286    6.000    1.714 
#    2.571    0.714    0.000    0.000    0.000    0.000 
#    0.000    0.000    0.000    0.000    0.000    0.000 
#
# Total GULP energy -156230.303441 kJ/mol
# GULP energy per Si atom -5579.653694 kJ/mol
# Density = 1.852267 g / cm^3
# Si number density = 18.564925 Si / 1000 Ang^3
#
#
#
# Elastic Constant Matrix: (Units=GPa)
#
#
# Indices 1 2 3 4 5 6 
#
# 1 98.9570 48.8282 36.4798 0.0000 2.1500 0.0000
# 2 48.8282 58.3819 32.7588 0.0000 -7.5831 0.0000
# 3 36.4798 32.7588 101.2106 0.0000 0.9701 0.0000
# 4 0.0000 0.0000 0.0000 22.8655 0.0000 -6.3372
# 5 2.1500 -7.5831 0.9701 0.0000 39.2694 0.0000
# 6 0.0000 0.0000 0.0000 -6.3372 0.0000 30.8870
#
#
#
# Elastic Compliance Matrix: (Units=1/GPa)
#
#
# Indices 1 2 3 4 5 6 
#
# 1 0.018027 -0.014590 -0.001739 0.000000 -0.003761 0.000000
# 2 -0.014590 0.033458 -0.005641 0.000000 0.007399 0.000000
# 3 -0.001739 -0.005641 0.012346 0.000000 -0.001299 0.000000
# 4 0.000000 0.000000 0.000000 0.046371 0.000000 0.009514
# 5 -0.003761 0.007399 -0.001299 0.000000 0.027132 0.000000
# 6 0.000000 0.000000 0.000000 0.009514 0.000000 0.034328
#
#
# Mechanical properties :
#
#
# Convention : Reuss Voigt Hill
#
# Bulk Modulus (GPa) = 50.27833 54.96479 52.62156
# Shear Modulus (GPa) = 22.49893 27.96988 25.23441
#
# Velocity S-wave (km/s) = 3.48502 3.88570 3.69080
# Velocity P-wave (km/s) = 6.58294 7.05710 6.82414
#
# Compressibility (1/GPa) = 0.01988928
#
# Stress axis : x y z
#
# Youngs Moduli (GPa) = 55.47103 29.88865 80.99998
#
# Poissons Ratio (x) = 0.43608 0.14088
# Poissons Ratio (y) = 0.80932 0.45695
# Poissons Ratio (z) = 0.09648 0.16861
#
# Static dielectric constant tensor:
#      x y z
#    x 1.647310 0.000000 -0.000420 
#    y 0.000000 1.616720 0.000000 
#    z -0.000420 0.000000 1.685440 
# 
# From -- ./inp_files/88457.got.cif
#   From: 2010.05.17/outbox.cif.g08.bks.cpg/sg13_45_cif.got.tgz:88457.got - 2010.06.03 16:44:36.
