data_PCOD9231490
_publ_section_title
;
Structure prediction by ZEFSAII (Michael W. Deem and Ramdas Pophale) SiO2 
 PCOD9231490
Probable space group: P 2/C
;
_chemical_formula_sum "Si O2"
_cell_formula_units_Z 24
_cell_length_a 22.678231
_cell_length_b 10.299655
_cell_length_c 16.193340
_cell_angle_alpha 90.000000
_cell_angle_beta 161.790976
_cell_angle_gamma 90.000000
_cell_volume 1181.943765
_symmetry_space_group_name_H-M "P 2/C"
_symmetry_group_IT_number 13
_symmetry_cell_setting 'monoclinic'
loop_
_space_group_symop_operation_xyz
x,y,z
-x,y,1/2-z
-x,-y,-z
x,-y,1/2+z
loop_
_atom_site_type_symbol
_atom_site_label
_atom_site_fract_x
_atom_site_fract_y
_atom_site_fract_z
Si Si1 0.996164 0.632239 0.046797
Si Si2 0.215244 0.655802 0.572539
Si Si3 0.860800 0.225087 0.218394
Si Si4 0.000000 0.917875 0.750000
Si Si5 0.500000 0.036899 0.750000
Si Si6 0.313440 0.495974 0.055791
Si Si7 0.607712 0.930868 0.719333
O O1 0.827296 0.628652 0.888195
O O2 0.967295 0.749914 0.946014
O O3 0.000000 0.500000 0.000000
O O4 0.191912 0.622998 0.355768
O O5 0.312925 0.539599 0.651579
O O6 0.346750 0.780952 0.737507
O O7 0.000000 0.675407 0.250000
O O8 0.991259 0.167930 0.320701
O O9 0.683517 0.130055 0.995370
O O10 0.787011 0.365533 0.089820
O O11 0.812941 0.003121 0.499238
O O12 0.509144 0.955659 0.676954
O O13 0.500000 0.502888 0.250000
O O14 0.500000 0.000000 0.500000
#
# Coordination Sequence:
#
# PCOD9231490 Si02
#       7
#     4   4   4   2   2   4   4
#     4   9  20  36  59  86 117 157 200 244 307 376
#     4  10  21  39  60  85 127 158 203 256 310 374
#     4  10  20  40  60  86 123 152 212 247 319 360
#     4  10  24  40  64  90 118 172 206 258 308 388
#     4  10  22  40  64  90 122 164 204 270 302 388
#     4  10  21  36  60  89 120 158 197 259 312 365
#     4  11  23  43  64  91 128 165 216 259 319 365
#
# _framework density 20.305534999999999
#
# number of rings (size 3 to 8) (size 9 to 14) (size 15 to 20)
#    0.000    2.000    1.667    1.000    7.000    1.333 
#    3.000    5.833    0.000    0.000    0.000    0.000 
#    0.000    0.000    0.000    0.000    0.000    0.000 
#
# Total GULP energy -133894.824654 kJ/mol
# GULP energy per Si atom -5578.951027 kJ/mol
# Density = 2.025932 g / cm^3
# Si number density = 20.305535 Si / 1000 Ang^3
#
#
#
# Elastic Constant Matrix: (Units=GPa)
#
#
# Indices 1 2 3 4 5 6 
#
# 1 154.2408 42.3607 -2.0247 0.0000 1.4576 0.0000
# 2 42.3607 64.1929 -1.6885 0.0000 9.7982 0.0000
# 3 -2.0247 -1.6885 7.0894 0.0000 -0.5230 0.0000
# 4 0.0000 0.0000 0.0000 -55.6460 0.0000 28.7677
# 5 1.4576 9.7982 -0.5230 0.0000 24.1402 0.0000
# 6 0.0000 0.0000 0.0000 28.7677 0.0000 22.6527
#
#
#
# Elastic Compliance Matrix: (Units=1/GPa)
#
#
# Indices 1 2 3 4 5 6 
#
# 1 0.007997 -0.005520 0.001101 0.000000 0.001782 0.000000
# 2 -0.005520 0.020503 0.002722 0.000000 -0.007930 0.000000
# 3 0.001101 0.002722 0.142160 0.000000 0.001909 0.000000
# 4 0.000000 0.000000 0.000000 -0.010848 0.000000 0.013777
# 5 0.001782 -0.007930 0.001909 0.000000 0.044577 0.000000
# 6 0.000000 0.000000 0.000000 0.013777 0.000000 0.026649
#
#
# Mechanical properties :
#
#
# Convention : Reuss Voigt Hill
#
# Bulk Modulus (GPa) = 5.97857 33.64644 19.81251
# Shear Modulus (GPa) = 17.23021 10.68773 13.95897
#
# Velocity S-wave (km/s) = 2.91614 2.29671 2.62477
# Velocity P-wave (km/s) = 3.78011 4.86202 4.35479
#
# Compressibility (1/GPa) = 0.16726394
#
# Stress axis : x y z
#
# Youngs Moduli (GPa) = 125.04611 48.77396 7.03433
#
# Poissons Ratio (x) = 0.26924 -0.00774
# Poissons Ratio (y) = 0.69028 -0.01915
# Poissons Ratio (z) = -0.13762 -0.13275
#
# Static dielectric constant tensor:
#      x y z
#    x 1.777160 0.000000 -0.065970 
#    y 0.000000 1.695950 0.000000 
#    z -0.065970 0.000000 1.753660 
# 
# From -- ./inp_files/53596.got.cif
#   From: 2010.05.17/outbox.cif.g08.bks.cpg/sg13_27_cif.got.tgz:53596.got - 2010.06.03 16:44:36.
