data_PCOD9231309
_publ_section_title
;
Structure prediction by ZEFSAII (Michael W. Deem and Ramdas Pophale) SiO2 
 PCOD9231309
Probable space group: P 2/C
;
_chemical_formula_sum "Si O2"
_cell_formula_units_Z 30
_cell_length_a 11.299296
_cell_length_b 12.167280
_cell_length_c 12.975650
_cell_angle_alpha 90.000000
_cell_angle_beta 61.813364
_cell_angle_gamma 90.000000
_cell_volume 1572.366498
_symmetry_space_group_name_H-M "P 2/C"
_symmetry_group_IT_number 13
_symmetry_cell_setting 'monoclinic'
loop_
_space_group_symop_operation_xyz
x,y,z
-x,y,1/2-z
-x,-y,-z
x,-y,1/2+z
loop_
_atom_site_type_symbol
_atom_site_label
_atom_site_fract_x
_atom_site_fract_y
_atom_site_fract_z
Si Si1 0.720116 0.761872 0.528888
Si Si2 0.861054 0.111485 0.501059
Si Si3 0.553973 0.181286 0.612305
Si Si4 0.505476 0.626573 0.525229
Si Si5 0.000000 0.220476 0.250000
Si Si6 0.278106 0.248906 0.227939
Si Si7 0.485178 0.936962 0.631784
Si Si8 0.957467 0.889337 0.381685
O O1 0.648001 0.654059 0.517281
O O2 0.743895 0.756438 0.641182
O O3 0.609491 0.857338 0.553581
O O4 0.858716 0.786526 0.415609
O O5 0.713833 0.161060 0.550651
O O6 0.958968 0.156501 0.371358
O O7 0.919808 0.130510 0.590919
O O8 0.867468 0.981546 0.476318
O O9 0.500000 0.196176 0.750000
O O10 0.517910 0.287600 0.559443
O O11 0.495081 0.064163 0.594189
O O12 0.500000 0.500000 0.500000
O O13 0.390614 0.662167 0.653521
O O14 0.859301 0.274904 0.274808
O O15 0.347016 0.130823 0.167754
O O16 0.500000 0.944648 0.750000
O O17 0.000000 0.923673 0.250000
#
# Coordination Sequence:
#
# PCOD9231309 Si02
#       8
#     4   4   4   4   2   4   4   4
#     4  10  20  39  62  90 125 167 203 261 317 392
#     4  11  23  38  58  98 136 174 213 247 317 402
#     4  11  23  38  61  91 131 165 203 268 322 382
#     4  11  25  42  64  89 119 165 226 273 317 373
#     4  12  20  38  64  90 128 172 212 258 310 392
#     4  10  21  39  66  93 122 163 214 263 320 396
#     4   8  17  33  57  89 121 153 199 241 312 385
#     4  11  23  36  60  93 140 177 200 251 323 402
#
# _framework density 19.079522000000001
#
# number of rings (size 3 to 8) (size 9 to 14) (size 15 to 20)
#    0.000    1.600    4.667    1.200    1.867    4.267 
#    0.000    0.000    1.467    1.600    0.000    0.000 
#    0.000    0.000    0.000    0.000    0.000    0.000 
#
# Total GULP energy -167411.488797 kJ/mol
# GULP energy per Si atom -5580.382960 kJ/mol
# Density = 1.903610 g / cm^3
# Si number density = 19.079522 Si / 1000 Ang^3
#
#
#
# Elastic Constant Matrix: (Units=GPa)
#
#
# Indices 1 2 3 4 5 6 
#
# 1 121.0858 32.5453 31.3785 0.0000 4.8258 0.0000
# 2 32.5453 97.6389 16.3125 0.0000 1.9878 0.0000
# 3 31.3785 16.3125 78.4806 0.0000 6.3711 0.0000
# 4 0.0000 0.0000 0.0000 9.0658 0.0000 9.7405
# 5 4.8258 1.9878 6.3711 0.0000 33.2145 0.0000
# 6 0.0000 0.0000 0.0000 9.7405 0.0000 16.5612
#
#
#
# Elastic Compliance Matrix: (Units=1/GPa)
#
#
# Indices 1 2 3 4 5 6 
#
# 1 0.009879 -0.002723 -0.003333 0.000000 -0.000633 0.000000
# 2 -0.002723 0.011363 -0.001270 0.000000 -0.000041 0.000000
# 3 -0.003333 -0.001270 0.014519 0.000000 -0.002225 0.000000
# 4 0.000000 0.000000 0.000000 0.299671 0.000000 -0.176251
# 5 -0.000633 -0.000041 -0.002225 0.000000 0.030629 0.000000
# 6 0.000000 0.000000 0.000000 -0.176251 0.000000 0.164044
#
#
# Mechanical properties :
#
#
# Convention : Reuss Voigt Hill
#
# Bulk Modulus (GPa) = 47.37121 50.85311 49.11216
# Shear Modulus (GPa) = 9.06139 26.23290 17.64714
#
# Velocity S-wave (km/s) = 2.18165 3.71202 3.04456
# Velocity P-wave (km/s) = 5.58823 6.71440 6.17704
#
# Compressibility (1/GPa) = 0.02110987
#
# Stress axis : x y z
#
# Youngs Moduli (GPa) = 101.22023 88.00865 68.87547
#
# Poissons Ratio (x) = 0.23968 0.22953
# Poissons Ratio (y) = 0.27566 0.08744
# Poissons Ratio (z) = 0.33733 0.11173
#
# Static dielectric constant tensor:
#      x y z
#    x 1.698130 0.000000 0.030000 
#    y 0.000000 1.657050 0.000000 
#    z 0.030000 0.000000 1.710070 
# 
# From -- ./inp_files/51165.got.cif
#   From: 2010.05.17/outbox.cif.g08.bks.cpg/sg13_26_cif.got.tgz:51165.got - 2010.06.03 16:44:36.
