data_PCOD9231893
_publ_section_title
;
Structure prediction by ZEFSAII (Michael W. Deem and Ramdas Pophale) SiO2 
 PCOD9231893
Probable space group: P 2/C
;
_chemical_formula_sum "Si O2"
_cell_formula_units_Z 28
_cell_length_a 30.558133
_cell_length_b 8.796841
_cell_length_c 31.004112
_cell_angle_alpha 90.000000
_cell_angle_beta 9.387447
_cell_angle_gamma 90.000000
_cell_volume 1359.417748
_symmetry_space_group_name_H-M "P 2/C"
_symmetry_group_IT_number 13
_symmetry_cell_setting 'monoclinic'
loop_
_space_group_symop_operation_xyz
x,y,z
-x,y,1/2-z
-x,-y,-z
x,-y,1/2+z
loop_
_atom_site_type_symbol
_atom_site_label
_atom_site_fract_x
_atom_site_fract_y
_atom_site_fract_z
Si Si1 0.725646 0.569187 0.249845
Si Si2 0.762979 0.100886 0.748465
Si Si3 0.995389 0.847269 0.117285
Si Si4 0.500000 0.944626 0.250000
Si Si5 0.184703 0.502558 0.936070
Si Si6 0.463976 0.998939 0.881846
Si Si7 0.285218 0.648377 0.556603
Si Si8 0.000000 0.269825 0.250000
O O1 0.500000 0.500000 0.500000
O O2 0.725336 0.748691 0.257015
O O3 0.716840 0.526776 0.208466
O O4 0.000000 0.500000 0.000000
O O5 0.848260 0.145557 0.714034
O O6 0.000000 0.000000 0.500000
O O7 0.500000 0.000000 0.000000
O O8 0.102421 0.677496 0.020953
O O9 0.772917 0.899250 0.367726
O O10 0.253847 0.957754 0.870026
O O11 0.514782 0.030473 0.190161
O O12 0.238482 0.837955 0.501307
O O13 0.447090 0.451979 0.707213
O O14 0.922667 0.404065 0.204113
O O15 0.381961 0.176349 0.967675
O O16 0.118819 0.638020 0.674187
#
# Coordination Sequence:
#
# PCOD9231893 Si02
#       8
#     4   4   4   2   4   4   4   2
#     4  12  26  48  69  94 135 189 224 267 339 415
#     4  12  28  46  68 100 137 176 229 286 336 388
#     4  12  26  45  66 101 142 178 217 285 343 395
#     4  10  20  42  68 102 134 176 218 274 340 404
#     4  12  26  44  69 100 139 179 227 273 344 405
#     4  11  24  43  73 100 134 176 229 278 333 401
#     4  11  24  43  72 103 130 179 225 279 326 410
#     4  10  20  42  70 102 140 166 224 280 338 386
#
# _framework density 20.597054
#
# number of rings (size 3 to 8) (size 9 to 14) (size 15 to 20)
#    0.000    0.571    1.429    7.714    8.000    0.000 
#    0.000    2.857    0.000    1.714    0.000    0.000 
#    0.000    0.000    0.000    0.000    0.000    0.000 
#
# Total GULP energy -156694.840988 kJ/mol
# GULP energy per Si atom -5596.244321 kJ/mol
# Density = 2.055017 g / cm^3
# Si number density = 20.597054 Si / 1000 Ang^3
#
#
#
# Elastic Constant Matrix: (Units=GPa)
#
#
# Indices 1 2 3 4 5 6 
#
# 1 78.9190 26.7720 33.1514 0.0000 0.5148 0.0000
# 2 26.7720 91.0821 46.7990 0.0000 5.9335 0.0000
# 3 33.1514 46.7990 175.5799 0.0000 2.6963 0.0000
# 4 0.0000 0.0000 0.0000 42.6206 0.0000 5.7093
# 5 0.5148 5.9335 2.6963 0.0000 47.3717 0.0000
# 6 0.0000 0.0000 0.0000 5.7093 0.0000 30.5415
#
#
#
# Elastic Compliance Matrix: (Units=1/GPa)
#
#
# Indices 1 2 3 4 5 6 
#
# 1 0.014591 -0.003353 -0.001867 0.000000 0.000368 0.000000
# 2 -0.003353 0.013586 -0.002965 0.000000 -0.001496 0.000000
# 3 -0.001867 -0.002965 0.006838 0.000000 0.000002 0.000000
# 4 0.000000 0.000000 0.000000 0.024065 0.000000 -0.004499
# 5 0.000368 -0.001496 0.000002 0.000000 0.021293 0.000000
# 6 0.000000 0.000000 0.000000 -0.004499 0.000000 0.033583
#
#
# Mechanical properties :
#
#
# Convention : Reuss Voigt Hill
#
# Bulk Modulus (GPa) = 53.63618 62.11399 57.87508
# Shear Modulus (GPa) = 36.61901 40.03067 38.32484
#
# Velocity S-wave (km/s) = 4.22106 4.41331 4.31826
# Velocity P-wave (km/s) = 7.06072 7.49613 7.28168
#
# Compressibility (1/GPa) = 0.01864413
#
# Stress axis : x y z
#
# Youngs Moduli (GPa) = 68.53743 73.60662 146.23927
#
# Poissons Ratio (x) = 0.24684 0.27298
# Poissons Ratio (y) = 0.22984 0.43360
# Poissons Ratio (z) = 0.12794 0.21824
#
# Static dielectric constant tensor:
#      x y z
#    x 1.775630 0.000000 0.012350 
#    y 0.000000 1.699550 0.000000 
#    z 0.012350 0.000000 1.712360 
# 
# From -- ./inp_files/97993.got.cif
#   From: 2010.05.17/outbox.cif.g08.bks.cpg/sg13_49_cif.got.tgz:97993.got - 2010.06.03 16:44:36.
