data_PCOD9231884
_publ_section_title
;
Structure prediction by ZEFSAII (Michael W. Deem and Ramdas Pophale) SiO2 
 PCOD9231884
Probable space group: P 2/C
;
_chemical_formula_sum "Si O2"
_cell_formula_units_Z 24
_cell_length_a 9.929412
_cell_length_b 6.988467
_cell_length_c 16.527034
_cell_angle_alpha 90.000000
_cell_angle_beta 101.778742
_cell_angle_gamma 90.000000
_cell_volume 1122.684849
_symmetry_space_group_name_H-M "P 2/C"
_symmetry_group_IT_number 13
_symmetry_cell_setting 'monoclinic'
loop_
_space_group_symop_operation_xyz
x,y,z
-x,y,1/2-z
-x,-y,-z
x,-y,1/2+z
loop_
_atom_site_type_symbol
_atom_site_label
_atom_site_fract_x
_atom_site_fract_y
_atom_site_fract_z
Si Si1 0.500502 0.419090 0.092864
Si Si2 0.204396 0.809942 0.164200
Si Si3 0.794927 0.465627 0.458287
Si Si4 0.000000 0.422050 0.750000
Si Si5 0.500000 0.306501 0.750000
Si Si6 0.969024 0.870309 0.919280
Si Si7 0.204129 0.667783 0.873680
O O1 0.344094 0.348470 0.080203
O O2 0.514900 0.568640 0.169161
O O3 0.635346 0.288018 0.118487
O O4 0.500000 0.500000 0.000000
O O5 0.215512 0.671767 0.086758
O O6 0.078121 0.712199 0.196384
O O7 0.354736 0.802888 0.223099
O O8 0.152749 0.022697 0.141617
O O9 0.919187 0.338476 0.441342
O O10 0.799556 0.513320 0.553252
O O11 0.876427 0.560236 0.706705
O O12 0.108676 0.844519 0.886406
O O13 0.000000 0.000000 0.000000
#
# Coordination Sequence:
#
# PCOD9231884 Si02
#       7
#     4   4   4   2   2   4   4
#     4   9  20  38  70  94 123 180 222 266 339 397
#     4  11  23  41  64  94 128 170 217 274 331 396
#     4  10  21  43  67  87 125 173 219 268 324 391
#     4  12  22  38  62  92 132 164 202 272 338 384
#     4  10  20  42  66  96 136 172 226 286 338 396
#     4  12  23  39  66  97 126 172 221 270 332 400
#     4  11  21  40  65  95 128 168 215 268 328 399
#
# _framework density 21.377326
#
# number of rings (size 3 to 8) (size 9 to 14) (size 15 to 20)
#    0.000    1.333    5.000    1.500    0.000    0.667 
#    0.000    7.500    0.000    0.000    0.000    0.000 
#    0.000    0.000    0.000    0.000    0.000    0.000 
#
# Total GULP energy -133826.040746 kJ/mol
# GULP energy per Si atom -5576.085031 kJ/mol
# Density = 2.132867 g / cm^3
# Si number density = 21.377326 Si / 1000 Ang^3
#
#
#
# Elastic Constant Matrix: (Units=GPa)
#
#
# Indices 1 2 3 4 5 6 
#
# 1 127.9085 14.0654 1.8339 0.0000 22.4379 0.0000
# 2 14.0654 52.4466 8.2863 0.0000 5.9302 0.0000
# 3 1.8339 8.2863 64.5680 0.0000 10.5250 0.0000
# 4 0.0000 0.0000 0.0000 14.5445 0.0000 10.5897
# 5 22.4379 5.9302 10.5250 0.0000 36.6052 0.0000
# 6 0.0000 0.0000 0.0000 10.5897 0.0000 31.8485
#
#
#
# Elastic Compliance Matrix: (Units=1/GPa)
#
#
# Indices 1 2 3 4 5 6 
#
# 1 0.008972 -0.001930 0.000880 0.000000 -0.005440 0.000000
# 2 -0.001930 0.020107 -0.002295 0.000000 -0.001415 0.000000
# 3 0.000880 -0.002295 0.016561 0.000000 -0.004929 0.000000
# 4 0.000000 0.000000 0.000000 0.090717 0.000000 -0.030164
# 5 -0.005440 -0.001415 -0.004929 0.000000 0.032299 0.000000
# 6 0.000000 0.000000 0.000000 -0.030164 0.000000 0.041428
#
#
# Mechanical properties :
#
#
# Convention : Reuss Voigt Hill
#
# Bulk Modulus (GPa) = 25.67478 32.58824 29.13151
# Shear Modulus (GPa) = 21.76206 31.31545 26.53876
#
# Velocity S-wave (km/s) = 3.19407 3.83154 3.52724
# Velocity P-wave (km/s) = 5.06351 5.90353 5.49958
#
# Compressibility (1/GPa) = 0.03894873
#
# Stress axis : x y z
#
# Youngs Moduli (GPa) = 111.45818 49.73348 60.38446
#
# Poissons Ratio (x) = 0.09599 -0.05311
# Poissons Ratio (y) = 0.21512 0.13859
# Poissons Ratio (z) = -0.09804 0.11414
#
# Static dielectric constant tensor:
#      x y z
#    x 1.815110 0.000000 -0.008880 
#    y 0.000000 1.797960 0.000000 
#    z -0.008880 0.000000 1.886250 
# 
# From -- ./inp_files/65453.got.cif
#   From: 2010.05.17/outbox.cif.g08.bks.cpg/sg13_33_cif.got.tgz:65453.got - 2010.06.03 16:44:36.
