data_PCOD9231443
_publ_section_title
;
Structure prediction by ZEFSAII (Michael W. Deem and Ramdas Pophale) SiO2 
 PCOD9231443
Probable space group: P 2/C
;
_chemical_formula_sum "Si O2"
_cell_formula_units_Z 16
_cell_length_a 8.191639
_cell_length_b 7.735895
_cell_length_c 9.652285
_cell_angle_alpha 90.000000
_cell_angle_beta 90.911514
_cell_angle_gamma 90.000000
_cell_volume 611.584608
_symmetry_space_group_name_H-M "P 2/C"
_symmetry_group_IT_number 13
_symmetry_cell_setting 'monoclinic'
loop_
_space_group_symop_operation_xyz
x,y,z
-x,y,1/2-z
-x,-y,-z
x,-y,1/2+z
loop_
_atom_site_type_symbol
_atom_site_label
_atom_site_fract_x
_atom_site_fract_y
_atom_site_fract_z
Si Si1 0.452672 0.294072 0.473277
Si Si2 0.252380 0.715540 0.215133
Si Si3 0.743426 0.690421 0.784236
Si Si4 0.944970 0.807571 0.029927
O O1 0.500000 0.500000 0.500000
O O2 0.400727 0.220186 0.620923
O O3 0.297741 0.250935 0.371123
O O4 0.603899 0.233392 0.383567
O O5 0.282268 0.513431 0.237213
O O6 0.203480 0.200302 0.859984
O O7 0.091963 0.721035 0.115849
O O8 0.900506 0.722399 0.881847
O O9 0.000000 0.000000 0.000000
#
# Coordination Sequence:
#
# PCOD9231443 Si02
#       4
#     4   4   4   4
#     4   9  19  36  65 101 128 160 218 282 336 396
#     4  10  21  40  64  93 128 173 225 280 335 404
#     4  10  20  39  68  99 129 167 219 279 340 406
#     4  11  25  41  60  97 140 180 224 277 336 404
#
# _framework density 26.161549999999998
#
# number of rings (size 3 to 8) (size 9 to 14) (size 15 to 20)
#    0.000    2.000    0.000    3.750    0.000   10.000 
#    0.000    1.250    0.000   12.000    0.000    0.000 
#    0.000    0.000    0.000    0.000    0.000    0.000 
#
# Total GULP energy -89350.549342 kJ/mol
# GULP energy per Si atom -5584.409334 kJ/mol
# Density = 2.610201 g / cm^3
# Si number density = 26.161550 Si / 1000 Ang^3
#
#
#
# Elastic Constant Matrix: (Units=GPa)
#
#
# Indices 1 2 3 4 5 6 
#
# 1 72.8006 7.4068 66.1659 0.0000 -19.8290 0.0000
# 2 7.4068 69.9012 31.9014 0.0000 -18.1939 0.0000
# 3 66.1659 31.9014 266.3444 0.0000 -2.5278 0.0000
# 4 0.0000 0.0000 0.0000 -57.4704 0.0000 -34.9700
# 5 -19.8290 -18.1939 -2.5278 0.0000 83.4844 0.0000
# 6 0.0000 0.0000 0.0000 -34.9700 0.0000 -16.2910
#
#
#
# Elastic Compliance Matrix: (Units=1/GPa)
#
#
# Indices 1 2 3 4 5 6 
#
# 1 0.019379 0.001443 -0.004942 0.000000 0.004768 0.000000
# 2 0.001443 0.016173 -0.002260 0.000000 0.003799 0.000000
# 3 -0.004942 -0.002260 0.005239 0.000000 -0.001508 0.000000
# 4 0.000000 0.000000 0.000000 0.056832 0.000000 -0.121995
# 5 0.004768 0.003799 -0.001508 0.000000 0.013893 0.000000
# 6 0.000000 0.000000 0.000000 -0.121995 0.000000 0.200489
#
#
# Mechanical properties :
#
#
# Convention : Reuss Voigt Hill
#
# Bulk Modulus (GPa) = 34.16011 68.88830 51.52421
# Shear Modulus (GPa) = 15.00242 22.18274 18.59258
#
# Velocity S-wave (km/s) = 2.39729 2.91506 2.66876
# Velocity P-wave (km/s) = 4.55504 6.14159 5.40682
#
# Compressibility (1/GPa) = 0.02927391
#
# Stress axis : x y z
#
# Youngs Moduli (GPa) = 51.60108 61.83152 190.89324
#
# Poissons Ratio (x) = -0.08921 0.94337
# Poissons Ratio (y) = -0.07445 0.43132
# Poissons Ratio (z) = 0.25501 0.13971
#
# Static dielectric constant tensor:
#      x y z
#    x 2.283610 0.000000 0.033190 
#    y 0.000000 2.854130 0.000000 
#    z 0.033190 0.000000 2.240600 
# 
# From -- ./inp_files/27441.got.cif
#   From: 2010.05.17/outbox.cif.g08.bks.cpg/sg13_14_cif.got.tgz:27441.got - 2010.06.03 16:44:36.
