data_PCOD9231132
_publ_section_title
;
Structure prediction by ZEFSAII (Michael W. Deem and Ramdas Pophale) SiO2 
 PCOD9231132
Probable space group: P 2/C
;
_chemical_formula_sum "Si O2"
_cell_formula_units_Z 20
_cell_length_a 8.745982
_cell_length_b 12.201810
_cell_length_c 7.676574
_cell_angle_alpha 90.000000
_cell_angle_beta 86.849656
_cell_angle_gamma 90.000000
_cell_volume 817.981463
_symmetry_space_group_name_H-M "P 2/C"
_symmetry_group_IT_number 13
_symmetry_cell_setting 'monoclinic'
loop_
_space_group_symop_operation_xyz
x,y,z
-x,y,1/2-z
-x,-y,-z
x,-y,1/2+z
loop_
_atom_site_type_symbol
_atom_site_label
_atom_site_fract_x
_atom_site_fract_y
_atom_site_fract_z
Si Si1 0.655841 0.871062 0.987158
Si Si2 0.092729 0.691627 0.919329
Si Si3 0.674383 0.464849 0.296557
Si Si4 0.309233 0.879233 0.931752
Si Si5 0.212284 0.656690 0.378066
O O1 0.472110 0.857993 0.015290
O O2 0.679484 0.858051 0.777537
O O3 0.740762 0.781511 0.097148
O O4 0.712112 0.991661 0.036869
O O5 0.212067 0.604135 0.834939
O O6 0.177537 0.796116 0.996358
O O7 0.000000 0.728457 0.750000
O O8 0.964054 0.644844 0.056093
O O9 0.500000 0.457373 0.250000
O O10 0.734878 0.589693 0.292929
O O11 0.690762 0.407218 0.480311
#
# Coordination Sequence:
#
# PCOD9231132 Si02
#       5
#     4   4   4   4   4
#     4  10  21  40  65  90 124 160 208 256 310 366
#     4  10  20  38  65  87 126 169 198 252 318 368
#     4  11  22  40  64  88 123 165 211 254 303 365
#     4  10  20  40  65  89 124 164 201 258 312 368
#     4  11  23  41  61  92 125 165 204 257 309 369
#
# _framework density 24.450431999999999
#
# number of rings (size 3 to 8) (size 9 to 14) (size 15 to 20)
#    0.000    1.600    4.000    2.400    0.000    0.800 
#   10.800    0.000    0.000    0.000    0.000    0.000 
#    0.000    0.000    0.000    0.000    0.000    0.000 
#
# Total GULP energy -112058.092001 kJ/mol
# GULP energy per Si atom -5602.904600 kJ/mol
# Density = 2.439478 g / cm^3
# Si number density = 24.450432 Si / 1000 Ang^3
#
#
#
# Elastic Constant Matrix: (Units=GPa)
#
#
# Indices 1 2 3 4 5 6 
#
# 1 135.0251 63.2218 -2.0702 0.0000 8.3451 0.0000
# 2 63.2218 123.3993 4.3555 0.0000 9.4963 0.0000
# 3 -2.0702 4.3555 72.6913 0.0000 14.7003 0.0000
# 4 0.0000 0.0000 0.0000 36.0993 0.0000 25.7226
# 5 8.3451 9.4963 14.7003 0.0000 18.4866 0.0000
# 6 0.0000 0.0000 0.0000 25.7226 0.0000 142.2122
#
#
#
# Elastic Compliance Matrix: (Units=1/GPa)
#
#
# Indices 1 2 3 4 5 6 
#
# 1 0.009889 -0.004886 0.001155 0.000000 -0.002873 0.000000
# 2 -0.004886 0.010864 -0.000128 0.000000 -0.003273 0.000000
# 3 0.001155 -0.000128 0.016551 0.000000 -0.013617 0.000000
# 4 0.000000 0.000000 0.000000 0.031800 0.000000 -0.005752
# 5 -0.002873 -0.003273 -0.013617 0.000000 0.067899 0.000000
# 6 0.000000 0.000000 0.000000 -0.005752 0.000000 0.008072
#
#
# Mechanical properties :
#
#
# Convention : Reuss Voigt Hill
#
# Bulk Modulus (GPa) = 33.80020 51.34776 42.57398
# Shear Modulus (GPa) = 30.73988 57.06684 43.90336
#
# Velocity S-wave (km/s) = 3.54959 4.83637 4.24206
# Velocity P-wave (km/s) = 5.53656 7.22729 6.43767
#
# Compressibility (1/GPa) = 0.02958562
#
# Stress axis : x y z
#
# Youngs Moduli (GPa) = 101.12091 92.05084 60.41885
#
# Poissons Ratio (x) = 0.44978 -0.06981
# Poissons Ratio (y) = 0.49410 0.00775
# Poissons Ratio (z) = -0.11683 0.01180
#
# Static dielectric constant tensor:
#      x y z
#    x 1.904770 0.000000 0.008360 
#    y 0.000000 1.916400 0.000000 
#    z 0.008360 0.000000 2.090690 
# 
# From -- ./inp_files/11751.got.cif
#   From: 2010.05.17/outbox.cif.g08.bks.cpg/sg13_6_cif.got.tgz:11751.got - 2010.06.03 16:44:36.
