data_PCOD9231704
_publ_section_title
;
Structure prediction by ZEFSAII (Michael W. Deem and Ramdas Pophale) SiO2 
 PCOD9231704
Probable space group: P 2/C
;
_chemical_formula_sum "Si O2"
_cell_formula_units_Z 28
_cell_length_a 9.640498
_cell_length_b 14.084371
_cell_length_c 19.720753
_cell_angle_alpha 90.000000
_cell_angle_beta 27.544725
_cell_angle_gamma 90.000000
_cell_volume 1238.273647
_symmetry_space_group_name_H-M "P 2/C"
_symmetry_group_IT_number 13
_symmetry_cell_setting 'monoclinic'
loop_
_space_group_symop_operation_xyz
x,y,z
-x,y,1/2-z
-x,-y,-z
x,-y,1/2+z
loop_
_atom_site_type_symbol
_atom_site_label
_atom_site_fract_x
_atom_site_fract_y
_atom_site_fract_z
Si Si1 0.500000 0.453223 0.750000
Si Si2 0.000000 0.718966 0.250000
Si Si3 0.912260 0.778367 0.933576
Si Si4 0.809915 0.032286 0.148192
Si Si5 0.040406 0.313959 0.504611
Si Si6 0.344587 0.623984 0.545632
Si Si7 0.755078 0.172811 0.730211
Si Si8 0.475458 0.551628 0.896543
O O1 0.605085 0.509914 0.770574
O O2 0.777504 0.389998 0.607122
O O3 0.300155 0.655540 0.113017
O O4 0.051782 0.787719 0.291240
O O5 0.842349 0.714296 0.899058
O O6 0.582799 0.791620 0.110305
O O7 0.126958 0.721382 0.892554
O O8 0.042695 0.883718 0.872324
O O9 0.500000 0.066746 0.250000
O O10 0.756559 0.939030 0.216644
O O11 0.000000 0.000000 0.000000
O O12 0.264988 0.365161 0.458689
O O13 0.898490 0.223644 0.603376
O O14 0.308595 0.591560 0.638860
O O15 0.314715 0.535346 0.506711
#
# Coordination Sequence:
#
# PCOD9231704 Si02
#       8
#     2   2   4   4   4   4   4   4
#     4  12  22  38  62  96 130 178 228 288 342 406
#     4  10  20  40  72  90 126 182 236 278 342 412
#     4  11  22  41  70  97 134 173 230 281 341 411
#     4  12  23  41  71 106 138 174 226 287 351 408
#     4  12  20  39  64  95 127 173 231 284 337 410
#     4  10  22  42  62  98 131 178 227 289 340 410
#     4  11  20  39  69 101 125 174 232 285 333 418
#     4  11  24  38  65  93 133 173 234 284 340 408
#
# _framework density 22.612124999999999
#
# number of rings (size 3 to 8) (size 9 to 14) (size 15 to 20)
#    0.000    0.857    7.143    1.286    0.000    0.000 
#    1.286    2.857    3.143    0.000    0.000    0.000 
#    0.000    0.000    0.000    0.000    0.000    0.000 
#
# Total GULP energy -156625.983147 kJ/mol
# GULP energy per Si atom -5593.785112 kJ/mol
# Density = 2.256066 g / cm^3
# Si number density = 22.612125 Si / 1000 Ang^3
#
#
#
# Elastic Constant Matrix: (Units=GPa)
#
#
# Indices 1 2 3 4 5 6 
#
# 1 169.4863 73.3585 18.7839 0.0000 -2.0333 0.0000
# 2 73.3585 153.1449 20.7125 0.0000 -5.0476 0.0000
# 3 18.7839 20.7125 35.7558 0.0000 -9.1793 0.0000
# 4 0.0000 0.0000 0.0000 30.3264 0.0000 -11.9359
# 5 -2.0333 -5.0476 -9.1793 0.0000 32.2216 0.0000
# 6 0.0000 0.0000 0.0000 -11.9359 0.0000 38.3493
#
#
#
# Elastic Compliance Matrix: (Units=1/GPa)
#
#
# Indices 1 2 3 4 5 6 
#
# 1 0.007592 -0.003359 -0.002217 0.000000 -0.000679 0.000000
# 2 -0.003359 0.008571 -0.003140 0.000000 0.000236 0.000000
# 3 -0.002217 -0.003140 0.033218 0.000000 0.008831 0.000000
# 4 0.000000 0.000000 0.000000 0.037578 0.000000 0.011696
# 5 -0.000679 0.000236 0.008831 0.000000 0.033545 0.000000
# 6 0.000000 0.000000 0.000000 0.011696 0.000000 0.029716
#
#
# Mechanical properties :
#
#
# Convention : Reuss Voigt Hill
#
# Bulk Modulus (GPa) = 31.29895 64.89962 48.09929
# Shear Modulus (GPa) = 28.04249 36.54827 32.29538
#
# Velocity S-wave (km/s) = 3.52540 4.02470 3.78330
# Velocity P-wave (km/s) = 5.51752 7.09656 6.35626
#
# Compressibility (1/GPa) = 0.03194995
#
# Stress axis : x y z
#
# Youngs Moduli (GPa) = 131.72470 116.66930 30.10422
#
# Poissons Ratio (x) = 0.39190 0.06673
# Poissons Ratio (y) = 0.44247 0.09452
# Poissons Ratio (z) = 0.29197 0.36632
#
# Static dielectric constant tensor:
#      x y z
#    x 1.828260 0.000000 -0.000390 
#    y 0.000000 1.823700 0.000000 
#    z -0.000390 0.000000 1.952670 
# 
# From -- ./inp_files/76723.got.cif
#   From: 2010.05.17/outbox.cif.g08.bks.cpg/sg13_39_cif.got.tgz:76723.got - 2010.06.03 16:44:36.
