data_PCOD9231594
_publ_section_title
;
Structure prediction by ZEFSAII (Michael W. Deem and Ramdas Pophale) SiO2 
 PCOD9231594
Probable space group: P 2/C
;
_chemical_formula_sum "Si O2"
_cell_formula_units_Z 28
_cell_length_a 8.134898
_cell_length_b 14.064533
_cell_length_c 12.412612
_cell_angle_alpha 90.000000
_cell_angle_beta 73.640128
_cell_angle_gamma 90.000000
_cell_volume 1362.670281
_symmetry_space_group_name_H-M "P 2/C"
_symmetry_group_IT_number 13
_symmetry_cell_setting 'monoclinic'
loop_
_space_group_symop_operation_xyz
x,y,z
-x,y,1/2-z
-x,-y,-z
x,-y,1/2+z
loop_
_atom_site_type_symbol
_atom_site_label
_atom_site_fract_x
_atom_site_fract_y
_atom_site_fract_z
Si Si1 0.230995 0.913196 0.309259
Si Si2 0.500000 0.609318 0.750000
Si Si3 0.033414 0.641610 0.431373
Si Si4 0.881034 0.838859 0.402937
Si Si5 0.884941 0.439526 0.174143
Si Si6 0.559566 0.226271 0.070163
Si Si7 0.601740 0.727531 0.127041
Si Si8 0.500000 0.077703 0.250000
O O1 0.206075 0.876405 0.190614
O O2 0.336383 0.832157 0.350469
O O3 0.039896 0.909252 0.393113
O O4 0.337550 0.009057 0.296318
O O5 0.318757 0.556527 0.763691
O O6 0.457006 0.679287 0.856638
O O7 0.042390 0.544538 0.363526
O O8 0.228642 0.666671 0.426466
O O9 0.960890 0.732327 0.380326
O O10 0.923713 0.620684 0.558855
O O11 0.743362 0.823787 0.521232
O O12 0.000000 0.398998 0.250000
O O13 0.458606 0.145992 0.156104
O O14 0.504811 0.257615 0.961209
O O15 0.500000 0.688682 0.250000
#
# Coordination Sequence:
#
# PCOD9231594 Si02
#       8
#     4   2   4   4   4   4   4   2
#     4  10  21  37  62  94 123 159 211 268 319 396
#     4  11  24  46  63  98 136 180 227 256 342 403
#     4  10  24  42  63  98 130 170 219 269 331 383
#     4  10  20  40  65  90 128 167 207 266 333 387
#     4  11  24  43  67  97 137 174 220 282 317 398
#     4  11  23  41  68  87 131 176 207 277 324 401
#     4  11  21  38  65  96 121 169 216 265 333 386
#     4  11  24  42  59  96 128 166 221 260 336 387
#
# _framework density 20.547892000000001
#
# number of rings (size 3 to 8) (size 9 to 14) (size 15 to 20)
#    0.000    1.429    3.571    0.857    5.000    2.857 
#    0.000    6.429    6.286    0.000    0.000    0.000 
#    0.000    0.000    0.000    0.000    0.000    0.000 
#
# Total GULP energy -156195.376284 kJ/mol
# GULP energy per Si atom -5578.406296 kJ/mol
# Density = 2.050112 g / cm^3
# Si number density = 20.547892 Si / 1000 Ang^3
#
#
#
# Elastic Constant Matrix: (Units=GPa)
#
#
# Indices 1 2 3 4 5 6 
#
# 1 80.2344 5.4986 47.5300 0.0000 -4.4521 0.0000
# 2 5.4986 54.0073 18.9374 0.0000 7.9709 0.0000
# 3 47.5300 18.9374 96.8634 0.0000 -6.9864 0.0000
# 4 0.0000 0.0000 0.0000 18.3456 0.0000 7.1988
# 5 -4.4521 7.9709 -6.9864 0.0000 34.7751 0.0000
# 6 0.0000 0.0000 0.0000 7.1988 0.0000 30.1625
#
#
#
# Elastic Compliance Matrix: (Units=1/GPa)
#
#
# Indices 1 2 3 4 5 6 
#
# 1 0.017661 0.001300 -0.008908 0.000000 0.000174 0.000000
# 2 0.001300 0.021033 -0.005160 0.000000 -0.005691 0.000000
# 3 -0.008908 -0.005160 0.015938 0.000000 0.003244 0.000000
# 4 0.000000 0.000000 0.000000 0.060141 0.000000 -0.014354
# 5 0.000174 -0.005691 0.003244 0.000000 0.030735 0.000000
# 6 0.000000 0.000000 0.000000 -0.014354 0.000000 0.036579
#
#
# Mechanical properties :
#
#
# Convention : Reuss Voigt Hill
#
# Bulk Modulus (GPa) = 34.37012 41.67077 38.02045
# Shear Modulus (GPa) = 23.00737 27.26593 25.13665
#
# Velocity S-wave (km/s) = 3.34981 3.64668 3.50139
# Velocity P-wave (km/s) = 5.63248 6.16886 5.90676
#
# Compressibility (1/GPa) = 0.02909504
#
# Stress axis : x y z
#
# Youngs Moduli (GPa) = 56.62263 47.54402 62.74494
#
# Poissons Ratio (x) = -0.06179 0.55890
# Poissons Ratio (y) = -0.07359 0.32379
# Poissons Ratio (z) = 0.50437 0.24534
#
# Static dielectric constant tensor:
#      x y z
#    x 1.770390 0.000000 -0.021680 
#    y 0.000000 1.703050 0.000000 
#    z -0.021680 0.000000 1.777030 
# 
# From -- ./inp_files/30123.got.cif
#   From: 2010.05.17/outbox.cif.g08.bks.cpg/sg13_16_cif.got.tgz:30123.got - 2010.06.03 16:44:36.
