data_PCOD9231160
_publ_section_title
;
Structure prediction by ZEFSAII (Michael W. Deem and Ramdas Pophale) SiO2 
 PCOD9231160
Probable space group: P 2/C
;
_chemical_formula_sum "Si O2"
_cell_formula_units_Z 22
_cell_length_a 16.368461
_cell_length_b 8.848689
_cell_length_c 8.828568
_cell_angle_alpha 90.000000
_cell_angle_beta 69.428361
_cell_angle_gamma 90.000000
_cell_volume 1197.184981
_symmetry_space_group_name_H-M "P 2/C"
_symmetry_group_IT_number 13
_symmetry_cell_setting 'monoclinic'
loop_
_space_group_symop_operation_xyz
x,y,z
-x,y,1/2-z
-x,-y,-z
x,-y,1/2+z
loop_
_atom_site_type_symbol
_atom_site_label
_atom_site_fract_x
_atom_site_fract_y
_atom_site_fract_z
Si Si1 0.483359 0.822590 0.989274
Si Si2 0.828732 0.663623 0.567420
Si Si3 0.500000 0.598541 0.250000
Si Si4 0.080542 0.600433 0.300561
Si Si5 0.980840 0.838204 0.583112
Si Si6 0.624334 0.678857 0.678083
O O1 0.566761 0.748867 0.850510
O O2 0.398346 0.793634 0.942428
O O3 0.472396 0.713712 0.138259
O O4 0.500000 0.000000 0.000000
O O5 0.856073 0.662843 0.372231
O O6 0.869110 0.519604 0.629426
O O7 0.879903 0.799315 0.615265
O O8 0.725231 0.666068 0.647570
O O9 0.420104 0.482764 0.334408
O O10 0.000000 0.536403 0.250000
O O11 0.037258 0.720558 0.443851
O O12 0.000000 0.831415 0.750000
O O13 0.000000 0.000000 0.500000
#
# Coordination Sequence:
#
# PCOD9231160 Si02
#       6
#     4   4   2   4   4   4
#     4  10  21  42  62  84 127 164 196 254 324 377
#     4  11  22  37  62  93 122 153 216 254 297 365
#     4  10  20  38  66  86 122 164 204 250 318 362
#     4  10  21  38  61  87 124 166 198 252 308 357
#     4  11  22  43  63  86 126 171 200 244 314 366
#     4  10  22  38  61  93 120 156 212 257 301 372
#
# _framework density 18.376442000000001
#
# number of rings (size 3 to 8) (size 9 to 14) (size 15 to 20)
#    0.000    1.818    0.000    8.727    5.091    0.000 
#    6.545    0.000    0.000    0.000    0.000    0.000 
#    0.000    0.000    0.000    0.000    0.000    0.000 
#
# Total GULP energy -122643.200140 kJ/mol
# GULP energy per Si atom -5574.690915 kJ/mol
# Density = 1.833462 g / cm^3
# Si number density = 18.376442 Si / 1000 Ang^3
#
#
#
# Elastic Constant Matrix: (Units=GPa)
#
#
# Indices 1 2 3 4 5 6 
#
# 1 153.3846 56.1558 28.0064 0.0000 0.9806 0.0000
# 2 56.1558 129.1103 21.8093 0.0000 17.0848 0.0000
# 3 28.0064 21.8093 89.7405 0.0000 21.8747 0.0000
# 4 0.0000 0.0000 0.0000 65.4772 0.0000 12.4303
# 5 0.9806 17.0848 21.8747 0.0000 20.8678 0.0000
# 6 0.0000 0.0000 0.0000 12.4303 0.0000 12.5531
#
#
#
# Elastic Compliance Matrix: (Units=1/GPa)
#
#
# Indices 1 2 3 4 5 6 
#
# 1 0.008527 -0.003991 -0.003210 0.000000 0.006232 0.000000
# 2 -0.003991 0.010572 0.000995 0.000000 -0.009510 0.000000
# 3 -0.003210 0.000995 0.016206 0.000000 -0.017651 0.000000
# 4 0.000000 0.000000 0.000000 0.018808 0.000000 -0.018624
# 5 0.006232 -0.009510 -0.017651 0.000000 0.073917 0.000000
# 6 0.000000 0.000000 0.000000 -0.018624 0.000000 0.098104
#
#
# Mechanical properties :
#
#
# Convention : Reuss Voigt Hill
#
# Bulk Modulus (GPa) = 43.68543 64.90869 54.29706
# Shear Modulus (GPa) = 20.31051 37.53056 28.92053
#
# Velocity S-wave (km/s) = 3.32813 4.52411 3.97140
# Velocity P-wave (km/s) = 6.21231 7.91760 7.11622
#
# Compressibility (1/GPa) = 0.02289093
#
# Stress axis : x y z
#
# Youngs Moduli (GPa) = 117.27296 94.59176 61.70539
#
# Poissons Ratio (x) = 0.37754 0.19809
# Poissons Ratio (y) = 0.46806 -0.06137
# Poissons Ratio (z) = 0.37648 -0.09408
#
# Static dielectric constant tensor:
#      x y z
#    x 1.643130 0.000000 0.161230 
#    y 0.000000 1.642550 0.000000 
#    z 0.161230 0.000000 2.554600 
# 
# From -- ./inp_files/18027.got.cif
#   From: 2010.05.17/outbox.cif.g08.bks.cpg/sg13_10_cif.got.tgz:18027.got - 2010.06.03 16:44:36.
