data_PCOD9231921
_publ_section_title
;
Structure prediction by ZEFSAII (Michael W. Deem and Ramdas Pophale) SiO2 
 PCOD9231921
Probable space group: P 2/C
;
_chemical_formula_sum "Si O2"
_cell_formula_units_Z 30
_cell_length_a 8.409963
_cell_length_b 13.651931
_cell_length_c 23.406261
_cell_angle_alpha 90.000000
_cell_angle_beta 147.172405
_cell_angle_gamma 90.000000
_cell_volume 1456.833845
_symmetry_space_group_name_H-M "P 2/C"
_symmetry_group_IT_number 13
_symmetry_cell_setting 'monoclinic'
loop_
_space_group_symop_operation_xyz
x,y,z
-x,y,1/2-z
-x,-y,-z
x,-y,1/2+z
loop_
_atom_site_type_symbol
_atom_site_label
_atom_site_fract_x
_atom_site_fract_y
_atom_site_fract_z
Si Si1 0.776551 0.448651 0.054898
Si Si2 0.332638 0.979513 0.584408
Si Si3 0.141547 0.176545 0.942086
Si Si4 0.692994 0.136993 0.636664
Si Si5 0.133444 0.372528 0.997666
Si Si6 0.454931 0.667509 0.112308
Si Si7 0.617655 0.467421 0.220453
Si Si8 0.500000 0.072257 0.750000
O O1 0.049960 0.429234 0.177908
O O2 0.500000 0.500000 0.000000
O O3 0.902084 0.523451 0.044486
O O4 0.652239 0.356958 0.983702
O O5 0.437380 0.061280 0.571701
O O6 0.505369 0.003324 0.695211
O O7 0.320885 0.877454 0.547101
O O8 0.000000 0.000000 0.500000
O O9 0.269674 0.155523 0.918679
O O10 0.799474 0.138243 0.841508
O O11 0.180474 0.291412 0.964260
O O12 0.634452 0.232823 0.659059
O O13 0.000000 0.092530 0.750000
O O14 0.399034 0.395023 0.120889
O O15 0.844868 0.332037 0.942072
O O16 0.620345 0.573841 0.189796
O O17 0.500000 0.476822 0.250000
#
# Coordination Sequence:
#
# PCOD9231921 Si02
#       8
#     4   4   4   4   4   4   4   2
#     4  11  23  39  62  91 135 176 224 288 338 396
#     4  10  22  44  69  98 132 174 214 281 341 408
#     4  11  24  42  66  99 141 171 225 285 342 411
#     4  12  25  41  69 102 134 173 226 284 345 401
#     4  11  23  40  65  98 130 179 230 277 343 407
#     4  11  23  37  62  98 127 175 234 279 337 398
#     4  11  21  42  64  92 134 184 228 279 333 401
#     4  10  20  42  70 100 130 176 228 272 344 420
#
# _framework density 20.592601999999999
#
# number of rings (size 3 to 8) (size 9 to 14) (size 15 to 20)
#    0.000    1.067    4.000    3.600    3.733    1.600 
#    2.400    1.333    2.933    0.000    0.000    0.000 
#    0.000    0.000    0.000    0.000    0.000    0.000 
#
# Total GULP energy -167448.988038 kJ/mol
# GULP energy per Si atom -5581.632935 kJ/mol
# Density = 2.054573 g / cm^3
# Si number density = 20.592602 Si / 1000 Ang^3
#
#
#
# Elastic Constant Matrix: (Units=GPa)
#
#
# Indices 1 2 3 4 5 6 
#
# 1 83.2480 -8.3719 23.0729 0.0000 16.9407 0.0000
# 2 -8.3719 32.1989 11.3729 0.0000 5.8774 0.0000
# 3 23.0729 11.3729 99.6216 0.0000 -2.0428 0.0000
# 4 0.0000 0.0000 0.0000 18.1898 0.0000 -6.2510
# 5 16.9407 5.8774 -2.0428 0.0000 29.6149 0.0000
# 6 0.0000 0.0000 0.0000 -6.2510 0.0000 38.0984
#
#
#
# Elastic Compliance Matrix: (Units=1/GPa)
#
#
# Indices 1 2 3 4 5 6 
#
# 1 0.016541 0.008151 -0.004996 0.000000 -0.011424 0.000000
# 2 0.008151 0.037757 -0.006457 0.000000 -0.012601 0.000000
# 3 -0.004996 -0.006457 0.012034 0.000000 0.004969 0.000000
# 4 0.000000 0.000000 0.000000 0.058261 0.000000 0.009559
# 5 -0.011424 -0.012601 0.004969 0.000000 0.043146 0.000000
# 6 0.000000 0.000000 0.000000 0.009559 0.000000 0.027816
#
#
# Mechanical properties :
#
#
# Convention : Reuss Voigt Hill
#
# Bulk Modulus (GPa) = 16.74225 29.69071 23.21648
# Shear Modulus (GPa) = 22.51563 29.78025 26.14794
#
# Velocity S-wave (km/s) = 3.31022 3.80697 3.56725
# Velocity P-wave (km/s) = 4.77053 5.81150 5.31655
#
# Compressibility (1/GPa) = 0.05972913
#
# Stress axis : x y z
#
# Youngs Moduli (GPa) = 60.45412 26.48527 83.09758
#
# Poissons Ratio (x) = -0.21588 0.41514
# Poissons Ratio (y) = -0.49275 0.53652
# Poissons Ratio (z) = 0.30202 0.17100
#
# Static dielectric constant tensor:
#      x y z
#    x 1.760450 0.000000 -0.029250 
#    y 0.000000 1.720030 0.000000 
#    z -0.029250 0.000000 1.777320 
# 
# From -- ./inp_files/85300.got.cif
#   From: 2010.05.17/outbox.cif.g08.bks.cpg/sg13_43_cif.got.tgz:85300.got - 2010.06.03 16:44:36.
