data_PCOD9231461
_publ_section_title
;
Structure prediction by ZEFSAII (Michael W. Deem and Ramdas Pophale) SiO2 
 PCOD9231461
Probable space group: P 2/C
;
_chemical_formula_sum "Si O2"
_cell_formula_units_Z 26
_cell_length_a 13.365874
_cell_length_b 12.898482
_cell_length_c 21.246950
_cell_angle_alpha 90.000000
_cell_angle_beta 22.012917
_cell_angle_gamma 90.000000
_cell_volume 1372.935810
_symmetry_space_group_name_H-M "P 2/C"
_symmetry_group_IT_number 13
_symmetry_cell_setting 'monoclinic'
loop_
_space_group_symop_operation_xyz
x,y,z
-x,y,1/2-z
-x,-y,-z
x,-y,1/2+z
loop_
_atom_site_type_symbol
_atom_site_label
_atom_site_fract_x
_atom_site_fract_y
_atom_site_fract_z
Si Si1 0.000000 0.209696 0.750000
Si Si2 0.578457 0.879057 0.131170
Si Si3 0.196545 0.388229 0.185287
Si Si4 0.054350 0.245800 0.911390
Si Si5 0.778329 0.612682 0.290696
Si Si6 0.646326 0.119059 0.061472
Si Si7 0.893536 0.761011 0.648240
O O1 0.142520 0.288570 0.713978
O O2 0.198677 0.141801 0.593380
O O3 0.500000 0.880518 0.250000
O O4 0.320311 0.825974 0.249845
O O5 0.632831 0.997227 0.081286
O O6 0.850877 0.813851 0.967588
O O7 0.095135 0.503502 0.262770
O O8 0.216014 0.325182 0.239168
O O9 0.000000 0.336129 0.250000
O O10 0.467563 0.400162 0.987428
O O11 0.127010 0.351849 0.833023
O O12 0.809973 0.183360 0.020072
O O13 0.991317 0.270217 0.021055
O O14 0.348296 0.161374 0.225969
#
# Coordination Sequence:
#
# PCOD9231461 Si02
#       7
#     2   4   4   4   4   4   4
#     4  10  20  40  56  84 120 152 192 250 286 354
#     4  10  21  39  58  85 125 160 191 240 302 350
#     4  11  22  38  63  85 115 159 199 240 298 363
#     4  10  22  38  61  88 123 155 194 251 295 347
#     4  10  21  39  59  82 117 156 193 239 306 348
#     4  11  21  38  61  88 117 162 201 240 292 354
#     4  11  22  38  62  92 117 153 205 246 289 352
#
# _framework density 18.937519999999999
#
# number of rings (size 3 to 8) (size 9 to 14) (size 15 to 20)
#    0.000    1.538    2.308    3.231    0.000    3.077 
#    4.154    2.308    0.000    3.692    0.000    0.000 
#    0.000    0.000    0.000    0.000    0.000    0.000 
#
# Total GULP energy -144942.880459 kJ/mol
# GULP energy per Si atom -5574.726171 kJ/mol
# Density = 1.889442 g / cm^3
# Si number density = 18.937520 Si / 1000 Ang^3
#
#
#
# Elastic Constant Matrix: (Units=GPa)
#
#
# Indices 1 2 3 4 5 6 
#
# 1 60.0812 1.2782 11.9969 0.0000 9.1011 0.0000
# 2 1.2782 42.7156 -7.1478 0.0000 10.0636 0.0000
# 3 11.9969 -7.1478 58.9369 0.0000 -1.1915 0.0000
# 4 0.0000 0.0000 0.0000 4.0371 0.0000 -10.1939
# 5 9.1011 10.0636 -1.1915 0.0000 33.8044 0.0000
# 6 0.0000 0.0000 0.0000 -10.1939 0.0000 16.0390
#
#
#
# Elastic Compliance Matrix: (Units=1/GPa)
#
#
# Indices 1 2 3 4 5 6 
#
# 1 0.018164 0.000005 -0.003798 0.000000 -0.005026 0.000000
# 2 0.000005 0.025683 0.002961 0.000000 -0.007543 0.000000
# 3 -0.003798 0.002961 0.018115 0.000000 0.000780 0.000000
# 4 0.000000 0.000000 0.000000 -0.409519 0.000000 -0.260279
# 5 -0.005026 -0.007543 0.000780 0.000000 0.033208 0.000000
# 6 0.000000 0.000000 0.000000 -0.260279 0.000000 -0.103077
#
#
# Mechanical properties :
#
#
# Convention : Reuss Voigt Hill
#
# Bulk Modulus (GPa) = 16.58431 19.33203 17.95817
# Shear Modulus (GPa) = -12.63702 21.14984 4.25641
#
# Velocity S-wave (km/s) = -2.58602 3.34551 1.50083
# Velocity P-wave (km/s) = 0.37452 5.01535 3.53649
#
# Compressibility (1/GPa) = 0.06029795
#
# Stress axis : x y z
#
# Youngs Moduli (GPa) = 55.05472 38.93613 55.20174
#
# Poissons Ratio (x) = -0.00019 0.20967
# Poissons Ratio (y) = -0.00027 -0.16347
# Poissons Ratio (z) = 0.20912 -0.11530
#
# Static dielectric constant tensor:
#      x y z
#    x 1.726360 0.000000 -0.018730 
#    y 0.000000 1.634150 0.000000 
#    z -0.018730 0.000000 1.683970 
# 
# From -- ./inp_files/87505.got.cif
#   From: 2010.05.17/outbox.cif.g08.bks.cpg/sg13_44_cif.got.tgz:87505.got - 2010.06.03 16:44:36.
