data_PCOD9231563
_publ_section_title
;
Structure prediction by ZEFSAII (Michael W. Deem and Ramdas Pophale) SiO2 
 PCOD9231563
Probable space group: P 2/C
;
_chemical_formula_sum "Si O2"
_cell_formula_units_Z 30
_cell_length_a 30.894738
_cell_length_b 8.466011
_cell_length_c 30.796490
_cell_angle_alpha 90.000000
_cell_angle_beta 170.534666
_cell_angle_gamma 90.000000
_cell_volume 1324.648511
_symmetry_space_group_name_H-M "P 2/C"
_symmetry_group_IT_number 13
_symmetry_cell_setting 'monoclinic'
loop_
_space_group_symop_operation_xyz
x,y,z
-x,y,1/2-z
-x,-y,-z
x,-y,1/2+z
loop_
_atom_site_type_symbol
_atom_site_label
_atom_site_fract_x
_atom_site_fract_y
_atom_site_fract_z
Si Si1 0.587730 0.061734 0.384569
Si Si2 0.811071 0.146751 0.802198
Si Si3 0.531991 0.056418 0.602994
Si Si4 0.147348 0.379740 0.729786
Si Si5 0.000000 0.157823 0.250000
Si Si6 0.673219 0.736456 0.354403
Si Si7 0.790438 0.694421 0.665876
Si Si8 0.356209 0.228819 0.234241
O O1 0.500000 0.114915 0.250000
O O2 0.859406 0.964400 0.644656
O O3 0.409248 0.918429 0.224383
O O4 0.519121 0.195877 0.351277
O O5 0.683040 0.181696 0.722286
O O6 0.915560 0.296938 0.878766
O O7 0.606707 0.063185 0.567410
O O8 0.000000 0.000000 0.000000
O O9 0.320756 0.145759 0.423205
O O10 0.704953 0.941017 0.803824
O O11 0.175380 0.566264 0.762399
O O12 0.918024 0.321806 0.536081
O O13 0.431761 0.318790 0.026589
O O14 0.211907 0.273264 0.482704
O O15 0.926493 0.711543 0.575434
O O16 0.425847 0.651611 0.085996
#
# Coordination Sequence:
#
# PCOD9231563 Si02
#       8
#     4   4   4   4   2   4   4   4
#     4  10  22  36  70 102 127 159 221 281 321 381
#     4  10  21  41  63  95 127 172 224 284 329 389
#     4  10  22  37  68  94 127 171 230 271 331 393
#     4  11  26  42  64  92 139 174 218 270 338 397
#     4  10  20  40  64 110 126 160 214 298 318 384
#     4  11  22  39  66  98 130 162 223 269 331 383
#     4  12  25  41  64  99 132 181 218 271 328 414
#     4  11  22  42  66  94 127 175 214 273 333 393
#
# _framework density 22.647516
#
# number of rings (size 3 to 8) (size 9 to 14) (size 15 to 20)
#    0.000    1.333    4.000    0.800    9.333    0.533 
#    0.000    0.667    5.867    0.000    0.000    0.000 
#    0.000    0.000    0.000    0.000    0.000    0.000 
#
# Total GULP energy -167134.384778 kJ/mol
# GULP energy per Si atom -5571.146159 kJ/mol
# Density = 2.259597 g / cm^3
# Si number density = 22.647516 Si / 1000 Ang^3
#
#
#
# Elastic Constant Matrix: (Units=GPa)
#
#
# Indices 1 2 3 4 5 6 
#
# 1 57.1612 -9.3399 4.9040 0.0000 7.8596 0.0000
# 2 -9.3399 29.3407 3.2058 0.0000 6.3439 0.0000
# 3 4.9040 3.2058 102.7664 0.0000 18.5729 0.0000
# 4 0.0000 0.0000 0.0000 16.2121 0.0000 -0.0025
# 5 7.8596 6.3439 18.5729 0.0000 30.9092 0.0000
# 6 0.0000 0.0000 0.0000 -0.0025 0.0000 14.8365
#
#
#
# Elastic Compliance Matrix: (Units=1/GPa)
#
#
# Indices 1 2 3 4 5 6 
#
# 1 0.019653 0.007677 0.000012 0.000000 -0.006580 0.000000
# 2 0.007677 0.038669 0.000241 0.000000 -0.010033 0.000000
# 3 0.000012 0.000241 0.010918 0.000000 -0.006613 0.000000
# 4 0.000000 0.000000 0.000000 0.061682 0.000000 0.000010
# 5 -0.006580 -0.010033 -0.006613 0.000000 0.040059 0.000000
# 6 0.000000 0.000000 0.000000 0.000010 0.000000 0.067401
#
#
# Mechanical properties :
#
#
# Convention : Reuss Voigt Hill
#
# Bulk Modulus (GPa) = 11.75093 20.75645 16.25369
# Shear Modulus (GPa) = 19.92914 25.09145 22.51029
#
# Velocity S-wave (km/s) = 2.96965 3.33214 3.15610
# Velocity P-wave (km/s) = 4.11804 4.89787 4.52479
#
# Compressibility (1/GPa) = 0.08509967
#
# Stress axis : x y z
#
# Youngs Moduli (GPa) = 50.88391 25.86030 91.59305
#
# Poissons Ratio (x) = -0.19854 -0.00109
# Poissons Ratio (y) = -0.39065 -0.02205
# Poissons Ratio (z) = -0.00061 -0.00622
#
# Static dielectric constant tensor:
#      x y z
#    x 2.000490 0.000000 -0.022400 
#    y 0.000000 1.829530 0.000000 
#    z -0.022400 0.000000 1.920640 
# 
# From -- ./inp_files/98128.got.cif
#   From: 2010.05.17/outbox.cif.g08.bks.cpg/sg13_50_cif.got.tgz:98128.got - 2010.06.03 16:44:36.
