data_PCOD9231607
_publ_section_title
;
Structure prediction by ZEFSAII (Michael W. Deem and Ramdas Pophale) SiO2 
 PCOD9231607
Probable space group: P 2/C
;
_chemical_formula_sum "Si O2"
_cell_formula_units_Z 20
_cell_length_a 16.380402
_cell_length_b 5.687850
_cell_length_c 8.610295
_cell_angle_alpha 90.000000
_cell_angle_beta 89.999876
_cell_angle_gamma 90.000000
_cell_volume 802.214895
_symmetry_space_group_name_H-M "P 2/C"
_symmetry_group_IT_number 13
_symmetry_cell_setting 'monoclinic'
loop_
_space_group_symop_operation_xyz
x,y,z
-x,y,1/2-z
-x,-y,-z
x,-y,1/2+z
loop_
_atom_site_type_symbol
_atom_site_label
_atom_site_fract_x
_atom_site_fract_y
_atom_site_fract_z
Si Si1 0.250000 0.474074 0.678262
Si Si2 0.608415 0.187497 0.982964
Si Si3 0.750000 0.843674 0.034753
Si Si4 0.500000 0.122487 0.250000
Si Si5 0.000000 0.877512 0.750000
Si Si6 0.108415 0.812503 0.017035
O O1 0.332303 0.372057 0.599775
O O2 0.249999 0.748652 0.642020
O O3 0.250000 0.377423 0.851204
O O4 0.167696 0.372056 0.599776
O O5 0.554744 0.048374 0.857072
O O6 0.552538 0.272232 0.126216
O O7 0.670038 0.996654 0.056272
O O8 0.829962 0.996656 0.056273
O O9 0.947462 0.727767 0.626216
O O10 0.054744 0.048372 0.642927
#
# Coordination Sequence:
#
# PCOD9231607 Si02
#       6
#     4   4   4   2   2   4
#     4  11  24  40  63  91 119 161 205 243 292 360
#     4  10  22  42  64  86 124 156 204 244 302 352
#     4  11  24  40  63  91 119 161 205 243 292 360
#     4  10  20  40  66  86 118 164 192 254 302 350
#     4  10  20  40  66  86 118 164 192 254 302 350
#     4  10  22  42  64  86 124 156 204 244 302 352
#
# _framework density 24.930975
#
# number of rings (size 3 to 8) (size 9 to 14) (size 15 to 20)
#    0.000    1.600    4.000    0.000    5.600    0.000 
#    0.000   12.000    0.000    0.000    0.000    0.000 
#    0.000    0.000    0.000    0.000    0.000    0.000 
#
# Total GULP energy -112010.893562 kJ/mol
# GULP energy per Si atom -5600.544678 kJ/mol
# Density = 2.487423 g / cm^3
# Si number density = 24.930975 Si / 1000 Ang^3
#
#
#
# Elastic Constant Matrix: (Units=GPa)
#
#
# Indices 1 2 3 4 5 6 
#
# 1 122.1027 -1.9947 60.7603 0.0000 -0.0003 0.0000
# 2 -1.9947 9.2727 6.2767 0.0000 0.0000 0.0000
# 3 60.7603 6.2767 134.6348 0.0000 -0.0001 0.0000
# 4 0.0000 0.0000 0.0000 38.0795 0.0000 -0.0037
# 5 -0.0003 0.0000 -0.0001 0.0000 54.2045 0.0000
# 6 0.0000 0.0000 0.0000 -0.0037 0.0000 121.3420
#
#
#
# Elastic Compliance Matrix: (Units=1/GPa)
#
#
# Indices 1 2 3 4 5 6 
#
# 1 0.010859 0.005838 -0.005173 0.000000 0.000000 0.000000
# 2 0.005838 0.114495 -0.007972 0.000000 0.000000 0.000000
# 3 -0.005173 -0.007972 0.010134 0.000000 0.000000 0.000000
# 4 0.000000 0.000000 0.000000 0.026261 0.000000 0.000001
# 5 0.000000 0.000000 0.000000 0.000000 0.018449 0.000000
# 6 0.000000 0.000000 0.000000 0.000001 0.000000 0.008241
#
#
# Mechanical properties :
#
#
# Convention : Reuss Voigt Hill
#
# Bulk Modulus (GPa) = 8.27314 44.01055 26.14185
# Shear Modulus (GPa) = 20.54693 56.12305 38.33499
#
# Velocity S-wave (km/s) = 2.87392 4.74976 3.92554
# Velocity P-wave (km/s) = 3.78658 6.91170 5.57269
#
# Compressibility (1/GPa) = 0.12087307
#
# Stress axis : x y z
#
# Youngs Moduli (GPa) = 92.08671 8.73398 98.68058
#
# Poissons Ratio (x) = -0.05099 0.51047
# Poissons Ratio (y) = -0.53757 0.78671
# Poissons Ratio (z) = 0.47636 0.06963
#
# Static dielectric constant tensor:
#      x y z
#    x 1.996580 0.000000 0.000000 
#    y 0.000000 1.896680 0.000000 
#    z 0.000000 0.000000 1.978750 
# 
# From -- ./inp_files/11810.got.cif
#   From: 2010.05.17/outbox.cif.g08.bks.cpg/sg13_6_cif.got.tgz:11810.got - 2010.06.03 16:44:36.
