data_PCOD9231804
_publ_section_title
;
Structure prediction by ZEFSAII (Michael W. Deem and Ramdas Pophale) SiO2 
 PCOD9231804
Probable space group: P 2/C
;
_chemical_formula_sum "Si O2"
_cell_formula_units_Z 28
_cell_length_a 18.490148
_cell_length_b 6.207707
_cell_length_c 14.001916
_cell_angle_alpha 90.000000
_cell_angle_beta 54.286584
_cell_angle_gamma 90.000000
_cell_volume 1304.928378
_symmetry_space_group_name_H-M "P 2/C"
_symmetry_group_IT_number 13
_symmetry_cell_setting 'monoclinic'
loop_
_space_group_symop_operation_xyz
x,y,z
-x,y,1/2-z
-x,-y,-z
x,-y,1/2+z
loop_
_atom_site_type_symbol
_atom_site_label
_atom_site_fract_x
_atom_site_fract_y
_atom_site_fract_z
Si Si1 0.520160 0.800197 0.555346
Si Si2 0.858027 0.455275 0.501874
Si Si3 0.000000 0.361347 0.750000
Si Si4 0.772899 0.170838 0.192443
Si Si5 0.647495 0.491344 0.365139
Si Si6 0.687983 0.212439 0.657812
Si Si7 0.500000 0.907534 0.250000
Si Si8 0.071480 0.144327 0.888655
O O1 0.609040 0.657215 0.472286
O O2 0.438983 0.635288 0.606079
O O3 0.500000 0.000000 0.500000
O O4 0.521032 0.928853 0.650481
O O5 0.923350 0.501240 0.363048
O O6 0.822933 0.675373 0.577834
O O7 0.773276 0.307325 0.537230
O O8 0.906274 0.334560 0.553266
O O9 0.040153 0.225469 0.808720
O O10 0.722911 0.308766 0.312659
O O11 0.704508 0.030258 0.181284
O O12 0.840988 0.003228 0.186021
O O13 0.685291 0.644856 0.254597
O O14 0.589616 0.230924 0.691020
O O15 0.000000 0.000000 0.000000
#
# Coordination Sequence:
#
# PCOD9231804 Si02
#       8
#     4   4   2   4   4   4   2   4
#     4  11  22  40  65 100 131 186 241 286 346 416
#     4  10  24  46  73 104 149 184 235 298 362 431
#     4  12  24  46  78 112 140 190 250 288 372 452
#     4  10  20  45  68  99 143 182 229 302 357 417
#     4  10  20  41  70  89 135 184 232 289 355 418
#     4  10  22  43  70 100 140 188 234 299 353 415
#     4  12  22  42  72  94 150 186 238 298 348 412
#     4  11  24  45  77 103 144 189 234 303 366 431
#
# _framework density 21.457114000000001
#
# number of rings (size 3 to 8) (size 9 to 14) (size 15 to 20)
#    0.000    1.429    4.286    0.429    0.000    1.143 
#    0.000   11.429    0.000    0.000    0.000    0.000 
#    0.000    0.000    0.000    0.000    0.000    0.000 
#
# Total GULP energy -156201.081977 kJ/mol
# GULP energy per Si atom -5578.610071 kJ/mol
# Density = 2.140828 g / cm^3
# Si number density = 21.457114 Si / 1000 Ang^3
#
#
#
# Elastic Constant Matrix: (Units=GPa)
#
#
# Indices 1 2 3 4 5 6 
#
# 1 109.4048 38.4608 56.7612 0.0000 -11.8626 0.0000
# 2 38.4608 98.3587 49.0660 0.0000 -9.2625 0.0000
# 3 56.7612 49.0660 138.4897 0.0000 -15.2699 0.0000
# 4 0.0000 0.0000 0.0000 15.2826 0.0000 -30.5482
# 5 -11.8626 -9.2625 -15.2699 0.0000 31.9495 0.0000
# 6 0.0000 0.0000 0.0000 -30.5482 0.0000 32.8071
#
#
#
# Elastic Compliance Matrix: (Units=1/GPa)
#
#
# Indices 1 2 3 4 5 6 
#
# 1 0.012310 -0.002697 -0.003876 0.000000 0.001936 0.000000
# 2 -0.002697 0.013016 -0.003378 0.000000 0.001157 0.000000
# 3 -0.003876 -0.003378 0.010281 0.000000 0.002495 0.000000
# 4 0.000000 0.000000 0.000000 -0.075975 0.000000 -0.070744
# 5 0.001936 0.001157 0.002495 0.000000 0.033546 0.000000
# 6 0.000000 0.000000 0.000000 -0.070744 0.000000 -0.035392
#
#
# Mechanical properties :
#
#
# Convention : Reuss Voigt Hill
#
# Bulk Modulus (GPa) = 63.68091 70.53658 67.10874
# Shear Modulus (GPa) = -292.81938 29.47219 -131.67360
#
# Velocity S-wave (km/s) = -11.69459 3.71015 -7.84214
# Velocity P-wave (km/s) = 12.35349 7.16228 7.11725
#
# Compressibility (1/GPa) = 0.01570329
#
# Stress axis : x y z
#
# Youngs Moduli (GPa) = 81.23796 76.82925 97.26307
#
# Poissons Ratio (x) = 0.20725 0.37699
# Poissons Ratio (y) = 0.21914 0.32858
# Poissons Ratio (z) = 0.31488 0.25955
#
# Static dielectric constant tensor:
#      x y z
#    x 1.828290 0.000000 -0.050860 
#    y 0.000000 1.811570 0.000000 
#    z -0.050860 0.000000 1.773460 
# 
# From -- ./inp_files/54414.got.cif
#   From: 2010.05.17/outbox.cif.g08.bks.cpg/sg13_28_cif.got.tgz:54414.got - 2010.06.03 16:44:36.
