data_PCOD9231990
_publ_section_title
;
Structure prediction by ZEFSAII (Michael W. Deem and Ramdas Pophale) SiO2 
 PCOD9231990
Probable space group: P 2/C
;
_chemical_formula_sum "Si O2"
_cell_formula_units_Z 16
_cell_length_a 6.223813
_cell_length_b 8.582876
_cell_length_c 17.812868
_cell_angle_alpha 90.000000
_cell_angle_beta 43.853301
_cell_angle_gamma 90.000000
_cell_volume 659.234722
_symmetry_space_group_name_H-M "P 2/C"
_symmetry_group_IT_number 13
_symmetry_cell_setting 'monoclinic'
loop_
_space_group_symop_operation_xyz
x,y,z
-x,y,1/2-z
-x,-y,-z
x,-y,1/2+z
loop_
_atom_site_type_symbol
_atom_site_label
_atom_site_fract_x
_atom_site_fract_y
_atom_site_fract_z
Si Si1 0.604992 0.158835 0.070827
Si Si2 0.249935 0.426945 0.253892
Si Si3 0.345719 0.172861 0.869273
Si Si4 0.656011 0.657860 0.988820
O O1 0.440791 0.291103 0.163123
O O2 0.553254 0.991147 0.119714
O O3 0.458939 0.191342 0.026794
O O4 0.972320 0.177887 0.965235
O O5 0.500000 0.503978 0.250000
O O6 0.000000 0.485268 0.250000
O O7 0.010526 0.358470 0.376131
O O8 0.500000 0.176600 0.750000
O O9 0.428132 0.314561 0.903916
O O10 0.500000 0.500000 0.000000
#
# Coordination Sequence:
#
# PCOD9231990 Si02
#       4
#     4   4   4   4
#     4  10  23  45  73 104 144 200 250 315 385 447
#     4  10  20  43  74 105 141 203 250 305 385 459
#     4  11  24  44  74 109 148 191 261 319 371 455
#     4  11  25  47  72 109 150 200 250 314 388 468
#
# _framework density 24.270565000000001
#
# number of rings (size 3 to 8) (size 9 to 14) (size 15 to 20)
#    0.000    1.500    2.500    1.500    3.500    2.000 
#   18.000    1.250    0.000    0.000    0.000    0.000 
#    0.000    0.000    0.000    0.000    0.000    0.000 
#
# Total GULP energy -89301.555979 kJ/mol
# GULP energy per Si atom -5581.347249 kJ/mol
# Density = 2.421532 g / cm^3
# Si number density = 24.270565 Si / 1000 Ang^3
#
#
#
# Elastic Constant Matrix: (Units=GPa)
#
#
# Indices 1 2 3 4 5 6 
#
# 1 162.5847 61.3063 63.8247 0.0000 23.7910 0.0000
# 2 61.3063 86.8650 73.6990 0.0000 2.1504 0.0000
# 3 63.8247 73.6990 197.8865 0.0000 48.6868 0.0000
# 4 0.0000 0.0000 0.0000 18.5996 0.0000 23.9779
# 5 23.7910 2.1504 48.6868 0.0000 45.4956 0.0000
# 6 0.0000 0.0000 0.0000 23.9779 0.0000 11.2216
#
#
#
# Elastic Compliance Matrix: (Units=1/GPa)
#
#
# Indices 1 2 3 4 5 6 
#
# 1 0.009349 -0.007471 0.001199 0.000000 -0.005818 0.000000
# 2 -0.007471 0.025277 -0.010413 0.000000 0.013856 0.000000
# 3 0.001199 -0.010413 0.011644 0.000000 -0.012595 0.000000
# 4 0.000000 0.000000 0.000000 -0.030641 0.000000 0.065473
# 5 -0.005818 0.013856 -0.012595 0.000000 0.037846 0.000000
# 6 0.000000 0.000000 0.000000 0.065473 0.000000 -0.050788
#
#
# Mechanical properties :
#
#
# Convention : Reuss Voigt Hill
#
# Bulk Modulus (GPa) = 77.52940 93.88848 85.70894
# Shear Modulus (GPa) = 123.89631 31.63044 77.76338
#
# Velocity S-wave (km/s) = 7.15254 3.61396 5.66655
# Velocity P-wave (km/s) = 10.01124 7.49549 8.84328
#
# Compressibility (1/GPa) = 0.01289833
#
# Stress axis : x y z
#
# Youngs Moduli (GPa) = 106.96899 39.56236 85.88245
#
# Poissons Ratio (x) = 0.29556 -0.10294
# Poissons Ratio (y) = 0.79914 0.89431
# Poissons Ratio (z) = -0.12822 0.41197
#
# Static dielectric constant tensor:
#      x y z
#    x 2.041690 0.000000 0.028450 
#    y 0.000000 1.939660 0.000000 
#    z 0.028450 0.000000 1.874720 
# 
# From -- ./inp_files/60493.got.cif
#   From: 2010.05.17/outbox.cif.g08.bks.cpg/sg13_31_cif.got.tgz:60493.got - 2010.06.03 16:44:36.
