data_PCOD9231596
_publ_section_title
;
Structure prediction by ZEFSAII (Michael W. Deem and Ramdas Pophale) SiO2 
 PCOD9231596
Probable space group: P 2/C
;
_chemical_formula_sum "Si O2"
_cell_formula_units_Z 30
_cell_length_a 13.627247
_cell_length_b 19.379922
_cell_length_c 5.534930
_cell_angle_alpha 90.000000
_cell_angle_beta 78.223946
_cell_angle_gamma 90.000000
_cell_volume 1430.981518
_symmetry_space_group_name_H-M "P 2/C"
_symmetry_group_IT_number 13
_symmetry_cell_setting 'monoclinic'
loop_
_space_group_symop_operation_xyz
x,y,z
-x,y,1/2-z
-x,-y,-z
x,-y,1/2+z
loop_
_atom_site_type_symbol
_atom_site_label
_atom_site_fract_x
_atom_site_fract_y
_atom_site_fract_z
Si Si1 0.500000 0.957312 0.750000
Si Si2 0.878926 0.462992 0.794217
Si Si3 0.140340 0.040060 0.821743
Si Si4 0.086388 0.814226 0.508592
Si Si5 0.610657 0.754903 0.161910
Si Si6 0.750152 0.781796 0.714607
Si Si7 0.187471 0.306995 0.696256
Si Si8 0.671209 0.886007 0.408287
O O1 0.599244 0.912947 0.655633
O O2 0.500000 0.000000 0.500000
O O3 0.847817 0.507964 0.574242
O O4 0.839437 0.386019 0.766590
O O5 0.000000 0.461024 0.750000
O O6 0.260920 0.056647 0.753249
O O7 0.118377 0.003134 0.576827
O O8 0.083049 0.112812 0.877221
O O9 0.190458 0.817588 0.603034
O O10 0.103454 0.744563 0.348149
O O11 0.000000 0.807942 0.750000
O O12 0.500000 0.725613 0.250000
O O13 0.703226 0.713004 0.240908
O O14 0.611689 0.833071 0.268131
O O15 0.641779 0.761697 0.867026
O O16 0.804028 0.714170 0.588998
O O17 0.749364 0.835737 0.500558
#
# Coordination Sequence:
#
# PCOD9231596 Si02
#       8
#     2   4   4   4   4   4   4   4
#     4  12  28  38  58  92 118 164 218 272 358 432
#     4  10  24  43  70 109 151 187 217 263 331 401
#     4  12  25  43  63  83 126 175 223 288 352 408
#     4  11  25  41  64  93 124 173 233 289 339 403
#     4  10  21  38  68  95 129 170 225 286 337 398
#     4  10  20  40  65  91 127 167 222 282 334 395
#     4  10  23  41  67 104 132 181 223 276 332 399
#     4  11  22  41  59  86 121 167 218 286 351 410
#
# _framework density 20.964632999999999
#
# number of rings (size 3 to 8) (size 9 to 14) (size 15 to 20)
#    0.000    1.333    4.000    2.400    8.400    2.667 
#    0.000    0.000    0.000    0.800    0.000    0.000 
#    0.000    0.000    0.000    0.000    0.000    0.000 
#
# Total GULP energy -167464.953653 kJ/mol
# GULP energy per Si atom -5582.165122 kJ/mol
# Density = 2.091692 g / cm^3
# Si number density = 20.964633 Si / 1000 Ang^3
#
#
#
# Elastic Constant Matrix: (Units=GPa)
#
#
# Indices 1 2 3 4 5 6 
#
# 1 71.5206 35.3105 33.6013 0.0000 -9.7094 0.0000
# 2 35.3105 141.1307 71.6463 0.0000 -3.5199 0.0000
# 3 33.6013 71.6463 145.2562 0.0000 -13.9263 0.0000
# 4 0.0000 0.0000 0.0000 31.2542 0.0000 -0.0156
# 5 -9.7094 -3.5199 -13.9263 0.0000 39.3978 0.0000
# 6 0.0000 0.0000 0.0000 -0.0156 0.0000 18.4236
#
#
#
# Elastic Compliance Matrix: (Units=1/GPa)
#
#
# Indices 1 2 3 4 5 6 
#
# 1 0.016918 -0.003096 -0.002084 0.000000 0.003156 0.000000
# 2 -0.003096 0.010046 -0.004374 0.000000 -0.001412 0.000000
# 3 -0.002084 -0.004374 0.009768 0.000000 0.002549 0.000000
# 4 0.000000 0.000000 0.000000 0.031996 0.000000 0.000027
# 5 0.003156 -0.001412 0.002549 0.000000 0.026935 0.000000
# 6 0.000000 0.000000 0.000000 0.000027 0.000000 0.054278
#
#
# Mechanical properties :
#
#
# Convention : Reuss Voigt Hill
#
# Bulk Modulus (GPa) = 56.74146 71.00262 63.87204
# Shear Modulus (GPa) = 28.58398 32.30509 30.44453
#
# Velocity S-wave (km/s) = 3.69648 3.92973 3.81489
# Velocity P-wave (km/s) = 6.73370 7.38456 7.06663
#
# Compressibility (1/GPa) = 0.01762380
#
# Stress axis : x y z
#
# Youngs Moduli (GPa) = 59.10819 99.54592 102.37323
#
# Poissons Ratio (x) = 0.30823 0.21332
# Poissons Ratio (y) = 0.18302 0.44778
# Poissons Ratio (z) = 0.12317 0.43541
#
# Static dielectric constant tensor:
#      x y z
#    x 1.806860 0.000000 -0.045640 
#    y 0.000000 1.771780 0.000000 
#    z -0.045640 0.000000 1.840700 
# 
# From -- ./inp_files/5349.got.cif
#   From: 2010.05.17/outbox.cif.g08.bks.cpg/sg13_3_cif.got.tgz:5349.got - 2010.06.03 16:44:36.
