data_PCOD9231927
_publ_section_title
;
Structure prediction by ZEFSAII (Michael W. Deem and Ramdas Pophale) SiO2 
 PCOD9231927
Probable space group: P 2/C
;
_chemical_formula_sum "Si O2"
_cell_formula_units_Z 28
_cell_length_a 19.739174
_cell_length_b 9.488872
_cell_length_c 8.854102
_cell_angle_alpha 90.000000
_cell_angle_beta 129.684699
_cell_angle_gamma 90.000000
_cell_volume 1276.251534
_symmetry_space_group_name_H-M "P 2/C"
_symmetry_group_IT_number 13
_symmetry_cell_setting 'monoclinic'
loop_
_space_group_symop_operation_xyz
x,y,z
-x,y,1/2-z
-x,-y,-z
x,-y,1/2+z
loop_
_atom_site_type_symbol
_atom_site_label
_atom_site_fract_x
_atom_site_fract_y
_atom_site_fract_z
Si Si1 0.707581 0.030305 0.399276
Si Si2 0.500000 0.000000 0.000000
Si Si3 0.500000 0.234134 0.250000
Si Si4 0.313486 0.678370 0.482829
Si Si5 0.008821 0.152922 0.942072
Si Si6 0.240792 0.524539 0.664088
Si Si7 0.211999 0.188123 0.269918
Si Si8 0.054957 0.606976 0.975245
O O1 0.712128 0.158778 0.527826
O O2 0.761762 0.088492 0.333897
O O3 0.749313 0.890454 0.529724
O O4 0.605196 0.010759 0.208607
O O5 0.524039 0.867720 0.923385
O O6 0.584064 0.326721 0.328983
O O7 0.259158 0.584947 0.525039
O O8 0.299555 0.606239 0.301898
O O9 0.000000 0.151452 0.750000
O O10 0.106862 0.205310 0.124515
O O11 0.935360 0.254677 0.908989
O O12 0.000000 0.000000 0.000000
O O13 0.253425 0.660213 0.791059
O O14 0.142509 0.467695 0.543749
O O15 0.000000 0.647713 0.750000
O O16 0.000000 0.500000 0.000000
#
# Coordination Sequence:
#
# PCOD9231927 Si02
#       8
#     4   2   2   4   4   4   4   4
#     4  10  22  41  70  97 136 176 229 292 350 425
#     4  10  20  42  70 104 136 184 224 278 360 428
#     4  10  22  44  70 104 144 178 232 286 360 420
#     4  10  24  43  66 101 135 183 225 291 345 424
#     4  12  27  46  69 103 143 181 242 309 364 427
#     4  11  25  42  67  96 140 183 238 283 354 425
#     4  11  24  42  65  98 133 181 231 289 355 413
#     4  12  25  45  71  98 137 195 240 294 360 438
#
# _framework density 21.939250000000001
#
# number of rings (size 3 to 8) (size 9 to 14) (size 15 to 20)
#    0.000    1.143    1.429    4.286    6.000    2.857 
#    0.000    2.857    0.000    0.000    0.000    0.000 
#    0.000    0.000    0.000    0.000    0.000    0.000 
#
# Total GULP energy -156106.795181 kJ/mol
# GULP energy per Si atom -5575.242685 kJ/mol
# Density = 2.188932 g / cm^3
# Si number density = 21.939250 Si / 1000 Ang^3
#
#
#
# Elastic Constant Matrix: (Units=GPa)
#
#
# Indices 1 2 3 4 5 6 
#
# 1 81.5229 12.2970 11.6701 0.0000 6.6993 0.0000
# 2 12.2970 75.7647 28.1016 0.0000 -11.0043 0.0000
# 3 11.6701 28.1016 72.2684 0.0000 0.5528 0.0000
# 4 0.0000 0.0000 0.0000 -92.7914 0.0000 59.9872
# 5 6.6993 -11.0043 0.5528 0.0000 25.7498 0.0000
# 6 0.0000 0.0000 0.0000 59.9872 0.0000 -2.1107
#
#
#
# Elastic Compliance Matrix: (Units=1/GPa)
#
#
# Indices 1 2 3 4 5 6 
#
# 1 0.013149 -0.002334 -0.001182 0.000000 -0.004393 0.000000
# 2 -0.002334 0.017095 -0.006332 0.000000 0.008049 0.000000
# 3 -0.001182 -0.006332 0.016512 0.000000 -0.002753 0.000000
# 4 0.000000 0.000000 0.000000 0.000620 0.000000 0.017630
# 5 -0.004393 0.008049 -0.002753 0.000000 0.043477 0.000000
# 6 0.000000 0.000000 0.000000 0.017630 0.000000 0.027271
#
#
# Mechanical properties :
#
#
# Convention : Reuss Voigt Hill
#
# Bulk Modulus (GPa) = 36.95585 37.07704 37.01645
# Shear Modulus (GPa) = 34.05080 -1.99797 16.02641
#
# Velocity S-wave (km/s) = 3.94388 -0.95533 2.70569
# Velocity P-wave (km/s) = 6.13352 3.96480 5.16429
#
# Compressibility (1/GPa) = 0.02705932
#
# Stress axis : x y z
#
# Youngs Moduli (GPa) = 76.05300 58.49593 60.56362
#
# Poissons Ratio (x) = 0.13651 0.07160
# Poissons Ratio (y) = 0.17748 0.38350
# Poissons Ratio (z) = 0.08992 0.37041
#
# Static dielectric constant tensor:
#      x y z
#    x 1.827400 0.000000 0.010650 
#    y 0.000000 1.770150 0.000000 
#    z 0.010650 0.000000 1.798170 
# 
# From -- ./inp_files/23022.got.cif
#   From: 2010.05.17/outbox.cif.g08.bks.cpg/sg13_12_cif.got.tgz:23022.got - 2010.06.03 16:44:36.
