data_PCOD9231259
_publ_section_title
;
Structure prediction by ZEFSAII (Michael W. Deem and Ramdas Pophale) SiO2 
 PCOD9231259
Probable space group: P 2/C
;
_chemical_formula_sum "Si O2"
_cell_formula_units_Z 26
_cell_length_a 5.112991
_cell_length_b 12.296722
_cell_length_c 23.088698
_cell_angle_alpha 90.000000
_cell_angle_beta 115.071310
_cell_angle_gamma 90.000000
_cell_volume 1314.882906
_symmetry_space_group_name_H-M "P 2/C"
_symmetry_group_IT_number 13
_symmetry_cell_setting 'monoclinic'
loop_
_space_group_symop_operation_xyz
x,y,z
-x,y,1/2-z
-x,-y,-z
x,-y,1/2+z
loop_
_atom_site_type_symbol
_atom_site_label
_atom_site_fract_x
_atom_site_fract_y
_atom_site_fract_z
Si Si1 0.682354 0.672060 0.110979
Si Si2 0.156134 0.170522 0.208373
Si Si3 0.349500 0.894782 0.058151
Si Si4 0.000000 0.387241 0.750000
Si Si5 0.807432 0.409236 0.307784
Si Si6 0.118445 0.464105 0.573272
Si Si7 0.908756 0.026407 0.084563
O O1 0.508836 0.779784 0.077417
O O2 0.811684 0.684244 0.188302
O O3 0.439747 0.580007 0.094459
O O4 0.916403 0.627304 0.086154
O O5 0.500000 0.166771 0.250000
O O6 0.037404 0.294960 0.189878
O O7 0.000000 0.123510 0.250000
O O8 0.070770 0.103062 0.144275
O O9 0.608858 0.982272 0.082176
O O10 0.117885 0.926711 0.085503
O O11 0.177758 0.908956 0.981806
O O12 0.122806 0.475836 0.716133
O O13 0.500000 0.387643 0.250000
O O14 0.846862 0.436069 0.378722
O O15 0.000000 0.500000 0.500000
#
# Coordination Sequence:
#
# PCOD9231259 Si02
#       7
#     4   4   4   2   4   4   4
#     4  11  23  41  65  92 127 168 216 249 324 377
#     4  11  23  39  63  94 121 162 206 254 309 377
#     4  10  22  43  66  91 121 165 209 260 322 373
#     4  10  20  40  62  88 128 168 200 258 298 398
#     4  10  20  39  60  86 127 165 203 241 317 372
#     4  11  24  39  61  97 130 161 212 270 304 370
#     4  10  22  43  65  89 125 160 207 267 316 370
#
# _framework density 19.773626
#
# number of rings (size 3 to 8) (size 9 to 14) (size 15 to 20)
#    0.000    1.538    2.308    2.308    2.154    0.000 
#    9.692    0.000    0.000    0.000    0.000    0.000 
#    0.000    0.000    0.000    0.000    0.000    0.000 
#
# Total GULP energy -144868.623356 kJ/mol
# GULP energy per Si atom -5571.870129 kJ/mol
# Density = 1.972862 g / cm^3
# Si number density = 19.773626 Si / 1000 Ang^3
#
#
#
# Elastic Constant Matrix: (Units=GPa)
#
#
# Indices 1 2 3 4 5 6 
#
# 1 69.1346 -3.0671 22.2651 0.0000 0.7466 0.0000
# 2 -3.0671 49.1903 37.6084 0.0000 4.1753 0.0000
# 3 22.2651 37.6084 145.3887 0.0000 11.2646 0.0000
# 4 0.0000 0.0000 0.0000 -38.1803 0.0000 -84.4623
# 5 0.7466 4.1753 11.2646 0.0000 23.9248 0.0000
# 6 0.0000 0.0000 0.0000 -84.4623 0.0000 -96.6029
#
#
#
# Elastic Compliance Matrix: (Units=1/GPa)
#
#
# Indices 1 2 3 4 5 6 
#
# 1 0.015691 0.003495 -0.003344 0.000000 0.000475 0.000000
# 2 0.003495 0.026164 -0.007204 0.000000 -0.001283 0.000000
# 3 -0.003344 -0.007204 0.009494 0.000000 -0.003109 0.000000
# 4 0.000000 0.000000 0.000000 0.028037 0.000000 -0.024513
# 5 0.000475 -0.001283 -0.003109 0.000000 0.043470 0.000000
# 6 0.000000 0.000000 0.000000 -0.024513 0.000000 0.011081
#
#
# Mechanical properties :
#
#
# Convention : Reuss Voigt Hill
#
# Bulk Modulus (GPa) = 26.85016 41.92513 34.38765
# Shear Modulus (GPa) = 31.16085 -8.37786 11.39149
#
# Velocity S-wave (km/s) = 3.97404 -2.06060 2.40280
# Velocity P-wave (km/s) = 5.88775 3.94805 5.01262
#
# Compressibility (1/GPa) = 0.03724372
#
# Stress axis : x y z
#
# Youngs Moduli (GPa) = 63.72953 38.22118 105.32498
#
# Poissons Ratio (x) = -0.13357 0.35218
# Poissons Ratio (y) = -0.22271 0.75871
# Poissons Ratio (z) = 0.21309 0.27533
#
# Static dielectric constant tensor:
#      x y z
#    x 1.720260 0.000000 0.007230 
#    y 0.000000 1.733270 0.000000 
#    z 0.007230 0.000000 1.690230 
# 
# From -- ./inp_files/73300.got.cif
#   From: 2010.05.17/outbox.cif.g08.bks.cpg/sg13_37_cif.got.tgz:73300.got - 2010.06.03 16:44:36.
