data_PCOD9231622
_publ_section_title
;
Structure prediction by ZEFSAII (Michael W. Deem and Ramdas Pophale) SiO2 
 PCOD9231622
Probable space group: P 2/C
;
_chemical_formula_sum "Si O2"
_cell_formula_units_Z 20
_cell_length_a 7.351089
_cell_length_b 6.987058
_cell_length_c 18.244383
_cell_angle_alpha 90.000000
_cell_angle_beta 79.957019
_cell_angle_gamma 90.000000
_cell_volume 922.718222
_symmetry_space_group_name_H-M "P 2/C"
_symmetry_group_IT_number 13
_symmetry_cell_setting 'monoclinic'
loop_
_space_group_symop_operation_xyz
x,y,z
-x,y,1/2-z
-x,-y,-z
x,-y,1/2+z
loop_
_atom_site_type_symbol
_atom_site_label
_atom_site_fract_x
_atom_site_fract_y
_atom_site_fract_z
Si Si1 0.415351 0.640642 0.863371
Si Si2 0.761322 0.653403 0.042389
Si Si3 0.203196 0.646302 0.725148
Si Si4 0.140027 0.394899 0.596259
Si Si5 0.703370 0.929079 0.505201
O O1 0.415518 0.429253 0.901175
O O2 0.298821 0.621795 0.797052
O O3 0.618771 0.726053 0.832448
O O4 0.311434 0.778581 0.927374
O O5 0.931559 0.589814 0.081008
O O6 0.794626 0.875688 0.025480
O O7 0.759972 0.548525 0.964228
O O8 0.157272 0.459221 0.678816
O O9 0.000000 0.741549 0.750000
O O10 0.210299 0.185393 0.568695
O O11 0.500000 0.000000 0.500000
#
# Coordination Sequence:
#
# PCOD9231622 Si02
#       5
#     4   4   4   4   4
#     4  10  23  41  66  92 124 170 213 258 322 380
#     4  10  20  40  66  92 128 158 215 271 308 379
#     4  11  21  41  66  87 126 172 208 255 320 381
#     4  10  21  38  66  96 120 171 212 258 324 370
#     4  11  22  39  64  98 127 163 213 270 318 372
#
# _framework density 21.675090000000001
#
# number of rings (size 3 to 8) (size 9 to 14) (size 15 to 20)
#    0.000    1.600    2.000    3.000    0.000    3.200 
#    3.600   10.000    0.000    0.000    0.000    0.000 
#    0.000    0.000    0.000    0.000    0.000    0.000 
#
# Total GULP energy -111454.293694 kJ/mol
# GULP energy per Si atom -5572.714685 kJ/mol
# Density = 2.162576 g / cm^3
# Si number density = 21.675090 Si / 1000 Ang^3
#
#
#
# Elastic Constant Matrix: (Units=GPa)
#
#
# Indices 1 2 3 4 5 6 
#
# 1 107.7670 -4.1811 25.6984 0.0000 12.7609 0.0000
# 2 -4.1811 85.3020 21.8388 0.0000 8.1183 0.0000
# 3 25.6984 21.8388 74.2052 0.0000 13.4129 0.0000
# 4 0.0000 0.0000 0.0000 1.1216 0.0000 -5.8388
# 5 12.7609 8.1183 13.4129 0.0000 40.5188 0.0000
# 6 0.0000 0.0000 0.0000 -5.8388 0.0000 28.2310
#
#
#
# Elastic Compliance Matrix: (Units=1/GPa)
#
#
# Indices 1 2 3 4 5 6 
#
# 1 0.010515 0.001694 -0.003702 0.000000 -0.002426 0.000000
# 2 0.001694 0.013025 -0.004097 0.000000 -0.001787 0.000000
# 3 -0.003702 -0.004097 0.016598 0.000000 -0.003508 0.000000
# 4 0.000000 0.000000 0.000000-11.628246 0.000000 -2.404992
# 5 -0.002426 -0.001787 -0.003508 0.000000 0.026963 0.000000
# 6 0.000000 0.000000 0.000000 -2.404992 0.000000 -0.461986
#
#
# Mechanical properties :
#
#
# Convention : Reuss Voigt Hill
#
# Bulk Modulus (GPa) = 35.80556 39.33180 37.56868
# Shear Modulus (GPa) = -0.41661 28.90215 14.24277
#
# Velocity S-wave (km/s) = -0.43889 3.65557 2.56618
# Velocity P-wave (km/s) = 4.03711 6.00026 5.11377
#
# Compressibility (1/GPa) = 0.02792862
#
# Stress axis : x y z
#
# Youngs Moduli (GPa) = 95.10317 76.77524 60.24889
#
# Poissons Ratio (x) = -0.13005 0.22301
# Poissons Ratio (y) = -0.16110 0.24684
# Poissons Ratio (z) = 0.35203 0.31454
#
# Static dielectric constant tensor:
#      x y z
#    x 1.947870 0.000000 -0.074470 
#    y 0.000000 1.890670 0.000000 
#    z -0.074470 0.000000 1.803070 
# 
# From -- ./inp_files/74171.got.cif
#   From: 2010.05.17/outbox.cif.g08.bks.cpg/sg13_38_cif.got.tgz:74171.got - 2010.06.03 16:44:36.
