data_PCOD9231653
_publ_section_title
;
Structure prediction by ZEFSAII (Michael W. Deem and Ramdas Pophale) SiO2 
 PCOD9231653
Probable space group: P 2/C
;
_chemical_formula_sum "Si O2"
_cell_formula_units_Z 20
_cell_length_a 23.861597
_cell_length_b 7.342448
_cell_length_c 9.930763
_cell_angle_alpha 90.000000
_cell_angle_beta 32.400932
_cell_angle_gamma 90.000000
_cell_volume 932.306179
_symmetry_space_group_name_H-M "P 2/C"
_symmetry_group_IT_number 13
_symmetry_cell_setting 'monoclinic'
loop_
_space_group_symop_operation_xyz
x,y,z
-x,y,1/2-z
-x,-y,-z
x,-y,1/2+z
loop_
_atom_site_type_symbol
_atom_site_label
_atom_site_fract_x
_atom_site_fract_y
_atom_site_fract_z
Si Si1 0.551050 0.241227 0.006147
Si Si2 0.190442 0.810434 0.900727
Si Si3 0.784301 0.140114 0.465299
Si Si4 0.931086 0.454495 0.270385
Si Si5 0.583247 0.324282 0.467085
O O1 0.659750 0.146315 0.747269
O O2 0.579915 0.456835 0.956531
O O3 0.500000 0.181729 0.250000
O O4 0.460432 0.231925 0.078801
O O5 0.195287 0.871341 0.735583
O O6 0.304171 0.737853 0.714180
O O7 0.113714 0.641417 0.077637
O O8 0.166383 0.974639 0.050869
O O9 0.837610 0.323728 0.413031
O O10 0.000000 0.367120 0.250000
O O11 0.000000 0.500000 0.000000
O O12 0.500000 0.278834 0.750000
#
# Coordination Sequence:
#
# PCOD9231653 Si02
#       5
#     4   4   4   4   4
#     4  10  22  38  70 104 142 193 235 284 345 418
#     4  12  28  46  74 109 147 186 240 292 355 431
#     4  12  28  47  72 110 146 187 238 295 356 430
#     4  12  28  52  79 102 138 187 240 305 368 418
#     4  10  20  40  68 101 144 190 237 280 342 422
#
# _framework density 21.452178
#
# number of rings (size 3 to 8) (size 9 to 14) (size 15 to 20)
#    0.000    0.800    6.000    0.000    5.600    3.200 
#    0.000    0.000    0.000    0.000    0.000    0.000 
#    0.000    0.000    0.000    0.000    0.000    0.000 
#
# Total GULP energy -111969.589870 kJ/mol
# GULP energy per Si atom -5598.479493 kJ/mol
# Density = 2.140335 g / cm^3
# Si number density = 21.452178 Si / 1000 Ang^3
#
#
#
# Elastic Constant Matrix: (Units=GPa)
#
#
# Indices 1 2 3 4 5 6 
#
# 1 153.2116 30.7669 50.9300 0.0000 26.9159 0.0000
# 2 30.7669 86.6717 17.9234 0.0000 3.7855 0.0000
# 3 50.9300 17.9234 90.7031 0.0000 9.4947 0.0000
# 4 0.0000 0.0000 0.0000 21.7471 0.0000 20.0078
# 5 26.9159 3.7855 9.4947 0.0000 42.4884 0.0000
# 6 0.0000 0.0000 0.0000 20.0078 0.0000 29.8211
#
#
#
# Elastic Compliance Matrix: (Units=1/GPa)
#
#
# Indices 1 2 3 4 5 6 
#
# 1 0.009199 -0.002183 -0.004243 0.000000 -0.004685 0.000000
# 2 -0.002183 0.012560 -0.001314 0.000000 0.000558 0.000000
# 3 -0.004243 -0.001314 0.013694 0.000000 -0.000255 0.000000
# 4 0.000000 0.000000 0.000000 0.120143 0.000000 -0.080607
# 5 -0.004685 0.000558 -0.000255 0.000000 0.026511 0.000000
# 6 0.000000 0.000000 0.000000 -0.080607 0.000000 0.087615
#
#
# Mechanical properties :
#
#
# Convention : Reuss Voigt Hill
#
# Bulk Modulus (GPa) = 50.07260 58.86966 54.47113
# Shear Modulus (GPa) = 17.13143 34.20908 25.67025
#
# Velocity S-wave (km/s) = 2.82899 3.99766 3.46298
# Velocity P-wave (km/s) = 5.83636 6.98643 6.43713
#
# Compressibility (1/GPa) = 0.01997100
#
# Stress axis : x y z
#
# Youngs Moduli (GPa) = 108.70836 79.61600 73.02429
#
# Poissons Ratio (x) = 0.17383 0.30987
# Poissons Ratio (y) = 0.23735 0.09598
# Poissons Ratio (z) = 0.46129 0.10465
#
# Static dielectric constant tensor:
#      x y z
#    x 1.710290 0.000000 0.000010 
#    y 0.000000 1.812790 0.000000 
#    z 0.000010 0.000000 1.723160 
# 
# From -- ./inp_files/21236.got.cif
#   From: 2010.05.17/outbox.cif.g08.bks.cpg/sg13_11_cif.got.tgz:21236.got - 2010.06.03 16:44:36.
