data_PCOD9231854
_publ_section_title
;
Structure prediction by ZEFSAII (Michael W. Deem and Ramdas Pophale) SiO2 
 PCOD9231854
Probable space group: P 2/C
;
_chemical_formula_sum "Si O2"
_cell_formula_units_Z 16
_cell_length_a 21.403561
_cell_length_b 4.593556
_cell_length_c 10.742797
_cell_angle_alpha 90.000000
_cell_angle_beta 148.854205
_cell_angle_gamma 90.000000
_cell_volume 546.293051
_symmetry_space_group_name_H-M "P 2/C"
_symmetry_group_IT_number 13
_symmetry_cell_setting 'monoclinic'
loop_
_space_group_symop_operation_xyz
x,y,z
-x,y,1/2-z
-x,-y,-z
x,-y,1/2+z
loop_
_atom_site_type_symbol
_atom_site_label
_atom_site_fract_x
_atom_site_fract_y
_atom_site_fract_z
Si Si1 0.210264 0.029425 0.448254
Si Si2 0.000000 0.792611 0.250000
Si Si3 0.171139 0.528906 0.212883
Si Si4 0.383149 0.752122 0.919907
Si Si5 0.500000 0.279643 0.250000
O O1 0.166124 0.856280 0.250701
O O2 0.336971 0.898974 0.713600
O O3 0.110029 0.979065 0.382771
O O4 0.210140 0.358556 0.404597
O O5 0.049417 0.589426 0.445031
O O6 0.274297 0.439905 0.290903
O O7 0.493551 0.522879 0.127133
O O8 0.403551 0.036093 0.041436
#
# Coordination Sequence:
#
# PCOD9231854 Si02
#       5
#     4   2   4   4   2
#     4  11  23  40  62  91 122 158 199 243 296 356
#     4  10  24  40  64  90 124 160 196 244 296 354
#     4  11  23  40  62  91 122 158 199 243 296 356
#     4  10  22  40  62  88 122 156 198 250 296 350
#     4  10  20  42  64  84 120 160 196 250 304 344
#
# _framework density 29.288308000000001
#
# number of rings (size 3 to 8) (size 9 to 14) (size 15 to 20)
#    0.000    1.500    0.000    4.500    0.000    8.000 
#    0.000   25.000    0.000    0.000    0.000    0.000 
#    0.000    0.000    0.000    0.000    0.000    0.000 
#
# Total GULP energy -89650.240603 kJ/mol
# GULP energy per Si atom -5603.140038 kJ/mol
# Density = 2.922165 g / cm^3
# Si number density = 29.288308 Si / 1000 Ang^3
#
#
#
# Elastic Constant Matrix: (Units=GPa)
#
#
# Indices 1 2 3 4 5 6 
#
# 1 71.8243 11.4761 27.5384 0.0000 -22.3754 0.0000
# 2 11.4761 141.5554 33.0440 0.0000 1.0616 0.0000
# 3 27.5384 33.0440 126.0917 0.0000 -17.9702 0.0000
# 4 0.0000 0.0000 0.0000 52.4382 0.0000 -7.8052
# 5 -22.3754 1.0616 -17.9702 0.0000 45.3684 0.0000
# 6 0.0000 0.0000 0.0000 -7.8052 0.0000 42.1911
#
#
#
# Elastic Compliance Matrix: (Units=1/GPa)
#
#
# Indices 1 2 3 4 5 6 
#
# 1 0.017387 -0.000888 -0.002480 0.000000 0.007614 0.000000
# 2 -0.000888 0.007614 -0.002002 0.000000 -0.001409 0.000000
# 3 -0.002480 -0.002002 0.009358 0.000000 0.002530 0.000000
# 4 0.000000 0.000000 0.000000 0.019610 0.000000 0.003628
# 5 0.007614 -0.001409 0.002530 0.000000 0.026832 0.000000
# 6 0.000000 0.000000 0.000000 0.003628 0.000000 0.024373
#
#
# Mechanical properties :
#
#
# Convention : Reuss Voigt Hill
#
# Bulk Modulus (GPa) = 42.33754 53.73204 48.03479
# Shear Modulus (GPa) = 40.39180 45.82705 43.10943
#
# Velocity S-wave (km/s) = 3.71767 3.95990 3.84070
# Velocity P-wave (km/s) = 5.73715 6.26845 6.00868
#
# Compressibility (1/GPa) = 0.02361970
#
# Stress axis : x y z
#
# Youngs Moduli (GPa) = 57.51288 131.33103 106.86432
#
# Poissons Ratio (x) = 0.11661 0.26498
# Poissons Ratio (y) = 0.05107 0.21398
# Poissons Ratio (z) = 0.14261 0.26297
#
# Static dielectric constant tensor:
#      x y z
#    x 2.327390 0.000000 0.036470 
#    y 0.000000 2.111970 0.000000 
#    z 0.036470 0.000000 2.297890 
# 
# From -- ./inp_files/31081.got.cif
#   From: 2010.05.17/outbox.cif.g08.bks.cpg/sg13_16_cif.got.tgz:31081.got - 2010.06.03 16:44:36.
