data_PCOD9231304
_publ_section_title
;
Structure prediction by ZEFSAII (Michael W. Deem and Ramdas Pophale) SiO2 
 PCOD9231304
Probable space group: P 2/C
;
_chemical_formula_sum "Si O2"
_cell_formula_units_Z 30
_cell_length_a 16.882797
_cell_length_b 6.465759
_cell_length_c 13.565829
_cell_angle_alpha 90.000000
_cell_angle_beta 116.690462
_cell_angle_gamma 90.000000
_cell_volume 1323.057269
_symmetry_space_group_name_H-M "P 2/C"
_symmetry_group_IT_number 13
_symmetry_cell_setting 'monoclinic'
loop_
_space_group_symop_operation_xyz
x,y,z
-x,y,1/2-z
-x,-y,-z
x,-y,1/2+z
loop_
_atom_site_type_symbol
_atom_site_label
_atom_site_fract_x
_atom_site_fract_y
_atom_site_fract_z
Si Si1 0.299588 0.712697 0.717082
Si Si2 0.463835 0.642538 0.895047
Si Si3 0.610895 0.050493 0.407481
Si Si4 0.925440 0.259531 0.290705
Si Si5 0.126437 0.964471 0.558751
Si Si6 0.801645 0.043175 0.612293
Si Si7 0.500000 0.313654 0.750000
Si Si8 0.827101 0.646949 0.307967
O O1 0.364346 0.730011 0.846988
O O2 0.362466 0.787337 0.663498
O O3 0.216917 0.864326 0.654902
O O4 0.254742 0.487913 0.697345
O O5 0.531283 0.831731 0.917981
O O6 0.459330 0.471213 0.805859
O O7 0.500000 0.500000 0.000000
O O8 0.701916 0.019735 0.517335
O O9 0.572055 0.839811 0.339683
O O10 0.943859 0.125339 0.400657
O O11 0.842226 0.159604 0.185858
O O12 0.901202 0.485009 0.315428
O O13 0.000000 0.258600 0.250000
O O14 0.135203 0.909903 0.448215
O O15 0.137666 0.205877 0.586198
O O16 0.804457 0.218637 0.698312
#
# Coordination Sequence:
#
# PCOD9231304 Si02
#       8
#     4   4   4   4   4   4   2   4
#     4  10  20  39  62  88 129 164 213 262 309 369
#     4  12  25  40  63  94 126 175 224 267 316 375
#     4  11  23  43  61  94 133 172 217 264 319 373
#     4  10  23  44  66  98 131 157 208 264 318 392
#     4   9  22  40  66  93 127 171 204 260 320 376
#     4  10  23  41  67  95 129 168 218 257 315 386
#     4  12  24  42  64  88 136 176 210 278 320 360
#     4  10  22  40  64  95 127 169 208 263 320 371
#
# _framework density 22.674755999999999
#
# number of rings (size 3 to 8) (size 9 to 14) (size 15 to 20)
#    0.000    1.600    2.667    0.800    3.733   10.667 
#    2.400    1.333    0.000    0.000    0.000    0.000 
#    0.000    0.000    0.000    0.000    0.000    0.000 
#
# Total GULP energy -167463.757550 kJ/mol
# GULP energy per Si atom -5582.125252 kJ/mol
# Density = 2.262315 g / cm^3
# Si number density = 22.674756 Si / 1000 Ang^3
#
#
#
# Elastic Constant Matrix: (Units=GPa)
#
#
# Indices 1 2 3 4 5 6 
#
# 1 51.1397 20.4665 1.0910 0.0000 -8.2158 0.0000
# 2 20.4665 105.8875 28.0138 0.0000 -4.3850 0.0000
# 3 1.0910 28.0138 64.7704 0.0000 -6.2222 0.0000
# 4 0.0000 0.0000 0.0000 16.1288 0.0000 -9.8290
# 5 -8.2158 -4.3850 -6.2222 0.0000 32.6283 0.0000
# 6 0.0000 0.0000 0.0000 -9.8290 0.0000 21.9739
#
#
#
# Elastic Compliance Matrix: (Units=1/GPa)
#
#
# Indices 1 2 3 4 5 6 
#
# 1 0.022232 -0.004643 0.002151 0.000000 0.005384 0.000000
# 2 -0.004643 0.011644 -0.005012 0.000000 -0.000560 0.000000
# 3 0.002151 -0.005012 0.017886 0.000000 0.003279 0.000000
# 4 0.000000 0.000000 0.000000 0.085235 0.000000 0.038126
# 5 0.005384 -0.000560 0.003279 0.000000 0.032554 0.000000
# 6 0.000000 0.000000 0.000000 0.038126 0.000000 0.062562
#
#
# Mechanical properties :
#
#
# Convention : Reuss Voigt Hill
#
# Bulk Modulus (GPa) = 27.20842 35.66003 31.43423
# Shear Modulus (GPa) = 19.27739 25.62796 22.45267
#
# Velocity S-wave (km/s) = 2.91893 3.36555 3.15017
# Velocity P-wave (km/s) = 4.83587 5.55549 5.20813
#
# Compressibility (1/GPa) = 0.03675332
#
# Stress axis : x y z
#
# Youngs Moduli (GPa) = 44.98107 85.87979 55.91105
#
# Poissons Ratio (x) = 0.39875 -0.12026
# Poissons Ratio (y) = 0.20885 0.28022
# Poissons Ratio (z) = -0.09675 0.43041
#
# Static dielectric constant tensor:
#      x y z
#    x 1.995050 0.000000 0.040740 
#    y 0.000000 1.807860 0.000000 
#    z 0.040740 0.000000 1.917060 
# 
# From -- ./inp_files/54457.got.cif
#   From: 2010.05.17/outbox.cif.g08.bks.cpg/sg13_28_cif.got.tgz:54457.got - 2010.06.03 16:44:36.
