data_PCOD9231549
_publ_section_title
;
Structure prediction by ZEFSAII (Michael W. Deem and Ramdas Pophale) SiO2 
 PCOD9231549
Probable space group: P 2/C
;
_chemical_formula_sum "Si O2"
_cell_formula_units_Z 26
_cell_length_a 9.798504
_cell_length_b 7.438552
_cell_length_c 19.076124
_cell_angle_alpha 90.000000
_cell_angle_beta 63.611983
_cell_angle_gamma 90.000000
_cell_volume 1245.522757
_symmetry_space_group_name_H-M "P 2/C"
_symmetry_group_IT_number 13
_symmetry_cell_setting 'monoclinic'
loop_
_space_group_symop_operation_xyz
x,y,z
-x,y,1/2-z
-x,-y,-z
x,-y,1/2+z
loop_
_atom_site_type_symbol
_atom_site_label
_atom_site_fract_x
_atom_site_fract_y
_atom_site_fract_z
Si Si1 0.071551 0.314928 0.345781
Si Si2 0.546841 0.131278 0.428844
Si Si3 0.304958 0.660551 0.913375
Si Si4 0.267019 0.466234 0.069733
Si Si5 0.500000 0.701957 0.750000
Si Si6 0.825873 0.650128 0.270510
Si Si7 0.748553 0.031283 0.259034
O O1 0.151463 0.312618 0.403876
O O2 0.155447 0.470264 0.280278
O O3 0.896179 0.366949 0.389921
O O4 0.096091 0.127404 0.299852
O O5 0.396412 0.160615 0.415725
O O6 0.600499 0.322995 0.446561
O O7 0.500000 0.000000 0.500000
O O8 0.688423 0.059044 0.351407
O O9 0.429633 0.585127 0.828952
O O10 0.278549 0.553484 0.990586
O O11 0.260093 0.602424 0.137448
O O12 0.368597 0.839609 0.755944
O O13 0.753681 0.818650 0.246556
O O14 0.000000 0.702957 0.250000
#
# Coordination Sequence:
#
# PCOD9231549 Si02
#       7
#     4   4   4   4   2   4   4
#     4  10  22  43  65  94 130 168 210 272 326 371
#     4  11  23  40  62  93 131 170 212 261 318 378
#     4  10  21  42  64  89 131 169 215 267 318 387
#     4  11  22  41  66  95 127 170 217 268 321 379
#     4   8  20  40  60  86 128 170 206 268 322 380
#     4  10  22  37  65  96 123 163 213 259 323 380
#     4  10  20  40  63  88 128 164 211 261 318 380
#
# _framework density 20.874768
#
# number of rings (size 3 to 8) (size 9 to 14) (size 15 to 20)
#    0.000    1.846    1.538    1.846    2.154    0.000 
#   11.077    0.769    0.000    0.000    0.000    0.000 
#    0.000    0.000    0.000    0.000    0.000    0.000 
#
# Total GULP energy -145035.761725 kJ/mol
# GULP energy per Si atom -5578.298528 kJ/mol
# Density = 2.082726 g / cm^3
# Si number density = 20.874768 Si / 1000 Ang^3
#
#
#
# Elastic Constant Matrix: (Units=GPa)
#
#
# Indices 1 2 3 4 5 6 
#
# 1 83.8135 19.4601 18.4815 0.0000 6.7600 0.0000
# 2 19.4601 94.1953 44.9275 0.0000 -1.0613 0.0000
# 3 18.4815 44.9275 138.3440 0.0000 3.8801 0.0000
# 4 0.0000 0.0000 0.0000 30.4065 0.0000 3.1956
# 5 6.7600 -1.0613 3.8801 0.0000 23.9804 0.0000
# 6 0.0000 0.0000 0.0000 3.1956 0.0000 17.3328
#
#
#
# Elastic Compliance Matrix: (Units=1/GPa)
#
#
# Indices 1 2 3 4 5 6 
#
# 1 0.012950 -0.002295 -0.000884 0.000000 -0.003609 0.000000
# 2 -0.002295 0.013004 -0.003969 0.000000 0.001865 0.000000
# 3 -0.000884 -0.003969 0.008673 0.000000 -0.001330 0.000000
# 4 0.000000 0.000000 0.000000 0.033538 0.000000 -0.006183
# 5 -0.003609 0.001865 -0.001330 0.000000 0.043016 0.000000
# 6 0.000000 0.000000 0.000000 -0.006183 0.000000 0.058834
#
#
# Mechanical properties :
#
#
# Convention : Reuss Voigt Hill
#
# Bulk Modulus (GPa) = 49.18199 53.56564 51.37381
# Shear Modulus (GPa) = 26.16623 29.90953 28.03788
#
# Velocity S-wave (km/s) = 3.54430 3.78935 3.66887
# Velocity P-wave (km/s) = 6.35304 6.69789 6.52774
#
# Compressibility (1/GPa) = 0.02033265
#
# Stress axis : x y z
#
# Youngs Moduli (GPa) = 77.22034 76.89752 115.30543
#
# Poissons Ratio (x) = 0.17645 0.10188
# Poissons Ratio (y) = 0.17719 0.45764
# Poissons Ratio (z) = 0.06823 0.30520
#
# Static dielectric constant tensor:
#      x y z
#    x 1.812490 0.000000 -0.011380 
#    y 0.000000 1.724110 0.000000 
#    z -0.011380 0.000000 1.805700 
# 
# From -- ./inp_files/77183.got.cif
#   From: 2010.05.17/outbox.cif.g08.bks.cpg/sg13_39_cif.got.tgz:77183.got - 2010.06.03 16:44:36.
