data_PCOD9231467
_publ_section_title
;
Structure prediction by ZEFSAII (Michael W. Deem and Ramdas Pophale) SiO2 
 PCOD9231467
Probable space group: P 2/C
;
_chemical_formula_sum "Si O2"
_cell_formula_units_Z 18
_cell_length_a 20.106472
_cell_length_b 7.272315
_cell_length_c 10.668305
_cell_angle_alpha 90.000000
_cell_angle_beta 148.492244
_cell_angle_gamma 90.000000
_cell_volume 815.239102
_symmetry_space_group_name_H-M "P 2/C"
_symmetry_group_IT_number 13
_symmetry_cell_setting 'monoclinic'
loop_
_space_group_symop_operation_xyz
x,y,z
-x,y,1/2-z
-x,-y,-z
x,-y,1/2+z
loop_
_atom_site_type_symbol
_atom_site_label
_atom_site_fract_x
_atom_site_fract_y
_atom_site_fract_z
Si Si1 0.500000 0.687649 0.250000
Si Si2 0.632837 0.547680 0.144265
Si Si3 0.299176 0.134586 0.600145
Si Si4 0.065466 0.185009 0.053097
Si Si5 0.179898 0.248285 0.963746
O O1 0.608113 0.547045 0.472155
O O2 0.572870 0.818857 0.270467
O O3 0.674988 0.758074 0.227690
O O4 0.738851 0.426676 0.380969
O O5 0.500000 0.500000 0.000000
O O6 0.177240 0.222249 0.331733
O O7 0.267140 0.919941 0.556322
O O8 0.129232 0.174223 0.017687
O O9 0.937894 0.299355 0.816299
O O10 0.000000 0.000000 0.000000
#
# Coordination Sequence:
#
# PCOD9231467 Si02
#       5
#     2   4   4   4   4
#     4  10  20  40  58  86 128 158 202 258 294 364
#     4  10  22  39  58  88 124 158 205 248 297 363
#     4  10  21  40  62  89 124 158 202 255 308 364
#     4   9  19  39  64  90 124 155 200 255 301 371
#     4  10  20  40  64  91 120 160 203 251 312 365
#
# _framework density 22.079411
#
# number of rings (size 3 to 8) (size 9 to 14) (size 15 to 20)
#    0.000    2.222    2.222    0.000    0.000    4.444 
#   16.000   11.111    0.000    0.000    0.000    0.000 
#    0.000    0.000    0.000    0.000    0.000    0.000 
#
# Total GULP energy -100219.546564 kJ/mol
# GULP energy per Si atom -5567.752587 kJ/mol
# Density = 2.202916 g / cm^3
# Si number density = 22.079411 Si / 1000 Ang^3
#
#
#
# Elastic Constant Matrix: (Units=GPa)
#
#
# Indices 1 2 3 4 5 6 
#
# 1 41.8151 5.6897 -11.4395 0.0000 11.8675 0.0000
# 2 5.6897 44.9259 0.3093 0.0000 5.7103 0.0000
# 3 -11.4395 0.3093 70.4317 0.0000 13.0042 0.0000
# 4 0.0000 0.0000 0.0000 35.4938 0.0000 -5.0830
# 5 11.8675 5.7103 13.0042 0.0000 21.5197 0.0000
# 6 0.0000 0.0000 0.0000 -5.0830 0.0000 5.2197
#
#
#
# Elastic Compliance Matrix: (Units=1/GPa)
#
#
# Indices 1 2 3 4 5 6 
#
# 1 0.033698 -0.001251 0.009960 0.000000 -0.024270 0.000000
# 2 -0.001251 0.023166 0.000791 0.000000 -0.005935 0.000000
# 3 0.009960 0.000791 0.018983 0.000000 -0.017174 0.000000
# 4 0.000000 0.000000 0.000000 0.032740 0.000000 0.031882
# 5 -0.024270 -0.005935 -0.017174 0.000000 0.071806 0.000000
# 6 0.000000 0.000000 0.000000 0.031882 0.000000 0.222627
#
#
# Mechanical properties :
#
#
# Convention : Reuss Voigt Hill
#
# Bulk Modulus (GPa) = 10.54344 16.25465 13.39904
# Shear Modulus (GPa) = 12.02972 23.28751 17.65861
#
# Velocity S-wave (km/s) = 2.33671 3.25116 2.83110
# Velocity P-wave (km/s) = 3.47360 4.63371 4.09495
#
# Compressibility (1/GPa) = 0.09484569
#
# Stress axis : x y z
#
# Youngs Moduli (GPa) = 29.67546 43.16615 52.67804
#
# Poissons Ratio (x) = 0.05402 -0.52466
# Poissons Ratio (y) = 0.03714 -0.04166
# Poissons Ratio (z) = -0.29556 -0.03414
#
# Static dielectric constant tensor:
#      x y z
#    x 1.891530 0.000000 -0.077770 
#    y 0.000000 1.820470 0.000000 
#    z -0.077770 0.000000 1.894300 
# 
# From -- ./inp_files/31307.got.cif
#   From: 2010.05.17/outbox.cif.g08.bks.cpg/sg13_16_cif.got.tgz:31307.got - 2010.06.03 16:44:36.
