data_PCOD9231319
_publ_section_title
;
Structure prediction by ZEFSAII (Michael W. Deem and Ramdas Pophale) SiO2 
 PCOD9231319
Probable space group: P 2/C
;
_chemical_formula_sum "Si O2"
_cell_formula_units_Z 20
_cell_length_a 7.913509
_cell_length_b 23.351100
_cell_length_c 8.842320
_cell_angle_alpha 90.000000
_cell_angle_beta 144.956155
_cell_angle_gamma 90.000000
_cell_volume 938.227627
_symmetry_space_group_name_H-M "P 2/C"
_symmetry_group_IT_number 13
_symmetry_cell_setting 'monoclinic'
loop_
_space_group_symop_operation_xyz
x,y,z
-x,y,1/2-z
-x,-y,-z
x,-y,1/2+z
loop_
_atom_site_type_symbol
_atom_site_label
_atom_site_fract_x
_atom_site_fract_y
_atom_site_fract_z
Si Si1 0.203596 0.538094 0.252857
Si Si2 0.663698 0.832906 0.703658
Si Si3 0.703407 0.037045 0.253120
Si Si4 0.853473 0.763829 0.307251
Si Si5 0.177048 0.346700 0.539020
O O1 0.500000 0.500000 0.500000
O O2 0.241242 0.595667 0.182312
O O3 0.000000 0.550435 0.250000
O O4 0.000000 0.500000 0.000000
O O5 0.500000 0.832899 0.750000
O O6 0.718835 0.898593 0.698116
O O7 0.471775 0.789819 0.459194
O O8 0.982795 0.806900 0.962422
O O9 0.500000 0.044105 0.250000
O O10 0.000000 0.000000 0.500000
O O11 0.500000 0.000000 0.000000
O O12 0.946293 0.701530 0.440542
O O13 0.000000 0.766308 0.250000
O O14 0.500000 0.321585 0.750000
O O15 0.000000 0.355499 0.250000
#
# Coordination Sequence:
#
# PCOD9231319 Si02
#       5
#     4   4   4   4   4
#     4  12  25  44  69  97 129 169 213 259 309 368
#     4   9  19  36  61  86 116 158 207 255 308 373
#     4  11  22  39  61  89 123 163 207 258 315 377
#     4  10  20  39  63  87 114 158 211 256 304 369
#     4  12  25  42  63  93 131 166 203 256 315 371
#
# _framework density 21.316789
#
# number of rings (size 3 to 8) (size 9 to 14) (size 15 to 20)
#    0.000    1.200    0.000    7.200    0.000    3.200 
#    0.000   16.000    0.000    0.000    0.000    0.000 
#    0.000    0.000    0.000    0.000    0.000    0.000 
#
# Total GULP energy -111394.371486 kJ/mol
# GULP energy per Si atom -5569.718574 kJ/mol
# Density = 2.126827 g / cm^3
# Si number density = 21.316789 Si / 1000 Ang^3
#
#
#
# Elastic Constant Matrix: (Units=GPa)
#
#
# Indices 1 2 3 4 5 6 
#
# 1 45.7086 3.2925 26.2560 0.0000 -3.1197 0.0000
# 2 3.2925 159.9433 64.3124 0.0000 -20.0949 0.0000
# 3 26.2560 64.3124 189.6481 0.0000 -2.7112 0.0000
# 4 0.0000 0.0000 0.0000 37.2455 0.0000 -4.4978
# 5 -3.1197 -20.0949 -2.7112 0.0000 26.5407 0.0000
# 6 0.0000 0.0000 0.0000 -4.4978 0.0000 25.5014
#
#
#
# Elastic Compliance Matrix: (Units=1/GPa)
#
#
# Indices 1 2 3 4 5 6 
#
# 1 0.024198 0.001479 -0.003801 0.000000 0.003576 0.000000
# 2 0.001479 0.008138 -0.002878 0.000000 0.006042 0.000000
# 3 -0.003801 -0.002878 0.006747 0.000000 -0.001937 0.000000
# 4 0.000000 0.000000 0.000000 0.027433 0.000000 0.004839
# 5 0.003576 0.006042 -0.001937 0.000000 0.042475 0.000000
# 6 0.000000 0.000000 0.000000 0.004839 0.000000 0.040067
#
#
# Mechanical properties :
#
#
# Convention : Reuss Voigt Hill
#
# Bulk Modulus (GPa) = 34.86137 64.78020 49.82078
# Shear Modulus (GPa) = 29.58234 37.95345 33.76789
#
# Velocity S-wave (km/s) = 3.72929 4.22411 3.98439
# Velocity P-wave (km/s) = 5.91041 7.36520 6.67754
#
# Compressibility (1/GPa) = 0.02868505
#
# Stress axis : x y z
#
# Youngs Moduli (GPa) = 41.32490 122.87853 148.20356
#
# Poissons Ratio (x) = -0.18179 0.56329
# Poissons Ratio (y) = -0.06114 0.42656
# Poissons Ratio (z) = 0.15707 0.35367
#
# Static dielectric constant tensor:
#      x y z
#    x 2.036960 0.000000 0.135500 
#    y 0.000000 1.774050 0.000000 
#    z 0.135500 0.000000 1.839120 
# 
# From -- ./inp_files/13862.got.cif
#   From: 2010.05.17/outbox.cif.g08.bks.cpg/sg13_7_cif.got.tgz:13862.got - 2010.06.03 16:44:36.
