data_PCOD9231261
_publ_section_title
;
Structure prediction by ZEFSAII (Michael W. Deem and Ramdas Pophale) SiO2 
 PCOD9231261
Probable space group: P 2/C
;
_chemical_formula_sum "Si O2"
_cell_formula_units_Z 30
_cell_length_a 7.446211
_cell_length_b 25.687551
_cell_length_c 13.266843
_cell_angle_alpha 90.000000
_cell_angle_beta 145.435273
_cell_angle_gamma 90.000000
_cell_volume 1439.682260
_symmetry_space_group_name_H-M "P 2/C"
_symmetry_group_IT_number 13
_symmetry_cell_setting 'monoclinic'
loop_
_space_group_symop_operation_xyz
x,y,z
-x,y,1/2-z
-x,-y,-z
x,-y,1/2+z
loop_
_atom_site_type_symbol
_atom_site_label
_atom_site_fract_x
_atom_site_fract_y
_atom_site_fract_z
Si Si1 0.000000 0.476031 0.750000
Si Si2 0.541646 0.442602 0.147588
Si Si3 0.211462 0.738786 0.061598
Si Si4 0.360614 0.148226 0.575059
Si Si5 0.676406 0.326298 0.222651
Si Si6 0.613932 0.144928 0.194886
Si Si7 0.618388 0.057983 0.067488
Si Si8 0.234272 0.760480 0.451271
O O1 0.782964 0.445314 0.568290
O O2 0.766125 0.512506 0.707302
O O3 0.500000 0.448900 0.250000
O O4 0.695121 0.385932 0.199929
O O5 0.500000 0.709593 0.250000
O O6 0.375328 0.788407 0.083338
O O7 0.970274 0.758520 0.038630
O O8 0.006300 0.703231 0.893183
O O9 0.500000 0.135775 0.750000
O O10 0.489779 0.101037 0.565310
O O11 0.989510 0.144036 0.375605
O O12 0.500000 0.326956 0.250000
O O13 0.452674 0.290482 0.051010
O O14 0.500000 0.160656 0.250000
O O15 0.502668 0.087335 0.114558
O O16 0.461854 0.189049 0.055076
O O17 0.000000 0.055097 0.250000
O O18 0.500000 0.000000 0.000000
O O19 0.000000 0.762597 0.250000
#
# Coordination Sequence:
#
# PCOD9231261 Si02
#       8
#     2   4   4   4   4   4   4   4
#     4  10  22  40  64  98 128 174 248 268 324 410
#     4  10  21  41  66  93 133 180 220 288 335 379
#     4  10  20  39  60  88 125 156 199 247 308 382
#     4  10  21  39  63  85 116 152 191 240 302 361
#     4   9  19  40  62  88 129 164 203 252 321 375
#     4  11  21  40  62  84 115 153 190 237 296 367
#     4  10  25  43  60  86 114 148 198 250 297 353
#     4  11  22  36  60  92 121 160 200 241 306 382
#
# _framework density 20.837931999999999
#
# number of rings (size 3 to 8) (size 9 to 14) (size 15 to 20)
#    0.000    1.867    2.667    0.800    4.667    2.133 
#    2.400    6.000    0.000    0.000    0.000    0.000 
#    0.000    0.000    0.000    0.000    0.000    0.000 
#
# Total GULP energy -167197.920336 kJ/mol
# GULP energy per Si atom -5573.264011 kJ/mol
# Density = 2.079050 g / cm^3
# Si number density = 20.837932 Si / 1000 Ang^3
#
#
#
# Elastic Constant Matrix: (Units=GPa)
#
#
# Indices 1 2 3 4 5 6 
#
# 1 53.6885 23.1817 32.6469 0.0000 -10.5675 0.0000
# 2 23.1817 119.4513 64.2929 0.0000 -17.8415 0.0000
# 3 32.6469 64.2929 162.2112 0.0000 -18.8836 0.0000
# 4 0.0000 0.0000 0.0000 34.2824 0.0000 0.9568
# 5 -10.5675 -17.8415 -18.8836 0.0000 26.8334 0.0000
# 6 0.0000 0.0000 0.0000 0.9568 0.0000 20.3327
#
#
#
# Elastic Compliance Matrix: (Units=1/GPa)
#
#
# Indices 1 2 3 4 5 6 
#
# 1 0.022397 -0.001849 -0.003149 0.000000 0.005375 0.000000
# 2 -0.001849 0.011312 -0.003617 0.000000 0.004248 0.000000
# 3 -0.003149 -0.003617 0.008505 0.000000 0.002340 0.000000
# 4 0.000000 0.000000 0.000000 0.029208 0.000000 -0.001374
# 5 0.005375 0.004248 0.002340 0.000000 0.043855 0.000000
# 6 0.000000 0.000000 0.000000 -0.001374 0.000000 0.049247
#
#
# Mechanical properties :
#
#
# Convention : Reuss Voigt Hill
#
# Bulk Modulus (GPa) = 40.02600 63.95489 51.99045
# Shear Modulus (GPa) = 26.30473 30.63833 28.47153
#
# Velocity S-wave (km/s) = 3.55681 3.83863 3.70040
# Velocity P-wave (km/s) = 6.00981 7.09965 6.57734
#
# Compressibility (1/GPa) = 0.02498376
#
# Stress axis : x y z
#
# Youngs Moduli (GPa) = 44.64850 88.40546 117.58423
#
# Poissons Ratio (x) = 0.16344 0.37030
# Poissons Ratio (y) = 0.08254 0.42528
# Poissons Ratio (z) = 0.14061 0.31974
#
# Static dielectric constant tensor:
#      x y z
#    x 1.874780 0.000000 -0.051320 
#    y 0.000000 1.720170 0.000000 
#    z -0.051320 0.000000 1.745770 
# 
# From -- ./inp_files/48286.got.cif
#   From: 2010.05.17/outbox.cif.g08.bks.cpg/sg13_25_cif.got.tgz:48286.got - 2010.06.03 16:44:36.
