data_PCOD9231329
_publ_section_title
;
Structure prediction by ZEFSAII (Michael W. Deem and Ramdas Pophale) SiO2 
 PCOD9231329
Probable space group: P 2/C
;
_chemical_formula_sum "Si O2"
_cell_formula_units_Z 24
_cell_length_a 16.309515
_cell_length_b 5.146300
_cell_length_c 15.865367
_cell_angle_alpha 90.000000
_cell_angle_beta 126.892353
_cell_angle_gamma 90.000000
_cell_volume 1064.997399
_symmetry_space_group_name_H-M "P 2/C"
_symmetry_group_IT_number 13
_symmetry_cell_setting 'monoclinic'
loop_
_space_group_symop_operation_xyz
x,y,z
-x,y,1/2-z
-x,-y,-z
x,-y,1/2+z
loop_
_atom_site_type_symbol
_atom_site_label
_atom_site_fract_x
_atom_site_fract_y
_atom_site_fract_z
Si Si1 0.332599 0.650563 0.214402
Si Si2 0.306076 0.682746 0.015461
Si Si3 0.197499 0.082008 0.749069
Si Si4 0.476835 0.950852 0.650064
Si Si5 0.113174 0.397634 0.283250
Si Si6 0.616038 0.741401 0.606728
O O1 0.235399 0.832668 0.179720
O O2 0.439018 0.813684 0.286855
O O3 0.337125 0.437979 0.290808
O O4 0.315100 0.540520 0.110217
O O5 0.193222 0.673458 0.907567
O O6 0.377990 0.607122 0.980122
O O7 0.360699 0.954379 0.074388
O O8 0.149297 0.328649 0.766373
O O9 0.126173 0.832374 0.722089
O O10 0.306511 0.984832 0.854454
O O11 0.500000 0.792014 0.750000
O O12 0.511176 0.830713 0.583315
O O13 0.000000 0.411833 0.250000
#
# Coordination Sequence:
#
# PCOD9231329 Si02
#       6
#     4   4   4   4   4   4
#     4  10  20  40  61  96 133 169 212 264 321 386
#     4  10  21  40  63  96 127 178 219 261 324 383
#     4  10  20  43  66  91 131 166 208 276 321 373
#     4   9  20  36  58  94 134 171 213 260 315 388
#     4  11  23  44  70  94 127 171 218 272 327 379
#     4  10  20  39  63  92 134 173 210 267 318 386
#
# _framework density 22.535267000000001
#
# number of rings (size 3 to 8) (size 9 to 14) (size 15 to 20)
#    0.000    2.000    3.333    1.000    0.000    2.667 
#   24.000    1.667    0.000    0.000    0.000    0.000 
#    0.000    0.000    0.000    0.000    0.000    0.000 
#
# Total GULP energy -133812.098224 kJ/mol
# GULP energy per Si atom -5575.504093 kJ/mol
# Density = 2.248398 g / cm^3
# Si number density = 22.535267 Si / 1000 Ang^3
#
#
#
# Elastic Constant Matrix: (Units=GPa)
#
#
# Indices 1 2 3 4 5 6 
#
# 1 152.0439 66.5677 58.3783 0.0000 -0.4083 0.0000
# 2 66.5677 111.4214 26.2677 0.0000 2.9453 0.0000
# 3 58.3783 26.2677 102.2108 0.0000 -27.4705 0.0000
# 4 0.0000 0.0000 0.0000 1.1415 0.0000 15.1588
# 5 -0.4083 2.9453 -27.4705 0.0000 57.0796 0.0000
# 6 0.0000 0.0000 0.0000 15.1588 0.0000 28.7701
#
#
#
# Elastic Compliance Matrix: (Units=1/GPa)
#
#
# Indices 1 2 3 4 5 6 
#
# 1 0.010977 -0.005185 -0.005564 0.000000 -0.002332 0.000000
# 2 -0.005185 0.012190 -0.000403 0.000000 -0.000860 0.000000
# 3 -0.005564 -0.000403 0.015000 0.000000 0.007200 0.000000
# 4 0.000000 0.000000 0.000000 -0.146081 0.000000 0.076969
# 5 -0.002332 -0.000860 0.007200 0.000000 0.021012 0.000000
# 6 0.000000 0.000000 0.000000 0.076969 0.000000 -0.005796
#
#
# Mechanical properties :
#
#
# Convention : Reuss Voigt Hill
#
# Bulk Modulus (GPa) = 63.03212 74.23369 68.63291
# Shear Modulus (GPa) = -76.79691 31.69574 -22.55059
#
# Velocity S-wave (km/s) = -5.84402 3.75440 -3.16678
# Velocity P-wave (km/s) = 4.18396 7.19768 4.14132
#
# Compressibility (1/GPa) = 0.01586493
#
# Stress axis : x y z
#
# Youngs Moduli (GPa) = 91.09909 82.03304 66.66654
#
# Poissons Ratio (x) = 0.42533 0.37092
# Poissons Ratio (y) = 0.47233 0.02684
# Poissons Ratio (z) = 0.50685 0.03302
#
# Static dielectric constant tensor:
#      x y z
#    x 1.898780 0.000000 -0.056810 
#    y 0.000000 1.970340 0.000000 
#    z -0.056810 0.000000 1.883730 
# 
# From -- ./inp_files/69065.got.cif
#   From: 2010.05.17/outbox.cif.g08.bks.cpg/sg13_35_cif.got.tgz:69065.got - 2010.06.03 16:44:36.
