data_PCOD9231491
_publ_section_title
;
Structure prediction by ZEFSAII (Michael W. Deem and Ramdas Pophale) SiO2 
 PCOD9231491
Probable space group: P 2/C
;
_chemical_formula_sum "Si O2"
_cell_formula_units_Z 24
_cell_length_a 30.063056
_cell_length_b 6.277630
_cell_length_c 14.645297
_cell_angle_alpha 90.000000
_cell_angle_beta 25.914835
_cell_angle_gamma 90.000000
_cell_volume 1207.933239
_symmetry_space_group_name_H-M "P 2/C"
_symmetry_group_IT_number 13
_symmetry_cell_setting 'monoclinic'
loop_
_space_group_symop_operation_xyz
x,y,z
-x,y,1/2-z
-x,-y,-z
x,-y,1/2+z
loop_
_atom_site_type_symbol
_atom_site_label
_atom_site_fract_x
_atom_site_fract_y
_atom_site_fract_z
Si Si1 0.180364 0.558029 0.588838
Si Si2 0.889939 0.152219 0.429904
Si Si3 0.290120 0.825532 0.785352
Si Si4 0.607525 0.349922 0.582450
Si Si5 0.326861 0.932726 0.387585
Si Si6 0.784620 0.683646 0.305119
O O1 0.101935 0.673862 0.666381
O O2 0.248147 0.394700 0.404471
O O3 0.251905 0.747050 0.492496
O O4 0.149387 0.427636 0.736412
O O5 0.845741 0.267061 0.601101
O O6 0.000000 0.059660 0.250000
O O7 0.807936 0.974136 0.553030
O O8 0.347446 0.780619 0.585975
O O9 0.357077 0.940943 0.740181
O O10 0.500000 0.443892 0.750000
O O11 0.594971 0.187792 0.690677
O O12 0.689979 0.528514 0.456436
O O13 0.262696 0.100901 0.565943
#
# Coordination Sequence:
#
# PCOD9231491 Si02
#       6
#     4   4   4   4   4   4
#     4   9  20  39  62  85 121 160 190 245 300 338
#     4  11  22  37  63  91 117 159 200 237 295 350
#     4  10  20  40  60  86 126 152 196 251 284 349
#     4  11  22  37  63  91 117 159 200 237 295 350
#     4   9  20  39  62  85 121 160 190 245 300 338
#     4  10  20  40  60  86 126 152 196 251 284 349
#
# _framework density 19.868645999999998
#
# number of rings (size 3 to 8) (size 9 to 14) (size 15 to 20)
#    0.000    2.000    3.333    0.000    0.000    2.667 
#    0.000   15.000    0.000    0.000    0.000    0.000 
#    0.000    0.000    0.000    0.000    0.000    0.000 
#
# Total GULP energy -133841.333302 kJ/mol
# GULP energy per Si atom -5576.722221 kJ/mol
# Density = 1.982342 g / cm^3
# Si number density = 19.868646 Si / 1000 Ang^3
#
#
#
# Elastic Constant Matrix: (Units=GPa)
#
#
# Indices 1 2 3 4 5 6 
#
# 1 63.9658 -4.4840 20.7055 0.0000 36.2023 0.0000
# 2 -4.4840 50.4250 5.8038 0.0000 26.6893 0.0000
# 3 20.7055 5.8038 41.8528 0.0000 3.2882 0.0000
# 4 0.0000 0.0000 0.0000 15.0905 0.0000 6.6980
# 5 36.2023 26.6893 3.2882 0.0000 11.3439 0.0000
# 6 0.0000 0.0000 0.0000 6.6980 0.0000 40.0871
#
#
#
# Elastic Compliance Matrix: (Units=1/GPa)
#
#
# Indices 1 2 3 4 5 6 
#
# 1 0.001712 -0.012253 -0.001006 0.000000 0.023656 0.000000
# 2 -0.012253 0.007436 0.003411 0.000000 0.020620 0.000000
# 3 -0.001006 0.003411 0.024863 0.000000 -0.012019 0.000000
# 4 0.000000 0.000000 0.000000 0.071575 0.000000 -0.011959
# 5 0.023656 0.020620 -0.012019 0.000000 -0.032369 0.000000
# 6 0.000000 0.000000 0.000000 -0.011959 0.000000 0.026944
#
#
# Mechanical properties :
#
#
# Convention : Reuss Voigt Hill
#
# Bulk Modulus (GPa) = 69.86578 22.25492 46.06035
# Shear Modulus (GPa) = 40.11947 22.25219 31.18583
#
# Velocity S-wave (km/s) = 4.49846 3.35022 3.96612
# Velocity P-wave (km/s) = 7.88808 5.11768 6.64877
#
# Compressibility (1/GPa) = 0.01431316
#
# Stress axis : x y z
#
# Youngs Moduli (GPa) = 584.14485 134.48671 40.22121
#
# Poissons Ratio (x) = 1.64782 0.04048
# Poissons Ratio (y) = 7.15733 -0.13718
# Poissons Ratio (z) = 0.58785 -0.45867
#
# Static dielectric constant tensor:
#      x y z
#    x 1.739440 0.000000 0.013960 
#    y 0.000000 1.691720 0.000000 
#    z 0.013960 0.000000 1.635700 
# 
# From -- ./inp_files/52190.got.cif
#   From: 2010.05.17/outbox.cif.g08.bks.cpg/sg13_27_cif.got.tgz:52190.got - 2010.06.03 16:44:36.
