data_PCOD9231405
_publ_section_title
;
Structure prediction by ZEFSAII (Michael W. Deem and Ramdas Pophale) SiO2 
 PCOD9231405
Probable space group: P 2/C
;
_chemical_formula_sum "Si O2"
_cell_formula_units_Z 20
_cell_length_a 8.204096
_cell_length_b 12.429147
_cell_length_c 10.080259
_cell_angle_alpha 90.000000
_cell_angle_beta 133.492492
_cell_angle_gamma 90.000000
_cell_volume 745.692807
_symmetry_space_group_name_H-M "P 2/C"
_symmetry_group_IT_number 13
_symmetry_cell_setting 'monoclinic'
loop_
_space_group_symop_operation_xyz
x,y,z
-x,y,1/2-z
-x,-y,-z
x,-y,1/2+z
loop_
_atom_site_type_symbol
_atom_site_label
_atom_site_fract_x
_atom_site_fract_y
_atom_site_fract_z
Si Si1 0.878135 0.264405 0.504891
Si Si2 0.698160 0.532912 0.974591
Si Si3 0.750222 0.853851 0.444652
Si Si4 0.334289 0.326436 0.393346
Si Si5 0.644619 0.062848 0.465450
O O1 0.907383 0.390093 0.556555
O O2 0.732495 0.287323 0.290277
O O3 0.757277 0.181018 0.539564
O O4 0.095667 0.203700 0.575216
O O5 0.500000 0.514210 0.750000
O O6 0.571407 0.613163 0.005919
O O7 0.774509 0.421641 0.079363
O O8 0.500000 0.864404 0.250000
O O9 0.717352 0.778244 0.551712
O O10 0.828729 0.972381 0.530254
O O11 0.500000 0.077694 0.250000
O O12 0.500000 0.000000 0.500000
#
# Coordination Sequence:
#
# PCOD9231405 Si02
#       5
#     4   4   4   4   4
#     4  11  22  41  68  97 132 178 229 274 337 413
#     4   9  19  37  65  97 131 173 224 282 341 400
#     4  11  24  40  60  94 138 181 227 280 334 395
#     4  10  20  39  66  95 131 175 222 279 340 405
#     4  11  23  43  71 102 138 177 224 282 347 412
#
# _framework density 26.820694
#
# number of rings (size 3 to 8) (size 9 to 14) (size 15 to 20)
#    0.000    1.600    0.000    6.000    0.000    0.800 
#    0.000   17.000    0.000    0.000    0.000    0.000 
#    0.000    0.000    0.000    0.000    0.000    0.000 
#
# Total GULP energy -111583.845725 kJ/mol
# GULP energy per Si atom -5579.192286 kJ/mol
# Density = 2.675965 g / cm^3
# Si number density = 26.820694 Si / 1000 Ang^3
#
#
#
# Elastic Constant Matrix: (Units=GPa)
#
#
# Indices 1 2 3 4 5 6 
#
# 1 52.6927 3.0167 27.8641 0.0000 -16.7692 0.0000
# 2 3.0167 222.7122 36.2739 0.0000 -14.9634 0.0000
# 3 27.8641 36.2739 92.8725 0.0000 -13.4900 0.0000
# 4 0.0000 0.0000 0.0000 63.7546 0.0000 -54.0766
# 5 -16.7692 -14.9634 -13.4900 0.0000 40.9711 0.0000
# 6 0.0000 0.0000 0.0000 -54.0766 0.0000 81.9230
#
#
#
# Elastic Compliance Matrix: (Units=1/GPa)
#
#
# Indices 1 2 3 4 5 6 
#
# 1 0.025256 0.001351 -0.006860 0.000000 0.008572 0.000000
# 2 0.001351 0.004923 -0.002087 0.000000 0.001664 0.000000
# 3 -0.006860 -0.002087 0.013781 0.000000 0.000968 0.000000
# 4 0.000000 0.000000 0.000000 0.035639 0.000000 0.023525
# 5 0.008572 0.001664 0.000968 0.000000 0.028842 0.000000
# 6 0.000000 0.000000 0.000000 0.023525 0.000000 0.027735
#
#
# Mechanical properties :
#
#
# Convention : Reuss Voigt Hill
#
# Bulk Modulus (GPa) = 34.75884 55.84298 45.30091
# Shear Modulus (GPa) = 31.06389 57.40457 44.23423
#
# Velocity S-wave (km/s) = 3.40693 4.63137 4.06551
# Velocity P-wave (km/s) = 5.33518 7.03317 6.24218
#
# Compressibility (1/GPa) = 0.02876966
#
# Stress axis : x y z
#
# Youngs Moduli (GPa) = 39.59411 203.10889 72.56242
#
# Poissons Ratio (x) = -0.27443 0.49779
# Poissons Ratio (y) = -0.05350 0.15141
# Poissons Ratio (z) = 0.27162 0.42382
#
# Static dielectric constant tensor:
#      x y z
#    x 2.335400 0.000000 -0.061090 
#    y 0.000000 2.151540 0.000000 
#    z -0.061090 0.000000 2.195650 
# 
# From -- ./inp_files/29626.got.cif
#   From: 2010.05.17/outbox.cif.g08.bks.cpg/sg13_15_cif.got.tgz:29626.got - 2010.06.03 16:44:36.
