data_PCOD9231930
_publ_section_title
;
Structure prediction by ZEFSAII (Michael W. Deem and Ramdas Pophale) SiO2 
 PCOD9231930
Probable space group: P 2/C
;
_chemical_formula_sum "Si O2"
_cell_formula_units_Z 20
_cell_length_a 16.975730
_cell_length_b 5.421856
_cell_length_c 8.448190
_cell_angle_alpha 90.000000
_cell_angle_beta 104.522030
_cell_angle_gamma 90.000000
_cell_volume 752.728713
_symmetry_space_group_name_H-M "P 2/C"
_symmetry_group_IT_number 13
_symmetry_cell_setting 'monoclinic'
loop_
_space_group_symop_operation_xyz
x,y,z
-x,y,1/2-z
-x,-y,-z
x,-y,1/2+z
loop_
_atom_site_type_symbol
_atom_site_label
_atom_site_fract_x
_atom_site_fract_y
_atom_site_fract_z
Si Si1 0.500000 0.104124 0.750000
Si Si2 0.117193 0.304858 0.296031
Si Si3 0.271200 0.630339 0.316059
Si Si4 0.399031 0.737414 0.912336
Si Si5 0.000000 0.500000 0.500000
Si Si6 0.752273 0.015603 0.981975
O O1 0.433805 0.916501 0.794458
O O2 0.464745 0.262932 0.586798
O O3 0.194655 0.450909 0.266292
O O4 0.052419 0.282697 0.123569
O O5 0.158569 0.072617 0.401656
O O6 0.073111 0.468057 0.407123
O O7 0.360057 0.516641 0.331641
O O8 0.252457 0.856460 0.189460
O O9 0.268326 0.732558 0.495072
O O10 0.319756 0.850404 0.957878
#
# Coordination Sequence:
#
# PCOD9231930 Si02
#       6
#     2   4   4   4   2   4
#     4  10  22  50  82 118 140 190 240 316 388 452
#     4  10  22  42  71  98 147 188 253 313 376 430
#     4  11  25  45  71 105 147 204 247 304 360 458
#     4  10  24  47  78 108 149 183 246 307 378 446
#     4  10  20  42  70 108 140 190 246 330 372 434
#     4  11  24  44  69 103 141 203 249 295 366 455
#
# _framework density 26.57
#
# number of rings (size 3 to 8) (size 9 to 14) (size 15 to 20)
#    0.000    1.600    2.000    1.200    2.800    4.800 
#    0.000   27.000    0.000    1.200    0.000    0.000 
#    0.000    0.000    0.000    0.000    0.000    0.000 
#
# Total GULP energy -111382.944623 kJ/mol
# GULP energy per Si atom -5569.147231 kJ/mol
# Density = 2.650953 g / cm^3
# Si number density = 26.570000 Si / 1000 Ang^3
#
#
#
# Elastic Constant Matrix: (Units=GPa)
#
#
# Indices 1 2 3 4 5 6 
#
# 1 129.8928 19.5422 58.7174 0.0000 4.0484 0.0000
# 2 19.5422 60.1394 47.5262 0.0000 20.1764 0.0000
# 3 58.7174 47.5262 115.3599 0.0000 11.4749 0.0000
# 4 0.0000 0.0000 0.0000 27.7040 0.0000 -8.7818
# 5 4.0484 20.1764 11.4749 0.0000 74.0153 0.0000
# 6 0.0000 0.0000 0.0000 -8.7818 0.0000 16.2396
#
#
#
# Elastic Compliance Matrix: (Units=1/GPa)
#
#
# Indices 1 2 3 4 5 6 
#
# 1 0.010053 0.001151 -0.005591 0.000000 0.000003 0.000000
# 2 0.001151 0.026953 -0.011124 0.000000 -0.005686 0.000000
# 3 -0.005591 -0.011124 0.016012 0.000000 0.000856 0.000000
# 4 0.000000 0.000000 0.000000 0.043563 0.000000 0.023558
# 5 0.000003 -0.005686 0.000856 0.000000 0.014928 0.000000
# 6 0.000000 0.000000 0.000000 0.023558 0.000000 0.074317
#
#
# Mechanical properties :
#
#
# Convention : Reuss Voigt Hill
#
# Bulk Modulus (GPa) = 45.68610 61.88486 53.78548
# Shear Modulus (GPa) = 22.29639 35.56553 28.93096
#
# Velocity S-wave (km/s) = 2.89996 3.66260 3.30336
# Velocity P-wave (km/s) = 5.33338 6.42091 5.90225
#
# Compressibility (1/GPa) = 0.02188850
#
# Stress axis : x y z
#
# Youngs Moduli (GPa) = 99.47326 37.10214 62.45186
#
# Poissons Ratio (x) = -0.04270 0.34919
# Poissons Ratio (y) = -0.11448 0.69473
# Poissons Ratio (z) = 0.55619 0.41273
#
# Static dielectric constant tensor:
#      x y z
#    x 2.019740 0.000000 0.031400 
#    y 0.000000 2.252870 0.000000 
#    z 0.031400 0.000000 2.144480 
# 
# From -- ./inp_files/20564.got.cif
#   From: 2010.05.17/outbox.cif.g08.bks.cpg/sg13_11_cif.got.tgz:20564.got - 2010.06.03 16:44:36.
