data_PCOD9231694
_publ_section_title
;
Structure prediction by ZEFSAII (Michael W. Deem and Ramdas Pophale) SiO2 
 PCOD9231694
Probable space group: P 2/C
;
_chemical_formula_sum "Si O2"
_cell_formula_units_Z 26
_cell_length_a 8.859024
_cell_length_b 9.412474
_cell_length_c 27.002988
_cell_angle_alpha 90.000000
_cell_angle_beta 150.103230
_cell_angle_gamma 90.000000
_cell_volume 1122.311447
_symmetry_space_group_name_H-M "P 2/C"
_symmetry_group_IT_number 13
_symmetry_cell_setting 'monoclinic'
loop_
_space_group_symop_operation_xyz
x,y,z
-x,y,1/2-z
-x,-y,-z
x,-y,1/2+z
loop_
_atom_site_type_symbol
_atom_site_label
_atom_site_fract_x
_atom_site_fract_y
_atom_site_fract_z
Si Si1 0.674088 0.856595 0.538198
Si Si2 0.587620 0.643055 0.597230
Si Si3 0.500000 0.921398 0.250000
Si Si4 0.880537 0.345957 0.867947
Si Si5 0.848856 0.659858 0.154931
Si Si6 0.852315 0.909746 0.913017
Si Si7 0.722616 0.583367 0.895600
O O1 0.735393 0.772122 0.607642
O O2 0.437845 0.758415 0.440076
O O3 0.947711 0.904722 0.580537
O O4 0.500000 0.000000 0.500000
O O5 0.726032 0.499260 0.616502
O O6 0.567662 0.609084 0.650874
O O7 0.232479 0.653515 0.483043
O O8 0.256367 0.807789 0.159630
O O9 0.476486 0.028460 0.196509
O O10 0.716102 0.480596 0.845928
O O11 0.889506 0.336563 0.811348
O O12 0.000000 0.694422 0.250000
O O13 0.827659 0.743762 0.917523
O O14 0.000000 0.000000 0.000000
O O15 0.000000 0.500000 0.000000
#
# Coordination Sequence:
#
# PCOD9231694 Si02
#       7
#     4   4   2   4   4   4   4
#     4  11  22  43  69  96 141 186 228 288 365 421
#     4  10  21  44  69 102 132 180 228 290 362 422
#     4  12  28  44  70 104 140 188 252 290 366 430
#     4  10  22  42  69  98 137 181 233 291 351 429
#     4  11  24  41  70 104 136 179 237 291 358 429
#     4  12  25  44  70 102 146 189 237 300 362 433
#     4  10  20  40  71 100 132 180 230 283 360 429
#
# _framework density 23.166475999999999
#
# number of rings (size 3 to 8) (size 9 to 14) (size 15 to 20)
#    0.000    1.231    0.000    9.231    4.308    0.615 
#    2.769    0.769    0.000    0.000    0.000    0.000 
#    0.000    0.000    0.000    0.000    0.000    0.000 
#
# Total GULP energy -144791.704999 kJ/mol
# GULP energy per Si atom -5568.911731 kJ/mol
# Density = 2.311375 g / cm^3
# Si number density = 23.166476 Si / 1000 Ang^3
#
#
#
# Elastic Constant Matrix: (Units=GPa)
#
#
# Indices 1 2 3 4 5 6 
#
# 1 117.6441 30.8966 1.0163 0.0000 -19.2420 0.0000
# 2 30.8966 169.4720 18.5310 0.0000 -7.5939 0.0000
# 3 1.0163 18.5310 99.8615 0.0000 -16.5667 0.0000
# 4 0.0000 0.0000 0.0000 1.7305 0.0000 -9.8072
# 5 -19.2420 -7.5939 -16.5667 0.0000 34.7941 0.0000
# 6 0.0000 0.0000 0.0000 -9.8072 0.0000 43.9956
#
#
#
# Elastic Compliance Matrix: (Units=1/GPa)
#
#
# Indices 1 2 3 4 5 6 
#
# 1 0.009849 -0.001668 0.001143 0.000000 0.005627 0.000000
# 2 -0.001668 0.006329 -0.001174 0.000000 -0.000100 0.000000
# 3 0.001143 -0.001174 0.011164 0.000000 0.005691 0.000000
# 4 0.000000 0.000000 0.000000 -2.194681 0.000000 -0.489221
# 5 0.005627 -0.000100 0.005691 0.000000 0.034540 0.000000
# 6 0.000000 0.000000 0.000000 -0.489221 0.000000 -0.086324
#
#
# Mechanical properties :
#
#
# Convention : Reuss Voigt Hill
#
# Bulk Modulus (GPa) = 41.76669 54.20726 47.98697
# Shear Modulus (GPa) = -2.26476 38.53960 18.13742
#
# Velocity S-wave (km/s) = -0.98981 4.08314 2.80110
# Velocity P-wave (km/s) = 4.09411 6.75864 5.58753
#
# Compressibility (1/GPa) = 0.02394253
#
# Stress axis : x y z
#
# Youngs Moduli (GPa) = 101.53507 158.00966 89.57114
#
# Poissons Ratio (x) = 0.26362 -0.10236
# Poissons Ratio (y) = 0.16940 0.10516
# Poissons Ratio (z) = -0.11604 0.18552
#
# Static dielectric constant tensor:
#      x y z
#    x 1.887780 0.000000 -0.049040 
#    y 0.000000 1.864340 0.000000 
#    z -0.049040 0.000000 1.979660 
# 
# From -- ./inp_files/91335.got.cif
#   From: 2010.05.17/outbox.cif.g08.bks.cpg/sg13_46_cif.got.tgz:91335.got - 2010.06.03 16:44:36.
