data_PCOD9231253
_publ_section_title
;
Structure prediction by ZEFSAII (Michael W. Deem and Ramdas Pophale) SiO2 
 PCOD9231253
Probable space group: P 2/C
;
_chemical_formula_sum "Si O2"
_cell_formula_units_Z 20
_cell_length_a 7.890645
_cell_length_b 9.911151
_cell_length_c 15.899326
_cell_angle_alpha 90.000000
_cell_angle_beta 51.809540
_cell_angle_gamma 90.000000
_cell_volume 977.272489
_symmetry_space_group_name_H-M "P 2/C"
_symmetry_group_IT_number 13
_symmetry_cell_setting 'monoclinic'
loop_
_space_group_symop_operation_xyz
x,y,z
-x,y,1/2-z
-x,-y,-z
x,-y,1/2+z
loop_
_atom_site_type_symbol
_atom_site_label
_atom_site_fract_x
_atom_site_fract_y
_atom_site_fract_z
Si Si1 0.798508 0.785336 0.253450
Si Si2 0.501894 0.543768 0.351919
Si Si3 0.631273 0.733130 0.624783
Si Si4 0.415071 0.027807 0.933445
Si Si5 0.120383 0.256219 0.969877
O O1 0.702768 0.639636 0.311712
O O2 0.603200 0.891831 0.325253
O O3 0.860960 0.773480 0.136230
O O4 0.000000 0.822124 0.250000
O O5 0.500000 0.535913 0.250000
O O6 0.480807 0.390981 0.390379
O O7 0.289361 0.627109 0.440542
O O8 0.500000 0.747706 0.750000
O O9 0.880295 0.698386 0.564462
O O10 0.632931 0.879666 0.584674
O O11 0.204611 0.122312 0.991139
O O12 0.500000 0.000000 0.000000
#
# Coordination Sequence:
#
# PCOD9231253 Si02
#       5
#     4   4   4   4   4
#     4  10  20  39  62  83 112 154 193 228 285 361
#     4   8  18  36  59  85 111 143 188 234 287 348
#     4  11  21  36  58  87 114 144 189 244 288 328
#     4  11  23  38  57  85 115 150 193 236 284 343
#     4  10  20  39  60  80 114 157 187 226 288 354
#
# _framework density 20.465122000000001
#
# number of rings (size 3 to 8) (size 9 to 14) (size 15 to 20)
#    0.000    2.000    0.000    5.400    0.000    1.600 
#    0.000   16.000    0.000    0.000    0.000    0.000 
#    0.000    0.000    0.000    0.000    0.000    0.000 
#
# Total GULP energy -111662.440153 kJ/mol
# GULP energy per Si atom -5583.122008 kJ/mol
# Density = 2.041854 g / cm^3
# Si number density = 20.465122 Si / 1000 Ang^3
#
#
#
# Elastic Constant Matrix: (Units=GPa)
#
#
# Indices 1 2 3 4 5 6 
#
# 1 47.4100 -7.9351 0.6765 0.0000 -10.7703 0.0000
# 2 -7.9351 122.1784 -15.9584 0.0000 -6.0794 0.0000
# 3 0.6765 -15.9584 63.2448 0.0000 -19.0045 0.0000
# 4 0.0000 0.0000 0.0000 19.8143 0.0000 4.3400
# 5 -10.7703 -6.0794 -19.0045 0.0000 26.3210 0.0000
# 6 0.0000 0.0000 0.0000 4.3400 0.0000 23.8489
#
#
#
# Elastic Compliance Matrix: (Units=1/GPa)
#
#
# Indices 1 2 3 4 5 6 
#
# 1 0.024751 0.002937 0.004755 0.000000 0.014240 0.000000
# 2 0.002937 0.009244 0.004219 0.000000 0.006384 0.000000
# 3 0.004755 0.004219 0.022608 0.000000 0.019244 0.000000
# 4 0.000000 0.000000 0.000000 0.052564 0.000000 -0.009565
# 5 0.014240 0.006384 0.019244 0.000000 0.059189 0.000000
# 6 0.000000 0.000000 0.000000 -0.009565 0.000000 0.043671
#
#
# Mechanical properties :
#
#
# Convention : Reuss Voigt Hill
#
# Bulk Modulus (GPa) = 12.43356 20.71101 16.57229
# Shear Modulus (GPa) = 23.25448 31.06687 27.16068
#
# Velocity S-wave (km/s) = 3.37456 3.90043 3.64699
# Velocity P-wave (km/s) = 4.61218 5.51603 5.08423
#
# Compressibility (1/GPa) = 0.08042748
#
# Stress axis : x y z
#
# Youngs Moduli (GPa) = 40.40196 108.17511 44.23205
#
# Poissons Ratio (x) = -0.31773 -0.21034
# Poissons Ratio (y) = -0.11867 -0.18663
# Poissons Ratio (z) = -0.19213 -0.45643
#
# Static dielectric constant tensor:
#      x y z
#    x 1.232580 0.000000 -0.087940 
#    y 0.000000 1.790860 0.000000 
#    z -0.087940 0.000000 1.710890 
# 
# From -- ./inp_files/63176.got.cif
#   From: 2010.05.17/outbox.cif.g08.bks.cpg/sg13_32_cif.got.tgz:63176.got - 2010.06.03 16:44:36.
