data_PCOD9231220
_publ_section_title
;
Structure prediction by ZEFSAII (Michael W. Deem and Ramdas Pophale) SiO2 
 PCOD9231220
Probable space group: P 2/C
;
_chemical_formula_sum "Si O2"
_cell_formula_units_Z 26
_cell_length_a 10.962747
_cell_length_b 5.031059
_cell_length_c 21.521373
_cell_angle_alpha 90.000000
_cell_angle_beta 66.340648
_cell_angle_gamma 90.000000
_cell_volume 1087.224845
_symmetry_space_group_name_H-M "P 2/C"
_symmetry_group_IT_number 13
_symmetry_cell_setting 'monoclinic'
loop_
_space_group_symop_operation_xyz
x,y,z
-x,y,1/2-z
-x,-y,-z
x,-y,1/2+z
loop_
_atom_site_type_symbol
_atom_site_label
_atom_site_fract_x
_atom_site_fract_y
_atom_site_fract_z
Si Si1 0.153128 0.937324 0.624309
Si Si2 0.595301 0.750402 0.987946
Si Si3 0.377681 0.506504 0.320893
Si Si4 0.916729 0.779104 0.479916
Si Si5 0.331551 0.967142 0.902026
Si Si6 0.917218 0.447930 0.146376
Si Si7 0.000000 0.211040 0.750000
O O1 0.281294 0.756730 0.585400
O O2 0.013524 0.801879 0.634599
O O3 0.160432 0.161194 0.569667
O O4 0.125293 0.042869 0.698492
O O5 0.651851 0.823474 0.044192
O O6 0.500000 0.500000 0.000000
O O7 0.500000 0.000000 0.000000
O O8 0.500000 0.535431 0.250000
O O9 0.425285 0.277496 0.360885
O O10 0.239217 0.392023 0.321370
O O11 0.333075 0.806653 0.348996
O O12 0.791106 0.780469 0.551330
O O13 0.027221 0.577283 0.429835
O O14 0.000000 0.000000 0.500000
O O15 0.952584 0.623067 0.199982
#
# Coordination Sequence:
#
# PCOD9231220 Si02
#       7
#     4   4   4   4   4   4   2
#     4  10  24  42  69 100 142 184 245 295 363 437
#     4  11  26  47  73 105 143 188 240 302 367 430
#     4  12  27  47  70 104 148 193 242 292 370 438
#     4  10  20  38  71 101 133 173 232 301 361 414
#     4  11  25  46  70 105 139 187 240 301 365 431
#     4  11  24  43  72 100 142 187 244 300 360 443
#     4  10  24  46  66 104 140 196 244 298 364 432
#
# _framework density 23.914100000000001
#
# number of rings (size 3 to 8) (size 9 to 14) (size 15 to 20)
#    0.000    1.231    1.538    2.769   12.923    2.462 
#    8.308    0.000    0.000    0.000    0.000    0.000 
#    0.000    0.000    0.000    0.000    0.000    0.000 
#
# Total GULP energy -144766.662765 kJ/mol
# GULP energy per Si atom -5567.948568 kJ/mol
# Density = 2.385967 g / cm^3
# Si number density = 23.914100 Si / 1000 Ang^3
#
#
#
# Elastic Constant Matrix: (Units=GPa)
#
#
# Indices 1 2 3 4 5 6 
#
# 1 74.3718 16.9748 51.4426 0.0000 -31.2570 0.0000
# 2 16.9748 117.4619 40.6908 0.0000 -8.1035 0.0000
# 3 51.4426 40.6908 162.9720 0.0000 -23.6134 0.0000
# 4 0.0000 0.0000 0.0000 26.3389 0.0000 0.2099
# 5 -31.2570 -8.1035 -23.6134 0.0000 35.9352 0.0000
# 6 0.0000 0.0000 0.0000 0.2099 0.0000 47.5401
#
#
#
# Elastic Compliance Matrix: (Units=1/GPa)
#
#
# Indices 1 2 3 4 5 6 
#
# 1 0.024601 -0.000577 -0.005017 0.000000 0.017971 0.000000
# 2 -0.000577 0.009346 -0.002121 0.000000 0.000212 0.000000
# 3 -0.005017 -0.002121 0.008342 0.000000 0.000639 0.000000
# 4 0.000000 0.000000 0.000000 0.037968 0.000000 -0.000168
# 5 0.017971 0.000212 0.000639 0.000000 0.043927 0.000000
# 6 0.000000 0.000000 0.000000 -0.000168 0.000000 0.021036
#
#
# Mechanical properties :
#
#
# Convention : Reuss Voigt Hill
#
# Bulk Modulus (GPa) = 37.23203 63.66914 50.45059
# Shear Modulus (GPa) = 29.48053 38.34268 33.91160
#
# Velocity S-wave (km/s) = 3.51489 4.00853 3.76980
# Velocity P-wave (km/s) = 5.66352 6.93587 6.33174
#
# Compressibility (1/GPa) = 0.02685859
#
# Stress axis : x y z
#
# Youngs Moduli (GPa) = 40.64838 106.99704 119.87742
#
# Poissons Ratio (x) = 0.06177 0.60147
# Poissons Ratio (y) = 0.02347 0.25421
# Poissons Ratio (z) = 0.20395 0.22690
#
# Static dielectric constant tensor:
#      x y z
#    x 1.857060 0.000000 0.015480 
#    y 0.000000 2.449660 0.000000 
#    z 0.015480 0.000000 2.075790 
# 
# From -- ./inp_files/77427.got.cif
#   From: 2010.05.17/outbox.cif.g08.bks.cpg/sg13_39_cif.got.tgz:77427.got - 2010.06.03 16:44:36.
