data_PCOD9231822
_publ_section_title
;
Structure prediction by ZEFSAII (Michael W. Deem and Ramdas Pophale) SiO2 
 PCOD9231822
Probable space group: P 2/C
;
_chemical_formula_sum "Si O2"
_cell_formula_units_Z 14
_cell_length_a 15.678379
_cell_length_b 8.142239
_cell_length_c 9.675324
_cell_angle_alpha 90.000000
_cell_angle_beta 150.688870
_cell_angle_gamma 90.000000
_cell_volume 604.657181
_symmetry_space_group_name_H-M "P 2/C"
_symmetry_group_IT_number 13
_symmetry_cell_setting 'monoclinic'
loop_
_space_group_symop_operation_xyz
x,y,z
-x,y,1/2-z
-x,-y,-z
x,-y,1/2+z
loop_
_atom_site_type_symbol
_atom_site_label
_atom_site_fract_x
_atom_site_fract_y
_atom_site_fract_z
Si Si1 0.832405 0.894082 0.796032
Si Si2 0.272315 0.308760 0.108799
Si Si3 0.500000 0.110426 0.250000
Si Si4 0.706159 0.550623 0.578206
O O1 0.824573 0.834265 0.944736
O O2 0.803364 0.720335 0.676742
O O3 0.663935 0.001346 0.521645
O O4 0.000000 0.000000 0.000000
O O5 0.449879 0.224925 0.308522
O O6 0.287358 0.448680 0.246488
O O7 0.207264 0.397914 0.878637
O O8 0.500000 0.561837 0.250000
#
# Coordination Sequence:
#
# PCOD9231822 Si02
#       4
#     4   4   2   4
#     4  10  24  44  72 109 147 195 244 302 365 437
#     4  10  23  40  76 103 145 191 243 299 374 432
#     4  12  22  42  74 108 148 194 246 302 368 428
#     4  10  20  41  74 110 140 190 242 300 369 438
#
# _framework density 23.153616
#
# number of rings (size 3 to 8) (size 9 to 14) (size 15 to 20)
#    1.714    0.000    2.857    1.714    0.000    1.143 
#    0.000    1.429    6.286    0.000    0.000    0.000 
#    0.000    0.000    0.000    0.000    0.000    0.000 
#
# Total GULP energy -78065.056591 kJ/mol
# GULP energy per Si atom -5576.075471 kJ/mol
# Density = 2.310092 g / cm^3
# Si number density = 23.153616 Si / 1000 Ang^3
#
#
#
# Elastic Constant Matrix: (Units=GPa)
#
#
# Indices 1 2 3 4 5 6 
#
# 1 148.7111 58.8869 43.8226 0.0000 12.4948 0.0000
# 2 58.8869 135.1358 55.2032 0.0000 23.5427 0.0000
# 3 43.8226 55.2032 123.9983 0.0000 16.4833 0.0000
# 4 0.0000 0.0000 0.0000 -6.8203 0.0000 -6.0434
# 5 12.4948 23.5427 16.4833 0.0000 25.9032 0.0000
# 6 0.0000 0.0000 0.0000 -6.0434 0.0000 56.4862
#
#
#
# Elastic Compliance Matrix: (Units=1/GPa)
#
#
# Indices 1 2 3 4 5 6 
#
# 1 0.008392 -0.002937 -0.001611 0.000000 -0.000353 0.000000
# 2 -0.002937 0.011080 -0.002998 0.000000 -0.006746 0.000000
# 3 -0.001611 -0.002998 0.010381 0.000000 -0.003104 0.000000
# 4 0.000000 0.000000 0.000000 -0.133924 0.000000 -0.014328
# 5 -0.000353 -0.006746 -0.003104 0.000000 0.046882 0.000000
# 6 0.000000 0.000000 0.000000 -0.014328 0.000000 0.016170
#
#
# Mechanical properties :
#
#
# Convention : Reuss Voigt Hill
#
# Bulk Modulus (GPa) = 67.74887 80.40783 74.07835
# Shear Modulus (GPa) = -238.02745 31.77596 -103.12574
#
# Velocity S-wave (km/s) = -10.15021 3.70861 -6.68105
# Velocity P-wave (km/s) = 10.39446 7.28984 5.23943
#
# Compressibility (1/GPa) = 0.01476039
#
# Stress axis : x y z
#
# Youngs Moduli (GPa) = 119.16099 90.25530 96.32656
#
# Poissons Ratio (x) = 0.26509 0.15521
# Poissons Ratio (y) = 0.35000 0.28877
# Poissons Ratio (z) = 0.19200 0.27057
#
# Static dielectric constant tensor:
#      x y z
#    x 2.176930 0.000000 0.244110 
#    y 0.000000 1.897190 0.000000 
#    z 0.244110 0.000000 2.081640 
# 
# From -- ./inp_files/35802.got.cif
#   From: 2010.05.17/outbox.cif.g08.bks.cpg/sg13_18_cif.got.tgz:35802.got - 2010.06.03 16:44:36.
