data_PCOD9231816
_publ_section_title
;
Structure prediction by ZEFSAII (Michael W. Deem and Ramdas Pophale) SiO2 
 PCOD9231816
Probable space group: P 2/C
;
_chemical_formula_sum "Si O2"
_cell_formula_units_Z 20
_cell_length_a 11.337148
_cell_length_b 5.554395
_cell_length_c 25.208774
_cell_angle_alpha 90.000000
_cell_angle_beta 146.050830
_cell_angle_gamma 90.000000
_cell_volume 886.507060
_symmetry_space_group_name_H-M "P 2/C"
_symmetry_group_IT_number 13
_symmetry_cell_setting 'monoclinic'
loop_
_space_group_symop_operation_xyz
x,y,z
-x,y,1/2-z
-x,-y,-z
x,-y,1/2+z
loop_
_atom_site_type_symbol
_atom_site_label
_atom_site_fract_x
_atom_site_fract_y
_atom_site_fract_z
Si Si1 0.906731 0.250215 0.940769
Si Si2 0.485209 0.315247 0.042723
Si Si3 0.595137 0.690601 0.404747
Si Si4 0.187032 0.013294 0.786916
Si Si5 0.909202 0.011949 0.588857
O O1 0.664565 0.273336 0.870056
O O2 0.966001 0.204483 0.901726
O O3 0.000000 0.500000 0.000000
O O4 0.000000 0.000000 0.000000
O O5 0.427645 0.427959 0.078819
O O6 0.705463 0.185015 0.135698
O O7 0.500000 0.500000 0.000000
O O8 0.289486 0.142315 0.957664
O O9 0.379444 0.821334 0.339965
O O10 0.789249 0.810935 0.509704
O O11 0.000000 0.140456 0.750000
O O12 0.074125 0.910799 0.692490
#
# Coordination Sequence:
#
# PCOD9231816 Si02
#       5
#     4   4   4   4   4
#     4  10  20  41  72 100 133 181 228 287 359 420
#     4  11  22  39  65  93 131 182 231 285 358 422
#     4  10  22  40  65  94 132 177 229 287 353 428
#     4  11  24  40  61  96 135 176 236 292 349 427
#     4  10  22  41  66  93 133 178 228 290 358 418
#
# _framework density 22.560452999999999
#
# number of rings (size 3 to 8) (size 9 to 14) (size 15 to 20)
#    0.000    1.600    2.000    2.400    0.000    8.000 
#    0.000    0.000    0.000    0.000    0.000    0.000 
#    0.000    0.000    0.000    0.000    0.000    0.000 
#
# Total GULP energy -111564.548442 kJ/mol
# GULP energy per Si atom -5578.227422 kJ/mol
# Density = 2.250910 g / cm^3
# Si number density = 22.560453 Si / 1000 Ang^3
#
#
#
# Elastic Constant Matrix: (Units=GPa)
#
#
# Indices 1 2 3 4 5 6 
#
# 1 128.0231 21.3925 48.3440 0.0000 21.7919 0.0000
# 2 21.3925 73.5509 27.7250 0.0000 1.6924 0.0000
# 3 48.3440 27.7250 134.9793 0.0000 2.6084 0.0000
# 4 0.0000 0.0000 0.0000 10.0237 0.0000 -3.2236
# 5 21.7919 1.6924 2.6084 0.0000 31.0507 0.0000
# 6 0.0000 0.0000 0.0000 -3.2236 0.0000 47.1037
#
#
#
# Elastic Compliance Matrix: (Units=1/GPa)
#
#
# Indices 1 2 3 4 5 6 
#
# 1 0.010527 -0.001659 -0.003294 0.000000 -0.007021 0.000000
# 2 -0.001659 0.015008 -0.002499 0.000000 0.000556 0.000000
# 3 -0.003294 -0.002499 0.009069 0.000000 0.001686 0.000000
# 4 0.000000 0.000000 0.000000 0.102008 0.000000 0.006981
# 5 -0.007021 0.000556 0.001686 0.000000 0.036961 0.000000
# 6 0.000000 0.000000 0.000000 0.006981 0.000000 0.021707
#
#
# Mechanical properties :
#
#
# Convention : Reuss Voigt Hill
#
# Bulk Modulus (GPa) = 50.76107 59.05291 54.90699
# Shear Modulus (GPa) = 23.06787 33.57509 28.32148
#
# Velocity S-wave (km/s) = 3.20111 3.86194 3.54695
# Velocity P-wave (km/s) = 6.01761 6.79105 6.41600
#
# Compressibility (1/GPa) = 0.01970014
#
# Stress axis : x y z
#
# Youngs Moduli (GPa) = 94.99138 66.63215 110.26428
#
# Poissons Ratio (x) = 0.11052 0.36322
# Poissons Ratio (y) = 0.15756 0.27559
# Poissons Ratio (z) = 0.31291 0.16653
#
# Static dielectric constant tensor:
#      x y z
#    x 1.986470 0.000000 -0.029470 
#    y 0.000000 1.882270 0.000000 
#    z -0.029470 0.000000 1.829920 
# 
# From -- ./inp_files/38074.got.cif
#   From: 2010.05.17/outbox.cif.g08.bks.cpg/sg13_20_cif.got.tgz:38074.got - 2010.06.03 16:44:36.
