data_PCOD9231740
_publ_section_title
;
Structure prediction by ZEFSAII (Michael W. Deem and Ramdas Pophale) SiO2 
 PCOD9231740
Probable space group: P 2/C
;
_chemical_formula_sum "Si O2"
_cell_formula_units_Z 28
_cell_length_a 19.405390
_cell_length_b 5.019393
_cell_length_c 11.345952
_cell_angle_alpha 90.000000
_cell_angle_beta 62.546781
_cell_angle_gamma 90.000000
_cell_volume 980.681196
_symmetry_space_group_name_H-M "P 2/C"
_symmetry_group_IT_number 13
_symmetry_cell_setting 'monoclinic'
loop_
_space_group_symop_operation_xyz
x,y,z
-x,y,1/2-z
-x,-y,-z
x,-y,1/2+z
loop_
_atom_site_type_symbol
_atom_site_label
_atom_site_fract_x
_atom_site_fract_y
_atom_site_fract_z
Si Si1 0.767242 0.934551 0.442071
Si Si2 0.202030 0.401219 0.815081
Si Si3 0.116843 0.711122 0.716235
Si Si4 0.000000 0.195100 0.750000
Si Si5 0.378735 0.544334 0.679727
Si Si6 0.500000 0.714274 0.250000
Si Si7 0.601338 0.951811 0.496822
Si Si8 0.105948 0.628322 0.016389
O O1 0.787515 0.781335 0.304340
O O2 0.815036 0.792850 0.506785
O O3 0.792863 0.232652 0.387731
O O4 0.675189 0.933442 0.526034
O O5 0.133674 0.637591 0.840971
O O6 0.289127 0.473890 0.778757
O O7 0.142825 0.325081 0.963746
O O8 0.077728 0.460317 0.684354
O O9 0.069178 0.966481 0.725930
O O10 0.977689 0.245108 0.917852
O O11 0.433635 0.472816 0.745817
O O12 0.380707 0.840016 0.623847
O O13 0.407035 0.338862 0.554207
O O14 0.466704 0.910264 0.376783
#
# Coordination Sequence:
#
# PCOD9231740 Si02
#       8
#     4   4   4   2   4   2   4   4
#     4   9  21  40  64  94 134 177 228 294 345 406
#     4  10  22  40  67  96 129 182 238 281 352 427
#     4  10  20  41  63  90 138 171 220 286 349 411
#     4  10  22  40  62  98 138 176 212 296 350 418
#     4  11  26  46  71 106 151 189 245 311 356 431
#     4  12  28  44  78 108 148 202 244 294 392 424
#     4  11  25  48  70 104 151 190 243 307 360 438
#     4  10  22  39  66  98 131 181 234 278 353 430
#
# _framework density 28.551580000000001
#
# number of rings (size 3 to 8) (size 9 to 14) (size 15 to 20)
#    0.000    1.714    1.429    1.286    2.000    6.286 
#    0.000   10.000    0.000    0.000    0.000    0.000 
#    0.000    0.000    0.000    0.000    0.000    0.000 
#
# Total GULP energy -156203.343163 kJ/mol
# GULP energy per Si atom -5578.690827 kJ/mol
# Density = 2.848660 g / cm^3
# Si number density = 28.551580 Si / 1000 Ang^3
#
#
#
# Elastic Constant Matrix: (Units=GPa)
#
#
# Indices 1 2 3 4 5 6 
#
# 1 167.4041 36.7142 23.2974 0.0000 -1.2925 0.0000
# 2 36.7142 140.3688 30.5789 0.0000 7.6512 0.0000
# 3 23.2974 30.5789 95.7670 0.0000 -7.3169 0.0000
# 4 0.0000 0.0000 0.0000 40.3135 0.0000 -2.6856
# 5 -1.2925 7.6512 -7.3169 0.0000 42.6674 0.0000
# 6 0.0000 0.0000 0.0000 -2.6856 0.0000 47.7364
#
#
#
# Elastic Compliance Matrix: (Units=1/GPa)
#
#
# Indices 1 2 3 4 5 6 
#
# 1 0.006447 -0.001466 -0.001079 0.000000 0.000273 0.000000
# 2 -0.001466 0.008132 -0.002386 0.000000 -0.001912 0.000000
# 3 -0.001079 -0.002386 0.011649 0.000000 0.002393 0.000000
# 4 0.000000 0.000000 0.000000 0.024899 0.000000 0.001401
# 5 0.000273 -0.001912 0.002393 0.000000 0.024199 0.000000
# 6 0.000000 0.000000 0.000000 0.001401 0.000000 0.021027
#
#
# Mechanical properties :
#
#
# Convention : Reuss Voigt Hill
#
# Bulk Modulus (GPa) = 61.10460 64.96899 63.03679
# Shear Modulus (GPa) = 44.77448 47.00675 45.89061
#
# Velocity S-wave (km/s) = 3.96434 4.06196 4.01345
# Velocity P-wave (km/s) = 6.51173 6.69356 6.60327
#
# Compressibility (1/GPa) = 0.01636538
#
# Stress axis : x y z
#
# Youngs Moduli (GPa) = 155.10025 122.97853 85.84244
#
# Poissons Ratio (x) = 0.18030 0.09267
# Poissons Ratio (y) = 0.22739 0.20481
# Poissons Ratio (z) = 0.16743 0.29341
#
# Static dielectric constant tensor:
#      x y z
#    x 2.292620 0.000000 0.084210 
#    y 0.000000 2.213620 0.000000 
#    z 0.084210 0.000000 2.560420 
# 
# From -- ./inp_files/40054.got.cif
#   From: 2010.05.17/outbox.cif.g08.bks.cpg/sg13_21_cif.got.tgz:40054.got - 2010.06.03 16:44:36.
