data_PCOD9231415
_publ_section_title
;
Structure prediction by ZEFSAII (Michael W. Deem and Ramdas Pophale) SiO2 
 PCOD9231415
Probable space group: P 2/C
;
_chemical_formula_sum "Si O2"
_cell_formula_units_Z 28
_cell_length_a 19.001670
_cell_length_b 5.409208
_cell_length_c 15.599637
_cell_angle_alpha 90.000000
_cell_angle_beta 127.988527
_cell_angle_gamma 90.000000
_cell_volume 1263.688460
_symmetry_space_group_name_H-M "P 2/C"
_symmetry_group_IT_number 13
_symmetry_cell_setting 'monoclinic'
loop_
_space_group_symop_operation_xyz
x,y,z
-x,y,1/2-z
-x,-y,-z
x,-y,1/2+z
loop_
_atom_site_type_symbol
_atom_site_label
_atom_site_fract_x
_atom_site_fract_y
_atom_site_fract_z
Si Si1 0.584770 0.361029 0.597835
Si Si2 0.356862 0.119933 0.024261
Si Si3 0.396597 0.096058 0.718915
Si Si4 0.817349 0.993558 0.201374
Si Si5 0.253689 0.528099 0.051018
Si Si6 0.711864 0.257537 0.259010
Si Si7 0.101602 0.484647 0.298718
O O1 0.500000 0.500000 0.500000
O O2 0.600447 0.154491 0.537025
O O3 0.567505 0.284269 0.683120
O O4 0.673246 0.534454 0.666291
O O5 0.262004 0.993549 0.929480
O O6 0.326416 0.376104 0.047433
O O7 0.422927 0.989038 0.142442
O O8 0.302046 0.226501 0.621248
O O9 0.374339 0.858020 0.759000
O O10 0.766232 0.047025 0.251470
O O11 0.882975 0.226008 0.238763
O O12 0.863480 0.727875 0.225607
O O13 0.234167 0.375267 0.122748
O O14 0.165346 0.542461 0.929185
O O15 0.000000 0.518095 0.250000
#
# Coordination Sequence:
#
# PCOD9231415 Si02
#       7
#     4   4   4   4   4   4   4
#     4  11  24  41  64  98 140 173 224 298 352 398
#     4  10  20  39  67  90 126 182 232 269 334 412
#     4  10  20  40  66  93 125 173 237 274 335 416
#     4  11  21  40  69  92 126 185 228 270 335 429
#     4   9  20  37  63  93 126 173 226 279 322 421
#     4  10  21  39  65  93 121 177 233 272 336 423
#     4  11  23  40  64 100 136 173 224 288 354 398
#
# _framework density 22.157361000000002
#
# number of rings (size 3 to 8) (size 9 to 14) (size 15 to 20)
#    0.000    1.714    2.857    2.143    2.000    0.571 
#    0.000    9.286    3.143    0.000    0.000    0.000 
#    0.000    0.000    0.000    0.000    0.000    0.000 
#
# Total GULP energy -156248.615778 kJ/mol
# GULP energy per Si atom -5580.307706 kJ/mol
# Density = 2.210693 g / cm^3
# Si number density = 22.157361 Si / 1000 Ang^3
#
#
#
# Elastic Constant Matrix: (Units=GPa)
#
#
# Indices 1 2 3 4 5 6 
#
# 1 81.6666 24.3788 23.8797 0.0000 -13.4782 0.0000
# 2 24.3788 83.5074 19.2283 0.0000 -13.2715 0.0000
# 3 23.8797 19.2283 77.7678 0.0000 -14.2150 0.0000
# 4 0.0000 0.0000 0.0000 31.6930 0.0000 -7.2963
# 5 -13.4782 -13.2715 -14.2150 0.0000 24.6161 0.0000
# 6 0.0000 0.0000 0.0000 -7.2963 0.0000 39.6631
#
#
#
# Elastic Compliance Matrix: (Units=1/GPa)
#
#
# Indices 1 2 3 4 5 6 
#
# 1 0.014758 -0.002862 -0.002939 0.000000 0.004840 0.000000
# 2 -0.002862 0.013991 -0.001664 0.000000 0.005015 0.000000
# 3 -0.002939 -0.001664 0.015333 0.000000 0.006348 0.000000
# 4 0.000000 0.000000 0.000000 0.032948 0.000000 0.006061
# 5 0.004840 0.005015 0.006348 0.000000 0.049643 0.000000
# 6 0.000000 0.000000 0.000000 0.006061 0.000000 0.026327
#
#
# Mechanical properties :
#
#
# Convention : Reuss Voigt Hill
#
# Bulk Modulus (GPa) = 34.30410 41.99057 38.14734
# Shear Modulus (GPa) = 28.14570 30.89145 29.51858
#
# Velocity S-wave (km/s) = 3.56794 3.73793 3.65392
# Velocity P-wave (km/s) = 5.69994 6.13365 5.92077
#
# Compressibility (1/GPa) = 0.02915103
#
# Stress axis : x y z
#
# Youngs Moduli (GPa) = 67.76199 71.47615 65.21892
#
# Poissons Ratio (x) = 0.20459 0.19169
# Poissons Ratio (y) = 0.19396 0.10850
# Poissons Ratio (z) = 0.19916 0.11891
#
# Static dielectric constant tensor:
#      x y z
#    x 1.903320 0.000000 -0.018780 
#    y 0.000000 1.881210 0.000000 
#    z -0.018780 0.000000 1.799090 
# 
# From -- ./inp_files/54700.got.cif
#   From: 2010.05.17/outbox.cif.g08.bks.cpg/sg13_28_cif.got.tgz:54700.got - 2010.06.03 16:44:36.
