data_PCOD9231767
_publ_section_title
;
Structure prediction by ZEFSAII (Michael W. Deem and Ramdas Pophale) SiO2 
 PCOD9231767
Probable space group: P 2/C
;
_chemical_formula_sum "Si O2"
_cell_formula_units_Z 30
_cell_length_a 22.168261
_cell_length_b 6.503061
_cell_length_c 17.712637
_cell_angle_alpha 90.000000
_cell_angle_beta 148.601913
_cell_angle_gamma 90.000000
_cell_volume 1330.315564
_symmetry_space_group_name_H-M "P 2/C"
_symmetry_group_IT_number 13
_symmetry_cell_setting 'monoclinic'
loop_
_space_group_symop_operation_xyz
x,y,z
-x,y,1/2-z
-x,-y,-z
x,-y,1/2+z
loop_
_atom_site_type_symbol
_atom_site_label
_atom_site_fract_x
_atom_site_fract_y
_atom_site_fract_z
Si Si1 0.840801 0.538075 0.607615
Si Si2 0.185607 0.534500 0.593633
Si Si3 0.630685 0.501163 0.980035
Si Si4 0.000000 0.911106 0.750000
Si Si5 0.230894 0.199446 0.760712
Si Si6 0.565835 0.262857 0.154378
Si Si7 0.979917 0.216315 0.861684
Si Si8 0.565558 0.120861 0.995703
O O1 0.853246 0.488360 0.533697
O O2 0.707020 0.502274 0.486794
O O3 0.911572 0.385604 0.737709
O O4 0.895887 0.765815 0.669145
O O5 0.200314 0.316471 0.650752
O O6 0.305883 0.655475 0.717364
O O7 0.083193 0.674122 0.518165
O O8 0.507882 0.610136 0.863412
O O9 0.709523 0.618816 0.126064
O O10 0.611963 0.266587 0.981411
O O11 0.971233 0.052693 0.646772
O O12 0.116039 0.131271 0.682798
O O13 0.326280 0.019353 0.861223
O O14 0.522760 0.259885 0.020266
O O15 0.537313 0.025451 0.142507
#
# Coordination Sequence:
#
# PCOD9231767 Si02
#       8
#     4   4   4   2   4   4   4   4
#     4  11  24  43  67  90 126 172 213 258 327 391
#     4  12  22  43  62  95 133 166 208 273 320 370
#     4  10  21  43  65  90 127 172 212 256 319 384
#     4  12  20  44  70  90 114 178 214 254 320 392
#     4  10  23  38  68  97 127 165 214 267 317 379
#     4  10  23  36  68  93 128 166 208 263 315 374
#     4  11  23  45  64  93 132 171 211 262 327 386
#     4  10  20  41  65  99 122 168 218 258 318 382
#
# _framework density 22.551041000000001
#
# number of rings (size 3 to 8) (size 9 to 14) (size 15 to 20)
#    0.000    1.333    4.000    1.600    3.733    1.600 
#    0.000    1.333    2.933    0.000    0.000    0.000 
#    0.000    0.000    0.000    0.000    0.000    0.000 
#
# Total GULP energy -167397.320070 kJ/mol
# GULP energy per Si atom -5579.910669 kJ/mol
# Density = 2.249971 g / cm^3
# Si number density = 22.551041 Si / 1000 Ang^3
#
#
#
# Elastic Constant Matrix: (Units=GPa)
#
#
# Indices 1 2 3 4 5 6 
#
# 1 91.0100 23.0455 15.1301 0.0000 26.6663 0.0000
# 2 23.0455 92.8937 20.8099 0.0000 5.8188 0.0000
# 3 15.1301 20.8099 49.8664 0.0000 10.9783 0.0000
# 4 0.0000 0.0000 0.0000 13.0239 0.0000 11.9263
# 5 26.6663 5.8188 10.9783 0.0000 15.6057 0.0000
# 6 0.0000 0.0000 0.0000 11.9263 0.0000 22.9366
#
#
#
# Elastic Compliance Matrix: (Units=1/GPa)
#
#
# Indices 1 2 3 4 5 6 
#
# 1 0.023465 -0.004058 0.003630 0.000000 -0.041136 0.000000
# 2 -0.004058 0.012593 -0.005345 0.000000 0.005998 0.000000
# 3 0.003630 -0.005345 0.026161 0.000000 -0.022614 0.000000
# 4 0.000000 0.000000 0.000000 0.146570 0.000000 -0.076212
# 5 -0.041136 0.005998 -0.022614 0.000000 0.148043 0.000000
# 6 0.000000 0.000000 0.000000 -0.076212 0.000000 0.083226
#
#
# Mechanical properties :
#
#
# Convention : Reuss Voigt Hill
#
# Bulk Modulus (GPa) = 19.73363 39.08234 29.40799
# Shear Modulus (GPa) = 10.67249 21.96556 16.31903
#
# Velocity S-wave (km/s) = 2.17781 3.12434 2.69299
# Velocity P-wave (km/s) = 3.88503 5.51213 4.76849
#
# Compressibility (1/GPa) = 0.05067491
#
# Stress axis : x y z
#
# Youngs Moduli (GPa) = 42.61680 79.40769 38.22462
#
# Poissons Ratio (x) = 0.32222 -0.13876
# Poissons Ratio (y) = 0.17293 0.20430
# Poissons Ratio (z) = -0.15471 0.42440
#
# Static dielectric constant tensor:
#      x y z
#    x 1.843780 0.000000 0.021080 
#    y 0.000000 1.895280 0.000000 
#    z 0.021080 0.000000 1.876830 
# 
# From -- ./inp_files/81970.got.cif
#   From: 2010.05.17/outbox.cif.g08.bks.cpg/sg13_41_cif.got.tgz:81970.got - 2010.06.03 16:44:36.
