data_PCOD9231752
_publ_section_title
;
Structure prediction by ZEFSAII (Michael W. Deem and Ramdas Pophale) SiO2 
 PCOD9231752
Probable space group: P 2/C
;
_chemical_formula_sum "Si O2"
_cell_formula_units_Z 28
_cell_length_a 10.087025
_cell_length_b 6.364645
_cell_length_c 19.455994
_cell_angle_alpha 90.000000
_cell_angle_beta 65.312615
_cell_angle_gamma 90.000000
_cell_volume 1134.915466
_symmetry_space_group_name_H-M "P 2/C"
_symmetry_group_IT_number 13
_symmetry_cell_setting 'monoclinic'
loop_
_space_group_symop_operation_xyz
x,y,z
-x,y,1/2-z
-x,-y,-z
x,-y,1/2+z
loop_
_atom_site_type_symbol
_atom_site_label
_atom_site_fract_x
_atom_site_fract_y
_atom_site_fract_z
Si Si1 0.432384 0.898990 0.601040
Si Si2 0.955555 0.255374 0.511955
Si Si3 0.722653 0.625690 0.966927
Si Si4 0.658470 0.183016 0.236920
Si Si5 0.208573 0.276338 0.659126
Si Si6 0.278632 0.736838 0.922947
Si Si7 0.106620 0.822891 0.319463
O O1 0.400613 0.772899 0.538363
O O2 0.370959 0.756256 0.678129
O O3 0.602825 0.908904 0.580079
O O4 0.344486 0.116825 0.623475
O O5 0.852594 0.232740 0.468699
O O6 0.888586 0.233127 0.601799
O O7 0.000000 0.500000 0.500000
O O8 0.224617 0.472436 0.605373
O O9 0.688519 0.464747 0.036404
O O10 0.500000 0.082876 0.250000
O O11 0.794573 0.027289 0.210471
O O12 0.695050 0.323074 0.162507
O O13 0.118077 0.162658 0.468188
O O14 0.175065 0.329923 0.746185
O O15 0.062821 0.156216 0.664316
#
# Coordination Sequence:
#
# PCOD9231752 Si02
#       7
#     4   4   4   4   4   4   4
#     4  10  23  43  65  93 131 175 219 272 329 391
#     4  10  21  39  60  93 131 175 212 265 331 389
#     4  11  23  41  65  98 132 172 218 267 338 393
#     4   9  21  41  66  95 127 171 221 272 327 388
#     4  10  22  41  67  97 126 170 225 276 321 393
#     4  10  21  41  63  92 135 169 215 269 329 394
#     4  10  20  41  64  91 134 165 222 272 319 396
#
# _framework density 24.67144
#
# number of rings (size 3 to 8) (size 9 to 14) (size 15 to 20)
#    0.000    2.000    2.857    0.429    2.000    4.571 
#    0.000   11.429    0.000    4.286    0.000    0.000 
#    0.000    0.000    0.000    0.000    0.000    0.000 
#
# Total GULP energy -156398.692978 kJ/mol
# GULP energy per Si atom -5585.667606 kJ/mol
# Density = 2.461529 g / cm^3
# Si number density = 24.671440 Si / 1000 Ang^3
#
#
#
# Elastic Constant Matrix: (Units=GPa)
#
#
# Indices 1 2 3 4 5 6 
#
# 1 165.4054 27.4002 39.5929 0.0000 -2.4752 0.0000
# 2 27.4002 39.7798 47.6086 0.0000 4.8080 0.0000
# 3 39.5929 47.6086 203.9719 0.0000 17.0879 0.0000
# 4 0.0000 0.0000 0.0000 39.7395 0.0000 10.4759
# 5 -2.4752 4.8080 17.0879 0.0000 41.6065 0.0000
# 6 0.0000 0.0000 0.0000 10.4759 0.0000 23.1417
#
#
#
# Elastic Compliance Matrix: (Units=1/GPa)
#
#
# Indices 1 2 3 4 5 6 
#
# 1 0.006886 -0.004393 -0.000402 0.000000 0.001082 0.000000
# 2 -0.004393 0.037705 -0.007831 0.000000 -0.001402 0.000000
# 3 -0.000402 -0.007831 0.006975 0.000000 -0.001983 0.000000
# 4 0.000000 0.000000 0.000000 0.028574 0.000000 -0.012935
# 5 0.001082 -0.001402 -0.001983 0.000000 0.025076 0.000000
# 6 0.000000 0.000000 0.000000 -0.012935 0.000000 0.049068
#
#
# Mechanical properties :
#
#
# Convention : Reuss Voigt Hill
#
# Bulk Modulus (GPa) = 38.00089 70.92895 54.46492
# Shear Modulus (GPa) = 26.55270 40.53455 33.54363
#
# Velocity S-wave (km/s) = 3.28419 4.05776 3.69129
# Velocity P-wave (km/s) = 5.46053 7.12501 6.34756
#
# Compressibility (1/GPa) = 0.02631518
#
# Stress axis : x y z
#
# Youngs Moduli (GPa) = 145.22559 26.52158 143.37852
#
# Poissons Ratio (x) = 0.11650 0.05764
# Poissons Ratio (y) = 0.63792 1.12273
# Poissons Ratio (z) = 0.05838 0.20768
#
# Static dielectric constant tensor:
#      x y z
#    x 2.029860 0.000000 -0.052990 
#    y 0.000000 2.110780 0.000000 
#    z -0.052990 0.000000 2.008950 
# 
# From -- ./inp_files/49956.got.cif
#   From: 2010.05.17/outbox.cif.g08.bks.cpg/sg13_25_cif.got.tgz:49956.got - 2010.06.03 16:44:36.
