data_PCOD9231815
_publ_section_title
;
Structure prediction by ZEFSAII (Michael W. Deem and Ramdas Pophale) SiO2 
 PCOD9231815
Probable space group: P 2/C
;
_chemical_formula_sum "Si O2"
_cell_formula_units_Z 32
_cell_length_a 11.962906
_cell_length_b 11.890790
_cell_length_c 14.775389
_cell_angle_alpha 90.000000
_cell_angle_beta 42.302609
_cell_angle_gamma 90.000000
_cell_volume 1414.591990
_symmetry_space_group_name_H-M "P 2/C"
_symmetry_group_IT_number 13
_symmetry_cell_setting 'monoclinic'
loop_
_space_group_symop_operation_xyz
x,y,z
-x,y,1/2-z
-x,-y,-z
x,-y,1/2+z
loop_
_atom_site_type_symbol
_atom_site_label
_atom_site_fract_x
_atom_site_fract_y
_atom_site_fract_z
Si Si1 0.135090 0.235975 0.899724
Si Si2 0.273539 0.918364 0.447058
Si Si3 0.864780 0.325938 0.194586
Si Si4 0.686421 0.617802 0.619730
Si Si5 0.025873 0.569571 0.336199
Si Si6 0.336293 0.870320 0.605752
Si Si7 0.946771 0.961403 0.183393
Si Si8 0.399358 0.834812 0.898758
O O1 0.286773 0.167669 0.856066
O O2 0.049179 0.135217 0.893751
O O3 0.132458 0.341333 0.832189
O O4 0.031349 0.282442 0.046937
O O5 0.366639 0.879184 0.481298
O O6 0.323103 0.048971 0.408859
O O7 0.077435 0.939540 0.584203
O O8 0.739997 0.335268 0.184956
O O9 0.785744 0.235253 0.307968
O O10 0.885744 0.448909 0.222508
O O11 0.500000 0.568922 0.750000
O O12 0.847572 0.545938 0.492607
O O13 0.700395 0.718582 0.536066
O O14 0.000000 0.611338 0.250000
O O15 0.494634 0.856684 0.575268
O O16 0.232719 0.980400 0.699553
O O17 0.000000 0.915965 0.250000
O O18 0.500000 0.799547 0.750000
#
# Coordination Sequence:
#
# PCOD9231815 Si02
#       8
#     4   4   4   4   4   4   4   4
#     4  11  21  36  62  92 128 167 220 275 332 390
#     4  11  22  33  59  93 134 166 213 267 329 401
#     4  11  22  41  65  94 125 174 228 282 331 399
#     4  10  20  41  71  95 129 177 227 268 340 412
#     4  11  26  43  68 100 131 174 233 296 335 388
#     4  11  22  38  60  99 128 172 217 270 334 412
#     4  10  21  35  59  92 129 160 210 268 329 396
#     4  11  21  38  62  92 133 177 213 262 343 416
#
# _framework density 22.621362999999999
#
# number of rings (size 3 to 8) (size 9 to 14) (size 15 to 20)
#    0.000    1.250    3.750    4.875    1.750    1.000 
#    0.000    1.875    0.000    9.000    0.000    0.000 
#    0.000    0.000    0.000    0.000    0.000    0.000 
#
# Total GULP energy -178415.667761 kJ/mol
# GULP energy per Si atom -5575.489618 kJ/mol
# Density = 2.256988 g / cm^3
# Si number density = 22.621363 Si / 1000 Ang^3
#
#
#
# Elastic Constant Matrix: (Units=GPa)
#
#
# Indices 1 2 3 4 5 6 
#
# 1 80.2675 33.0154 4.4735 0.0000 8.1932 0.0000
# 2 33.0154 100.5179 12.4216 0.0000 2.2407 0.0000
# 3 4.4735 12.4216 44.1652 0.0000 5.8400 0.0000
# 4 0.0000 0.0000 0.0000 23.1429 0.0000 -3.1164
# 5 8.1932 2.2407 5.8400 0.0000 28.4574 0.0000
# 6 0.0000 0.0000 0.0000 -3.1164 0.0000 23.0029
#
#
#
# Elastic Compliance Matrix: (Units=1/GPa)
#
#
# Indices 1 2 3 4 5 6 
#
# 1 0.014828 -0.004829 0.000381 0.000000 -0.003967 0.000000
# 2 -0.004829 0.011881 -0.002994 0.000000 0.001069 0.000000
# 3 0.000381 -0.002994 0.024082 0.000000 -0.004816 0.000000
# 4 0.000000 0.000000 0.000000 0.044013 0.000000 0.005963
# 5 -0.003967 0.001069 -0.004816 0.000000 0.037187 0.000000
# 6 0.000000 0.000000 0.000000 0.005963 0.000000 0.044281
#
#
# Mechanical properties :
#
#
# Convention : Reuss Voigt Hill
#
# Bulk Modulus (GPa) = 27.84927 36.08575 31.96751
# Shear Modulus (GPa) = 24.61543 26.58999 25.60271
#
# Velocity S-wave (km/s) = 3.30229 3.43218 3.36786
# Velocity P-wave (km/s) = 5.18439 5.62967 5.41161
#
# Compressibility (1/GPa) = 0.03590759
#
# Stress axis : x y z
#
# Youngs Moduli (GPa) = 67.43850 84.17010 41.52394
#
# Poissons Ratio (x) = 0.40646 -0.01581
# Poissons Ratio (y) = 0.32566 0.12431
# Poissons Ratio (z) = -0.02568 0.25198
#
# Static dielectric constant tensor:
#      x y z
#    x 1.926670 0.000000 -0.111610 
#    y 0.000000 1.921290 0.000000 
#    z -0.111610 0.000000 1.974640 
# 
# From -- ./inp_files/51178.got.cif
#   From: 2010.05.17/outbox.cif.g08.bks.cpg/sg13_26_cif.got.tgz:51178.got - 2010.06.03 16:44:36.
