data_PCOD9231523
_publ_section_title
;
Structure prediction by ZEFSAII (Michael W. Deem and Ramdas Pophale) SiO2 
 PCOD9231523
Probable space group: P 2/C
;
_chemical_formula_sum "Si O2"
_cell_formula_units_Z 30
_cell_length_a 26.691003
_cell_length_b 5.201575
_cell_length_c 8.932161
_cell_angle_alpha 90.000000
_cell_angle_beta 109.357957
_cell_angle_gamma 90.000000
_cell_volume 1169.991266
_symmetry_space_group_name_H-M "P 2/C"
_symmetry_group_IT_number 13
_symmetry_cell_setting 'monoclinic'
loop_
_space_group_symop_operation_xyz
x,y,z
-x,y,1/2-z
-x,-y,-z
x,-y,1/2+z
loop_
_atom_site_type_symbol
_atom_site_label
_atom_site_fract_x
_atom_site_fract_y
_atom_site_fract_z
Si Si1 0.000000 0.447067 0.750000
Si Si2 0.390717 0.812388 0.755136
Si Si3 0.715218 0.443655 0.233352
Si Si4 0.695004 0.174125 0.916299
Si Si5 0.139817 0.236130 0.649330
Si Si6 0.070574 0.264807 0.082653
Si Si7 0.459761 0.942224 0.093673
Si Si8 0.206201 0.129848 0.005157
O O1 0.968982 0.278063 0.597360
O O2 0.959751 0.627945 0.802220
O O3 0.337741 0.644442 0.725086
O O4 0.363702 0.082454 0.679904
O O5 0.434326 0.815879 0.663527
O O6 0.415428 0.810043 0.945461
O O7 0.717114 0.737143 0.279039
O O8 0.769815 0.317809 0.343829
O O9 0.701883 0.379543 0.052485
O O10 0.738371 0.968183 0.008571
O O11 0.115037 0.515240 0.593007
O O12 0.094376 0.017642 0.628385
O O13 0.173280 0.102622 0.548334
O O14 0.172718 0.249267 0.836961
O O15 0.500000 0.803268 0.250000
O O16 0.500000 0.000000 0.000000
#
# Coordination Sequence:
#
# PCOD9231523 Si02
#       8
#     2   4   4   4   4   4   4   4
#     4  10  24  48  72 100 136 172 240 288 344 416
#     4  10  20  40  62  89 128 160 227 266 328 413
#     4  11  25  40  63  94 126 181 219 272 334 393
#     4  11  25  40  63  94 126 180 220 272 332 395
#     4  12  26  44  68 103 140 182 228 284 358 415
#     4  11  26  44  72 102 134 184 226 290 349 411
#     4   9  18  34  64  92 116 168 211 273 346 402
#     4  11  26  41  64  93 140 174 225 275 329 422
#
# _framework density 25.641217000000001
#
# number of rings (size 3 to 8) (size 9 to 14) (size 15 to 20)
#    0.000    1.333    2.667    1.600    7.467    3.200 
#    0.000    0.000    0.000   16.000    0.000    0.000 
#    0.000    0.000    0.000    0.000    0.000    0.000 
#
# Total GULP energy -167484.083047 kJ/mol
# GULP energy per Si atom -5582.802768 kJ/mol
# Density = 2.558286 g / cm^3
# Si number density = 25.641217 Si / 1000 Ang^3
#
#
#
# Elastic Constant Matrix: (Units=GPa)
#
#
# Indices 1 2 3 4 5 6 
#
# 1 97.8006 21.1848 36.3970 0.0000 2.0893 0.0000
# 2 21.1848 39.4065 22.5198 0.0000 6.5830 0.0000
# 3 36.3970 22.5198 176.1352 0.0000 15.4337 0.0000
# 4 0.0000 0.0000 0.0000 20.0166 0.0000 -6.9031
# 5 2.0893 6.5830 15.4337 0.0000 56.1256 0.0000
# 6 0.0000 0.0000 0.0000 -6.9031 0.0000 20.1041
#
#
#
# Elastic Compliance Matrix: (Units=1/GPa)
#
#
# Indices 1 2 3 4 5 6 
#
# 1 0.012105 -0.005568 -0.001852 0.000000 0.000712 0.000000
# 2 -0.005568 0.030232 -0.002482 0.000000 -0.002656 0.000000
# 3 -0.001852 -0.002482 0.006503 0.000000 -0.001428 0.000000
# 4 0.000000 0.000000 0.000000 0.056669 0.000000 0.019458
# 5 0.000712 -0.002656 -0.001428 0.000000 0.018495 0.000000
# 6 0.000000 0.000000 0.000000 0.019458 0.000000 0.056423
#
#
# Mechanical properties :
#
#
# Convention : Reuss Voigt Hill
#
# Bulk Modulus (GPa) = 34.44043 52.61618 43.52831
# Shear Modulus (GPa) = 23.81985 34.79864 29.30925
#
# Velocity S-wave (km/s) = 3.05120 3.68793 3.38457
# Velocity P-wave (km/s) = 5.08664 6.22086 5.68213
#
# Compressibility (1/GPa) = 0.02903564
#
# Stress axis : x y z
#
# Youngs Moduli (GPa) = 82.61052 33.07743 153.78487
#
# Poissons Ratio (x) = 0.18418 0.28479
# Poissons Ratio (y) = 0.45999 0.38169
# Poissons Ratio (z) = 0.15298 0.08210
#
# Static dielectric constant tensor:
#      x y z
#    x 2.181260 0.000000 0.005510 
#    y 0.000000 2.162130 0.000000 
#    z 0.005510 0.000000 1.884910 
# 
# From -- ./inp_files/24787.got.cif
#   From: 2010.05.17/outbox.cif.g08.bks.cpg/sg13_13_cif.got.tgz:24787.got - 2010.06.03 16:44:36.
