data_PCOD9231827
_publ_section_title
;
Structure prediction by ZEFSAII (Michael W. Deem and Ramdas Pophale) SiO2 
 PCOD9231827
Probable space group: P 2/C
;
_chemical_formula_sum "Si O2"
_cell_formula_units_Z 24
_cell_length_a 12.980421
_cell_length_b 13.888230
_cell_length_c 15.857383
_cell_angle_alpha 90.000000
_cell_angle_beta 24.177493
_cell_angle_gamma 90.000000
_cell_volume 1170.818873
_symmetry_space_group_name_H-M "P 2/C"
_symmetry_group_IT_number 13
_symmetry_cell_setting 'monoclinic'
loop_
_space_group_symop_operation_xyz
x,y,z
-x,y,1/2-z
-x,-y,-z
x,-y,1/2+z
loop_
_atom_site_type_symbol
_atom_site_label
_atom_site_fract_x
_atom_site_fract_y
_atom_site_fract_z
Si Si1 0.971975 0.217876 0.107374
Si Si2 0.780443 0.070492 0.695051
Si Si3 0.515900 0.429157 0.567405
Si Si4 0.765182 0.955946 0.864454
Si Si5 0.500000 0.553910 0.750000
Si Si6 0.969258 0.388752 0.990451
Si Si7 0.000000 0.688448 0.750000
O O1 0.781549 0.137400 0.288929
O O2 0.111299 0.252417 0.088259
O O3 0.145720 0.166550 0.908512
O O4 0.875538 0.312707 0.130347
O O5 0.781916 0.051886 0.794561
O O6 0.492075 0.044958 0.891209
O O7 0.000000 0.000000 0.500000
O O8 0.500000 0.500000 0.500000
O O9 0.524367 0.488831 0.648550
O O10 0.260653 0.366600 0.752555
O O11 0.773060 0.370546 0.379242
O O12 0.000000 0.951043 0.750000
O O13 0.760695 0.610444 0.572587
O O14 0.000000 0.500000 0.000000
#
# Coordination Sequence:
#
# PCOD9231827 Si02
#       7
#     4   4   4   4   2   4   2
#     4  11  23  39  62 100 130 168 220 279 318 399
#     4   9  22  42  65  94 132 164 204 276 334 396
#     4  11  22  38  62  88 126 175 228 279 323 388
#     4  10  21  42  69  99 126 166 216 268 344 402
#     4  10  20  42  58  82 120 178 224 262 332 372
#     4  10  22  39  59  86 130 173 215 270 319 375
#     4  12  22  34  60 100 128 168 222 268 338 384
#
# _framework density 20.498474000000002
#
# number of rings (size 3 to 8) (size 9 to 14) (size 15 to 20)
#    0.000    1.667    0.833    5.000    2.333    4.000 
#    0.000    5.000    0.000    0.000    0.000    0.000 
#    0.000    0.000    0.000    0.000    0.000    0.000 
#
# Total GULP energy -133616.306866 kJ/mol
# GULP energy per Si atom -5567.346119 kJ/mol
# Density = 2.045182 g / cm^3
# Si number density = 20.498474 Si / 1000 Ang^3
#
#
#
# Elastic Constant Matrix: (Units=GPa)
#
#
# Indices 1 2 3 4 5 6 
#
# 1 138.1557 62.0262 55.7090 0.0000 -14.2310 0.0000
# 2 62.0262 78.7193 46.6396 0.0000 7.2936 0.0000
# 3 55.7090 46.6396 128.9661 0.0000 -24.6689 0.0000
# 4 0.0000 0.0000 0.0000 27.9665 0.0000 13.7313
# 5 -14.2310 7.2936 -24.6689 0.0000 46.3869 0.0000
# 6 0.0000 0.0000 0.0000 13.7313 0.0000 28.2048
#
#
#
# Elastic Compliance Matrix: (Units=1/GPa)
#
#
# Indices 1 2 3 4 5 6 
#
# 1 0.012488 -0.009729 -0.000947 0.000000 0.004857 0.000000
# 2 -0.009729 0.025584 -0.007114 0.000000 -0.010790 0.000000
# 3 -0.000947 -0.007114 0.012128 0.000000 0.007278 0.000000
# 4 0.000000 0.000000 0.000000 0.046989 0.000000 -0.022876
# 5 0.004857 -0.010790 0.007278 0.000000 0.028615 0.000000
# 6 0.000000 0.000000 0.000000 -0.022876 0.000000 0.046592
#
#
# Mechanical properties :
#
#
# Convention : Reuss Voigt Hill
#
# Bulk Modulus (GPa) = 68.39687 74.95453 71.67570
# Shear Modulus (GPa) = 23.49085 32.60939 28.05012
#
# Velocity S-wave (km/s) = 3.38891 3.99284 3.70320
# Velocity P-wave (km/s) = 6.98227 7.60935 7.30255
#
# Compressibility (1/GPa) = 0.01462055
#
# Stress axis : x y z
#
# Youngs Moduli (GPa) = 80.07442 39.08735 82.45627
#
# Poissons Ratio (x) = 0.38029 0.07808
# Poissons Ratio (y) = 0.77905 0.58655
# Poissons Ratio (z) = 0.07583 0.27805
#
# Static dielectric constant tensor:
#      x y z
#    x 1.716360 0.000000 -0.004550 
#    y 0.000000 1.844870 0.000000 
#    z -0.004550 0.000000 1.818700 
# 
# From -- ./inp_files/51413.got.cif
#   From: 2010.05.17/outbox.cif.g08.bks.cpg/sg13_26_cif.got.tgz:51413.got - 2010.06.03 16:44:36.
