data_PCOD9231672
_publ_section_title
;
Structure prediction by ZEFSAII (Michael W. Deem and Ramdas Pophale) SiO2 
 PCOD9231672
Probable space group: P 2/C
;
_chemical_formula_sum "Si O2"
_cell_formula_units_Z 26
_cell_length_a 10.073520
_cell_length_b 8.696873
_cell_length_c 18.948824
_cell_angle_alpha 90.000000
_cell_angle_beta 43.905141
_cell_angle_gamma 90.000000
_cell_volume 1151.203538
_symmetry_space_group_name_H-M "P 2/C"
_symmetry_group_IT_number 13
_symmetry_cell_setting 'monoclinic'
loop_
_space_group_symop_operation_xyz
x,y,z
-x,y,1/2-z
-x,-y,-z
x,-y,1/2+z
loop_
_atom_site_type_symbol
_atom_site_label
_atom_site_fract_x
_atom_site_fract_y
_atom_site_fract_z
Si Si1 0.500000 0.293516 0.750000
Si Si2 0.225831 0.192384 0.301466
Si Si3 0.770832 0.032205 0.590142
Si Si4 0.411269 0.321627 0.547098
Si Si5 0.792179 0.970865 0.320603
Si Si6 0.554051 0.534644 0.856436
Si Si7 0.787093 0.800699 0.947111
O O1 0.681478 0.177173 0.668233
O O2 0.500634 0.406180 0.817816
O O3 0.338234 0.334084 0.227851
O O4 0.000881 0.240894 0.389425
O O5 0.296597 0.126158 0.349020
O O6 0.239098 0.042636 0.244449
O O7 0.715459 0.074872 0.532003
O O8 0.000000 0.000000 0.500000
O O9 0.348551 0.151599 0.591339
O O10 0.313227 0.442492 0.637583
O O11 0.416114 0.367301 0.463435
O O12 0.628796 0.327545 0.495640
O O13 0.000000 0.894976 0.250000
O O14 0.800957 0.118857 0.366793
#
# Coordination Sequence:
#
# PCOD9231672 Si02
#       7
#     2   4   4   4   4   4   4
#     4  12  24  44  68  96 140 170 222 280 332 402
#     4  10  22  40  65  96 127 171 222 266 328 397
#     4  10  23  43  70  94 127 177 223 277 327 383
#     4  11  22  42  64  95 133 173 219 272 333 391
#     4  10  21  39  63  95 127 170 224 275 316 382
#     4  11  25  40  63  97 134 172 211 267 347 396
#     4  10  20  40  69  90 127 167 220 275 318 382
#
# _framework density 22.585059999999999
#
# number of rings (size 3 to 8) (size 9 to 14) (size 15 to 20)
#    0.000    1.538    3.077    1.385    0.000    1.846 
#    5.538    3.077    3.385    0.000    0.000    0.000 
#    0.000    0.000    0.000    0.000    0.000    0.000 
#
# Total GULP energy -144780.068550 kJ/mol
# GULP energy per Si atom -5568.464175 kJ/mol
# Density = 2.253366 g / cm^3
# Si number density = 22.585060 Si / 1000 Ang^3
#
#
#
# Elastic Constant Matrix: (Units=GPa)
#
#
# Indices 1 2 3 4 5 6 
#
# 1 62.6243 33.4295 39.9743 0.0000 15.8505 0.0000
# 2 33.4295 101.1815 44.4889 0.0000 -9.3093 0.0000
# 3 39.9743 44.4889 105.7397 0.0000 6.2751 0.0000
# 4 0.0000 0.0000 0.0000 37.4894 0.0000 17.8818
# 5 15.8505 -9.3093 6.2751 0.0000 37.8907 0.0000
# 6 0.0000 0.0000 0.0000 17.8818 0.0000 2.6148
#
#
#
# Elastic Compliance Matrix: (Units=1/GPa)
#
#
# Indices 1 2 3 4 5 6 
#
# 1 0.026943 -0.007160 -0.006463 0.000000 -0.011960 0.000000
# 2 -0.007160 0.014616 -0.003872 0.000000 0.007228 0.000000
# 3 -0.006463 -0.003872 0.013559 0.000000 -0.000493 0.000000
# 4 0.000000 0.000000 0.000000 -0.011793 0.000000 0.080646
# 5 -0.011960 0.007228 -0.000493 0.000000 0.033252 0.000000
# 6 0.000000 0.000000 0.000000 0.080646 0.000000 -0.169077
#
#
# Mechanical properties :
#
#
# Convention : Reuss Voigt Hill
#
# Bulk Modulus (GPa) = 49.68274 56.14788 52.91531
# Shear Modulus (GPa) = -98.42679 25.70917 -36.35881
#
# Velocity S-wave (km/s) = -6.60871 3.37757 -4.01666
# Velocity P-wave (km/s) = 6.01562 6.33445 1.40314
#
# Compressibility (1/GPa) = 0.02012771
#
# Stress axis : x y z
#
# Youngs Moduli (GPa) = 37.11503 68.41706 73.75263
#
# Poissons Ratio (x) = 0.48989 0.47669
# Poissons Ratio (y) = 0.26575 0.28554
# Poissons Ratio (z) = 0.23989 0.26489
#
# Static dielectric constant tensor:
#      x y z
#    x 1.858430 0.000000 -0.066990 
#    y 0.000000 1.885270 0.000000 
#    z -0.066990 0.000000 2.012600 
# 
# From -- ./inp_files/78223.got.cif
#   From: 2010.05.17/outbox.cif.g08.bks.cpg/sg13_40_cif.got.tgz:78223.got - 2010.06.03 16:44:36.
