data_PCOD9231201
_publ_section_title
;
Structure prediction by ZEFSAII (Michael W. Deem and Ramdas Pophale) SiO2 
 PCOD9231201
Probable space group: P 2/C
;
_chemical_formula_sum "Si O2"
_cell_formula_units_Z 26
_cell_length_a 10.284332
_cell_length_b 16.280596
_cell_length_c 8.603126
_cell_angle_alpha 90.000000
_cell_angle_beta 112.687550
_cell_angle_gamma 90.000000
_cell_volume 1329.004468
_symmetry_space_group_name_H-M "P 2/C"
_symmetry_group_IT_number 13
_symmetry_cell_setting 'monoclinic'
loop_
_space_group_symop_operation_xyz
x,y,z
-x,y,1/2-z
-x,-y,-z
x,-y,1/2+z
loop_
_atom_site_type_symbol
_atom_site_label
_atom_site_fract_x
_atom_site_fract_y
_atom_site_fract_z
Si Si1 0.833818 0.977861 0.943212
Si Si2 0.849496 0.732590 0.755304
Si Si3 0.385225 0.615519 0.934101
Si Si4 0.693719 0.108818 0.082104
Si Si5 0.500000 0.482398 0.750000
Si Si6 0.453083 0.777820 0.408350
Si Si7 0.150381 0.194393 0.896657
O O1 0.755277 0.941347 0.756521
O O2 0.835499 0.903029 0.066089
O O3 0.743108 0.054924 0.959727
O O4 0.000000 0.000000 0.000000
O O5 0.761886 0.650875 0.688548
O O6 0.532154 0.859790 0.511740
O O7 0.000000 0.723170 0.750000
O O8 0.846413 0.761648 0.932925
O O9 0.429708 0.543177 0.840201
O O10 0.392845 0.576688 0.109051
O O11 0.488757 0.695058 0.981975
O O12 0.775882 0.194754 0.123606
O O13 0.500000 0.774379 0.250000
O O14 0.286576 0.780997 0.359287
O O15 0.000000 0.211485 0.750000
#
# Coordination Sequence:
#
# PCOD9231201 Si02
#       7
#     4   4   4   4   2   4   4
#     4  11  22  39  61  90 124 170 217 273 320 382
#     4  10  22  40  65  92 129 167 210 262 322 382
#     4  10  21  40  66  96 127 162 209 254 321 382
#     4  10  23  39  61  84 126 165 217 263 324 364
#     4  10  20  38  68  96 124 162 204 258 310 400
#     4  11  25  42  64  95 130 166 214 271 317 385
#     4  11  25  40  64  93 126 173 225 269 323 377
#
# _framework density 19.563514999999999
#
# number of rings (size 3 to 8) (size 9 to 14) (size 15 to 20)
#    0.000    1.538    0.769    4.154    8.615    5.538 
#    0.000    0.769    0.000    3.692    0.000    0.000 
#    0.000    0.000    0.000    0.000    0.000    0.000 
#
# Total GULP energy -145185.506743 kJ/mol
# GULP energy per Si atom -5584.057952 kJ/mol
# Density = 1.951899 g / cm^3
# Si number density = 19.563515 Si / 1000 Ang^3
#
#
#
# Elastic Constant Matrix: (Units=GPa)
#
#
# Indices 1 2 3 4 5 6 
#
# 1 144.9824 38.9099 40.5422 0.0000 15.2142 0.0000
# 2 38.9099 90.5860 33.8645 0.0000 2.0716 0.0000
# 3 40.5422 33.8645 70.6469 0.0000 8.8507 0.0000
# 4 0.0000 0.0000 0.0000 -66.7908 0.0000 -11.6243
# 5 15.2142 2.0716 8.8507 0.0000 25.7726 0.0000
# 6 0.0000 0.0000 0.0000 -11.6243 0.0000 14.3397
#
#
#
# Elastic Compliance Matrix: (Units=1/GPa)
#
#
# Indices 1 2 3 4 5 6 
#
# 1 0.008932 -0.002453 -0.003463 0.000000 -0.003886 0.000000
# 2 -0.002453 0.014158 -0.005661 0.000000 0.002254 0.000000
# 3 -0.003463 -0.005661 0.019376 0.000000 -0.004155 0.000000
# 4 0.000000 0.000000 0.000000 -0.013121 0.000000 -0.010636
# 5 -0.003886 0.002254 -0.004155 0.000000 0.042341 0.000000
# 6 0.000000 0.000000 0.000000 -0.010636 0.000000 0.061114
#
#
# Mechanical properties :
#
#
# Convention : Reuss Voigt Hill
#
# Bulk Modulus (GPa) = 51.78242 59.20539 55.49391
# Shear Modulus (GPa) = 30.78973 7.52421 19.15697
#
# Velocity S-wave (km/s) = 3.97146 1.96326 3.13264
# Velocity P-wave (km/s) = 6.89611 5.95551 6.44300
#
# Compressibility (1/GPa) = 0.01931157
#
# Stress axis : x y z
#
# Youngs Moduli (GPa) = 111.95765 70.63276 51.60911
#
# Poissons Ratio (x) = 0.17327 0.17872
# Poissons Ratio (y) = 0.27464 0.29217
# Poissons Ratio (z) = 0.38771 0.39986
#
# Static dielectric constant tensor:
#      x y z
#    x 1.726040 0.000000 0.002430 
#    y 0.000000 1.672120 0.000000 
#    z 0.002430 0.000000 1.755600 
# 
# From -- ./inp_files/16592.got.cif
#   From: 2010.05.17/outbox.cif.g08.bks.cpg/sg13_9_cif.got.tgz:16592.got - 2010.06.03 16:44:36.
