data_PCOD9231620
_publ_section_title
;
Structure prediction by ZEFSAII (Michael W. Deem and Ramdas Pophale) SiO2 
 PCOD9231620
Probable space group: P 2/C
;
_chemical_formula_sum "Si O2"
_cell_formula_units_Z 32
_cell_length_a 10.677495
_cell_length_b 11.346064
_cell_length_c 20.606452
_cell_angle_alpha 90.000000
_cell_angle_beta 35.412992
_cell_angle_gamma 90.000000
_cell_volume 1446.591068
_symmetry_space_group_name_H-M "P 2/C"
_symmetry_group_IT_number 13
_symmetry_cell_setting 'monoclinic'
loop_
_space_group_symop_operation_xyz
x,y,z
-x,y,1/2-z
-x,-y,-z
x,-y,1/2+z
loop_
_atom_site_type_symbol
_atom_site_label
_atom_site_fract_x
_atom_site_fract_y
_atom_site_fract_z
Si Si1 0.445955 0.818260 0.907933
Si Si2 0.124058 0.808849 0.919051
Si Si3 0.839104 0.448692 0.872208
Si Si4 0.286392 0.011157 0.756899
Si Si5 0.619716 0.792854 0.138196
Si Si6 0.951898 0.197431 0.845220
Si Si7 0.497721 0.594133 0.407865
Si Si8 0.640559 0.607662 0.756271
O O1 0.551284 0.691307 0.852074
O O2 0.631640 0.915821 0.829800
O O3 0.289312 0.836779 0.033676
O O4 0.286517 0.817553 0.911647
O O5 0.173367 0.692085 0.853915
O O6 0.181338 0.925776 0.854511
O O7 0.873741 0.804193 0.042766
O O8 0.957857 0.338032 0.856045
O O9 0.648465 0.395430 0.907383
O O10 0.000000 0.504482 0.750000
O O11 0.722255 0.530701 0.973839
O O12 0.506590 0.080554 0.679567
O O13 0.118970 0.112828 0.810121
O O14 0.500000 0.734763 0.250000
O O15 0.567115 0.716413 0.097313
O O16 0.000000 0.184204 0.750000
O O17 0.627963 0.516231 0.299256
O O18 0.500000 0.591635 0.750000
#
# Coordination Sequence:
#
# PCOD9231620 Si02
#       8
#     4   4   4   4   4   4   4   4
#     4  10  20  40  66  91 128 169 211 256 320 393
#     4  10  23  41  68  98 127 174 206 262 333 392
#     4  10  23  42  66  88 121 176 222 260 319 385
#     4  11  23  41  67  92 130 167 214 264 318 393
#     4  12  24  38  61 103 133 158 213 269 318 386
#     4  11  22  39  62  92 123 170 217 263 321 369
#     4  11  23  42  65  93 127 171 217 271 322 384
#     4   9  19  40  65  94 126 163 211 260 328 384
#
# _framework density 22.120971000000001
#
# number of rings (size 3 to 8) (size 9 to 14) (size 15 to 20)
#    0.000    1.500    1.250    5.250    1.750    2.000 
#    0.000    4.375    0.000    0.000    0.000    0.000 
#    0.000    0.000    0.000    0.000    0.000    0.000 
#
# Total GULP energy -178511.536971 kJ/mol
# GULP energy per Si atom -5578.485530 kJ/mol
# Density = 2.207062 g / cm^3
# Si number density = 22.120971 Si / 1000 Ang^3
#
#
#
# Elastic Constant Matrix: (Units=GPa)
#
#
# Indices 1 2 3 4 5 6 
#
# 1 23.5206 22.0862 12.2407 0.0000 2.4846 0.0000
# 2 22.0862 96.3925 38.1280 0.0000 -4.7446 0.0000
# 3 12.2407 38.1280 128.7931 0.0000 10.0070 0.0000
# 4 0.0000 0.0000 0.0000 22.3758 0.0000 -6.9255
# 5 2.4846 -4.7446 10.0070 0.0000 30.4945 0.0000
# 6 0.0000 0.0000 0.0000 -6.9255 0.0000 27.7510
#
#
#
# Elastic Compliance Matrix: (Units=1/GPa)
#
#
# Indices 1 2 3 4 5 6 
#
# 1 0.055562 -0.012609 -0.001071 0.000000 -0.006137 0.000000
# 2 -0.012609 0.014894 -0.003562 0.000000 0.004514 0.000000
# 3 -0.001071 -0.003562 0.009191 0.000000 -0.003483 0.000000
# 4 0.000000 0.000000 0.000000 0.048432 0.000000 0.012087
# 5 -0.006137 0.004514 -0.003483 0.000000 0.035138 0.000000
# 6 0.000000 0.000000 0.000000 0.012087 0.000000 0.039051
#
#
# Mechanical properties :
#
#
# Convention : Reuss Voigt Hill
#
# Bulk Modulus (GPa) = 22.14162 43.73511 32.93836
# Shear Modulus (GPa) = 19.85645 27.87433 23.86539
#
# Velocity S-wave (km/s) = 2.99930 3.55362 3.28816
# Velocity P-wave (km/s) = 4.69313 6.05404 5.41650
#
# Compressibility (1/GPa) = 0.04516381
#
# Stress axis : x y z
#
# Youngs Moduli (GPa) = 17.99791 67.13962 108.79986
#
# Poissons Ratio (x) = 0.84658 0.11652
# Poissons Ratio (y) = 0.22694 0.38750
# Poissons Ratio (z) = 0.01928 0.23913
#
# Static dielectric constant tensor:
#      x y z
#    x 1.830900 0.000000 -0.002050 
#    y 0.000000 1.817540 0.000000 
#    z -0.002050 0.000000 1.862080 
# 
# From -- ./inp_files/86576.got.cif
#   From: 2010.05.17/outbox.cif.g08.bks.cpg/sg13_44_cif.got.tgz:86576.got - 2010.06.03 16:44:36.
