data_PCOD9231023
_publ_section_title
;
Structure prediction by ZEFSAII (Michael W. Deem and Ramdas Pophale) SiO2 
 PCOD9231023
Probable space group: P 2/C
;
_chemical_formula_sum "Si O2"
_cell_formula_units_Z 28
_cell_length_a 17.446047
_cell_length_b 6.078639
_cell_length_c 12.176757
_cell_angle_alpha 90.000000
_cell_angle_beta 104.196846
_cell_angle_gamma 90.000000
_cell_volume 1251.884926
_symmetry_space_group_name_H-M "P 2/C"
_symmetry_group_IT_number 13
_symmetry_cell_setting 'monoclinic'
loop_
_space_group_symop_operation_xyz
x,y,z
-x,y,1/2-z
-x,-y,-z
x,-y,1/2+z
loop_
_atom_site_type_symbol
_atom_site_label
_atom_site_fract_x
_atom_site_fract_y
_atom_site_fract_z
Si Si1 0.427375 0.535481 0.056853
Si Si2 0.069639 0.587580 0.600879
Si Si3 0.290587 0.445803 0.840541
Si Si4 0.223041 0.827507 0.661626
Si Si5 0.368138 0.894388 0.196193
Si Si6 0.139620 0.203989 0.776672
Si Si7 0.500000 0.800836 0.750000
Si Si8 0.000000 0.927079 0.750000
O O1 0.413569 0.764967 0.115482
O O2 0.447861 0.353966 0.154868
O O3 0.500000 0.500000 0.000000
O O4 0.348943 0.497374 0.959331
O O5 0.151087 0.691564 0.580750
O O6 0.097665 0.385352 0.686219
O O7 0.031998 0.773401 0.665250
O O8 0.000000 0.500000 0.500000
O O9 0.263251 0.658835 0.762081
O O10 0.333212 0.284209 0.768238
O O11 0.212127 0.327435 0.858224
O O12 0.295339 0.954189 0.627937
O O13 0.179881 0.020019 0.714361
O O14 0.433340 0.044060 0.280131
O O15 0.071223 0.079958 0.818265
#
# Coordination Sequence:
#
# PCOD9231023 Si02
#       8
#     4   4   4   4   4   4   2   2
#     4  12  25  42  66  95 127 166 213 263 317 380
#     4  10  21  40  64  93 131 171 214 267 323 386
#     4  10  22  44  66  91 128 167 211 264 320 382
#     4   9  20  41  64  89 126 166 211 265 319 381
#     4  11  23  42  65  92 128 167 211 264 320 383
#     4   9  20  40  62  89 126 166 211 265 317 376
#     4  12  26  44  64  92 126 162 208 262 320 382
#     4  10  20  38  62  92 128 168 216 266 318 380
#
# _framework density 22.366273
#
# number of rings (size 3 to 8) (size 9 to 14) (size 15 to 20)
#    0.000    1.714    0.000    4.286    0.000    6.857 
#    0.000   34.286    0.000    0.000    0.000    0.000 
#    0.000    0.000    0.000    0.000    0.000    0.000 
#
# Total GULP energy -156406.340763 kJ/mol
# GULP energy per Si atom -5585.940742 kJ/mol
# Density = 2.231537 g / cm^3
# Si number density = 22.366273 Si / 1000 Ang^3
#
#
#
# Elastic Constant Matrix: (Units=GPa)
#
#
# Indices 1 2 3 4 5 6 
#
# 1 141.1360 75.5896 49.2612 0.0000 26.1367 0.0000
# 2 75.5896 130.7008 41.4712 0.0000 17.2460 0.0000
# 3 49.2612 41.4712 103.5901 0.0000 38.4904 0.0000
# 4 0.0000 0.0000 0.0000 12.6705 0.0000 23.4102
# 5 26.1367 17.2460 38.4904 0.0000 44.2310 0.0000
# 6 0.0000 0.0000 0.0000 23.4102 0.0000 60.8844
#
#
#
# Elastic Compliance Matrix: (Units=1/GPa)
#
#
# Indices 1 2 3 4 5 6 
#
# 1 0.011268 -0.005475 -0.002196 0.000000 -0.002613 0.000000
# 2 -0.005475 0.011434 -0.002245 0.000000 0.000731 0.000000
# 3 -0.002196 -0.002245 0.015945 0.000000 -0.011702 0.000000
# 4 0.000000 0.000000 0.000000 0.272537 0.000000 -0.104791
# 5 -0.002613 0.000731 -0.011702 0.000000 0.034051 0.000000
# 6 0.000000 0.000000 0.000000 -0.104791 0.000000 0.056717
#
#
# Mechanical properties :
#
#
# Convention : Reuss Voigt Hill
#
# Bulk Modulus (GPa) = 53.15225 78.67454 65.91339
# Shear Modulus (GPa) = 11.68075 37.49751 24.58913
#
# Velocity S-wave (km/s) = 2.28775 4.09898 3.31929
# Velocity P-wave (km/s) = 5.54928 7.59302 6.65013
#
# Compressibility (1/GPa) = 0.01881388
#
# Stress axis : x y z
#
# Youngs Moduli (GPa) = 88.74639 87.46131 62.71745
#
# Poissons Ratio (x) = 0.47888 0.13770
# Poissons Ratio (y) = 0.48592 0.14082
# Poissons Ratio (z) = 0.19484 0.19638
#
# Static dielectric constant tensor:
#      x y z
#    x 1.882660 0.000000 0.011830 
#    y 0.000000 1.886690 0.000000 
#    z 0.011830 0.000000 1.824500 
# 
# From -- ./inp_files/54450.got.cif
#   From: 2010.05.17/outbox.cif.g08.bks.cpg/sg13_28_cif.got.tgz:54450.got - 2010.06.03 16:44:36.
