data_PCOD9231632
_publ_section_title
;
Structure prediction by ZEFSAII (Michael W. Deem and Ramdas Pophale) SiO2 
 PCOD9231632
Probable space group: P 2/C
;
_chemical_formula_sum "Si O2"
_cell_formula_units_Z 32
_cell_length_a 10.938720
_cell_length_b 7.728473
_cell_length_c 29.468033
_cell_angle_alpha 90.000000
_cell_angle_beta 149.292509
_cell_angle_gamma 90.000000
_cell_volume 1272.152627
_symmetry_space_group_name_H-M "P 2/C"
_symmetry_group_IT_number 13
_symmetry_cell_setting 'monoclinic'
loop_
_space_group_symop_operation_xyz
x,y,z
-x,y,1/2-z
-x,-y,-z
x,-y,1/2+z
loop_
_atom_site_type_symbol
_atom_site_label
_atom_site_fract_x
_atom_site_fract_y
_atom_site_fract_z
Si Si1 0.763888 0.438611 0.275621
Si Si2 0.038160 0.081855 0.852218
Si Si3 0.503132 0.474314 0.554703
Si Si4 0.036602 0.711313 0.004943
Si Si5 0.156899 0.764694 0.842395
Si Si6 0.739736 0.874869 0.827813
Si Si7 0.936633 0.655004 0.069770
Si Si8 0.414245 0.738747 0.340898
O O1 0.655258 0.272680 0.264582
O O2 0.621136 0.552056 0.194568
O O3 0.999015 0.362277 0.324566
O O4 0.820031 0.570238 0.334704
O O5 0.806296 0.143910 0.748136
O O6 0.152835 0.244270 0.913918
O O7 0.935866 0.978093 0.862522
O O8 0.210884 0.944137 0.883936
O O9 0.500000 0.500000 0.500000
O O10 0.635826 0.648918 0.611758
O O11 0.238302 0.490816 0.490329
O O12 0.614396 0.306656 0.614513
O O13 0.308776 0.779865 0.082577
O O14 0.961099 0.763447 0.032162
O O15 0.000000 0.500000 0.000000
O O16 0.861250 0.792148 0.911010
O O17 0.000000 0.817469 0.750000
O O18 0.500000 0.991106 0.750000
#
# Coordination Sequence:
#
# PCOD9231632 Si02
#       8
#     4   4   4   4   4   4   4   4
#     4  10  20  40  66  96 134 176 240 285 341 413
#     4  10  28  46  65 102 149 184 231 287 369 437
#     4  12  24  41  75 104 134 182 241 296 354 413
#     4  12  23  42  74 108 138 179 244 298 350 420
#     4  11  23  45  66  96 137 185 232 293 353 420
#     4  11  24  42  64  98 143 186 226 288 355 420
#     4  11  24  43  68 107 137 180 236 295 352 421
#     4  11  24  44  72 103 136 188 237 293 353 429
#
# _framework density 25.154216999999999
#
# number of rings (size 3 to 8) (size 9 to 14) (size 15 to 20)
#    0.000    1.000    5.000    0.750    3.500    3.000 
#    2.250    0.000    0.000    0.000    0.000    0.000 
#    0.000    0.000    0.000    0.000    0.000    0.000 
#
# Total GULP energy -178522.183284 kJ/mol
# GULP energy per Si atom -5578.818228 kJ/mol
# Density = 2.509696 g / cm^3
# Si number density = 25.154217 Si / 1000 Ang^3
#
#
#
# Elastic Constant Matrix: (Units=GPa)
#
#
# Indices 1 2 3 4 5 6 
#
# 1 79.8907 13.0582 35.1016 0.0000 -23.8252 0.0000
# 2 13.0582 63.5953 24.9377 0.0000 -15.1087 0.0000
# 3 35.1016 24.9377 103.9200 0.0000 -17.4358 0.0000
# 4 0.0000 0.0000 0.0000 28.0856 0.0000 -15.6505
# 5 -23.8252 -15.1087 -17.4358 0.0000 41.6432 0.0000
# 6 0.0000 0.0000 0.0000 -15.6505 0.0000 27.6808
#
#
#
# Elastic Compliance Matrix: (Units=1/GPa)
#
#
# Indices 1 2 3 4 5 6 
#
# 1 0.016744 0.000131 -0.004380 0.000000 0.007794 0.000000
# 2 0.000131 0.018340 -0.003567 0.000000 0.005235 0.000000
# 3 -0.004380 -0.003567 0.012176 0.000000 0.001298 0.000000
# 4 0.000000 0.000000 0.000000 0.051984 0.000000 0.029391
# 5 0.007794 0.005235 0.001298 0.000000 0.030915 0.000000
# 6 0.000000 0.000000 0.000000 0.029391 0.000000 0.052744
#
#
# Mechanical properties :
#
#
# Convention : Reuss Voigt Hill
#
# Bulk Modulus (GPa) = 31.61666 43.73344 37.67505
# Shear Modulus (GPa) = 23.91464 31.10248 27.50856
#
# Velocity S-wave (km/s) = 3.08672 3.52016 3.31054
# Velocity P-wave (km/s) = 5.02993 5.82632 5.44271
#
# Compressibility (1/GPa) = 0.03162889
#
# Stress axis : x y z
#
# Youngs Moduli (GPa) = 59.72227 54.52542 82.12982
#
# Poissons Ratio (x) = -0.00713 0.35969
# Poissons Ratio (y) = -0.00781 0.29294
# Poissons Ratio (z) = 0.26156 0.19448
#
# Static dielectric constant tensor:
#      x y z
#    x 2.143590 0.000000 0.045570 
#    y 0.000000 2.042330 0.000000 
#    z 0.045570 0.000000 2.117400 
# 
# From -- ./inp_files/96657.got.cif
#   From: 2010.05.17/outbox.cif.g08.bks.cpg/sg13_49_cif.got.tgz:96657.got - 2010.06.03 16:44:36.
