data_PCOD9231603
_publ_section_title
;
Structure prediction by ZEFSAII (Michael W. Deem and Ramdas Pophale) SiO2 
 PCOD9231603
Probable space group: P 2/C
;
_chemical_formula_sum "Si O2"
_cell_formula_units_Z 20
_cell_length_a 9.485255
_cell_length_b 11.590921
_cell_length_c 8.180613
_cell_angle_alpha 90.000000
_cell_angle_beta 87.528030
_cell_angle_gamma 90.000000
_cell_volume 898.562893
_symmetry_space_group_name_H-M "P 2/C"
_symmetry_group_IT_number 13
_symmetry_cell_setting 'monoclinic'
loop_
_space_group_symop_operation_xyz
x,y,z
-x,y,1/2-z
-x,-y,-z
x,-y,1/2+z
loop_
_atom_site_type_symbol
_atom_site_label
_atom_site_fract_x
_atom_site_fract_y
_atom_site_fract_z
Si Si1 0.909922 0.144544 0.099049
Si Si2 0.500000 0.734138 0.250000
Si Si3 0.121701 0.415636 0.420545
Si Si4 0.574552 0.115377 0.068486
Si Si5 0.239003 0.385298 0.728195
Si Si6 0.000000 0.808341 0.250000
O O1 0.922043 0.285141 0.107828
O O2 0.743920 0.108729 0.098702
O O3 0.000000 0.103390 0.250000
O O4 0.977912 0.121639 0.917505
O O5 0.553115 0.803795 0.407417
O O6 0.624390 0.651638 0.184763
O O7 0.253304 0.396251 0.534513
O O8 0.177814 0.491022 0.272640
O O9 0.000000 0.500000 0.500000
O O10 0.500000 0.143379 0.250000
O O11 0.500000 0.000000 0.000000
O O12 0.129678 0.280894 0.763374
#
# Coordination Sequence:
#
# PCOD9231603 Si02
#       6
#     4   2   4   4   4   2
#     4  11  24  43  74 111 139 186 247 290 357 431
#     4  12  26  50  68 102 148 188 244 292 368 440
#     4  11  19  36  63 103 141 193 229 283 348 416
#     4  12  28  51  80 100 138 195 240 308 379 426
#     4  11  22  37  65  99 148 195 232 286 348 426
#     4  10  20  40  66 104 146 190 226 298 344 410
#
# _framework density 22.257764999999999
#
# number of rings (size 3 to 8) (size 9 to 14) (size 15 to 20)
#    0.000    0.800    9.000    1.200    2.800    0.800 
#    1.800    1.000    2.200    0.000    0.000    0.000 
#    0.000    0.000    0.000    0.000    0.000    0.000 
#
# Total GULP energy -111348.502781 kJ/mol
# GULP energy per Si atom -5567.425139 kJ/mol
# Density = 2.220711 g / cm^3
# Si number density = 22.257765 Si / 1000 Ang^3
#
#
#
# Elastic Constant Matrix: (Units=GPa)
#
#
# Indices 1 2 3 4 5 6 
#
# 1 121.9872 19.5046 66.9270 0.0000 28.9006 0.0000
# 2 19.5046 103.4930 44.6197 0.0000 11.7609 0.0000
# 3 66.9270 44.6197 178.1275 0.0000 7.4352 0.0000
# 4 0.0000 0.0000 0.0000 34.1698 0.0000 -1.2260
# 5 28.9006 11.7609 7.4352 0.0000 37.8306 0.0000
# 6 0.0000 0.0000 0.0000 -1.2260 0.0000 20.8203
#
#
#
# Elastic Compliance Matrix: (Units=1/GPa)
#
#
# Indices 1 2 3 4 5 6 
#
# 1 0.012741 0.000589 -0.004558 0.000000 -0.009021 0.000000
# 2 0.000589 0.011175 -0.002880 0.000000 -0.003358 0.000000
# 3 -0.004558 -0.002880 0.007930 0.000000 0.002819 0.000000
# 4 0.000000 0.000000 0.000000 0.029328 0.000000 0.001727
# 5 -0.009021 -0.003358 0.002819 0.000000 0.033815 0.000000
# 6 0.000000 0.000000 0.000000 0.001727 0.000000 0.048132
#
#
# Mechanical properties :
#
#
# Convention : Reuss Voigt Hill
#
# Bulk Modulus (GPa) = 55.10353 73.96781 64.53567
# Shear Modulus (GPa) = 30.69936 36.73456 33.71696
#
# Velocity S-wave (km/s) = 3.71788 4.06694 3.89632
# Velocity P-wave (km/s) = 6.57578 7.44028 7.02135
#
# Compressibility (1/GPa) = 0.01814766
#
# Stress axis : x y z
#
# Youngs Moduli (GPa) = 78.48375 89.48608 126.09568
#
# Poissons Ratio (x) = -0.05272 0.57478
# Poissons Ratio (y) = -0.04624 0.36321
# Poissons Ratio (z) = 0.35775 0.25776
#
# Static dielectric constant tensor:
#      x y z
#    x 1.861950 0.000000 -0.012120 
#    y 0.000000 1.863900 0.000000 
#    z -0.012120 0.000000 1.891940 
# 
# From -- ./inp_files/11808.got.cif
#   From: 2010.05.17/outbox.cif.g08.bks.cpg/sg13_6_cif.got.tgz:11808.got - 2010.06.03 16:44:36.
