data_PCOD9231486
_publ_section_title
;
Structure prediction by ZEFSAII (Michael W. Deem and Ramdas Pophale) SiO2 
 PCOD9231486
Probable space group: P 2/C
;
_chemical_formula_sum "Si O2"
_cell_formula_units_Z 26
_cell_length_a 16.484903
_cell_length_b 11.559595
_cell_length_c 9.341213
_cell_angle_alpha 90.000000
_cell_angle_beta 53.601180
_cell_angle_gamma 90.000000
_cell_volume 1432.773249
_symmetry_space_group_name_H-M "P 2/C"
_symmetry_group_IT_number 13
_symmetry_cell_setting 'monoclinic'
loop_
_space_group_symop_operation_xyz
x,y,z
-x,y,1/2-z
-x,-y,-z
x,-y,1/2+z
loop_
_atom_site_type_symbol
_atom_site_label
_atom_site_fract_x
_atom_site_fract_y
_atom_site_fract_z
Si Si1 0.216625 0.205698 0.335305
Si Si2 0.108034 0.640623 0.156317
Si Si3 0.077148 0.002952 0.551009
Si Si4 0.179713 0.556158 0.385080
Si Si5 0.500000 0.496218 0.250000
Si Si6 0.114842 0.249984 0.142045
Si Si7 0.629121 0.609205 0.867912
O O1 0.190444 0.272467 0.508981
O O2 0.176869 0.076397 0.407801
O O3 0.146869 0.243547 0.273706
O O4 0.324920 0.260795 0.181236
O O5 0.130286 0.600230 0.291704
O O6 0.000000 0.695880 0.250000
O O7 0.111433 0.531996 0.045924
O O8 0.000000 0.052422 0.750000
O O9 0.110237 0.876739 0.574088
O O10 0.000000 0.000000 0.500000
O O11 0.190177 0.666171 0.478077
O O12 0.278971 0.483197 0.242178
O O13 0.430018 0.575430 0.425685
O O14 0.438209 0.417567 0.201783
O O15 0.000000 0.294934 0.250000
#
# Coordination Sequence:
#
# PCOD9231486 Si02
#       7
#     4   4   4   4   2   4   4
#     4  11  21  36  54  82 111 148 197 232 269 336
#     4  11  21  31  49  73 115 156 185 226 269 319
#     4  11  22  38  55  80 119 163 199 228 262 311
#     4  11  21  34  51  82 111 146 193 228 275 338
#     4  10  20  40  60  84 110 138 174 240 314 360
#     4  11  21  34  53  77 118 160 195 226 261 315
#     4  10  21  37  60  84 111 138 180 235 296 357
#
# _framework density 18.146626000000001
#
# number of rings (size 3 to 8) (size 9 to 14) (size 15 to 20)
#    0.000    1.231    3.077    6.923    2.154    0.000 
#    0.000    0.000    0.000    0.000    0.000   18.308 
#    0.000    0.000    0.000    0.000    0.000    0.000 
#
# Total GULP energy -144912.931188 kJ/mol
# GULP energy per Si atom -5573.574276 kJ/mol
# Density = 1.810532 g / cm^3
# Si number density = 18.146626 Si / 1000 Ang^3
#
#
#
# Elastic Constant Matrix: (Units=GPa)
#
#
# Indices 1 2 3 4 5 6 
#
# 1 46.8949 5.1125 12.1606 0.0000 2.9785 0.0000
# 2 5.1125 90.4457 26.9646 0.0000 -10.7890 0.0000
# 3 12.1606 26.9646 98.1871 0.0000 1.4976 0.0000
# 4 0.0000 0.0000 0.0000 19.2812 0.0000 -8.6860
# 5 2.9785 -10.7890 1.4976 0.0000 34.8958 0.0000
# 6 0.0000 0.0000 0.0000 -8.6860 0.0000 20.6023
#
#
#
# Elastic Compliance Matrix: (Units=1/GPa)
#
#
# Indices 1 2 3 4 5 6 
#
# 1 0.022185 -0.000746 -0.002512 0.000000 -0.002016 0.000000
# 2 -0.000746 0.012613 -0.003434 0.000000 0.004111 0.000000
# 3 -0.002512 -0.003434 0.011459 0.000000 -0.001339 0.000000
# 4 0.000000 0.000000 0.000000 0.064024 0.000000 0.026993
# 5 -0.002016 0.004111 -0.001339 0.000000 0.030157 0.000000
# 6 0.000000 0.000000 0.000000 0.026993 0.000000 0.059919
#
#
# Mechanical properties :
#
#
# Convention : Reuss Voigt Hill
#
# Bulk Modulus (GPa) = 30.41979 36.00033 33.21006
# Shear Modulus (GPa) = 22.25205 27.70853 24.98029
#
# Velocity S-wave (km/s) = 3.50556 3.91183 3.71425
# Velocity P-wave (km/s) = 5.76065 6.34703 6.06094
#
# Compressibility (1/GPa) = 0.03287333
#
# Stress axis : x y z
#
# Youngs Moduli (GPa) = 45.07537 79.28549 87.26548
#
# Poissons Ratio (x) = 0.05911 0.21922
# Poissons Ratio (y) = 0.03361 0.29968
# Poissons Ratio (z) = 0.11324 0.27227
#
# Static dielectric constant tensor:
#      x y z
#    x 1.618340 0.000000 -0.025980 
#    y 0.000000 1.661110 0.000000 
#    z -0.025980 0.000000 1.690980 
# 
# From -- ./inp_files/18561.got.cif
#   From: 2010.05.17/outbox.cif.g08.bks.cpg/sg13_10_cif.got.tgz:18561.got - 2010.06.03 16:44:36.
