data_PCOD9231315
_publ_section_title
;
Structure prediction by ZEFSAII (Michael W. Deem and Ramdas Pophale) SiO2 
 PCOD9231315
Probable space group: P 2/C
;
_chemical_formula_sum "Si O2"
_cell_formula_units_Z 20
_cell_length_a 8.024387
_cell_length_b 5.416981
_cell_length_c 20.870331
_cell_angle_alpha 90.000000
_cell_angle_beta 62.210678
_cell_angle_gamma 90.000000
_cell_volume 802.562334
_symmetry_space_group_name_H-M "P 2/C"
_symmetry_group_IT_number 13
_symmetry_cell_setting 'monoclinic'
loop_
_space_group_symop_operation_xyz
x,y,z
-x,y,1/2-z
-x,-y,-z
x,-y,1/2+z
loop_
_atom_site_type_symbol
_atom_site_label
_atom_site_fract_x
_atom_site_fract_y
_atom_site_fract_z
Si Si1 0.289082 0.442014 0.662316
Si Si2 0.456006 0.205781 0.452287
Si Si3 0.091185 0.583824 0.326477
Si Si4 0.136426 0.605115 0.529578
Si Si5 0.327549 0.868088 0.388528
O O1 0.349545 0.661112 0.603479
O O2 0.214495 0.515184 0.745919
O O3 0.475616 0.279250 0.639456
O O4 0.105487 0.303927 0.665734
O O5 0.303647 0.401499 0.505219
O O6 0.500000 0.000000 0.500000
O O7 0.386503 0.145771 0.391212
O O8 0.209867 0.769556 0.350139
O O9 0.005968 0.368693 0.386225
O O10 0.219451 0.834803 0.476252
O O11 0.000000 0.500000 0.500000
#
# Coordination Sequence:
#
# PCOD9231315 Si02
#       5
#     4   4   4   4   4
#     4  10  22  41  61  90 131 170 209 266 327 383
#     4  11  22  39  67  97 126 166 219 271 321 383
#     4  10  20  39  63  86 124 169 208 256 322 384
#     4   9  20  38  62  90 122 162 209 260 315 380
#     4  10  21  40  63  92 125 167 215 265 321 386
#
# _framework density 24.920183000000002
#
# number of rings (size 3 to 8) (size 9 to 14) (size 15 to 20)
#    0.000    2.000    0.000    3.000    0.000    6.400 
#    0.000   32.000    0.000    0.000    0.000    0.000 
#    0.000    0.000    0.000    0.000    0.000    0.000 
#
# Total GULP energy -111344.819657 kJ/mol
# GULP energy per Si atom -5567.240983 kJ/mol
# Density = 2.486346 g / cm^3
# Si number density = 24.920183 Si / 1000 Ang^3
#
#
#
# Elastic Constant Matrix: (Units=GPa)
#
#
# Indices 1 2 3 4 5 6 
#
# 1 178.5009 25.9558 39.4311 0.0000 13.2383 0.0000
# 2 25.9558 28.1041 26.3437 0.0000 3.1993 0.0000
# 3 39.4311 26.3437 208.8952 0.0000 -8.7278 0.0000
# 4 0.0000 0.0000 0.0000 8.3401 0.0000 19.5258
# 5 13.2383 3.1993 -8.7278 0.0000 33.4927 0.0000
# 6 0.0000 0.0000 0.0000 19.5258 0.0000 35.8504
#
#
#
# Elastic Compliance Matrix: (Units=1/GPa)
#
#
# Indices 1 2 3 4 5 6 
#
# 1 0.006694 -0.005265 -0.000697 0.000000 -0.002325 0.000000
# 2 -0.005265 0.045422 -0.004882 0.000000 -0.003530 0.000000
# 3 -0.000697 -0.004882 0.005627 0.000000 0.002208 0.000000
# 4 0.000000 0.000000 0.000000 -0.435802 0.000000 0.237359
# 5 -0.002325 -0.003530 0.002208 0.000000 0.031689 0.000000
# 6 0.000000 0.000000 0.000000 0.237359 0.000000 -0.101383
#
#
# Mechanical properties :
#
#
# Convention : Reuss Voigt Hill
#
# Bulk Modulus (GPa) = 27.73454 66.55129 47.14292
# Shear Modulus (GPa) = -12.07588 37.12127 12.52270
#
# Velocity S-wave (km/s) = -2.20371 3.86373 2.24411
# Velocity P-wave (km/s) = 2.16296 6.83142 5.06689
#
# Compressibility (1/GPa) = 0.03605612
#
# Stress axis : x y z
#
# Youngs Moduli (GPa) = 149.38621 22.01569 177.72976
#
# Poissons Ratio (x) = 0.11590 0.12384
# Poissons Ratio (y) = 0.78646 0.86766
# Poissons Ratio (z) = 0.10409 0.10748
#
# Static dielectric constant tensor:
#      x y z
#    x 2.481580 0.000000 -0.181300 
#    y 0.000000 2.913170 0.000000 
#    z -0.181300 0.000000 2.141380 
# 
# From -- ./inp_files/74413.got.cif
#   From: 2010.05.17/outbox.cif.g08.bks.cpg/sg13_38_cif.got.tgz:74413.got - 2010.06.03 16:44:36.
