data_PCOD9231338
_publ_section_title
;
Structure prediction by ZEFSAII (Michael W. Deem and Ramdas Pophale) SiO2 
 PCOD9231338
Probable space group: P 2/C
;
_chemical_formula_sum "Si O2"
_cell_formula_units_Z 24
_cell_length_a 12.928865
_cell_length_b 8.839756
_cell_length_c 9.574274
_cell_angle_alpha 90.000000
_cell_angle_beta 55.637973
_cell_angle_gamma 90.000000
_cell_volume 903.269121
_symmetry_space_group_name_H-M "P 2/C"
_symmetry_group_IT_number 13
_symmetry_cell_setting 'monoclinic'
loop_
_space_group_symop_operation_xyz
x,y,z
-x,y,1/2-z
-x,-y,-z
x,-y,1/2+z
loop_
_atom_site_type_symbol
_atom_site_label
_atom_site_fract_x
_atom_site_fract_y
_atom_site_fract_z
Si Si1 0.000000 0.275062 0.750000
Si Si2 0.500000 0.761916 0.750000
Si Si3 0.646830 0.322859 0.673802
Si Si4 0.361089 0.533014 0.044358
Si Si5 0.335155 0.012376 0.218774
Si Si6 0.000000 0.500000 0.500000
Si Si7 0.184224 0.021567 0.579634
Si Si8 0.000000 0.255990 0.250000
O O1 0.962185 0.381212 0.904309
O O2 0.109831 0.158303 0.706946
O O3 0.392179 0.660276 0.904560
O O4 0.560510 0.865940 0.822825
O O5 0.500000 0.355678 0.750000
O O6 0.701986 0.394170 0.489216
O O7 0.643591 0.151120 0.727428
O O8 0.705993 0.410777 0.763061
O O9 0.500000 0.500000 0.000000
O O10 0.212903 0.064506 0.398479
O O11 0.308859 0.998624 0.076574
O O12 0.010510 0.361199 0.376191
O O13 0.112624 0.864077 0.640092
#
# Coordination Sequence:
#
# PCOD9231338 Si02
#       8
#     2   2   4   4   4   2   4   2
#     4  10  22  46  74 100 136 166 214 274 334 398
#     4  12  24  40  66  90 132 176 224 282 314 378
#     4  10  21  40  61  86 120 171 216 272 320 374
#     4  10  20  39  64  80 117 175 216 264 339 361
#     4  12  26  40  66  98 131 173 231 266 322 387
#     4  10  20  40  82 102 130 170 208 266 350 386
#     4  11  25  45  68  99 134 178 216 266 338 403
#     4  10  22  46  74  98 138 168 210 278 332 396
#
# _framework density 26.570153000000001
#
# number of rings (size 3 to 8) (size 9 to 14) (size 15 to 20)
#    0.000    1.333    3.333    3.000    4.667    4.000 
#    0.000   16.667    0.000    0.000    0.000    0.000 
#    0.000    0.000    0.000    0.000    0.000    0.000 
#
# Total GULP energy -133889.850934 kJ/mol
# GULP energy per Si atom -5578.743789 kJ/mol
# Density = 2.650968 g / cm^3
# Si number density = 26.570153 Si / 1000 Ang^3
#
#
#
# Elastic Constant Matrix: (Units=GPa)
#
#
# Indices 1 2 3 4 5 6 
#
# 1 42.6763 22.2154 26.9222 0.0000 4.6591 0.0000
# 2 22.2154 141.4113 35.5821 0.0000 5.6049 0.0000
# 3 26.9222 35.5821 107.6776 0.0000 35.9117 0.0000
# 4 0.0000 0.0000 0.0000 35.6851 0.0000 9.9497
# 5 4.6591 5.6049 35.9117 0.0000 39.1418 0.0000
# 6 0.0000 0.0000 0.0000 9.9497 0.0000 33.2955
#
#
#
# Elastic Compliance Matrix: (Units=1/GPa)
#
#
# Indices 1 2 3 4 5 6 
#
# 1 0.029348 -0.002821 -0.007745 0.000000 0.004017 0.000000
# 2 -0.002821 0.008071 -0.002433 0.000000 0.001412 0.000000
# 3 -0.007745 -0.002433 0.016720 0.000000 -0.014070 0.000000
# 4 0.000000 0.000000 0.000000 0.030570 0.000000 -0.009135
# 5 0.004017 0.001412 -0.014070 0.000000 0.037777 0.000000
# 6 0.000000 0.000000 0.000000 -0.009135 0.000000 0.032764
#
#
# Mechanical properties :
#
#
# Convention : Reuss Voigt Hill
#
# Bulk Modulus (GPa) = 35.53494 51.24496 43.38995
# Shear Modulus (GPa) = 26.22918 35.42750 30.82834
#
# Velocity S-wave (km/s) = 3.14533 3.65548 3.40996
# Velocity P-wave (km/s) = 5.15692 6.09469 5.64531
#
# Compressibility (1/GPa) = 0.02814132
#
# Stress axis : x y z
#
# Youngs Moduli (GPa) = 34.07366 123.90256 59.80930
#
# Poissons Ratio (x) = 0.34951 0.46324
# Poissons Ratio (y) = 0.09612 0.14549
# Poissons Ratio (z) = 0.26391 0.30141
#
# Static dielectric constant tensor:
#      x y z
#    x 2.143730 0.000000 -0.200650 
#    y 0.000000 2.063540 0.000000 
#    z -0.200650 0.000000 2.204790 
# 
# From -- ./inp_files/18106.got.cif
#   From: 2010.05.17/outbox.cif.g08.bks.cpg/sg13_10_cif.got.tgz:18106.got - 2010.06.03 16:44:36.
