data_PCOD9231998
_publ_section_title
;
Structure prediction by ZEFSAII (Michael W. Deem and Ramdas Pophale) SiO2 
 PCOD9231998
Probable space group: P 2/C
;
_chemical_formula_sum "Si O2"
_cell_formula_units_Z 16
_cell_length_a 9.212276
_cell_length_b 10.957395
_cell_length_c 9.580932
_cell_angle_alpha 90.000000
_cell_angle_beta 127.277473
_cell_angle_gamma 90.000000
_cell_volume 769.551603
_symmetry_space_group_name_H-M "P 2/C"
_symmetry_group_IT_number 13
_symmetry_cell_setting 'monoclinic'
loop_
_space_group_symop_operation_xyz
x,y,z
-x,y,1/2-z
-x,-y,-z
x,-y,1/2+z
loop_
_atom_site_type_symbol
_atom_site_label
_atom_site_fract_x
_atom_site_fract_y
_atom_site_fract_z
Si Si1 0.500000 0.297725 0.250000
Si Si2 0.792699 0.512231 0.824957
Si Si3 0.461652 0.859257 0.449355
Si Si4 0.749707 0.246285 0.892667
Si Si5 0.000000 0.653934 0.750000
O O1 0.328082 0.386615 0.171241
O O2 0.532619 0.214983 0.404277
O O3 0.708195 0.379247 0.799656
O O4 0.830102 0.566361 0.691815
O O5 0.000000 0.500000 0.000000
O O6 0.275013 0.843484 0.252129
O O7 0.613403 0.800542 0.434081
O O8 0.500000 0.000000 0.500000
O O9 0.940405 0.263977 0.084555
#
# Coordination Sequence:
#
# PCOD9231998 Si02
#       5
#     2   4   4   4   2
#     4  12  22  40  72  96 134 184 218 274 352 392
#     4  10  23  38  69 103 138 162 218 276 350 405
#     4  11  24  42  65  96 130 179 238 274 314 396
#     4  10  22  41  68  94 134 171 215 276 339 392
#     4  10  20  44  64 106 142 162 204 288 348 414
#
# _framework density 20.791329000000001
#
# number of rings (size 3 to 8) (size 9 to 14) (size 15 to 20)
#    0.000    1.500    2.500    3.000    7.000    2.000 
#    0.000    1.250    5.500    0.000    0.000    0.000 
#    0.000    0.000    0.000    0.000    0.000    0.000 
#
# Total GULP energy -89203.953776 kJ/mol
# GULP energy per Si atom -5575.247111 kJ/mol
# Density = 2.074401 g / cm^3
# Si number density = 20.791329 Si / 1000 Ang^3
#
#
#
# Elastic Constant Matrix: (Units=GPa)
#
#
# Indices 1 2 3 4 5 6 
#
# 1 97.2551 58.1670 23.3836 0.0000 -12.9190 0.0000
# 2 58.1670 169.4992 66.8620 0.0000 -11.6616 0.0000
# 3 23.3836 66.8620 147.9608 0.0000 -16.2605 0.0000
# 4 0.0000 0.0000 0.0000 29.2953 0.0000 0.2623
# 5 -12.9190 -11.6616 -16.2605 0.0000 30.0942 0.0000
# 6 0.0000 0.0000 0.0000 0.2623 0.0000 18.1357
#
#
#
# Elastic Compliance Matrix: (Units=1/GPa)
#
#
# Indices 1 2 3 4 5 6 
#
# 1 0.013423 -0.004456 0.000357 0.000000 0.004229 0.000000
# 2 -0.004456 0.008693 -0.003257 0.000000 -0.000305 0.000000
# 3 0.000357 -0.003257 0.008561 0.000000 0.003516 0.000000
# 4 0.000000 0.000000 0.000000 0.034140 0.000000 -0.000494
# 5 0.004229 -0.000305 0.003516 0.000000 0.036826 0.000000
# 6 0.000000 0.000000 0.000000 -0.000494 0.000000 0.055147
#
#
# Mechanical properties :
#
#
# Convention : Reuss Voigt Hill
#
# Bulk Modulus (GPa) = 62.64326 79.06005 70.85166
# Shear Modulus (GPa) = 28.27658 33.25853 30.76755
#
# Velocity S-wave (km/s) = 3.69184 4.00388 3.85102
# Velocity P-wave (km/s) = 6.95470 7.71251 7.34339
#
# Compressibility (1/GPa) = 0.01596341
#
# Stress axis : x y z
#
# Youngs Moduli (GPa) = 74.49662 115.03407 116.81431
#
# Poissons Ratio (x) = 0.51264 -0.04172
# Poissons Ratio (y) = 0.33199 0.38052
# Poissons Ratio (z) = -0.02660 0.37472
#
# Static dielectric constant tensor:
#      x y z
#    x 1.815180 0.000000 0.000720 
#    y 0.000000 1.737960 0.000000 
#    z 0.000720 0.000000 1.856300 
# 
# From -- ./inp_files/11411.got.cif
#   From: 2010.05.17/outbox.cif.g08.bks.cpg/sg13_6_cif.got.tgz:11411.got - 2010.06.03 16:44:36.
