data_PCOD9231814
_publ_section_title
;
Structure prediction by ZEFSAII (Michael W. Deem and Ramdas Pophale) SiO2 
 PCOD9231814
Probable space group: P 2/C
;
_chemical_formula_sum "Si O2"
_cell_formula_units_Z 30
_cell_length_a 13.776513
_cell_length_b 13.937541
_cell_length_c 14.850518
_cell_angle_alpha 90.000000
_cell_angle_beta 29.251890
_cell_angle_gamma 90.000000
_cell_volume 1393.365296
_symmetry_space_group_name_H-M "P 2/C"
_symmetry_group_IT_number 13
_symmetry_cell_setting 'monoclinic'
loop_
_space_group_symop_operation_xyz
x,y,z
-x,y,1/2-z
-x,-y,-z
x,-y,1/2+z
loop_
_atom_site_type_symbol
_atom_site_label
_atom_site_fract_x
_atom_site_fract_y
_atom_site_fract_z
Si Si1 0.150342 0.467306 0.455920
Si Si2 0.311203 0.277134 0.601370
Si Si3 0.947466 0.922062 0.688970
Si Si4 0.827914 0.283602 0.317019
Si Si5 0.234772 0.265010 0.327212
Si Si6 0.467142 0.422772 0.607158
Si Si7 0.000000 0.405183 0.750000
Si Si8 0.909137 0.883791 0.111864
O O1 0.196406 0.353512 0.422913
O O2 0.356022 0.521492 0.274834
O O3 0.000000 0.500000 0.500000
O O4 0.048290 0.479967 0.632484
O O5 0.532033 0.259255 0.383948
O O6 0.321802 0.347627 0.677979
O O7 0.224519 0.182711 0.716854
O O8 0.175446 0.334281 0.640852
O O9 0.795600 0.832948 0.829900
O O10 0.000000 0.950995 0.750000
O O11 0.114399 0.884112 0.479514
O O12 0.883823 0.012788 0.679744
O O13 0.872004 0.304978 0.177210
O O14 0.653014 0.356780 0.482879
O O15 0.000000 0.288920 0.250000
O O16 0.128164 0.166947 0.442658
O O17 0.500000 0.500000 0.500000
#
# Coordination Sequence:
#
# PCOD9231814 Si02
#       8
#     4   4   4   4   4   4   2   4
#     4  12  23  44  66  92 141 185 235 297 351 416
#     4  11  23  42  70 101 138 182 240 294 360 432
#     4   9  20  39  71 102 141 184 239 282 357 441
#     4   9  19  39  70 101 134 185 230 290 350 419
#     4  10  21  42  67  97 144 179 229 299 350 420
#     4  11  21  44  70  98 142 184 235 299 353 415
#     4  12  26  40  68 100 132 194 240 292 372 424
#     4  10  20  41  71 103 138 194 218 296 379 406
#
# _framework density 21.530608000000001
#
# number of rings (size 3 to 8) (size 9 to 14) (size 15 to 20)
#    0.000    1.600    5.333    0.000    0.933    0.533 
#    4.800   10.667   19.067   20.800    0.000    0.000 
#    0.000    0.000    0.000    0.000    0.000    0.000 
#
# Total GULP energy -167004.709155 kJ/mol
# GULP energy per Si atom -5566.823638 kJ/mol
# Density = 2.148160 g / cm^3
# Si number density = 21.530608 Si / 1000 Ang^3
#
#
#
# Elastic Constant Matrix: (Units=GPa)
#
#
# Indices 1 2 3 4 5 6 
#
# 1 118.9383 38.5295 57.7974 0.0000 11.2660 0.0000
# 2 38.5295 125.8607 50.7345 0.0000 -5.1805 0.0000
# 3 57.7974 50.7345 117.4096 0.0000 15.8946 0.0000
# 4 0.0000 0.0000 0.0000 39.8028 0.0000 8.7342
# 5 11.2660 -5.1805 15.8946 0.0000 33.1317 0.0000
# 6 0.0000 0.0000 0.0000 8.7342 0.0000 19.3159
#
#
#
# Elastic Compliance Matrix: (Units=1/GPa)
#
#
# Indices 1 2 3 4 5 6 
#
# 1 0.011381 -0.001708 -0.004603 0.000000 -0.001928 0.000000
# 2 -0.001708 0.010332 -0.004193 0.000000 0.004208 0.000000
# 3 -0.004603 -0.004193 0.013339 0.000000 -0.005489 0.000000
# 4 0.000000 0.000000 0.000000 0.027891 0.000000 -0.012612
# 5 -0.001928 0.004208 -0.005489 0.000000 0.034130 0.000000
# 6 0.000000 0.000000 0.000000 -0.012612 0.000000 0.057474
#
#
# Mechanical properties :
#
#
# Convention : Reuss Voigt Hill
#
# Bulk Modulus (GPa) = 71.21647 72.92571 72.07109
# Shear Modulus (GPa) = 27.74155 32.79323 30.26739
#
# Velocity S-wave (km/s) = 3.59342 3.90692 3.75345
# Velocity P-wave (km/s) = 7.09687 7.36860 7.23401
#
# Compressibility (1/GPa) = 0.01404169
#
# Stress axis : x y z
#
# Youngs Moduli (GPa) = 87.86924 96.78990 74.97090
#
# Poissons Ratio (x) = 0.16529 0.34512
# Poissons Ratio (y) = 0.15005 0.31439
# Poissons Ratio (z) = 0.40449 0.40589
#
# Static dielectric constant tensor:
#      x y z
#    x 1.862000 0.000000 0.051950 
#    y 0.000000 1.922300 0.000000 
#    z 0.051950 0.000000 1.925710 
# 
# From -- ./inp_files/53850.got.cif
#   From: 2010.05.17/outbox.cif.g08.bks.cpg/sg13_27_cif.got.tgz:53850.got - 2010.06.03 16:44:36.
