data_PCOD9231557
_publ_section_title
;
Structure prediction by ZEFSAII (Michael W. Deem and Ramdas Pophale) SiO2 
 PCOD9231557
Probable space group: P 2/C
;
_chemical_formula_sum "Si O2"
_cell_formula_units_Z 32
_cell_length_a 11.648351
_cell_length_b 5.594065
_cell_length_c 25.374012
_cell_angle_alpha 90.000000
_cell_angle_beta 114.383564
_cell_angle_gamma 90.000000
_cell_volume 1505.931211
_symmetry_space_group_name_H-M "P 2/C"
_symmetry_group_IT_number 13
_symmetry_cell_setting 'monoclinic'
loop_
_space_group_symop_operation_xyz
x,y,z
-x,y,1/2-z
-x,-y,-z
x,-y,1/2+z
loop_
_atom_site_type_symbol
_atom_site_label
_atom_site_fract_x
_atom_site_fract_y
_atom_site_fract_z
Si Si1 0.616812 0.319722 0.026941
Si Si2 0.686880 0.583398 0.895424
Si Si3 0.431513 0.202237 0.682046
Si Si4 0.935930 0.359571 0.941423
Si Si5 0.163501 0.024916 0.135471
Si Si6 0.459224 0.041062 0.076532
Si Si7 0.043961 0.019474 0.318081
Si Si8 0.877317 0.482516 0.617805
O O1 0.745910 0.460140 0.062947
O O2 0.580557 0.142444 0.068942
O O3 0.500000 0.500000 0.000000
O O4 0.605649 0.157285 0.972525
O O5 0.571574 0.470075 0.841666
O O6 0.789365 0.390693 0.930605
O O7 0.771857 0.737829 0.872264
O O8 0.637973 0.742226 0.933344
O O9 0.500000 0.170471 0.750000
O O10 0.285142 0.143289 0.666113
O O11 0.478460 0.050860 0.640246
O O12 0.932541 0.078035 0.927060
O O13 0.006623 0.463316 0.902283
O O14 0.000000 0.500000 0.000000
O O15 0.084008 0.031795 0.172466
O O16 0.117995 0.777283 0.351610
O O17 0.000000 0.994383 0.250000
O O18 0.105409 0.280072 0.342378
#
# Coordination Sequence:
#
# PCOD9231557 Si02
#       8
#     4   4   4   4   4   4   4   4
#     4  11  26  45  67  96 145 182 232 294 343 435
#     4  10  20  40  63  92 131 163 223 278 346 399
#     4  10  22  41  65  96 132 178 233 284 347 419
#     4  10  22  36  64  97 129 170 212 279 342 409
#     4   9  21  40  60  93 132 166 222 282 342 400
#     4  10  24  42  66  92 135 183 223 282 355 402
#     4  11  24  48  70 101 140 184 236 296 349 420
#     4  11  26  44  71 106 136 184 240 280 365 422
#
# _framework density 21.249310000000001
#
# number of rings (size 3 to 8) (size 9 to 14) (size 15 to 20)
#    0.000    1.750    1.250    1.125   10.500    4.500 
#    2.250    0.000    0.000    0.000    0.000    0.000 
#    0.000    0.000    0.000    0.000    0.000    0.000 
#
# Total GULP energy -178166.005192 kJ/mol
# GULP energy per Si atom -5567.687662 kJ/mol
# Density = 2.120095 g / cm^3
# Si number density = 21.249310 Si / 1000 Ang^3
#
#
#
# Elastic Constant Matrix: (Units=GPa)
#
#
# Indices 1 2 3 4 5 6 
#
# 1 75.9655 23.9727 28.0883 0.0000 -5.7919 0.0000
# 2 23.9727 90.7573 24.8949 0.0000 -8.2550 0.0000
# 3 28.0883 24.8949 107.3073 0.0000 -13.5934 0.0000
# 4 0.0000 0.0000 0.0000 27.6168 0.0000 -5.9245
# 5 -5.7919 -8.2550 -13.5934 0.0000 33.3605 0.0000
# 6 0.0000 0.0000 0.0000 -5.9245 0.0000 32.3594
#
#
#
# Elastic Compliance Matrix: (Units=1/GPa)
#
#
# Indices 1 2 3 4 5 6 
#
# 1 0.015389 -0.003126 -0.003229 0.000000 0.000582 0.000000
# 2 -0.003126 0.012517 -0.001858 0.000000 0.001798 0.000000
# 3 -0.003229 -0.001858 0.011036 0.000000 0.003476 0.000000
# 4 0.000000 0.000000 0.000000 0.037690 0.000000 0.006901
# 5 0.000582 0.001798 0.003476 0.000000 0.031938 0.000000
# 6 0.000000 0.000000 0.000000 0.006901 0.000000 0.032166
#
#
# Mechanical properties :
#
#
# Convention : Reuss Voigt Hill
#
# Bulk Modulus (GPa) = 44.41398 47.54910 45.98154
# Shear Modulus (GPa) = 30.36419 31.80560 31.08490
#
# Velocity S-wave (km/s) = 3.78425 3.87303 3.82889
# Velocity P-wave (km/s) = 6.32778 6.51351 6.42131
#
# Compressibility (1/GPa) = 0.02251543
#
# Stress axis : x y z
#
# Youngs Moduli (GPa) = 64.98257 79.88960 90.61518
#
# Poissons Ratio (x) = 0.24974 0.29260
# Poissons Ratio (y) = 0.20314 0.16836
# Poissons Ratio (z) = 0.20983 0.14843
#
# Static dielectric constant tensor:
#      x y z
#    x 1.735050 0.000000 0.002720 
#    y 0.000000 1.271480 0.000000 
#    z 0.002720 0.000000 1.875770 
# 
# From -- ./inp_files/86003.got.cif
#   From: 2010.05.17/outbox.cif.g08.bks.cpg/sg13_44_cif.got.tgz:86003.got - 2010.06.03 16:44:36.
