data_PCOD9231826
_publ_section_title
;
Structure prediction by ZEFSAII (Michael W. Deem and Ramdas Pophale) SiO2 
 PCOD9231826
Probable space group: P 2/C
;
_chemical_formula_sum "Si O2"
_cell_formula_units_Z 20
_cell_length_a 9.588397
_cell_length_b 4.852444
_cell_length_c 20.653120
_cell_angle_alpha 90.000000
_cell_angle_beta 106.723012
_cell_angle_gamma 90.000000
_cell_volume 920.290356
_symmetry_space_group_name_H-M "P 2/C"
_symmetry_group_IT_number 13
_symmetry_cell_setting 'monoclinic'
loop_
_space_group_symop_operation_xyz
x,y,z
-x,y,1/2-z
-x,-y,-z
x,-y,1/2+z
loop_
_atom_site_type_symbol
_atom_site_label
_atom_site_fract_x
_atom_site_fract_y
_atom_site_fract_z
Si Si1 0.073282 0.055120 0.151755
Si Si2 0.881685 0.542040 0.428172
Si Si3 0.585882 0.717162 0.091355
Si Si4 0.149686 0.810243 0.288767
Si Si5 0.389667 0.212357 0.049644
O O1 0.115273 0.854926 0.097411
O O2 0.175328 0.985243 0.226900
O O3 0.915590 0.989353 0.160875
O O4 0.075118 0.363980 0.128350
O O5 0.735625 0.389753 0.432776
O O6 0.000000 0.500000 0.500000
O O7 0.702726 0.693686 0.163917
O O8 0.528136 0.413106 0.070421
O O9 0.450108 0.925217 0.086227
O O10 0.650632 0.824887 0.031363
O O11 0.000000 0.641635 0.250000
#
# Coordination Sequence:
#
# PCOD9231826 Si02
#       5
#     4   4   4   4   4
#     4   9  23  37  60  89 113 153 207 234 303 345
#     4  12  22  39  59  88 122 153 197 249 298 356
#     4  10  20  42  57  89 116 157 199 245 288 358
#     4   8  21  42  65  85 119 160 204 247 290 365
#     4  10  23  35  63  86 120 154 198 242 305 342
#
# _framework density 21.732274
#
# number of rings (size 3 to 8) (size 9 to 14) (size 15 to 20)
#    1.200    0.800    0.000    3.000    0.000   11.200 
#    0.000    6.000    0.000    0.000    0.000    0.000 
#    0.000    0.000    0.000    0.000    0.000    0.000 
#
# Total GULP energy -111370.508355 kJ/mol
# GULP energy per Si atom -5568.525418 kJ/mol
# Density = 2.168281 g / cm^3
# Si number density = 21.732274 Si / 1000 Ang^3
#
#
#
# Elastic Constant Matrix: (Units=GPa)
#
#
# Indices 1 2 3 4 5 6 
#
# 1 38.3252 2.4114 33.4961 0.0000 1.5866 0.0000
# 2 2.4114 84.8476 12.1137 0.0000 11.5231 0.0000
# 3 33.4961 12.1137 117.2718 0.0000 34.2453 0.0000
# 4 0.0000 0.0000 0.0000 23.4844 0.0000 -2.4859
# 5 1.5866 11.5231 34.2453 0.0000 39.8968 0.0000
# 6 0.0000 0.0000 0.0000 -2.4859 0.0000 11.3500
#
#
#
# Elastic Compliance Matrix: (Units=1/GPa)
#
#
# Indices 1 2 3 4 5 6 
#
# 1 0.037742 -0.000528 -0.013788 0.000000 0.010486 0.000000
# 2 -0.000528 0.012283 -0.000118 0.000000 -0.003426 0.000000
# 3 -0.013788 -0.000118 0.016424 0.000000 -0.013515 0.000000
# 4 0.000000 0.000000 0.000000 0.043592 0.000000 0.009548
# 5 0.010486 -0.003426 -0.013515 0.000000 0.037238 0.000000
# 6 0.000000 0.000000 0.000000 0.009548 0.000000 0.090197
#
#
# Mechanical properties :
#
#
# Convention : Reuss Voigt Hill
#
# Bulk Modulus (GPa) = 26.60850 37.38743 31.99797
# Shear Modulus (GPa) = 17.92944 27.77446 22.85195
#
# Velocity S-wave (km/s) = 2.87542 3.57883 3.24623
# Velocity P-wave (km/s) = 4.82643 5.85819 5.36716
#
# Compressibility (1/GPa) = 0.03758197
#
# Stress axis : x y z
#
# Youngs Moduli (GPa) = 26.49557 81.41417 60.88554
#
# Poissons Ratio (x) = 0.04301 0.83948
# Poissons Ratio (y) = 0.01400 0.00715
# Poissons Ratio (z) = 0.36532 0.00957
#
# Static dielectric constant tensor:
#      x y z
#    x 1.808060 0.000000 -0.058600 
#    y 0.000000 1.748520 0.000000 
#    z -0.058600 0.000000 1.775900 
# 
# From -- ./inp_files/74230.got.cif
#   From: 2010.05.17/outbox.cif.g08.bks.cpg/sg13_38_cif.got.tgz:74230.got - 2010.06.03 16:44:36.
