data_PCOD9231296
_publ_section_title
;
Structure prediction by ZEFSAII (Michael W. Deem and Ramdas Pophale) SiO2 
 PCOD9231296
Probable space group: P 2/C
;
_chemical_formula_sum "Si O2"
_cell_formula_units_Z 30
_cell_length_a 29.147135
_cell_length_b 6.729291
_cell_length_c 27.839397
_cell_angle_alpha 90.000000
_cell_angle_beta 164.739113
_cell_angle_gamma 90.000000
_cell_volume 1437.258448
_symmetry_space_group_name_H-M "P 2/C"
_symmetry_group_IT_number 13
_symmetry_cell_setting 'monoclinic'
loop_
_space_group_symop_operation_xyz
x,y,z
-x,y,1/2-z
-x,-y,-z
x,-y,1/2+z
loop_
_atom_site_type_symbol
_atom_site_label
_atom_site_fract_x
_atom_site_fract_y
_atom_site_fract_z
Si Si1 0.930176 0.333094 0.870511
Si Si2 0.877047 0.932835 0.771219
Si Si3 0.258865 0.830715 0.762460
Si Si4 0.321167 0.836183 0.024676
Si Si5 0.165964 0.653893 0.059826
Si Si6 0.361201 0.289996 0.849522
Si Si7 0.675037 0.588836 0.381129
Si Si8 0.500000 0.212974 0.250000
O O1 0.774459 0.385091 0.749658
O O2 0.086926 0.238360 0.060599
O O3 0.015150 0.512862 0.928147
O O4 0.863462 0.167779 0.766001
O O5 0.785065 0.842094 0.725445
O O6 0.794138 0.854198 0.638711
O O7 0.079289 0.870792 0.973807
O O8 0.435922 0.707810 0.931904
O O9 0.304631 0.057058 0.794275
O O10 0.497892 0.713747 0.192048
O O11 0.244456 0.710471 0.992253
O O12 0.378233 0.058421 0.098042
O O13 0.322156 0.643326 0.255772
O O14 0.215440 0.593888 0.056433
O O15 0.617710 0.366619 0.338180
#
# Coordination Sequence:
#
# PCOD9231296 Si02
#       8
#     4   4   4   4   4   4   4   2
#     4  11  23  40  58  93 127 166 209 254 306 360
#     4  11  22  40  60  88 126 158 208 258 306 371
#     4  10  20  40  63  87 122 167 210 259 300 361
#     4   9  20  41  68  86 116 166 201 254 321 363
#     4  12  23  38  60  88 129 161 200 261 307 372
#     4  10  20  39  62  85 125 167 209 255 304 361
#     4   9  21  40  62  94 118 156 209 256 308 372
#     4   8  18  42  66  88 126 146 212 266 294 372
#
# _framework density 20.873073000000002
#
# number of rings (size 3 to 8) (size 9 to 14) (size 15 to 20)
#    0.000    2.133    2.667    2.000    0.000    5.333 
#    9.600    0.000    0.000    0.000    0.000    0.000 
#    0.000    0.000    0.000    0.000    0.000    0.000 
#
# Total GULP energy -167575.479287 kJ/mol
# GULP energy per Si atom -5585.849310 kJ/mol
# Density = 2.082556 g / cm^3
# Si number density = 20.873073 Si / 1000 Ang^3
#
#
#
# Elastic Constant Matrix: (Units=GPa)
#
#
# Indices 1 2 3 4 5 6 
#
# 1 125.9878 36.5190 31.9199 0.0000 -5.0687 0.0000
# 2 36.5190 95.1683 11.4802 0.0000 0.8314 0.0000
# 3 31.9199 11.4802 84.1286 0.0000 -8.3925 0.0000
# 4 0.0000 0.0000 0.0000 25.9054 0.0000 5.8711
# 5 -5.0687 0.8314 -8.3925 0.0000 39.5586 0.0000
# 6 0.0000 0.0000 0.0000 5.8711 0.0000 18.3323
#
#
#
# Elastic Compliance Matrix: (Units=1/GPa)
#
#
# Indices 1 2 3 4 5 6 
#
# 1 0.009741 -0.003361 -0.003173 0.000000 0.000646 0.000000
# 2 -0.003361 0.011855 -0.000419 0.000000 -0.000769 0.000000
# 3 -0.003173 -0.000419 0.013391 0.000000 0.002443 0.000000
# 4 0.000000 0.000000 0.000000 0.041623 0.000000 -0.013330
# 5 0.000646 -0.000769 0.002443 0.000000 0.025896 0.000000
# 6 0.000000 0.000000 0.000000 -0.013330 0.000000 0.058818
#
#
# Mechanical properties :
#
#
# Convention : Reuss Voigt Hill
#
# Bulk Modulus (GPa) = 47.43566 51.68032 49.55799
# Shear Modulus (GPa) = 27.43369 31.78364 29.60866
#
# Velocity S-wave (km/s) = 3.62927 3.90643 3.77040
# Velocity P-wave (km/s) = 6.35116 6.72012 6.53824
#
# Compressibility (1/GPa) = 0.02108119
#
# Stress axis : x y z
#
# Youngs Moduli (GPa) = 102.65504 84.35489 74.67486
#
# Poissons Ratio (x) = 0.28351 0.23694
# Poissons Ratio (y) = 0.34502 0.03130
# Poissons Ratio (z) = 0.32572 0.03536
#
# Static dielectric constant tensor:
#      x y z
#    x 1.717460 0.000000 0.010500 
#    y 0.000000 1.808300 0.000000 
#    z 0.010500 0.000000 1.748350 
# 
# From -- ./inp_files/94361.got.cif
#   From: 2010.05.17/outbox.cif.g08.bks.cpg/sg13_48_cif.got.tgz:94361.got - 2010.06.03 16:44:36.
