data_PCOD9231913
_publ_section_title
;
Structure prediction by ZEFSAII (Michael W. Deem and Ramdas Pophale) SiO2 
 PCOD9231913
Probable space group: P 2/C
;
_chemical_formula_sum "Si O2"
_cell_formula_units_Z 30
_cell_length_a 27.495257
_cell_length_b 8.121675
_cell_length_c 11.287325
_cell_angle_alpha 90.000000
_cell_angle_beta 26.587426
_cell_angle_gamma 90.000000
_cell_volume 1128.102207
_symmetry_space_group_name_H-M "P 2/C"
_symmetry_group_IT_number 13
_symmetry_cell_setting 'monoclinic'
loop_
_space_group_symop_operation_xyz
x,y,z
-x,y,1/2-z
-x,-y,-z
x,-y,1/2+z
loop_
_atom_site_type_symbol
_atom_site_label
_atom_site_fract_x
_atom_site_fract_y
_atom_site_fract_z
Si Si1 0.333725 0.377611 0.081568
Si Si2 0.093410 0.734560 0.114600
Si Si3 0.351617 0.957953 0.676189
Si Si4 0.500000 0.242387 0.250000
Si Si5 0.150126 0.076889 0.992971
Si Si6 0.329886 0.236060 0.439605
Si Si7 0.054279 0.319843 0.365584
Si Si8 0.295625 0.559095 0.395616
O O1 0.202348 0.368990 0.378607
O O2 0.374774 0.202538 0.043621
O O3 0.357922 0.519168 0.133015
O O4 0.351412 0.377827 0.898505
O O5 0.000000 0.635507 0.250000
O O6 0.031436 0.780694 0.368964
O O7 0.115422 0.909228 0.004008
O O8 0.416530 0.116807 0.496079
O O9 0.224349 0.999937 0.937637
O O10 0.374233 0.906703 0.760164
O O11 0.429587 0.313592 0.295013
O O12 0.237998 0.169283 0.723613
O O13 0.065957 0.210612 0.222673
O O14 0.273217 0.371664 0.482534
O O15 0.181768 0.346415 0.124920
O O16 0.000000 0.500000 0.500000
#
# Coordination Sequence:
#
# PCOD9231913 Si02
#       8
#     4   4   4   2   4   4   4   4
#     4  10  21  40  61  93 130 178 217 270 327 394
#     4  11  22  37  59  91 131 174 230 276 314 377
#     4   9  21  40  68  94 126 165 214 271 335 401
#     4  10  20  42  68  98 120 160 218 272 338 412
#     4  10  24  39  60  91 128 172 222 274 328 382
#     4  10  22  40  66  94 129 167 210 277 340 399
#     4  12  24  38  62  90 132 183 228 271 320 387
#     4  11  22  40  63  91 134 172 219 266 336 391
#
# _framework density 26.593335
#
# number of rings (size 3 to 8) (size 9 to 14) (size 15 to 20)
#    0.000    1.600    2.667    1.600    1.867    2.133 
#    0.000    2.000    0.000    9.600    0.000    0.000 
#    0.000    0.000    0.000    0.000    0.000    0.000 
#
# Total GULP energy -167339.474937 kJ/mol
# GULP energy per Si atom -5577.982498 kJ/mol
# Density = 2.653281 g / cm^3
# Si number density = 26.593335 Si / 1000 Ang^3
#
#
#
# Elastic Constant Matrix: (Units=GPa)
#
#
# Indices 1 2 3 4 5 6 
#
# 1 107.9127 10.4279 24.8657 0.0000 17.2897 0.0000
# 2 10.4279 71.7341 -8.5233 0.0000 12.9818 0.0000
# 3 24.8657 -8.5233 22.3465 0.0000 3.5496 0.0000
# 4 0.0000 0.0000 0.0000 23.0416 0.0000 5.2404
# 5 17.2897 12.9818 3.5496 0.0000 34.9812 0.0000
# 6 0.0000 0.0000 0.0000 5.2404 0.0000 41.9334
#
#
#
# Elastic Compliance Matrix: (Units=1/GPa)
#
#
# Indices 1 2 3 4 5 6 
#
# 1 0.013932 -0.003199 -0.016077 0.000000 -0.004067 0.000000
# 2 -0.003199 0.016732 0.010852 0.000000 -0.005729 0.000000
# 3 -0.016077 0.010852 0.067239 0.000000 -0.002904 0.000000
# 4 0.000000 0.000000 0.000000 0.044669 0.000000 -0.005582
# 5 -0.004067 -0.005729 -0.002904 0.000000 0.033018 0.000000
# 6 0.000000 0.000000 0.000000 -0.005582 0.000000 0.024545
#
#
# Mechanical properties :
#
#
# Convention : Reuss Voigt Hill
#
# Bulk Modulus (GPa) = 12.33747 28.39267 20.36507
# Shear Modulus (GPa) = 20.49161 31.67279 26.08220
#
# Velocity S-wave (km/s) = 2.77890 3.45484 3.13514
# Velocity P-wave (km/s) = 3.86597 5.15891 4.55851
#
# Compressibility (1/GPa) = 0.08105388
#
# Stress axis : x y z
#
# Youngs Moduli (GPa) = 71.77657 59.76699 14.87225
#
# Poissons Ratio (x) = 0.19122 0.23910
# Poissons Ratio (y) = 0.22965 -0.16139
# Poissons Ratio (z) = 1.15395 -0.64858
#
# Static dielectric constant tensor:
#      x y z
#    x 2.272670 0.000000 -0.006710 
#    y 0.000000 2.089070 0.000000 
#    z -0.006710 0.000000 2.151720 
# 
# From -- ./inp_files/42679.got.cif
#   From: 2010.05.17/outbox.cif.g08.bks.cpg/sg13_22_cif.got.tgz:42679.got - 2010.06.03 16:44:36.
