data_PCOD9231091
_publ_section_title
;
Structure prediction by ZEFSAII (Michael W. Deem and Ramdas Pophale) SiO2 
 PCOD9231091
Probable space group: P 2/C
;
_chemical_formula_sum "Si O2"
_cell_formula_units_Z 26
_cell_length_a 8.959309
_cell_length_b 5.244524
_cell_length_c 24.864170
_cell_angle_alpha 90.000000
_cell_angle_beta 92.672034
_cell_angle_gamma 90.000000
_cell_volume 1167.030254
_symmetry_space_group_name_H-M "P 2/C"
_symmetry_group_IT_number 13
_symmetry_cell_setting 'monoclinic'
loop_
_space_group_symop_operation_xyz
x,y,z
-x,y,1/2-z
-x,-y,-z
x,-y,1/2+z
loop_
_atom_site_type_symbol
_atom_site_label
_atom_site_fract_x
_atom_site_fract_y
_atom_site_fract_z
Si Si1 0.402561 0.974424 0.920167
Si Si2 0.258270 0.839824 0.574570
Si Si3 0.986050 0.204320 0.931409
Si Si4 0.000000 0.259564 0.750000
Si Si5 0.730157 0.526573 0.026108
Si Si6 0.844121 0.917065 0.656138
Si Si7 0.900247 0.446773 0.339280
O O1 0.580350 0.962305 0.920359
O O2 0.339325 0.738296 0.955249
O O3 0.330380 0.929379 0.859507
O O4 0.357921 0.245227 0.945198
O O5 0.277704 0.591330 0.537030
O O6 0.197115 0.769726 0.633244
O O7 0.133108 0.017624 0.542476
O O8 0.891108 0.332420 0.882494
O O9 0.094383 0.421555 0.956987
O O10 0.096336 0.023134 0.899960
O O11 0.881026 0.434025 0.780469
O O12 0.911428 0.083451 0.705759
O O13 0.926881 0.647443 0.661327
#
# Coordination Sequence:
#
# PCOD9231091 Si02
#       7
#     4   4   4   2   4   4   4
#     4  11  24  41  63  95 138 179 216 262 329 394
#     4  11  24  36  62  97 137 169 219 270 325 385
#     4   9  20  37  59  91 127 168 216 264 305 379
#     4  10  20  38  72  90 114 158 226 270 338 390
#     4  11  23  41  62  93 135 190 219 251 315 405
#     4   9  19  39  61  92 117 163 211 267 320 391
#     4  10  20  38  64  90 119 159 212 274 322 384
#
# _framework density 22.278773000000001
#
# number of rings (size 3 to 8) (size 9 to 14) (size 15 to 20)
#    0.000    1.846    1.538    1.846    4.308    0.615 
#    0.000    0.000    0.000   22.154    0.000    0.000 
#    0.000    0.000    0.000    0.000    0.000    0.000 
#
# Total GULP energy -144988.233020 kJ/mol
# GULP energy per Si atom -5576.470501 kJ/mol
# Density = 2.222807 g / cm^3
# Si number density = 22.278773 Si / 1000 Ang^3
#
#
#
# Elastic Constant Matrix: (Units=GPa)
#
#
# Indices 1 2 3 4 5 6 
#
# 1 117.2385 22.6270 37.3300 0.0000 4.1284 0.0000
# 2 22.6270 80.8207 3.3662 0.0000 -8.4674 0.0000
# 3 37.3300 3.3662 81.0860 0.0000 0.4852 0.0000
# 4 0.0000 0.0000 0.0000 38.6786 0.0000 -1.7397
# 5 4.1284 -8.4674 0.4852 0.0000 23.0010 0.0000
# 6 0.0000 0.0000 0.0000 -1.7397 0.0000 6.7482
#
#
#
# Elastic Compliance Matrix: (Units=1/GPa)
#
#
# Indices 1 2 3 4 5 6 
#
# 1 0.010770 -0.003127 -0.004811 0.000000 -0.002983 0.000000
# 2 -0.003127 0.013803 0.000833 0.000000 0.005625 0.000000
# 3 -0.004811 0.000833 0.014507 0.000000 0.000864 0.000000
# 4 0.000000 0.000000 0.000000 0.026157 0.000000 0.006743
# 5 -0.002983 0.005625 0.000864 0.000000 0.046064 0.000000
# 6 0.000000 0.000000 0.000000 0.006743 0.000000 0.149926
#
#
# Mechanical properties :
#
#
# Convention : Reuss Voigt Hill
#
# Bulk Modulus (GPa) = 40.20744 45.08798 42.64771
# Shear Modulus (GPa) = 17.62248 28.07368 22.84808
#
# Velocity S-wave (km/s) = 2.81552 3.55365 3.20590
# Velocity P-wave (km/s) = 5.35314 6.09261 5.73481
#
# Compressibility (1/GPa) = 0.02487102
#
# Stress axis : x y z
#
# Youngs Moduli (GPa) = 92.85079 72.44668 68.92989
#
# Poissons Ratio (x) = 0.22657 0.33159
# Poissons Ratio (y) = 0.29038 -0.05742
# Poissons Ratio (z) = 0.44666 -0.06035
#
# Static dielectric constant tensor:
#      x y z
#    x 1.903470 0.000000 0.016090 
#    y 0.000000 1.879590 0.000000 
#    z 0.016090 0.000000 1.876110 
# 
# From -- ./inp_files/84372.got.cif
#   From: 2010.05.17/outbox.cif.g08.bks.cpg/sg13_43_cif.got.tgz:84372.got - 2010.06.03 16:44:36.
