data_PCOD9231796
_publ_section_title
;
Structure prediction by ZEFSAII (Michael W. Deem and Ramdas Pophale) SiO2 
 PCOD9231796
Probable space group: P 2/C
;
_chemical_formula_sum "Si O2"
_cell_formula_units_Z 20
_cell_length_a 22.404530
_cell_length_b 8.788602
_cell_length_c 28.921242
_cell_angle_alpha 90.000000
_cell_angle_beta 170.200401
_cell_angle_gamma 90.000000
_cell_volume 969.256609
_symmetry_space_group_name_H-M "P 2/C"
_symmetry_group_IT_number 13
_symmetry_cell_setting 'monoclinic'
loop_
_space_group_symop_operation_xyz
x,y,z
-x,y,1/2-z
-x,-y,-z
x,-y,1/2+z
loop_
_atom_site_type_symbol
_atom_site_label
_atom_site_fract_x
_atom_site_fract_y
_atom_site_fract_z
Si Si1 0.857156 0.099869 0.768890
Si Si2 0.554393 0.682545 0.606405
Si Si3 0.108529 0.219175 0.452032
Si Si4 0.974344 0.173806 0.962911
Si Si5 0.303013 0.360383 0.445786
O O1 0.770121 0.222932 0.663130
O O2 0.945680 0.175246 0.885553
O O3 0.500000 0.000000 0.500000
O O4 0.125919 0.963929 0.966126
O O5 0.465341 0.506990 0.544555
O O6 0.878172 0.716479 0.818719
O O7 0.689829 0.743955 0.758990
O O8 0.894117 0.261079 0.242843
O O9 0.500000 0.283165 0.750000
O O10 0.619440 0.259827 0.708367
O O11 0.000000 0.000000 0.000000
O O12 0.000000 0.407801 0.250000
#
# Coordination Sequence:
#
# PCOD9231796 Si02
#       5
#     4   4   4   4   4
#     4  10  20  41  68  97 124 169 222 272 333 390
#     4  11  23  45  67  96 137 176 217 272 339 395
#     4  11  22  42  69  97 129 175 224 273 331 395
#     4  12  21  41  73  94 126 174 221 278 331 391
#     4  12  26  43  64 100 138 177 222 273 331 403
#
# _framework density 20.634370000000001
#
# number of rings (size 3 to 8) (size 9 to 14) (size 15 to 20)
#    0.000    0.800    8.000    2.400    0.000    0.000 
#    3.600    1.000    0.000    0.000    0.000    0.000 
#    0.000    0.000    0.000    0.000    0.000    0.000 
#
# Total GULP energy -111664.862799 kJ/mol
# GULP energy per Si atom -5583.243140 kJ/mol
# Density = 2.058741 g / cm^3
# Si number density = 20.634370 Si / 1000 Ang^3
#
#
#
# Elastic Constant Matrix: (Units=GPa)
#
#
# Indices 1 2 3 4 5 6 
#
# 1 69.0995 31.0223 54.9035 0.0000 -23.9712 0.0000
# 2 31.0223 58.0018 16.3151 0.0000 47.8198 0.0000
# 3 54.9035 16.3151 82.7326 0.0000 9.9177 0.0000
# 4 0.0000 0.0000 0.0000 11.1007 0.0000 -4.7222
# 5 -23.9712 47.8198 9.9177 0.0000 15.4326 0.0000
# 6 0.0000 0.0000 0.0000 -4.7222 0.0000 30.3189
#
#
#
# Elastic Compliance Matrix: (Units=1/GPa)
#
#
# Indices 1 2 3 4 5 6 
#
# 1 0.008440 0.010773 -0.005738 0.000000 -0.016585 0.000000
# 2 0.010773 0.002987 -0.009356 0.000000 0.013492 0.000000
# 3 -0.005738 -0.009356 0.016613 0.000000 0.009402 0.000000
# 4 0.000000 0.000000 0.000000 0.096477 0.000000 0.015026
# 5 -0.016585 0.013492 0.009402 0.000000 -0.008813 0.000000
# 6 0.000000 0.000000 0.000000 0.015026 0.000000 0.035323
#
#
# Mechanical properties :
#
#
# Convention : Reuss Voigt Hill
#
# Bulk Modulus (GPa) = 51.54751 46.03509 48.79130
# Shear Modulus (GPa) = 30.09634 18.54330 24.31982
#
# Velocity S-wave (km/s) = 3.82325 3.00102 3.43681
# Velocity P-wave (km/s) = 6.67272 5.86229 6.28059
#
# Compressibility (1/GPa) = 0.01939958
#
# Stress axis : x y z
#
# Youngs Moduli (GPa) = 118.47814 334.81995 60.19494
#
# Poissons Ratio (x) = -3.60718 0.34538
# Poissons Ratio (y) = -1.27642 0.56318
# Poissons Ratio (z) = 0.67978 3.13256
#
# Static dielectric constant tensor:
#      x y z
#    x 1.796230 0.000000 0.024340 
#    y 0.000000 1.741790 0.000000 
#    z 0.024340 0.000000 1.772840 
# 
# From -- ./inp_files/97662.got.cif
#   From: 2010.05.17/outbox.cif.g08.bks.cpg/sg13_49_cif.got.tgz:97662.got - 2010.06.03 16:44:36.
