data_PCOD9231846
_publ_section_title
;
Structure prediction by ZEFSAII (Michael W. Deem and Ramdas Pophale) SiO2 
 PCOD9231846
Probable space group: P 2/C
;
_chemical_formula_sum "Si O2"
_cell_formula_units_Z 24
_cell_length_a 11.823046
_cell_length_b 11.003824
_cell_length_c 8.510165
_cell_angle_alpha 90.000000
_cell_angle_beta 46.113915
_cell_angle_gamma 90.000000
_cell_volume 797.952910
_symmetry_space_group_name_H-M "P 2/C"
_symmetry_group_IT_number 13
_symmetry_cell_setting 'monoclinic'
loop_
_space_group_symop_operation_xyz
x,y,z
-x,y,1/2-z
-x,-y,-z
x,-y,1/2+z
loop_
_atom_site_type_symbol
_atom_site_label
_atom_site_fract_x
_atom_site_fract_y
_atom_site_fract_z
Si Si1 0.947304 0.819198 0.491821
Si Si2 0.496904 0.387748 0.068735
Si Si3 0.000000 0.042372 0.250000
Si Si4 0.217561 0.394152 0.190192
Si Si5 0.672873 0.844550 0.334936
Si Si6 0.146475 0.345140 0.893322
Si Si7 0.500000 0.000336 0.250000
O O1 0.900605 0.879440 0.722029
O O2 0.948962 0.676062 0.571955
O O3 0.000000 0.761864 0.250000
O O4 0.900281 0.948049 0.452521
O O5 0.500000 0.360653 0.250000
O O6 0.329327 0.306551 0.194598
O O7 0.581308 0.532718 0.008063
O O8 0.642535 0.302372 0.861429
O O9 0.157941 0.531021 0.288016
O O10 0.189371 0.366280 0.033189
O O11 0.856634 0.812232 0.145421
O O12 0.610123 0.912709 0.542785
O O13 0.598091 0.911153 0.264317
#
# Coordination Sequence:
#
# PCOD9231846 Si02
#       7
#     4   4   2   4   4   4   2
#     4   9  21  41  64  99 138 185 236 296 361 438
#     4  12  26  47  77 108 148 196 255 313 381 456
#     4  10  20  42  62  98 142 192 230 286 360 452
#     4   9  21  47  67 111 141 191 238 319 371 448
#     4  11  23  49  74 113 145 211 250 314 377 456
#     4   9  20  44  75 103 147 185 249 312 379 435
#     4  10  26  48  76 108 164 200 264 308 372 470
#
# _framework density 30.076962000000002
#
# number of rings (size 3 to 8) (size 9 to 14) (size 15 to 20)
#    1.000    1.000    2.500    0.000    1.167    2.667 
#   18.000    1.667    0.000    0.000    0.000    0.000 
#    0.000    0.000    0.000    0.000    0.000    0.000 
#
# Total GULP energy -133632.718273 kJ/mol
# GULP energy per Si atom -5568.029928 kJ/mol
# Density = 3.000851 g / cm^3
# Si number density = 30.076962 Si / 1000 Ang^3
#
#
#
# Elastic Constant Matrix: (Units=GPa)
#
#
# Indices 1 2 3 4 5 6 
#
# 1 229.3856 81.8008 108.8403 0.0000 8.2155 0.0000
# 2 81.8008 278.3012 106.8703 0.0000 20.5233 0.0000
# 3 108.8403 106.8703 232.9493 0.0000 39.8934 0.0000
# 4 0.0000 0.0000 0.0000 41.8296 0.0000 1.0699
# 5 8.2155 20.5233 39.8934 0.0000 75.8059 0.0000
# 6 0.0000 0.0000 0.0000 1.0699 0.0000 21.4032
#
#
#
# Elastic Compliance Matrix: (Units=1/GPa)
#
#
# Indices 1 2 3 4 5 6 
#
# 1 0.005799 -0.000815 -0.002490 0.000000 0.000903 0.000000
# 2 -0.000815 0.004477 -0.001628 0.000000 -0.000267 0.000000
# 3 -0.002490 -0.001628 0.006684 0.000000 -0.002807 0.000000
# 4 0.000000 0.000000 0.000000 0.023937 0.000000 -0.001197
# 5 0.000903 -0.000267 -0.002807 0.000000 0.014643 0.000000
# 6 0.000000 0.000000 0.000000 -0.001197 0.000000 0.046782
#
#
# Mechanical properties :
#
#
# Convention : Reuss Voigt Hill
#
# Bulk Modulus (GPa) = 140.94697 148.40657 144.67677
# Shear Modulus (GPa) = 43.64776 57.34939 50.49858
#
# Velocity S-wave (km/s) = 3.81360 4.37138 4.10198
# Velocity P-wave (km/s) = 8.14587 8.65609 8.40486
#
# Compressibility (1/GPa) = 0.00709487
#
# Stress axis : x y z
#
# Youngs Moduli (GPa) = 172.43234 223.34009 149.61674
#
# Poissons Ratio (x) = 0.18199 0.37260
# Poissons Ratio (y) = 0.14050 0.24352
# Poissons Ratio (z) = 0.42942 0.36352
#
# Static dielectric constant tensor:
#      x y z
#    x 3.077660 0.000000 -0.688910 
#    y 0.000000 2.452800 0.000000 
#    z -0.688910 0.000000 2.903370 
# 
# From -- ./inp_files/15820.got.cif
#   From: 2010.05.17/outbox.cif.g08.bks.cpg/sg13_8_cif.got.tgz:15820.got - 2010.06.03 16:44:36.
