data_PCOD9231154
_publ_section_title
;
Structure prediction by ZEFSAII (Michael W. Deem and Ramdas Pophale) SiO2 
 PCOD9231154
Probable space group: P 2/C
;
_chemical_formula_sum "Si O2"
_cell_formula_units_Z 30
_cell_length_a 14.081046
_cell_length_b 5.359961
_cell_length_c 18.624476
_cell_angle_alpha 90.000000
_cell_angle_beta 113.855597
_cell_angle_gamma 90.000000
_cell_volume 1285.572129
_symmetry_space_group_name_H-M "P 2/C"
_symmetry_group_IT_number 13
_symmetry_cell_setting 'monoclinic'
loop_
_space_group_symop_operation_xyz
x,y,z
-x,y,1/2-z
-x,-y,-z
x,-y,1/2+z
loop_
_atom_site_type_symbol
_atom_site_label
_atom_site_fract_x
_atom_site_fract_y
_atom_site_fract_z
Si Si1 0.800501 0.391836 0.094488
Si Si2 0.417863 0.416386 0.544800
Si Si3 0.533050 0.902687 0.608901
Si Si4 0.250939 0.784337 0.773397
Si Si5 0.500000 0.040404 0.750000
Si Si6 0.132775 0.061314 0.615527
Si Si7 0.318915 0.583993 0.172098
Si Si8 0.113766 0.113978 0.954541
O O1 0.807085 0.373229 0.182877
O O2 0.845664 0.137695 0.072571
O O3 0.851594 0.638018 0.076221
O O4 0.679677 0.412275 0.037330
O O5 0.494274 0.650586 0.560155
O O6 0.477777 0.152814 0.565103
O O7 0.363751 0.454591 0.606624
O O8 0.657301 0.925743 0.654860
O O9 0.489502 0.881482 0.676346
O O10 0.171366 0.943589 0.702003
O O11 0.309537 0.625710 0.729778
O O12 0.601032 0.211816 0.771941
O O13 0.010940 0.110843 0.580854
O O14 0.203959 0.303840 0.628108
O O15 0.153006 0.897377 0.549558
#
# Coordination Sequence:
#
# PCOD9231154 Si02
#       8
#     4   4   4   4   2   4   4   4
#     4  12  28  49  73 106 153 193 243 305 376 442
#     4  11  24  43  72 100 143 191 245 294 350 437
#     4  11  23  40  67 105 142 192 238 289 362 435
#     4  12  27  44  72 109 155 190 242 307 379 444
#     4  10  20  38  66 104 140 180 240 304 350 420
#     4  11  26  48  80 104 141 189 255 310 360 439
#     4  11  22  42  69 105 139 188 241 300 355 433
#     4  11  28  52  77 107 139 195 252 307 369 435
#
# _framework density 23.335912
#
# number of rings (size 3 to 8) (size 9 to 14) (size 15 to 20)
#    0.000    0.800    2.667    4.000    7.467    3.200 
#    0.000    0.000    0.000    0.000    0.000    0.000 
#    0.000    0.000    0.000    0.000    0.000    0.000 
#
# Total GULP energy -167943.082822 kJ/mol
# GULP energy per Si atom -5598.102761 kJ/mol
# Density = 2.328280 g / cm^3
# Si number density = 23.335912 Si / 1000 Ang^3
#
#
#
# Elastic Constant Matrix: (Units=GPa)
#
#
# Indices 1 2 3 4 5 6 
#
# 1 115.2132 57.9547 28.5314 0.0000 6.5069 0.0000
# 2 57.9547 118.6643 58.5069 0.0000 -3.1926 0.0000
# 3 28.5314 58.5069 101.5436 0.0000 -9.0698 0.0000
# 4 0.0000 0.0000 0.0000 6.9192 0.0000 -27.9304
# 5 6.5069 -3.1926 -9.0698 0.0000 46.8296 0.0000
# 6 0.0000 0.0000 0.0000 -27.9304 0.0000 20.2989
#
#
#
# Elastic Compliance Matrix: (Units=1/GPa)
#
#
# Indices 1 2 3 4 5 6 
#
# 1 0.011697 -0.005667 -0.000205 0.000000 -0.002051 0.000000
# 2 -0.005667 0.014529 -0.006737 0.000000 0.000473 0.000000
# 3 -0.000205 -0.006737 0.013991 0.000000 0.002279 0.000000
# 4 0.000000 0.000000 0.000000 -0.031734 0.000000 -0.043665
# 5 -0.002051 0.000473 0.002279 0.000000 0.022113 0.000000
# 6 0.000000 0.000000 0.000000 -0.043665 0.000000 -0.010817
#
#
# Mechanical properties :
#
#
# Convention : Reuss Voigt Hill
#
# Bulk Modulus (GPa) = 66.66741 69.48965 68.07853
# Shear Modulus (GPa) = 100.01218 27.50476 63.75847
#
# Velocity S-wave (km/s) = 6.55368 3.43686 5.23272
# Velocity P-wave (km/s) = 9.26813 6.75219 8.10833
#
# Compressibility (1/GPa) = 0.01499983
#
# Stress axis : x y z
#
# Youngs Moduli (GPa) = 85.49489 68.82773 71.47676
#
# Poissons Ratio (x) = 0.39004 0.01462
# Poissons Ratio (y) = 0.48449 0.48152
# Poissons Ratio (z) = 0.01749 0.46368
#
# Static dielectric constant tensor:
#      x y z
#    x 1.866690 0.000000 -0.029810 
#    y 0.000000 1.886040 0.000000 
#    z -0.029810 0.000000 2.556910 
# 
# From -- ./inp_files/67594.got.cif
#   From: 2010.05.17/outbox.cif.g08.bks.cpg/sg13_34_cif.got.tgz:67594.got - 2010.06.03 16:44:36.
