data_PCOD9231630
_publ_section_title
;
Structure prediction by ZEFSAII (Michael W. Deem and Ramdas Pophale) SiO2 
 PCOD9231630
Probable space group: P 2/C
;
_chemical_formula_sum "Si O2"
_cell_formula_units_Z 14
_cell_length_a 10.571666
_cell_length_b 8.536211
_cell_length_c 8.934170
_cell_angle_alpha 90.000000
_cell_angle_beta 137.487949
_cell_angle_gamma 90.000000
_cell_volume 544.810912
_symmetry_space_group_name_H-M "P 2/C"
_symmetry_group_IT_number 13
_symmetry_cell_setting 'monoclinic'
loop_
_space_group_symop_operation_xyz
x,y,z
-x,y,1/2-z
-x,-y,-z
x,-y,1/2+z
loop_
_atom_site_type_symbol
_atom_site_label
_atom_site_fract_x
_atom_site_fract_y
_atom_site_fract_z
Si Si1 0.779116 0.292384 0.161810
Si Si2 0.153761 0.866569 0.498259
Si Si3 0.500000 0.910938 0.250000
Si Si4 0.286112 0.529406 0.610731
O O1 0.897590 0.179333 0.375205
O O2 0.736931 0.440216 0.233285
O O3 0.590898 0.194847 0.959429
O O4 0.822526 0.376967 0.042615
O O5 0.215661 0.696523 0.487013
O O6 0.329772 0.981344 0.655825
O O7 0.000000 0.926900 0.250000
O O8 0.500000 0.511856 0.750000
#
# Coordination Sequence:
#
# PCOD9231630 Si02
#       4
#     4   4   2   4
#     4  10  23  39  69  97 124 175 215 267 327 376
#     4  10  24  42  64  99 131 171 214 267 325 386
#     4  12  22  42  68  96 134 172 214 262 328 394
#     4  10  20  40  66  96 127 164 222 267 317 382
#
# _framework density 25.696988000000001
#
# number of rings (size 3 to 8) (size 9 to 14) (size 15 to 20)
#    1.714    0.000    2.857    1.714    0.000    2.286 
#    0.000    1.429    0.000    0.000    0.000    0.000 
#    0.000    0.000    0.000    0.000    0.000    0.000 
#
# Total GULP energy -78125.787121 kJ/mol
# GULP energy per Si atom -5580.413366 kJ/mol
# Density = 2.563850 g / cm^3
# Si number density = 25.696988 Si / 1000 Ang^3
#
#
#
# Elastic Constant Matrix: (Units=GPa)
#
#
# Indices 1 2 3 4 5 6 
#
# 1 64.5658 47.9895 36.5159 0.0000 -16.3689 0.0000
# 2 47.9895 133.6381 68.0924 0.0000 -19.7054 0.0000
# 3 36.5159 68.0924 178.9159 0.0000 -20.5851 0.0000
# 4 0.0000 0.0000 0.0000 13.6221 0.0000 -26.5177
# 5 -16.3689 -19.7054 -20.5851 0.0000 38.3028 0.0000
# 6 0.0000 0.0000 0.0000 -26.5177 0.0000 36.3208
#
#
#
# Elastic Compliance Matrix: (Units=1/GPa)
#
#
# Indices 1 2 3 4 5 6 
#
# 1 0.022583 -0.006543 -0.001488 0.000000 0.005485 0.000000
# 2 -0.006543 0.011529 -0.002869 0.000000 0.001593 0.000000
# 3 -0.001488 -0.002869 0.007186 0.000000 0.001750 0.000000
# 4 0.000000 0.000000 0.000000 -0.174266 0.000000 -0.127231
# 5 0.005485 0.001593 0.001750 0.000000 0.030212 0.000000
# 6 0.000000 0.000000 0.000000 -0.127231 0.000000 -0.065358
#
#
# Mechanical properties :
#
#
# Convention : Reuss Voigt Hill
#
# Bulk Modulus (GPa) = 51.28448 75.81278 63.54863
# Shear Modulus (GPa) = -35.76181 32.61728 -1.57227
#
# Velocity S-wave (km/s) = -3.73456 3.56659 -0.78306
# Velocity P-wave (km/s) = 1.18524 6.82110 4.89552
#
# Compressibility (1/GPa) = 0.01949907
#
# Stress axis : x y z
#
# Youngs Moduli (GPa) = 44.28069 86.73602 139.15495
#
# Poissons Ratio (x) = 0.56748 0.20706
# Poissons Ratio (y) = 0.28971 0.39926
# Poissons Ratio (z) = 0.06589 0.24886
#
# Static dielectric constant tensor:
#      x y z
#    x 2.061050 0.000000 0.052730 
#    y 0.000000 2.004670 0.000000 
#    z 0.052730 0.000000 2.059130 
# 
# From -- ./inp_files/10848.got.cif
#   From: 2010.05.17/outbox.cif.g08.bks.cpg/sg13_6_cif.got.tgz:10848.got - 2010.06.03 16:44:36.
