data_PCOD9231931
_publ_section_title
;
Structure prediction by ZEFSAII (Michael W. Deem and Ramdas Pophale) SiO2 
 PCOD9231931
Probable space group: P 2/C
;
_chemical_formula_sum "Si O2"
_cell_formula_units_Z 30
_cell_length_a 13.376893
_cell_length_b 5.641263
_cell_length_c 18.724377
_cell_angle_alpha 90.000000
_cell_angle_beta 105.265948
_cell_angle_gamma 90.000000
_cell_volume 1363.130990
_symmetry_space_group_name_H-M "P 2/C"
_symmetry_group_IT_number 13
_symmetry_cell_setting 'monoclinic'
loop_
_space_group_symop_operation_xyz
x,y,z
-x,y,1/2-z
-x,-y,-z
x,-y,1/2+z
loop_
_atom_site_type_symbol
_atom_site_label
_atom_site_fract_x
_atom_site_fract_y
_atom_site_fract_z
Si Si1 0.352221 0.135522 0.784810
Si Si2 0.294005 0.359264 0.470917
Si Si3 0.500000 0.502567 0.750000
Si Si4 0.027717 0.809952 0.444690
Si Si5 0.461597 0.887392 0.065617
Si Si6 0.775458 0.867349 0.109913
Si Si7 0.650678 0.208697 0.349892
Si Si8 0.840161 0.532640 0.430068
O O1 0.398087 0.354398 0.749204
O O2 0.444462 0.118649 0.860987
O O3 0.248167 0.164542 0.810556
O O4 0.342793 0.930949 0.724096
O O5 0.406960 0.353495 0.528618
O O6 0.270825 0.619853 0.433176
O O7 0.217286 0.309218 0.522404
O O8 0.276894 0.124709 0.418780
O O9 0.458683 0.654089 0.676885
O O10 0.106485 0.883383 0.396627
O O11 0.091948 0.629017 0.505270
O O12 0.920584 0.686149 0.399076
O O13 0.000000 0.000000 0.500000
O O14 0.370796 0.035352 0.088083
O O15 0.500000 0.000000 0.000000
O O16 0.751535 0.370860 0.378378
#
# Coordination Sequence:
#
# PCOD9231931 Si02
#       8
#     4   4   2   4   4   4   4   4
#     4  12  26  44  65 101 147 202 236 293 358 451
#     4  11  23  42  66 112 141 180 237 309 370 425
#     4  12  24  46  72  92 146 208 242 282 356 456
#     4  10  20  42  70 109 137 172 237 315 380 425
#     4  12  23  41  67 102 143 184 244 302 358 424
#     4  11  25  42  71 106 147 185 242 307 377 432
#     4  12  26  47  65 103 147 200 248 288 373 458
#     4  10  23  39  72 101 138 183 232 307 368 433
#
# _framework density 22.008154000000001
#
# number of rings (size 3 to 8) (size 9 to 14) (size 15 to 20)
#    0.000    0.800    5.333    2.400    3.733    0.533 
#    0.000    0.000    0.000    4.800    0.000    0.000 
#    0.000    0.000    0.000    0.000    0.000    0.000 
#
# Total GULP energy -167229.100009 kJ/mol
# GULP energy per Si atom -5574.303334 kJ/mol
# Density = 2.195806 g / cm^3
# Si number density = 22.008154 Si / 1000 Ang^3
#
#
#
# Elastic Constant Matrix: (Units=GPa)
#
#
# Indices 1 2 3 4 5 6 
#
# 1 114.5490 25.6413 24.1985 0.0000 -20.3727 0.0000
# 2 25.6413 74.9766 18.4743 0.0000 -1.1464 0.0000
# 3 24.1985 18.4743 62.4273 0.0000 -10.6674 0.0000
# 4 0.0000 0.0000 0.0000 26.1727 0.0000 13.5343
# 5 -20.3727 -1.1464 -10.6674 0.0000 39.8522 0.0000
# 6 0.0000 0.0000 0.0000 13.5343 0.0000 39.8745
#
#
#
# Elastic Compliance Matrix: (Units=1/GPa)
#
#
# Indices 1 2 3 4 5 6 
#
# 1 0.010770 -0.003001 -0.002474 0.000000 0.004757 0.000000
# 2 -0.003001 0.015245 -0.003705 0.000000 -0.002087 0.000000
# 3 -0.002474 -0.003705 0.018695 0.000000 0.003633 0.000000
# 4 0.000000 0.000000 0.000000 0.046342 0.000000 -0.015729
# 5 0.004757 -0.002087 0.003633 0.000000 0.028437 0.000000
# 6 0.000000 0.000000 0.000000 -0.015729 0.000000 0.030418
#
#
# Mechanical properties :
#
#
# Convention : Reuss Voigt Hill
#
# Bulk Modulus (GPa) = 37.95008 43.17570 40.56289
# Shear Modulus (GPa) = 28.24074 33.42247 30.83160
#
# Velocity S-wave (km/s) = 3.58606 3.90120 3.74694
# Velocity P-wave (km/s) = 5.86749 6.32085 6.09839
#
# Compressibility (1/GPa) = 0.02635041
#
# Stress axis : x y z
#
# Youngs Moduli (GPa) = 92.84731 65.59620 53.49100
#
# Poissons Ratio (x) = 0.19686 0.13233
# Poissons Ratio (y) = 0.27864 0.19817
# Poissons Ratio (z) = 0.22969 0.24302
#
# Static dielectric constant tensor:
#      x y z
#    x 1.797010 0.000000 0.026020 
#    y 0.000000 2.443520 0.000000 
#    z 0.026020 0.000000 1.791630 
# 
# From -- ./inp_files/67604.got.cif
#   From: 2010.05.17/outbox.cif.g08.bks.cpg/sg13_34_cif.got.tgz:67604.got - 2010.06.03 16:44:36.
