data_PCOD9231839
_publ_section_title
;
Structure prediction by ZEFSAII (Michael W. Deem and Ramdas Pophale) SiO2 
 PCOD9231839
Probable space group: P 2/C
;
_chemical_formula_sum "Si O2"
_cell_formula_units_Z 26
_cell_length_a 8.690069
_cell_length_b 14.735871
_cell_length_c 11.582905
_cell_angle_alpha 90.000000
_cell_angle_beta 66.157559
_cell_angle_gamma 90.000000
_cell_volume 1356.676970
_symmetry_space_group_name_H-M "P 2/C"
_symmetry_group_IT_number 13
_symmetry_cell_setting 'monoclinic'
loop_
_space_group_symop_operation_xyz
x,y,z
-x,y,1/2-z
-x,-y,-z
x,-y,1/2+z
loop_
_atom_site_type_symbol
_atom_site_label
_atom_site_fract_x
_atom_site_fract_y
_atom_site_fract_z
Si Si1 0.194831 0.897065 0.397059
Si Si2 0.801637 0.896720 0.534528
Si Si3 0.160378 0.254139 0.284999
Si Si4 0.685738 0.272474 0.494886
Si Si5 0.335065 0.805482 0.139243
Si Si6 0.000000 0.688009 0.250000
Si Si7 0.025822 0.607145 0.493583
O O1 0.228006 0.820315 0.483362
O O2 0.312521 0.872563 0.253677
O O3 0.995177 0.891124 0.429089
O O4 0.229062 0.998589 0.427849
O O5 0.797578 0.831595 0.647567
O O6 0.674188 0.860534 0.477088
O O7 0.000000 0.235720 0.250000
O O8 0.105391 0.337061 0.385345
O O9 0.302112 0.276845 0.147535
O O10 0.495678 0.259513 0.593913
O O11 0.793544 0.355026 0.515771
O O12 0.167683 0.746575 0.195779
O O13 0.004791 0.634926 0.367747
O O14 0.000000 0.500000 0.500000
#
# Coordination Sequence:
#
# PCOD9231839 Si02
#       7
#     4   4   4   4   4   2   4
#     4  11  22  38  63  94 130 175 231 270 324 392
#     4  11  22  38  65  93 127 184 225 271 325 401
#     4  10  20  42  62  91 130 170 214 267 336 396
#     4  11  24  41  65  94 134 174 213 283 335 399
#     4  12  22  43  65  93 137 176 230 276 338 392
#     4  12  22  44  72  94 122 180 220 278 334 406
#     4  11  24  44  73  99 125 169 218 276 348 415
#
# _framework density 19.164472
#
# number of rings (size 3 to 8) (size 9 to 14) (size 15 to 20)
#    0.000    0.923    7.692    0.462    5.385    1.231 
#    2.769    0.769    3.385    0.000    0.000    0.000 
#    0.000    0.000    0.000    0.000    0.000    0.000 
#
# Total GULP energy -145160.922531 kJ/mol
# GULP energy per Si atom -5583.112405 kJ/mol
# Density = 1.912085 g / cm^3
# Si number density = 19.164472 Si / 1000 Ang^3
#
#
#
# Elastic Constant Matrix: (Units=GPa)
#
#
# Indices 1 2 3 4 5 6 
#
# 1 67.7342 56.8553 46.2302 0.0000 -9.7600 0.0000
# 2 56.8553 157.7694 58.5420 0.0000 7.8908 0.0000
# 3 46.2302 58.5420 133.3821 0.0000 15.6244 0.0000
# 4 0.0000 0.0000 0.0000 -14.5100 0.0000 20.3851
# 5 -9.7600 7.8908 15.6244 0.0000 40.2561 0.0000
# 6 0.0000 0.0000 0.0000 20.3851 0.0000 6.2044
#
#
#
# Elastic Compliance Matrix: (Units=1/GPa)
#
#
# Indices 1 2 3 4 5 6 
#
# 1 0.028276 -0.007917 -0.007659 0.000000 0.011380 0.000000
# 2 -0.007917 0.009790 -0.001156 0.000000 -0.003390 0.000000
# 3 -0.007659 -0.001156 0.011367 0.000000 -0.006042 0.000000
# 4 0.000000 0.000000 0.000000 -0.012272 0.000000 0.040320
# 5 0.011380 -0.003390 -0.006042 0.000000 0.030609 0.000000
# 6 0.000000 0.000000 0.000000 0.040320 0.000000 0.028700
#
#
# Mechanical properties :
#
#
# Convention : Reuss Voigt Hill
#
# Bulk Modulus (GPa) = 62.61826 75.79339 69.20583
# Shear Modulus (GPa) = 36.96681 19.54064 28.25373
#
# Velocity S-wave (km/s) = 4.39672 3.19663 3.84380
# Velocity P-wave (km/s) = 7.64983 7.29790 7.47594
#
# Compressibility (1/GPa) = 0.01596978
#
# Stress axis : x y z
#
# Youngs Moduli (GPa) = 35.36546 102.14678 87.97629
#
# Poissons Ratio (x) = 0.80872 0.67378
# Poissons Ratio (y) = 0.28000 0.10167
# Poissons Ratio (z) = 0.27085 0.11804
#
# Static dielectric constant tensor:
#      x y z
#    x 1.653200 0.000000 -0.070070 
#    y 0.000000 1.654950 0.000000 
#    z -0.070070 0.000000 1.660000 
# 
# From -- ./inp_files/30021.got.cif
#   From: 2010.05.17/outbox.cif.g08.bks.cpg/sg13_16_cif.got.tgz:30021.got - 2010.06.03 16:44:36.
