data_PCOD9231481
_publ_section_title
;
Structure prediction by ZEFSAII (Michael W. Deem and Ramdas Pophale) SiO2 
 PCOD9231481
Probable space group: P 2/C
;
_chemical_formula_sum "Si O2"
_cell_formula_units_Z 24
_cell_length_a 14.566273
_cell_length_b 9.299198
_cell_length_c 10.003018
_cell_angle_alpha 90.000000
_cell_angle_beta 99.690284
_cell_angle_gamma 90.000000
_cell_volume 1335.622903
_symmetry_space_group_name_H-M "P 2/C"
_symmetry_group_IT_number 13
_symmetry_cell_setting 'monoclinic'
loop_
_space_group_symop_operation_xyz
x,y,z
-x,y,1/2-z
-x,-y,-z
x,-y,1/2+z
loop_
_atom_site_type_symbol
_atom_site_label
_atom_site_fract_x
_atom_site_fract_y
_atom_site_fract_z
Si Si1 0.225636 0.636586 0.537296
Si Si2 0.617240 0.876821 0.925345
Si Si3 0.600299 0.859039 0.610142
Si Si4 0.757650 0.359783 0.144332
Si Si5 0.077496 0.140584 0.380359
Si Si6 0.951715 0.189402 0.603674
O O1 0.308999 0.750523 0.530627
O O2 0.234639 0.495866 0.449352
O O3 0.227819 0.602667 0.695973
O O4 0.128783 0.712021 0.474861
O O5 0.619763 0.908625 0.767319
O O6 0.510252 0.835105 0.931375
O O7 0.634392 0.018733 0.016707
O O8 0.657287 0.713938 0.604208
O O9 0.833062 0.237519 0.124389
O O10 0.000000 0.176178 0.250000
O O11 0.031901 0.169779 0.512924
O O12 0.091743 0.968444 0.375863
O O13 0.000000 0.245556 0.750000
#
# Coordination Sequence:
#
# PCOD9231481 Si02
#       6
#     4   4   4   4   4   4
#     4  11  24  39  54  84 117 154 187 229 279 337
#     4   9  19  38  63  86 114 143 188 233 282 330
#     4   9  19  38  62  88 112 146 184 236 280 331
#     4  11  24  38  56  82 119 153 188 227 280 334
#     4  10  20  40  60  82 111 147 186 239 283 327
#     4  10  22  38  62  85 108 145 193 236 283 332
#
# _framework density 17.969145000000001
#
# number of rings (size 3 to 8) (size 9 to 14) (size 15 to 20)
#    0.000    2.000    1.667    1.000    2.333    3.333 
#    0.000    0.000    0.000    0.000    0.000    0.000 
#    0.000    0.000    0.000    0.000    0.000    0.000 
#
# Total GULP energy -133978.757758 kJ/mol
# GULP energy per Si atom -5582.448240 kJ/mol
# Density = 1.792825 g / cm^3
# Si number density = 17.969145 Si / 1000 Ang^3
#
#
#
# Elastic Constant Matrix: (Units=GPa)
#
#
# Indices 1 2 3 4 5 6 
#
# 1 50.4162 35.8273 34.7580 0.0000 1.7510 0.0000
# 2 35.8273 70.8409 45.8964 0.0000 1.1169 0.0000
# 3 34.7580 45.8964 87.5973 0.0000 3.9108 0.0000
# 4 0.0000 0.0000 0.0000 29.2298 0.0000 -4.2445
# 5 1.7510 1.1169 3.9108 0.0000 24.2288 0.0000
# 6 0.0000 0.0000 0.0000 -4.2445 0.0000 11.2400
#
#
#
# Elastic Compliance Matrix: (Units=1/GPa)
#
#
# Indices 1 2 3 4 5 6 
#
# 1 0.033355 -0.012572 -0.006614 0.000000 -0.000763 0.000000
# 2 -0.012572 0.026126 -0.008750 0.000000 0.001117 0.000000
# 3 -0.006614 -0.008750 0.018720 0.000000 -0.002140 0.000000
# 4 0.000000 0.000000 0.000000 0.036197 0.000000 0.013669
# 5 -0.000763 0.001117 -0.002140 0.000000 0.041622 0.000000
# 6 0.000000 0.000000 0.000000 0.013669 0.000000 0.094130
#
#
# Mechanical properties :
#
#
# Convention : Reuss Voigt Hill
#
# Bulk Modulus (GPa) = 44.78389 49.09088 46.93738
# Shear Modulus (GPa) = 15.95075 19.09788 17.52432
#
# Velocity S-wave (km/s) = 2.98262 3.26362 3.12628
# Velocity P-wave (km/s) = 6.06944 6.44829 6.26173
#
# Compressibility (1/GPa) = 0.02232946
#
# Stress axis : x y z
#
# Youngs Moduli (GPa) = 29.98024 38.27665 53.41815
#
# Poissons Ratio (x) = 0.48122 0.35330
# Poissons Ratio (y) = 0.37692 0.46740
# Poissons Ratio (z) = 0.19829 0.33491
#
# Static dielectric constant tensor:
#      x y z
#    x 1.612560 0.000000 -0.004040 
#    y 0.000000 1.583780 0.000000 
#    z -0.004040 0.000000 1.607460 
# 
# From -- ./inp_files/18158.got.cif
#   From: 2010.05.17/outbox.cif.g08.bks.cpg/sg13_10_cif.got.tgz:18158.got - 2010.06.03 16:44:36.
