data_PCOD9231375
_publ_section_title
;
Structure prediction by ZEFSAII (Michael W. Deem and Ramdas Pophale) SiO2 
 PCOD9231375
Probable space group: P 2/C
;
_chemical_formula_sum "Si O2"
_cell_formula_units_Z 30
_cell_length_a 14.708659
_cell_length_b 13.513467
_cell_length_c 15.130761
_cell_angle_alpha 90.000000
_cell_angle_beta 27.963628
_cell_angle_gamma 90.000000
_cell_volume 1410.233487
_symmetry_space_group_name_H-M "P 2/C"
_symmetry_group_IT_number 13
_symmetry_cell_setting 'monoclinic'
loop_
_space_group_symop_operation_xyz
x,y,z
-x,y,1/2-z
-x,-y,-z
x,-y,1/2+z
loop_
_atom_site_type_symbol
_atom_site_label
_atom_site_fract_x
_atom_site_fract_y
_atom_site_fract_z
Si Si1 0.407311 0.859282 0.419890
Si Si2 0.116251 0.909868 0.799235
Si Si3 0.869240 0.665299 0.156802
Si Si4 0.788977 0.538598 0.399922
Si Si5 0.295240 0.272715 0.249933
Si Si6 0.500000 0.321669 0.250000
Si Si7 0.772118 0.113631 0.711871
Si Si8 0.480629 0.643366 0.415895
O O1 0.500000 0.896075 0.250000
O O2 0.195954 0.890624 0.633243
O O3 0.550724 0.896024 0.374503
O O4 0.422527 0.740354 0.410719
O O5 0.231399 0.832972 0.764604
O O6 0.156901 0.022234 0.791769
O O7 0.895435 0.886366 0.014518
O O8 0.832471 0.599298 0.273469
O O9 0.813074 0.780709 0.221193
O O10 0.713093 0.630823 0.217157
O O11 0.093712 0.667678 0.936875
O O12 0.678594 0.611376 0.562193
O O13 0.639801 0.450265 0.510677
O O14 0.000000 0.502790 0.250000
O O15 0.414606 0.264343 0.238313
O O16 0.418833 0.330074 0.069762
#
# Coordination Sequence:
#
# PCOD9231375 Si02
#       8
#     4   4   4   4   4   2   4   4
#     4  10  21  38  58  89 123 156 201 254 305 354
#     4   9  19  39  63  89 121 162 206 240 308 376
#     4  10  20  39  65  85 119 160 205 250 306 370
#     4  12  25  41  58  90 121 160 208 257 312 370
#     4  10  21  39  62  91 120 163 201 254 312 370
#     4  12  24  38  60  88 126 154 204 262 306 362
#     4   9  19  38  65  87 118 164 200 249 304 374
#     4  10  23  41  60  85 119 164 203 252 311 369
#
# _framework density 21.273073
#
# number of rings (size 3 to 8) (size 9 to 14) (size 15 to 20)
#    0.000    1.867    2.667    0.800    0.933    2.133 
#    8.400    0.000    0.000    0.000    0.000    0.000 
#    0.000    0.000    0.000    0.000    0.000    0.000 
#
# Total GULP energy -167542.629733 kJ/mol
# GULP energy per Si atom -5584.754324 kJ/mol
# Density = 2.122465 g / cm^3
# Si number density = 21.273073 Si / 1000 Ang^3
#
#
#
# Elastic Constant Matrix: (Units=GPa)
#
#
# Indices 1 2 3 4 5 6 
#
# 1 49.0321 19.8989 27.6430 0.0000 -18.1135 0.0000
# 2 19.8989 52.6777 1.4864 0.0000 -10.1069 0.0000
# 3 27.6430 1.4864 117.5458 0.0000 -10.0257 0.0000
# 4 0.0000 0.0000 0.0000 26.6220 0.0000 -7.3468
# 5 -18.1135 -10.1069 -10.0257 0.0000 38.1692 0.0000
# 6 0.0000 0.0000 0.0000 -7.3468 0.0000 2.6496
#
#
#
# Elastic Compliance Matrix: (Units=1/GPa)
#
#
# Indices 1 2 3 4 5 6 
#
# 1 0.032078 -0.009841 -0.006488 0.000000 0.010913 0.000000
# 2 -0.009841 0.023023 0.002194 0.000000 0.002003 0.000000
# 3 -0.006488 0.002194 0.010017 0.000000 0.000133 0.000000
# 4 0.000000 0.000000 0.000000 0.159984 0.000000 0.443610
# 5 0.010913 0.002003 0.000133 0.000000 0.031943 0.000000
# 6 0.000000 0.000000 0.000000 0.443610 0.000000 1.607478
#
#
# Mechanical properties :
#
#
# Convention : Reuss Voigt Hill
#
# Bulk Modulus (GPa) = 27.13901 35.25692 31.19797
# Shear Modulus (GPa) = 2.62457 24.83663 13.73060
#
# Velocity S-wave (km/s) = 1.11195 3.42060 2.54332
# Velocity P-wave (km/s) = 3.79917 5.67540 4.82928
#
# Compressibility (1/GPa) = 0.03684732
#
# Stress axis : x y z
#
# Youngs Moduli (GPa) = 31.17408 43.43498 99.83235
#
# Poissons Ratio (x) = 0.42742 0.64776
# Poissons Ratio (y) = 0.30677 -0.21902
# Poissons Ratio (z) = 0.20227 -0.09529
#
# Static dielectric constant tensor:
#      x y z
#    x 1.786490 0.000000 -0.001370 
#    y 0.000000 1.735690 0.000000 
#    z -0.001370 0.000000 1.793920 
# 
# From -- ./inp_files/53868.got.cif
#   From: 2010.05.17/outbox.cif.g08.bks.cpg/sg13_27_cif.got.tgz:53868.got - 2010.06.03 16:44:36.
