data_PCOD9231344
_publ_section_title
;
Structure prediction by ZEFSAII (Michael W. Deem and Ramdas Pophale) SiO2 
 PCOD9231344
Probable space group: P 2/C
;
_chemical_formula_sum "Si O2"
_cell_formula_units_Z 30
_cell_length_a 25.379592
_cell_length_b 8.537931
_cell_length_c 17.108872
_cell_angle_alpha 90.000000
_cell_angle_beta 154.621400
_cell_angle_gamma 90.000000
_cell_volume 1588.943657
_symmetry_space_group_name_H-M "P 2/C"
_symmetry_group_IT_number 13
_symmetry_cell_setting 'monoclinic'
loop_
_space_group_symop_operation_xyz
x,y,z
-x,y,1/2-z
-x,-y,-z
x,-y,1/2+z
loop_
_atom_site_type_symbol
_atom_site_label
_atom_site_fract_x
_atom_site_fract_y
_atom_site_fract_z
Si Si1 0.126748 0.824683 0.718085
Si Si2 0.623586 0.680469 0.067697
Si Si3 0.734982 0.662765 0.729890
Si Si4 0.696614 0.965075 0.423668
Si Si5 0.500000 0.175740 0.250000
Si Si6 0.861928 0.100349 0.890740
Si Si7 0.866459 0.845255 0.034290
Si Si8 0.504552 0.165903 0.549726
O O1 0.180321 0.696861 0.731198
O O2 0.985215 0.797277 0.549690
O O3 0.137338 0.987768 0.683785
O O4 0.209570 0.855415 0.904145
O O5 0.676264 0.506750 0.143459
O O6 0.738102 0.800511 0.228727
O O7 0.535862 0.710949 0.024147
O O8 0.552887 0.722111 0.892757
O O9 0.623829 0.789245 0.582889
O O10 0.811105 0.700168 0.910920
O O11 0.607320 0.063877 0.360468
O O12 0.772735 0.089582 0.473652
O O13 0.611277 0.856150 0.255518
O O14 0.876021 0.985449 0.983594
O O15 0.000000 0.814339 0.250000
O O16 0.500000 0.000000 0.500000
#
# Coordination Sequence:
#
# PCOD9231344 Si02
#       8
#     4   4   4   4   2   4   4   4
#     4  10  21  38  62  92 116 158 208 263 302 354
#     4  12  24  41  61  92 132 167 200 250 320 381
#     4  11  25  41  59  91 134 167 196 251 327 376
#     4  12  21  36  66  95 115 153 219 269 291 354
#     4  12  24  36  62  92 126 164 200 252 314 370
#     4  10  20  39  64  87 121 159 212 257 300 358
#     4  11  21  40  66  92 117 164 217 262 301 360
#     4  12  21  40  65  89 119 164 216 256 299 358
#
# _framework density 18.880466999999999
#
# number of rings (size 3 to 8) (size 9 to 14) (size 15 to 20)
#    0.000    0.800    6.667    2.000    0.000    1.600 
#    0.000    2.000    0.000    0.000    0.000    0.000 
#    0.000    0.000    0.000    0.000    0.000    0.000 
#
# Total GULP energy -167651.655998 kJ/mol
# GULP energy per Si atom -5588.388533 kJ/mol
# Density = 1.883749 g / cm^3
# Si number density = 18.880467 Si / 1000 Ang^3
#
#
#
# Elastic Constant Matrix: (Units=GPa)
#
#
# Indices 1 2 3 4 5 6 
#
# 1 73.4713 -8.2745 15.3957 0.0000 4.2656 0.0000
# 2 -8.2745 48.7274 8.3777 0.0000 -4.2361 0.0000
# 3 15.3957 8.3777 129.6490 0.0000 -14.0498 0.0000
# 4 0.0000 0.0000 0.0000 17.3039 0.0000 6.0239
# 5 4.2656 -4.2361 -14.0498 0.0000 35.6516 0.0000
# 6 0.0000 0.0000 0.0000 6.0239 0.0000 16.3470
#
#
#
# Elastic Compliance Matrix: (Units=1/GPa)
#
#
# Indices 1 2 3 4 5 6 
#
# 1 0.014486 0.002630 -0.002135 0.000000 -0.002262 0.000000
# 2 0.002630 0.021371 -0.001517 0.000000 0.001627 0.000000
# 3 -0.002135 -0.001517 0.008433 0.000000 0.003399 0.000000
# 4 0.000000 0.000000 0.000000 0.066295 0.000000 -0.024430
# 5 -0.002262 0.001627 0.003399 0.000000 0.029852 0.000000
# 6 0.000000 0.000000 0.000000 -0.024430 0.000000 0.070176
#
#
# Mechanical properties :
#
#
# Convention : Reuss Voigt Hill
#
# Bulk Modulus (GPa) = 23.67083 31.42727 27.54905
# Shear Modulus (GPa) = 22.05175 29.61709 25.83442
#
# Velocity S-wave (km/s) = 3.42126 3.96493 3.70309
# Velocity P-wave (km/s) = 5.30765 6.13534 5.73644
#
# Compressibility (1/GPa) = 0.04224608
#
# Stress axis : x y z
#
# Youngs Moduli (GPa) = 69.03324 46.79182 118.58146
#
# Poissons Ratio (x) = -0.12308 0.25321
# Poissons Ratio (y) = -0.18158 0.17989
# Poissons Ratio (z) = 0.14741 0.07098
#
# Static dielectric constant tensor:
#      x y z
#    x 1.665120 0.000000 -0.012840 
#    y 0.000000 1.628930 0.000000 
#    z -0.012840 0.000000 1.773890 
# 
# From -- ./inp_files/58702.got.cif
#   From: 2010.05.17/outbox.cif.g08.bks.cpg/sg13_30_cif.got.tgz:58702.got - 2010.06.03 16:44:36.
