data_PCOD9231208
_publ_section_title
;
Structure prediction by ZEFSAII (Michael W. Deem and Ramdas Pophale) SiO2 
 PCOD9231208
Probable space group: P 2/C
;
_chemical_formula_sum "Si O2"
_cell_formula_units_Z 32
_cell_length_a 14.725743
_cell_length_b 11.943773
_cell_length_c 15.030328
_cell_angle_alpha 90.000000
_cell_angle_beta 143.400923
_cell_angle_gamma 90.000000
_cell_volume 1576.114941
_symmetry_space_group_name_H-M "P 2/C"
_symmetry_group_IT_number 13
_symmetry_cell_setting 'monoclinic'
loop_
_space_group_symop_operation_xyz
x,y,z
-x,y,1/2-z
-x,-y,-z
x,-y,1/2+z
loop_
_atom_site_type_symbol
_atom_site_label
_atom_site_fract_x
_atom_site_fract_y
_atom_site_fract_z
Si Si1 0.180825 0.501060 0.407821
Si Si2 0.326900 0.476026 0.339966
Si Si3 0.816651 0.643385 0.413127
Si Si4 0.180974 0.022801 0.876059
Si Si5 0.846169 0.717678 0.873038
Si Si6 0.836233 0.255996 0.573597
Si Si7 0.675863 0.879249 0.363141
Si Si8 0.826236 0.973998 0.831961
O O1 0.249048 0.448929 0.373066
O O2 0.209059 0.435436 0.521188
O O3 0.242151 0.628277 0.460800
O O4 0.000000 0.506219 0.250000
O O5 0.500000 0.500000 0.500000
O O6 0.251280 0.580305 0.226925
O O7 0.290393 0.367900 0.251781
O O8 0.740533 0.762729 0.375340
O O9 0.996698 0.664870 0.540145
O O10 0.243164 0.139785 0.964508
O O11 0.000000 0.019560 0.750000
O O12 0.205872 0.023430 0.790406
O O13 0.244919 0.919986 0.983241
O O14 0.815223 0.840739 0.811598
O O15 0.867389 0.736136 0.994145
O O16 0.000000 0.253173 0.750000
O O17 0.500000 0.869605 0.250000
O O18 0.717453 0.972560 0.321209
O O19 0.000000 0.000000 0.000000
#
# Coordination Sequence:
#
# PCOD9231208 Si02
#       8
#     4   4   4   4   4   4   4   4
#     4  11  23  42  70 101 134 183 234 282 346 420
#     4  12  29  46  66 106 147 183 235 296 367 420
#     4  12  25  45  75  99 142 186 243 292 349 433
#     4  11  22  42  72 104 138 185 241 292 349 426
#     4  12  22  46  76 103 137 188 244 297 343 430
#     4  10  20  38  69 104 133 172 235 295 343 402
#     4  12  29  46  68 107 149 187 236 304 368 424
#     4  12  23  45  76 108 140 189 247 295 353 432
#
# _framework density 20.303089
#
# number of rings (size 3 to 8) (size 9 to 14) (size 15 to 20)
#    0.000    0.500    6.250    2.625    5.250    1.000 
#    2.250    0.000    0.000    0.000    0.000    0.000 
#    0.000    0.000    0.000    0.000    0.000    0.000 
#
# Total GULP energy -178818.899198 kJ/mol
# GULP energy per Si atom -5588.090600 kJ/mol
# Density = 2.025688 g / cm^3
# Si number density = 20.303089 Si / 1000 Ang^3
#
#
#
# Elastic Constant Matrix: (Units=GPa)
#
#
# Indices 1 2 3 4 5 6 
#
# 1 78.5358 5.4880 51.5027 0.0000 -20.9809 0.0000
# 2 5.4880 118.0463 44.4559 0.0000 1.3871 0.0000
# 3 51.5027 44.4559 87.6452 0.0000 -6.0555 0.0000
# 4 0.0000 0.0000 0.0000 36.9724 0.0000 -16.7627
# 5 -20.9809 1.3871 -6.0555 0.0000 40.9561 0.0000
# 6 0.0000 0.0000 0.0000 -16.7627 0.0000 30.0544
#
#
#
# Elastic Compliance Matrix: (Units=1/GPa)
#
#
# Indices 1 2 3 4 5 6 
#
# 1 0.026958 0.005311 -0.017775 0.000000 0.011002 0.000000
# 2 0.005311 0.011572 -0.008921 0.000000 0.001010 0.000000
# 3 -0.017775 -0.008921 0.026037 0.000000 -0.004954 0.000000
# 4 0.000000 0.000000 0.000000 0.036202 0.000000 0.020191
# 5 0.011002 0.001010 -0.004954 0.000000 0.029286 0.000000
# 6 0.000000 0.000000 0.000000 0.020191 0.000000 0.044535
#
#
# Mechanical properties :
#
#
# Convention : Reuss Voigt Hill
#
# Bulk Modulus (GPa) = 45.87579 54.12448 50.00013
# Shear Modulus (GPa) = 22.25937 33.78196 28.02067
#
# Velocity S-wave (km/s) = 3.31472 4.08350 3.71902
# Velocity P-wave (km/s) = 6.10691 6.99638 6.56672
#
# Compressibility (1/GPa) = 0.02179799
#
# Stress axis : x y z
#
# Youngs Moduli (GPa) = 37.09517 86.41483 38.40620
#
# Poissons Ratio (x) = -0.45899 0.68267
# Poissons Ratio (y) = -0.19703 0.34262
# Poissons Ratio (z) = 0.65937 0.77091
#
# Static dielectric constant tensor:
#      x y z
#    x 1.713970 0.000000 -0.027240 
#    y 0.000000 1.793860 0.000000 
#    z -0.027240 0.000000 1.689270 
# 
# From -- ./inp_files/53723.got.cif
#   From: 2010.05.17/outbox.cif.g08.bks.cpg/sg13_27_cif.got.tgz:53723.got - 2010.06.03 16:44:36.
