data_PCOD9231114
_publ_section_title
;
Structure prediction by ZEFSAII (Michael W. Deem and Ramdas Pophale) SiO2 
 PCOD9231114
Probable space group: P 2/C
;
_chemical_formula_sum "Si O2"
_cell_formula_units_Z 28
_cell_length_a 15.200211
_cell_length_b 7.061630
_cell_length_c 13.195877
_cell_angle_alpha 90.000000
_cell_angle_beta 63.886535
_cell_angle_gamma 90.000000
_cell_volume 1271.840036
_symmetry_space_group_name_H-M "P 2/C"
_symmetry_group_IT_number 13
_symmetry_cell_setting 'monoclinic'
loop_
_space_group_symop_operation_xyz
x,y,z
-x,y,1/2-z
-x,-y,-z
x,-y,1/2+z
loop_
_atom_site_type_symbol
_atom_site_label
_atom_site_fract_x
_atom_site_fract_y
_atom_site_fract_z
Si Si1 0.500000 0.421924 0.750000
Si Si2 0.000000 0.316147 0.250000
Si Si3 0.719676 0.395115 0.935881
Si Si4 0.307344 0.990810 0.933755
Si Si5 0.566648 0.710268 0.010212
Si Si6 0.633264 0.735777 0.760163
Si Si7 0.849207 0.293598 0.489813
Si Si8 0.170908 0.492472 0.297455
O O1 0.501098 0.310474 0.855847
O O2 0.592856 0.561698 0.713151
O O3 0.079168 0.429541 0.276608
O O4 0.934888 0.222253 0.371609
O O5 0.766488 0.361550 0.802209
O O6 0.718904 0.204296 0.998204
O O7 0.615833 0.500405 0.976736
O O8 0.784297 0.556429 0.958235
O O9 0.366942 0.924791 0.805511
O O10 0.362510 0.124493 0.984778
O O11 0.214646 0.113291 0.947865
O O12 0.561367 0.758067 0.893415
O O13 0.746208 0.674190 0.729191
O O14 0.869904 0.413682 0.580129
#
# Coordination Sequence:
#
# PCOD9231114 Si02
#       8
#     2   2   4   4   4   4   4   4
#     4  12  22  46  66  98 138 166 218 276 318 398
#     4  10  22  40  66  92 140 164 216 268 322 392
#     4   9  19  39  62  91 125 167 215 262 310 385
#     4  11  21  41  66  96 130 172 223 264 320 393
#     4  10  23  40  64  95 132 171 214 270 326 380
#     4  11  23  42  71  94 131 177 217 269 331 379
#     4  10  20  38  64  94 126 170 212 266 321 383
#     4  10  20  40  69  90 126 178 213 261 330 377
#
# _framework density 22.015347999999999
#
# number of rings (size 3 to 8) (size 9 to 14) (size 15 to 20)
#    0.000    1.714    2.857    2.571    2.000    0.571 
#    0.000    5.000    0.000    0.000    0.000    0.000 
#    0.000    0.000    0.000    0.000    0.000    0.000 
#
# Total GULP energy -156039.998317 kJ/mol
# GULP energy per Si atom -5572.857083 kJ/mol
# Density = 2.196524 g / cm^3
# Si number density = 22.015348 Si / 1000 Ang^3
#
#
#
# Elastic Constant Matrix: (Units=GPa)
#
#
# Indices 1 2 3 4 5 6 
#
# 1 48.7739 8.0444 7.2733 0.0000 5.3137 0.0000
# 2 8.0444 77.1820 24.8704 0.0000 -2.4982 0.0000
# 3 7.2733 24.8704 159.0798 0.0000 17.5842 0.0000
# 4 0.0000 0.0000 0.0000 36.0865 0.0000 6.9452
# 5 5.3137 -2.4982 17.5842 0.0000 30.0886 0.0000
# 6 0.0000 0.0000 0.0000 6.9452 0.0000 37.9543
#
#
#
# Elastic Compliance Matrix: (Units=1/GPa)
#
#
# Indices 1 2 3 4 5 6 
#
# 1 0.021327 -0.002285 -0.000193 0.000000 -0.003843 0.000000
# 2 -0.002285 0.014073 -0.002426 0.000000 0.002990 0.000000
# 3 -0.000193 -0.002426 0.007155 0.000000 -0.004349 0.000000
# 4 0.000000 0.000000 0.000000 0.028723 0.000000 -0.005256
# 5 -0.003843 0.002990 -0.004349 0.000000 0.036704 0.000000
# 6 0.000000 0.000000 0.000000 -0.005256 0.000000 0.027309
#
#
# Mechanical properties :
#
#
# Convention : Reuss Voigt Hill
#
# Bulk Modulus (GPa) = 30.53742 40.60132 35.56937
# Shear Modulus (GPa) = 32.04816 37.14904 34.59860
#
# Velocity S-wave (km/s) = 3.81953 4.11227 3.96860
# Velocity P-wave (km/s) = 5.77519 6.40547 6.09848
#
# Compressibility (1/GPa) = 0.03274671
#
# Stress axis : x y z
#
# Youngs Moduli (GPa) = 46.88855 71.05740 139.76242
#
# Poissons Ratio (x) = 0.16237 0.02698
# Poissons Ratio (y) = 0.10714 0.33909
# Poissons Ratio (z) = 0.00905 0.17240
#
# Static dielectric constant tensor:
#      x y z
#    x 1.879160 0.000000 -0.019700 
#    y 0.000000 1.747120 0.000000 
#    z -0.019700 0.000000 1.889400 
# 
# From -- ./inp_files/54593.got.cif
#   From: 2010.05.17/outbox.cif.g08.bks.cpg/sg13_28_cif.got.tgz:54593.got - 2010.06.03 16:44:36.
