data_PCOD9231162
_publ_section_title
;
Structure prediction by ZEFSAII (Michael W. Deem and Ramdas Pophale) SiO2 
 PCOD9231162
Probable space group: P 2/C
;
_chemical_formula_sum "Si O2"
_cell_formula_units_Z 20
_cell_length_a 11.612477
_cell_length_b 10.511163
_cell_length_c 11.289335
_cell_angle_alpha 90.000000
_cell_angle_beta 127.139267
_cell_angle_gamma 90.000000
_cell_volume 1098.487527
_symmetry_space_group_name_H-M "P 2/C"
_symmetry_group_IT_number 13
_symmetry_cell_setting 'monoclinic'
loop_
_space_group_symop_operation_xyz
x,y,z
-x,y,1/2-z
-x,-y,-z
x,-y,1/2+z
loop_
_atom_site_type_symbol
_atom_site_label
_atom_site_fract_x
_atom_site_fract_y
_atom_site_fract_z
Si Si1 0.500000 0.757863 0.750000
Si Si2 0.000000 0.293177 0.750000
Si Si3 0.686776 0.593595 0.040839
Si Si4 0.453108 0.323052 0.585221
Si Si5 0.630421 0.910857 0.617780
Si Si6 0.064893 0.957849 0.166195
O O1 0.387112 0.669877 0.611871
O O2 0.587989 0.843035 0.713285
O O3 0.144248 0.375328 0.853114
O O4 0.033534 0.192786 0.664390
O O5 0.599187 0.647453 0.100428
O O6 0.646914 0.446466 0.998314
O O7 0.500000 0.307204 0.750000
O O8 0.369820 0.201164 0.480436
O O9 0.500000 0.000000 0.500000
O O10 0.770343 0.997218 0.723093
O O11 0.000000 0.013120 0.250000
O O12 0.000000 0.000000 0.000000
#
# Coordination Sequence:
#
# PCOD9231162 Si02
#       6
#     2   2   4   4   4   4
#     4  10  20  38  66  86 126 162 214 256 320 370
#     4  10  22  40  64  86 128 170 208 256 324 380
#     4  10  20  41  64  89 120 171 204 262 320 367
#     4  10  22  40  66  94 125 158 219 266 303 380
#     4  11  24  38  66  95 122 166 212 258 315 379
#     4  10  23  40  61  90 132 168 205 262 318 379
#
# _framework density 18.206852000000001
#
# number of rings (size 3 to 8) (size 9 to 14) (size 15 to 20)
#    0.600    1.200    1.000    3.600    4.200    1.600 
#    1.800    1.000    0.000    0.000    0.000    0.000 
#    0.000    0.000    0.000    0.000    0.000    0.000 
#
# Total GULP energy -111496.487718 kJ/mol
# GULP energy per Si atom -5574.824386 kJ/mol
# Density = 1.816541 g / cm^3
# Si number density = 18.206852 Si / 1000 Ang^3
#
#
#
# Elastic Constant Matrix: (Units=GPa)
#
#
# Indices 1 2 3 4 5 6 
#
# 1 89.4244 54.4505 93.6276 0.0000 27.4351 0.0000
# 2 54.4505 94.2394 44.5863 0.0000 10.4004 0.0000
# 3 93.6276 44.5863 141.6319 0.0000 7.1433 0.0000
# 4 0.0000 0.0000 0.0000 7.1322 0.0000 9.9019
# 5 27.4351 10.4004 7.1433 0.0000 48.6816 0.0000
# 6 0.0000 0.0000 0.0000 9.9019 0.0000 31.4463
#
#
#
# Elastic Compliance Matrix: (Units=1/GPa)
#
#
# Indices 1 2 3 4 5 6 
#
# 1 0.089422 -0.023986 -0.049647 0.000000 -0.037986 0.000000
# 2 -0.023986 0.019120 0.009431 0.000000 0.008049 0.000000
# 3 -0.049647 0.009431 0.035867 0.000000 0.020701 0.000000
# 4 0.000000 0.000000 0.000000 0.249115 0.000000 -0.078442
# 5 -0.037986 0.008049 0.020701 0.000000 0.037192 0.000000
# 6 0.000000 0.000000 0.000000 -0.078442 0.000000 0.056500
#
#
# Mechanical properties :
#
#
# Convention : Reuss Voigt Hill
#
# Bulk Modulus (GPa) = 62.47755 78.95830 70.71792
# Shear Modulus (GPa) = 8.05213 26.29409 17.17311
#
# Velocity S-wave (km/s) = 2.10527 3.80437 3.07452
# Velocity P-wave (km/s) = 6.34819 7.92207 7.17839
#
# Compressibility (1/GPa) = 0.01600575
#
# Stress axis : x y z
#
# Youngs Moduli (GPa) = 11.18293 52.30189 27.88071
#
# Poissons Ratio (x) = 1.25452 1.38419
# Poissons Ratio (y) = 0.26824 -0.26296
# Poissons Ratio (z) = 0.55520 -0.49328
#
# Static dielectric constant tensor:
#      x y z
#    x 1.642380 0.000000 -0.026510 
#    y 0.000000 1.559090 0.000000 
#    z -0.026510 0.000000 1.626560 
# 
# From -- ./inp_files/29030.got.cif
#   From: 2010.05.17/outbox.cif.g08.bks.cpg/sg13_15_cif.got.tgz:29030.got - 2010.06.03 16:44:36.
