data_PCOD9231783
_publ_section_title
;
Structure prediction by ZEFSAII (Michael W. Deem and Ramdas Pophale) SiO2 
 PCOD9231783
Probable space group: P 2/C
;
_chemical_formula_sum "Si O2"
_cell_formula_units_Z 28
_cell_length_a 21.451634
_cell_length_b 7.793438
_cell_length_c 19.413992
_cell_angle_alpha 90.000000
_cell_angle_beta 21.201512
_cell_angle_gamma 90.000000
_cell_volume 1173.793733
_symmetry_space_group_name_H-M "P 2/C"
_symmetry_group_IT_number 13
_symmetry_cell_setting 'monoclinic'
loop_
_space_group_symop_operation_xyz
x,y,z
-x,y,1/2-z
-x,-y,-z
x,-y,1/2+z
loop_
_atom_site_type_symbol
_atom_site_label
_atom_site_fract_x
_atom_site_fract_y
_atom_site_fract_z
Si Si1 0.500000 0.845361 0.250000
Si Si2 0.893251 0.333471 0.726131
Si Si3 0.229776 0.526380 0.403305
Si Si4 0.407622 0.583002 0.466791
Si Si5 0.753692 0.135197 0.288928
Si Si6 0.166426 0.185651 0.861130
Si Si7 0.000000 0.301210 0.250000
Si Si8 0.194376 0.005989 0.119991
O O1 0.467448 0.718560 0.347149
O O2 0.334891 0.968716 0.415882
O O3 0.822760 0.276249 0.724309
O O4 0.891486 0.177613 0.782162
O O5 0.087069 0.400768 0.518838
O O6 0.762871 0.483796 0.881680
O O7 0.425463 0.461436 0.200808
O O8 0.236685 0.694832 0.348152
O O9 0.145757 0.585441 0.562499
O O10 0.351458 0.689262 0.593271
O O11 0.740360 0.999477 0.240735
O O12 0.714481 0.033995 0.400198
O O13 0.959919 0.165314 0.081931
O O14 0.070357 0.167140 0.234314
#
# Coordination Sequence:
#
# PCOD9231783 Si02
#       8
#     2   4   4   4   4   4   2   4
#     4  10  20  44  64  84 124 174 216 254 322 392
#     4  11  25  43  61  97 137 163 214 276 334 380
#     4  12  24  41  70  96 129 174 214 269 331 388
#     4  11  23  40  67  95 129 174 213 265 331 387
#     4   9  19  39  67  90 124 179 218 259 317 380
#     4  10  20  41  67  92 132 176 217 266 324 380
#     4  12  22  44  64  94 122 168 232 260 314 400
#     4  10  21  41  65  89 124 166 216 270 312 385
#
# _framework density 23.854277
#
# number of rings (size 3 to 8) (size 9 to 14) (size 15 to 20)
#    0.000    1.429    4.286    1.286    0.000    2.286 
#    2.571    0.000    0.000    0.000    0.000    0.000 
#    0.000    0.000    0.000    0.000    0.000    0.000 
#
# Total GULP energy -156308.140017 kJ/mol
# GULP energy per Si atom -5582.433572 kJ/mol
# Density = 2.379998 g / cm^3
# Si number density = 23.854277 Si / 1000 Ang^3
#
#
#
# Elastic Constant Matrix: (Units=GPa)
#
#
# Indices 1 2 3 4 5 6 
#
# 1 48.9644 4.1237 0.1499 0.0000 14.9733 0.0000
# 2 4.1237 49.0891 17.8904 0.0000 4.3643 0.0000
# 3 0.1499 17.8904 112.2537 0.0000 -3.8268 0.0000
# 4 0.0000 0.0000 0.0000 11.3448 0.0000 11.9774
# 5 14.9733 4.3643 -3.8268 0.0000 34.1132 0.0000
# 6 0.0000 0.0000 0.0000 11.9774 0.0000 23.0447
#
#
#
# Elastic Compliance Matrix: (Units=1/GPa)
#
#
# Indices 1 2 3 4 5 6 
#
# 1 0.023651 -0.000991 -0.000224 0.000000 -0.010279 0.000000
# 2 -0.000991 0.022015 -0.003602 0.000000 -0.002786 0.000000
# 3 -0.000224 -0.003602 0.009538 0.000000 0.001629 0.000000
# 4 0.000000 0.000000 0.000000 0.195325 0.000000 -0.101519
# 5 -0.010279 -0.002786 0.001629 0.000000 0.034365 0.000000
# 6 0.000000 0.000000 0.000000 -0.101519 0.000000 0.096158
#
#
# Mechanical properties :
#
#
# Convention : Reuss Voigt Hill
#
# Bulk Modulus (GPa) = 21.94485 28.29279 25.11882
# Shear Modulus (GPa) = 12.31904 26.24343 19.28123
#
# Velocity S-wave (km/s) = 2.27497 3.32046 2.84613
# Velocity P-wave (km/s) = 4.01499 5.15626 4.62100
#
# Compressibility (1/GPa) = 0.04556879
#
# Stress axis : x y z
#
# Youngs Moduli (GPa) = 42.28232 45.42383 104.84009
#
# Poissons Ratio (x) = 0.04502 0.02349
# Poissons Ratio (y) = 0.04191 0.37766
# Poissons Ratio (z) = 0.00947 0.16363
#
# Static dielectric constant tensor:
#      x y z
#    x 1.957890 0.000000 -0.023710 
#    y 0.000000 1.977800 0.000000 
#    z -0.023710 0.000000 1.972200 
# 
# From -- ./inp_files/82167.got.cif
#   From: 2010.05.17/outbox.cif.g08.bks.cpg/sg13_42_cif.got.tgz:82167.got - 2010.06.03 16:44:36.
