data_PCOD9231006
_publ_section_title
;
Structure prediction by ZEFSAII (Michael W. Deem and Ramdas Pophale) SiO2 
 PCOD9231006
Probable space group: P 2/C
;
_chemical_formula_sum "Si O2"
_cell_formula_units_Z 30
_cell_length_a 8.704701
_cell_length_b 16.751895
_cell_length_c 9.946474
_cell_angle_alpha 90.000000
_cell_angle_beta 93.904077
_cell_angle_gamma 90.000000
_cell_volume 1447.031459
_symmetry_space_group_name_H-M "P 2/C"
_symmetry_group_IT_number 13
_symmetry_cell_setting 'monoclinic'
loop_
_space_group_symop_operation_xyz
x,y,z
-x,y,1/2-z
-x,-y,-z
x,-y,1/2+z
loop_
_atom_site_type_symbol
_atom_site_label
_atom_site_fract_x
_atom_site_fract_y
_atom_site_fract_z
Si Si1 0.318719 0.209507 0.203869
Si Si2 0.266228 0.915554 0.063218
Si Si3 0.254992 0.260351 0.482712
Si Si4 0.821442 0.955655 0.733501
Si Si5 0.144260 0.423799 0.575271
Si Si6 0.500000 0.161731 0.750000
Si Si7 0.618883 0.718622 0.065842
Si Si8 0.788390 0.553247 0.116333
O O1 0.500000 0.213334 0.250000
O O2 0.235298 0.256394 0.320196
O O3 0.271741 0.117243 0.206525
O O4 0.292673 0.246536 0.057085
O O5 0.437231 0.893836 0.126533
O O6 0.194879 0.964853 0.180250
O O7 0.203184 0.826970 0.029278
O O8 0.242053 0.962195 0.922441
O O9 0.174376 0.331195 0.554256
O O10 0.437024 0.275055 0.521145
O O11 0.000000 0.932755 0.750000
O O12 0.239859 0.471762 0.466890
O O13 0.197155 0.456747 0.722987
O O14 0.958760 0.428718 0.567163
O O15 0.371912 0.221412 0.806017
O O16 0.675502 0.628482 0.090651
#
# Coordination Sequence:
#
# PCOD9231006 Si02
#       8
#     4   4   4   4   4   2   4   4
#     4   9  21  39  63  89 121 159 205 256 307 367
#     4  10  23  40  63  89 124 165 205 256 311 364
#     4   9  20  42  60  87 124 157 198 255 303 357
#     4  11  24  42  60  91 128 161 208 259 311 371
#     4  10  22  40  59  86 126 155 200 244 299 364
#     4  10  22  40  64  94 124 164 208 262 308 370
#     4  10  20  38  62  90 118 156 204 245 303 367
#     4  10  22  38  60  90 117 160 200 245 296 361
#
# _framework density 20.732099999999999
#
# number of rings (size 3 to 8) (size 9 to 14) (size 15 to 20)
#    0.000    2.133    0.000    2.800    4.667    3.200 
#    4.800    0.000    0.000    0.000    0.000    0.000 
#    0.000    0.000    0.000    0.000    0.000    0.000 
#
# Total GULP energy -167239.319006 kJ/mol
# GULP energy per Si atom -5574.643967 kJ/mol
# Density = 2.068491 g / cm^3
# Si number density = 20.732100 Si / 1000 Ang^3
#
#
#
# Elastic Constant Matrix: (Units=GPa)
#
#
# Indices 1 2 3 4 5 6 
#
# 1 -22.8855 -3.0701 -53.5923 0.0000 4.4254 0.0000
# 2 -3.0701 54.3715 18.6365 0.0000 0.0220 0.0000
# 3 -53.5923 18.6365 -41.7946 0.0000 2.4384 0.0000
# 4 0.0000 0.0000 0.0000 33.1665 0.0000 -21.8287
# 5 4.4254 0.0220 2.4384 0.0000 13.0734 0.0000
# 6 0.0000 0.0000 0.0000 -21.8287 0.0000 14.5161
#
#
#
# Elastic Compliance Matrix: (Units=1/GPa)
#
#
# Indices 1 2 3 4 5 6 
#
# 1 0.029417 0.012726 -0.032277 0.000000 -0.003959 0.000000
# 2 0.012726 0.021483 -0.006917 0.000000 -0.003054 0.000000
# 3 -0.032277 -0.006917 0.014854 0.000000 0.008167 0.000000
# 4 0.000000 0.000000 0.000000 2.930816 0.000000 4.407256
# 5 -0.003959 -0.003054 0.008167 0.000000 0.076313 0.000000
# 6 0.000000 0.000000 0.000000 4.407256 0.000000 6.696361
#
#
# Mechanical properties :
#
#
# Convention : Reuss Voigt Hill
#
# Bulk Modulus (GPa) = 78.02125 -9.59559 34.21283
# Shear Modulus (GPa) = 0.50883 13.99900 7.25391
#
# Velocity S-wave (km/s) = 0.49595 2.60134 1.87256
# Velocity P-wave (km/s) = 6.16788 2.09386 4.60581
#
# Compressibility (1/GPa) = 0.01281702
#
# Stress axis : x y z
#
# Youngs Moduli (GPa) = 33.99365 46.54894 67.32155
#
# Poissons Ratio (x) = -0.59239 2.17296
# Poissons Ratio (y) = -0.43261 0.46568
# Poissons Ratio (z) = 1.09723 0.32199
#
# Static dielectric constant tensor:
#      x y z
#    x 1.761510 0.000000 0.018400 
#    y 0.000000 1.756810 0.000000 
#    z 0.018400 0.000000 1.806390 
# 
# From -- ./inp_files/30136.got.cif
#   From: 2010.05.17/outbox.cif.g08.bks.cpg/sg13_16_cif.got.tgz:30136.got - 2010.06.03 16:44:36.
