data_PCOD9231716
_publ_section_title
;
Structure prediction by ZEFSAII (Michael W. Deem and Ramdas Pophale) SiO2 
 PCOD9231716
Probable space group: P 2/C
;
_chemical_formula_sum "Si O2"
_cell_formula_units_Z 20
_cell_length_a 9.544468
_cell_length_b 7.042553
_cell_length_c 15.545148
_cell_angle_alpha 90.000000
_cell_angle_beta 131.968992
_cell_angle_gamma 90.000000
_cell_volume 776.893848
_symmetry_space_group_name_H-M "P 2/C"
_symmetry_group_IT_number 13
_symmetry_cell_setting 'monoclinic'
loop_
_space_group_symop_operation_xyz
x,y,z
-x,y,1/2-z
-x,-y,-z
x,-y,1/2+z
loop_
_atom_site_type_symbol
_atom_site_label
_atom_site_fract_x
_atom_site_fract_y
_atom_site_fract_z
Si Si1 0.125588 0.826498 0.426263
Si Si2 0.057911 0.392542 0.373312
Si Si3 0.691813 0.140588 0.921722
Si Si4 0.308379 0.497618 0.206681
Si Si5 0.708730 0.827624 0.185937
O O1 0.124296 0.599681 0.432732
O O2 0.267879 0.861204 0.405077
O O3 0.913514 0.878598 0.308791
O O4 0.191202 0.947744 0.533956
O O5 0.217981 0.241163 0.457265
O O6 0.000000 0.396777 0.250000
O O7 0.870211 0.364885 0.353789
O O8 0.717995 0.311986 0.864049
O O9 0.474831 0.084246 0.845980
O O10 0.500000 0.409325 0.250000
O O11 0.326626 0.603427 0.306839
#
# Coordination Sequence:
#
# PCOD9231716 Si02
#       5
#     4   4   4   4   4
#     4  10  20  41  59  87 128 155 200 260 299 354
#     4  11  22  39  62  90 124 166 200 254 303 359
#     4  11  23  36  67  90 115 168 210 240 307 375
#     4   9  19  41  61  89 129 161 197 259 309 352
#     4   9  19  39  59  86 126 157 194 258 304 350
#
# _framework density 25.743544
#
# number of rings (size 3 to 8) (size 9 to 14) (size 15 to 20)
#    0.000    2.000    4.000    1.200    2.800    4.000 
#    0.000    0.000    0.000   10.800    0.000    0.000 
#    0.000    0.000    0.000    0.000    0.000    0.000 
#
# Total GULP energy -111732.305343 kJ/mol
# GULP energy per Si atom -5586.615267 kJ/mol
# Density = 2.568495 g / cm^3
# Si number density = 25.743544 Si / 1000 Ang^3
#
#
#
# Elastic Constant Matrix: (Units=GPa)
#
#
# Indices 1 2 3 4 5 6 
#
# 1 169.2420 23.0848 37.0318 0.0000 11.5225 0.0000
# 2 23.0848 87.6428 41.1605 0.0000 -3.6257 0.0000
# 3 37.0318 41.1605 49.4099 0.0000 12.1691 0.0000
# 4 0.0000 0.0000 0.0000 18.6125 0.0000 6.1319
# 5 11.5225 -3.6257 12.1691 0.0000 28.6981 0.0000
# 6 0.0000 0.0000 0.0000 6.1319 0.0000 14.1152
#
#
#
# Elastic Compliance Matrix: (Units=1/GPa)
#
#
# Indices 1 2 3 4 5 6 
#
# 1 0.007125 0.001004 -0.006145 0.000000 -0.000128 0.000000
# 2 0.001004 0.021888 -0.021850 0.000000 0.011627 0.000000
# 3 -0.006145 -0.021850 0.048146 0.000000 -0.020709 0.000000
# 4 0.000000 0.000000 0.000000 0.062701 0.000000 -0.027239
# 5 -0.000128 0.011627 -0.020709 0.000000 0.045148 0.000000
# 6 0.000000 0.000000 0.000000 -0.027239 0.000000 0.082679
#
#
# Mechanical properties :
#
#
# Convention : Reuss Voigt Hill
#
# Bulk Modulus (GPa) = 43.14379 56.53877 49.84128
# Shear Modulus (GPa) = 15.17940 25.95299 20.56620
#
# Velocity S-wave (km/s) = 2.43088 3.17856 2.82953
# Velocity P-wave (km/s) = 4.96733 5.95659 5.48431
#
# Compressibility (1/GPa) = 0.02317831
#
# Stress axis : x y z
#
# Youngs Moduli (GPa) = 140.35025 45.68708 20.77005
#
# Poissons Ratio (x) = -0.04586 0.12762
# Poissons Ratio (y) = -0.14087 0.45382
# Poissons Ratio (z) = 0.86240 0.99825
#
# Static dielectric constant tensor:
#      x y z
#    x 2.033990 0.000000 -0.009170 
#    y 0.000000 2.018410 0.000000 
#    z -0.009170 0.000000 2.103690 
# 
# From -- ./inp_files/63923.got.cif
#   From: 2010.05.17/outbox.cif.g08.bks.cpg/sg13_32_cif.got.tgz:63923.got - 2010.06.03 16:44:36.
