data_PCOD9231451
_publ_section_title
;
Structure prediction by ZEFSAII (Michael W. Deem and Ramdas Pophale) SiO2 
 PCOD9231451
Probable space group: P 2/C
;
_chemical_formula_sum "Si O2"
_cell_formula_units_Z 26
_cell_length_a 18.897044
_cell_length_b 9.050406
_cell_length_c 9.866460
_cell_angle_alpha 90.000000
_cell_angle_beta 50.326054
_cell_angle_gamma 90.000000
_cell_volume 1298.790510
_symmetry_space_group_name_H-M "P 2/C"
_symmetry_group_IT_number 13
_symmetry_cell_setting 'monoclinic'
loop_
_space_group_symop_operation_xyz
x,y,z
-x,y,1/2-z
-x,-y,-z
x,-y,1/2+z
loop_
_atom_site_type_symbol
_atom_site_label
_atom_site_fract_x
_atom_site_fract_y
_atom_site_fract_z
Si Si1 0.753491 0.163050 0.615397
Si Si2 0.434716 0.971912 0.205777
Si Si3 0.000000 0.968133 0.750000
Si Si4 0.012406 0.794379 0.467354
Si Si5 0.813503 0.354836 0.792912
Si Si6 0.805495 0.303869 0.276092
Si Si7 0.270525 0.165825 0.374660
O O1 0.643220 0.149599 0.730441
O O2 0.774802 0.238076 0.731179
O O3 0.796850 0.253972 0.440888
O O4 0.783865 0.991068 0.562022
O O5 0.500000 0.936754 0.250000
O O6 0.370115 0.116868 0.307574
O O7 0.500000 0.000000 0.000000
O O8 0.963803 0.084839 0.678685
O O9 0.962162 0.854357 0.912677
O O10 0.905306 0.750265 0.600488
O O11 0.076669 0.657972 0.351145
O O12 0.789490 0.522004 0.788781
O O13 0.776337 0.292944 0.980396
O O14 0.729830 0.219006 0.279299
#
# Coordination Sequence:
#
# PCOD9231451 Si02
#       7
#     4   4   2   4   4   4   4
#     4  10  24  39  66  95 120 155 212 252 303 365
#     4  10  20  39  70  95 116 153 202 258 302 373
#     4  10  24  32  58  82 112 142 218 282 284 316
#     4  11  25  38  58  88 120 172 216 246 302 344
#     4  12  24  41  61  89 133 168 204 252 307 359
#     4  12  24  41  61  89 133 168 204 252 307 359
#     4  10  24  39  66  95 120 155 212 252 303 365
#
# _framework density 20.018625
#
# number of rings (size 3 to 8) (size 9 to 14) (size 15 to 20)
#    0.923    0.308    0.000    6.000   12.923    0.000 
#    0.000    4.615    0.000   18.462    0.000    0.000 
#    0.000    0.000    0.000    0.000    0.000    0.000 
#
# Total GULP energy -144904.149748 kJ/mol
# GULP energy per Si atom -5573.236529 kJ/mol
# Density = 1.997306 g / cm^3
# Si number density = 20.018625 Si / 1000 Ang^3
#
#
#
# Elastic Constant Matrix: (Units=GPa)
#
#
# Indices 1 2 3 4 5 6 
#
# 1 63.1088 -1.0264 9.4420 0.0000 3.1534 0.0000
# 2 -1.0264 71.5177 1.8821 0.0000 -7.2602 0.0000
# 3 9.4420 1.8821 75.9546 0.0000 9.8813 0.0000
# 4 0.0000 0.0000 0.0000 18.4775 0.0000 7.8585
# 5 3.1534 -7.2602 9.8813 0.0000 39.1176 0.0000
# 6 0.0000 0.0000 0.0000 7.8585 0.0000 18.6506
#
#
#
# Elastic Compliance Matrix: (Units=1/GPa)
#
#
# Indices 1 2 3 4 5 6 
#
# 1 0.016174 0.000203 -0.001914 0.000000 -0.000783 0.000000
# 2 0.000203 0.014292 -0.000747 0.000000 0.002825 0.000000
# 3 -0.001914 -0.000747 0.013876 0.000000 -0.003490 0.000000
# 4 0.000000 0.000000 0.000000 0.065936 0.000000 -0.027782
# 5 -0.000783 0.002825 -0.003490 0.000000 0.027033 0.000000
# 6 0.000000 0.000000 0.000000 -0.027782 0.000000 0.065324
#
#
# Mechanical properties :
#
#
# Convention : Reuss Voigt Hill
#
# Bulk Modulus (GPa) = 25.36331 25.68628 25.52480
# Shear Modulus (GPa) = 22.65592 28.60134 25.62863
#
# Velocity S-wave (km/s) = 3.36779 3.78396 3.58193
# Velocity P-wave (km/s) = 5.27447 5.65245 5.46673
#
# Compressibility (1/GPa) = 0.03942703
#
# Stress axis : x y z
#
# Youngs Moduli (GPa) = 61.82605 69.96975 72.06606
#
# Poissons Ratio (x) = -0.01421 0.13792
# Poissons Ratio (y) = -0.01255 0.05383
# Poissons Ratio (z) = 0.11833 0.05226
#
# Static dielectric constant tensor:
#      x y z
#    x 1.744830 0.000000 -0.050460 
#    y 0.000000 1.695490 0.000000 
#    z -0.050460 0.000000 1.698400 
# 
# From -- ./inp_files/22746.got.cif
#   From: 2010.05.17/outbox.cif.g08.bks.cpg/sg13_12_cif.got.tgz:22746.got - 2010.06.03 16:44:36.
