data_PCOD9231191
_publ_section_title
;
Structure prediction by ZEFSAII (Michael W. Deem and Ramdas Pophale) SiO2 
 PCOD9231191
Probable space group: P 2/C
;
_chemical_formula_sum "Si O2"
_cell_formula_units_Z 28
_cell_length_a 25.143879
_cell_length_b 9.047586
_cell_length_c 8.568813
_cell_angle_alpha 90.000000
_cell_angle_beta 137.578065
_cell_angle_gamma 90.000000
_cell_volume 1314.989767
_symmetry_space_group_name_H-M "P 2/C"
_symmetry_group_IT_number 13
_symmetry_cell_setting 'monoclinic'
loop_
_space_group_symop_operation_xyz
x,y,z
-x,y,1/2-z
-x,-y,-z
x,-y,1/2+z
loop_
_atom_site_type_symbol
_atom_site_label
_atom_site_fract_x
_atom_site_fract_y
_atom_site_fract_z
Si Si1 0.839371 0.442100 0.511837
Si Si2 0.000000 0.500000 0.000000
Si Si3 0.257366 0.354327 0.493367
Si Si4 0.030731 0.156529 0.138526
Si Si5 0.386533 0.595805 0.757405
Si Si6 0.500000 0.454392 0.250000
Si Si7 0.759949 0.797547 0.020762
Si Si8 0.214879 0.097459 0.575334
O O1 0.927976 0.497013 0.713167
O O2 0.808191 0.375478 0.283209
O O3 0.779336 0.572097 0.429691
O O4 0.824905 0.325911 0.620286
O O5 0.993199 0.686753 0.992245
O O6 0.333968 0.447974 0.613284
O O7 0.269409 0.187565 0.571658
O O8 0.125233 0.139761 0.340483
O O9 0.000000 0.162254 0.250000
O O10 0.000000 0.000000 0.000000
O O11 0.436505 0.635534 0.712947
O O12 0.323900 0.717339 0.672519
O O13 0.449138 0.555459 0.024616
O O14 0.770293 0.859426 0.215108
O O15 0.771105 0.926060 0.921417
#
# Coordination Sequence:
#
# PCOD9231191 Si02
#       8
#     4   2   4   4   4   2   4   4
#     4  11  23  39  60  93 127 172 230 281 337 397
#     4  12  26  40  68  94 138 182 238 306 358 410
#     4  11  22  40  65  94 129 169 226 269 324 403
#     4  12  28  46  65  95 137 186 240 307 367 415
#     4  10  21  39  68  99 129 166 204 267 323 412
#     4  10  20  38  68 104 134 156 202 260 342 402
#     4  11  24  42  66  93 129 174 227 272 336 405
#     4  12  23  43  64  92 127 176 231 282 333 406
#
# _framework density 21.292940999999999
#
# number of rings (size 3 to 8) (size 9 to 14) (size 15 to 20)
#    0.000    0.857    1.429    7.714    2.000    1.714 
#    0.000    0.000    0.000   14.571    0.000    0.000 
#    0.000    0.000    0.000    0.000    0.000    0.000 
#
# Total GULP energy -156059.021129 kJ/mol
# GULP energy per Si atom -5573.536469 kJ/mol
# Density = 2.124448 g / cm^3
# Si number density = 21.292941 Si / 1000 Ang^3
#
#
#
# Elastic Constant Matrix: (Units=GPa)
#
#
# Indices 1 2 3 4 5 6 
#
# 1 85.6502 16.1413 15.0341 0.0000 13.1343 0.0000
# 2 16.1413 115.6760 13.3582 0.0000 9.0120 0.0000
# 3 15.0341 13.3582 95.2619 0.0000 4.5109 0.0000
# 4 0.0000 0.0000 0.0000 12.7249 0.0000 -2.9174
# 5 13.1343 9.0120 4.5109 0.0000 36.1243 0.0000
# 6 0.0000 0.0000 0.0000 -2.9174 0.0000 27.3763
#
#
#
# Elastic Compliance Matrix: (Units=1/GPa)
#
#
# Indices 1 2 3 4 5 6 
#
# 1 0.012842 -0.001278 -0.001651 0.000000 -0.004144 0.000000
# 2 -0.001278 0.009068 -0.000991 0.000000 -0.001674 0.000000
# 3 -0.001651 -0.000991 0.010921 0.000000 -0.000516 0.000000
# 4 0.000000 0.000000 0.000000 0.080554 0.000000 0.008584
# 5 -0.004144 -0.001674 -0.000516 0.000000 0.029671 0.000000
# 6 0.000000 0.000000 0.000000 0.008584 0.000000 0.037443
#
#
# Mechanical properties :
#
#
# Convention : Reuss Voigt Hill
#
# Bulk Modulus (GPa) = 40.01486 42.85057 41.43272
# Shear Modulus (GPa) = 25.42342 32.04873 28.73607
#
# Velocity S-wave (km/s) = 3.45916 3.88381 3.67762
# Velocity P-wave (km/s) = 5.89811 6.34665 6.12649
#
# Compressibility (1/GPa) = 0.02499071
#
# Stress axis : x y z
#
# Youngs Moduli (GPa) = 77.87188 110.27783 91.56409
#
# Poissons Ratio (x) = 0.14098 0.15119
# Poissons Ratio (y) = 0.09955 0.09070
# Poissons Ratio (z) = 0.12858 0.10924
#
# Static dielectric constant tensor:
#      x y z
#    x 1.829280 0.000000 -0.017300 
#    y 0.000000 1.900710 0.000000 
#    z -0.017300 0.000000 1.747990 
# 
# From -- ./inp_files/24646.got.cif
#   From: 2010.05.17/outbox.cif.g08.bks.cpg/sg13_13_cif.got.tgz:24646.got - 2010.06.03 16:44:36.
