data_PCOD9231436
_publ_section_title
;
Structure prediction by ZEFSAII (Michael W. Deem and Ramdas Pophale) SiO2 
 PCOD9231436
Probable space group: P 2/C
;
_chemical_formula_sum "Si O2"
_cell_formula_units_Z 30
_cell_length_a 9.074411
_cell_length_b 11.534723
_cell_length_c 30.831030
_cell_angle_alpha 90.000000
_cell_angle_beta 25.315410
_cell_angle_gamma 90.000000
_cell_volume 1379.915100
_symmetry_space_group_name_H-M "P 2/C"
_symmetry_group_IT_number 13
_symmetry_cell_setting 'monoclinic'
loop_
_space_group_symop_operation_xyz
x,y,z
-x,y,1/2-z
-x,-y,-z
x,-y,1/2+z
loop_
_atom_site_type_symbol
_atom_site_label
_atom_site_fract_x
_atom_site_fract_y
_atom_site_fract_z
Si Si1 0.793936 0.790145 0.107885
Si Si2 0.328057 0.611644 0.922527
Si Si3 0.500000 0.617413 0.250000
Si Si4 0.811358 0.197889 0.257354
Si Si5 0.384769 0.972443 0.160812
Si Si6 0.083468 0.226419 0.362964
Si Si7 0.233230 0.986264 0.030582
Si Si8 0.051731 0.465064 0.060859
O O1 0.526855 0.703940 0.202281
O O2 0.601627 0.871367 0.125208
O O3 0.995900 0.871075 0.089451
O O4 0.063214 0.709029 0.010613
O O5 0.628983 0.686588 0.821553
O O6 0.193605 0.542089 0.916368
O O7 0.375099 0.530341 0.952503
O O8 0.839600 0.537240 0.153340
O O9 0.029914 0.222333 0.156986
O O10 0.000000 0.158657 0.250000
O O11 0.599891 0.078782 0.308225
O O12 0.000000 0.931449 0.250000
O O13 0.563412 0.011982 0.068825
O O14 0.500000 0.245442 0.250000
O O15 0.909781 0.334194 0.433293
O O16 0.991550 0.103233 0.407209
O O17 0.500000 0.000000 0.000000
#
# Coordination Sequence:
#
# PCOD9231436 Si02
#       8
#     4   4   2   4   4   4   4   4
#     4  11  24  39  66  98 130 170 214 267 344 394
#     4  10  20  39  68  89 126 168 218 267 322 384
#     4  10  22  38  64  92 130 162 214 274 326 392
#     4  11  22  38  60  91 130 170 205 262 324 387
#     4  11  24  42  62  95 134 171 214 266 334 403
#     4  12  23  39  69  95 125 168 220 265 314 390
#     4  12  26  41  64 100 137 172 215 274 332 395
#     4  10  20  40  65  94 118 166 222 270 314 383
#
# _framework density 21.740468
#
# number of rings (size 3 to 8) (size 9 to 14) (size 15 to 20)
#    0.000    1.067    3.333    3.600    4.667    0.000 
#    0.000    0.667    2.933    9.600    0.000    0.000 
#    0.000    0.000    0.000    0.000    0.000    0.000 
#
# Total GULP energy -167287.039420 kJ/mol
# GULP energy per Si atom -5576.234647 kJ/mol
# Density = 2.169099 g / cm^3
# Si number density = 21.740468 Si / 1000 Ang^3
#
#
#
# Elastic Constant Matrix: (Units=GPa)
#
#
# Indices 1 2 3 4 5 6 
#
# 1 79.9907 27.9297 8.3009 0.0000 2.5827 0.0000
# 2 27.9297 122.0733 25.5186 0.0000 6.8422 0.0000
# 3 8.3009 25.5186 53.4906 0.0000 19.7436 0.0000
# 4 0.0000 0.0000 0.0000 42.1702 0.0000 19.9178
# 5 2.5827 6.8422 19.7436 0.0000 28.5908 0.0000
# 6 0.0000 0.0000 0.0000 19.9178 0.0000 23.4956
#
#
#
# Elastic Compliance Matrix: (Units=1/GPa)
#
#
# Indices 1 2 3 4 5 6 
#
# 1 0.013610 -0.002970 -0.000676 0.000000 -0.000052 0.000000
# 2 -0.002970 0.009773 -0.004613 0.000000 0.001115 0.000000
# 3 -0.000676 -0.004613 0.027607 0.000000 -0.017899 0.000000
# 4 0.000000 0.000000 0.000000 0.039549 0.000000 -0.033526
# 5 -0.000052 0.001115 -0.017899 0.000000 0.047075 0.000000
# 6 0.000000 0.000000 0.000000 -0.033526 0.000000 0.070982
#
#
# Mechanical properties :
#
#
# Convention : Reuss Voigt Hill
#
# Bulk Modulus (GPa) = 29.00865 42.11702 35.56283
# Shear Modulus (GPa) = 21.13228 31.77169 26.45198
#
# Velocity S-wave (km/s) = 3.12111 3.82698 3.49193
# Velocity P-wave (km/s) = 5.13426 6.24039 5.71415
#
# Compressibility (1/GPa) = 0.03447248
#
# Stress axis : x y z
#
# Youngs Moduli (GPa) = 73.47435 102.32185 36.22229
#
# Poissons Ratio (x) = 0.30386 0.02450
# Poissons Ratio (y) = 0.21819 0.16710
# Poissons Ratio (z) = 0.04969 0.47202
#
# Static dielectric constant tensor:
#      x y z
#    x 1.761270 0.000000 0.030120 
#    y 0.000000 1.995750 0.000000 
#    z 0.030120 0.000000 1.822390 
# 
# From -- ./inp_files/96071.got.cif
#   From: 2010.05.17/outbox.cif.g08.bks.cpg/sg13_49_cif.got.tgz:96071.got - 2010.06.03 16:44:36.
