data_PCOD9231528
_publ_section_title
;
Structure prediction by ZEFSAII (Michael W. Deem and Ramdas Pophale) SiO2 
 PCOD9231528
Probable space group: P 2/C
;
_chemical_formula_sum "Si O2"
_cell_formula_units_Z 28
_cell_length_a 5.226606
_cell_length_b 17.732711
_cell_length_c 14.606171
_cell_angle_alpha 90.000000
_cell_angle_beta 108.048602
_cell_angle_gamma 90.000000
_cell_volume 1287.116131
_symmetry_space_group_name_H-M "P 2/C"
_symmetry_group_IT_number 13
_symmetry_cell_setting 'monoclinic'
loop_
_space_group_symop_operation_xyz
x,y,z
-x,y,1/2-z
-x,-y,-z
x,-y,1/2+z
loop_
_atom_site_type_symbol
_atom_site_label
_atom_site_fract_x
_atom_site_fract_y
_atom_site_fract_z
Si Si1 0.886720 0.492037 0.635010
Si Si2 0.212502 0.716036 0.715484
Si Si3 0.629145 0.125394 0.171509
Si Si4 0.403637 0.835253 0.465643
Si Si5 0.321508 0.583197 0.052900
Si Si6 0.287946 0.037838 0.810345
Si Si7 0.056100 0.743354 0.011542
O O1 0.750396 0.559497 0.560063
O O2 0.638571 0.431119 0.605628
O O3 0.000000 0.502035 0.750000
O O4 0.142253 0.467423 0.601450
O O5 0.500000 0.677843 0.750000
O O6 0.257645 0.793151 0.782943
O O7 0.000000 0.670547 0.750000
O O8 0.106955 0.729902 0.601935
O O9 0.500000 0.099035 0.250000
O O10 0.776770 0.048116 0.160307
O O11 0.408616 0.138950 0.071291
O O12 0.383095 0.908121 0.401294
O O13 0.697880 0.799786 0.481974
O O14 0.155660 0.776321 0.437979
O O15 0.207245 0.666779 0.054968
O O16 0.500000 0.045316 0.750000
O O17 0.000000 0.069049 0.750000
#
# Coordination Sequence:
#
# PCOD9231528 Si02
#       7
#     4   4   4   4   4   4   4
#     4  10  21  44  70  98 136 176 224 258 308 377
#     4  11  19  35  57  87 124 159 192 259 327 400
#     4  10  20  40  62  91 119 162 207 270 330 399
#     4  12  24  40  64  89 128 167 208 269 330 396
#     4  10  23  41  67 102 137 170 217 274 307 383
#     4  11  25  43  62  85 119 167 230 274 320 376
#     4  12  23  40  63  95 135 164 205 264 337 387
#
# _framework density 21.754058000000001
#
# number of rings (size 3 to 8) (size 9 to 14) (size 15 to 20)
#    0.000    1.143    4.286    3.000    0.000    0.571 
#    0.000   13.571    0.000    0.000    0.000    0.000 
#    0.000    0.000    0.000    0.000    0.000    0.000 
#
# Total GULP energy -155950.313944 kJ/mol
# GULP energy per Si atom -5569.654069 kJ/mol
# Density = 2.170454 g / cm^3
# Si number density = 21.754058 Si / 1000 Ang^3
#
#
#
# Elastic Constant Matrix: (Units=GPa)
#
#
# Indices 1 2 3 4 5 6 
#
# 1 121.5386 -5.6758 15.9905 0.0000 16.2154 0.0000
# 2 -5.6758 55.6180 25.9696 0.0000 7.6417 0.0000
# 3 15.9905 25.9696 94.0481 0.0000 4.7798 0.0000
# 4 0.0000 0.0000 0.0000 10.0197 0.0000 1.7224
# 5 16.2154 7.6417 4.7798 0.0000 30.6558 0.0000
# 6 0.0000 0.0000 0.0000 1.7224 0.0000 26.1911
#
#
#
# Elastic Compliance Matrix: (Units=1/GPa)
#
#
# Indices 1 2 3 4 5 6 
#
# 1 0.009322 0.002629 -0.002043 0.000000 -0.005268 0.000000
# 2 0.002629 0.021958 -0.006211 0.000000 -0.005896 0.000000
# 3 -0.002043 -0.006211 0.012662 0.000000 0.000655 0.000000
# 4 0.000000 0.000000 0.000000 0.100944 0.000000 -0.006638
# 5 -0.005268 -0.005896 0.000655 0.000000 0.036774 0.000000
# 6 0.000000 0.000000 0.000000 -0.006638 0.000000 0.038617
#
#
# Mechanical properties :
#
#
# Convention : Reuss Voigt Hill
#
# Bulk Modulus (GPa) = 30.58783 38.19704 34.39244
# Shear Modulus (GPa) = 20.62490 29.03469 24.82980
#
# Velocity S-wave (km/s) = 3.08245 3.65729 3.38211
# Velocity P-wave (km/s) = 5.17300 5.95240 5.57634
#
# Compressibility (1/GPa) = 0.03269274
#
# Stress axis : x y z
#
# Youngs Moduli (GPa) = 107.27004 45.54123 78.97674
#
# Poissons Ratio (x) = -0.11974 0.16137
# Poissons Ratio (y) = -0.28203 0.49050
# Poissons Ratio (z) = 0.21918 0.28284
#
# Static dielectric constant tensor:
#      x y z
#    x 1.910800 0.000000 -0.008570 
#    y 0.000000 1.874900 0.000000 
#    z -0.008570 0.000000 1.780010 
# 
# From -- ./inp_files/44545.got.cif
#   From: 2010.05.17/outbox.cif.g08.bks.cpg/sg13_23_cif.got.tgz:44545.got - 2010.06.03 16:44:36.
