data_PCOD9231143
_publ_section_title
;
Structure prediction by ZEFSAII (Michael W. Deem and Ramdas Pophale) SiO2 
 PCOD9231143
Probable space group: P 2/C
;
_chemical_formula_sum "Si O2"
_cell_formula_units_Z 16
_cell_length_a 4.806387
_cell_length_b 8.368309
_cell_length_c 14.512227
_cell_angle_alpha 90.000000
_cell_angle_beta 86.682865
_cell_angle_gamma 90.000000
_cell_volume 582.723136
_symmetry_space_group_name_H-M "P 2/C"
_symmetry_group_IT_number 13
_symmetry_cell_setting 'monoclinic'
loop_
_space_group_symop_operation_xyz
x,y,z
-x,y,1/2-z
-x,-y,-z
x,-y,1/2+z
loop_
_atom_site_type_symbol
_atom_site_label
_atom_site_fract_x
_atom_site_fract_y
_atom_site_fract_z
Si Si1 0.490089 0.288783 0.139087
Si Si2 0.008547 0.476846 0.362110
Si Si3 0.649202 0.215966 0.650066
Si Si4 0.849428 0.974076 0.406568
O O1 0.500000 0.292903 0.250000
O O2 0.194730 0.327888 0.392649
O O3 0.328244 0.128822 0.117631
O O4 0.304924 0.436917 0.106482
O O5 0.163642 0.637368 0.387884
O O6 0.000000 0.483615 0.250000
O O7 0.500000 0.253744 0.750000
O O8 0.394341 0.160031 0.591090
O O9 0.882101 0.077596 0.659364
O O10 0.000000 0.000000 0.500000
#
# Coordination Sequence:
#
# PCOD9231143 Si02
#       4
#     4   4   4   4
#     4  10  21  39  64  94 127 167 214 266 323 383
#     4  10  20  38  65  97 125 158 215 277 321 373
#     4  12  24  43  69  96 126 170 221 270 322 384
#     4  12  26  44  64  97 138 175 214 265 322 386
#
# _framework density 27.457294000000001
#
# number of rings (size 3 to 8) (size 9 to 14) (size 15 to 20)
#    0.000    1.000    0.000    9.000    0.000    4.000 
#    0.000    8.750    0.000    0.000    0.000    0.000 
#    0.000    0.000    0.000    0.000    0.000    0.000 
#
# Total GULP energy -89659.093005 kJ/mol
# GULP energy per Si atom -5603.693313 kJ/mol
# Density = 2.739480 g / cm^3
# Si number density = 27.457294 Si / 1000 Ang^3
#
#
#
# Elastic Constant Matrix: (Units=GPa)
#
#
# Indices 1 2 3 4 5 6 
#
# 1 195.9131 67.6613 41.6794 0.0000 48.3225 0.0000
# 2 67.6613 133.2093 33.5335 0.0000 38.0380 0.0000
# 3 41.6794 33.5335 101.7808 0.0000 37.8400 0.0000
# 4 0.0000 0.0000 0.0000 -9.1446 0.0000 49.4153
# 5 48.3225 38.0380 37.8400 0.0000 54.9446 0.0000
# 6 0.0000 0.0000 0.0000 49.4153 0.0000 62.6422
#
#
#
# Elastic Compliance Matrix: (Units=1/GPa)
#
#
# Indices 1 2 3 4 5 6 
#
# 1 0.007043 -0.002215 -0.000567 0.000000 -0.004270 0.000000
# 2 -0.002215 0.010116 -0.000734 0.000000 -0.004549 0.000000
# 3 -0.000567 -0.000734 0.013340 0.000000 -0.008181 0.000000
# 4 0.000000 0.000000 0.000000 -0.020779 0.000000 0.016391
# 5 -0.004270 -0.004549 -0.008181 0.000000 0.030739 0.000000
# 6 0.000000 0.000000 0.000000 0.016391 0.000000 0.003033
#
#
# Mechanical properties :
#
#
# Convention : Reuss Voigt Hill
#
# Bulk Modulus (GPa) = 42.61334 79.62796 61.12065
# Shear Modulus (GPa) = 85.69112 40.89036 63.29074
#
# Velocity S-wave (km/s) = 5.59255 3.86325 4.80631
# Velocity P-wave (km/s) = 7.56675 6.99737 7.28762
#
# Compressibility (1/GPa) = 0.02346683
#
# Stress axis : x y z
#
# Youngs Moduli (GPa) = 141.97881 98.85143 74.95989
#
# Poissons Ratio (x) = 0.21900 0.04248
# Poissons Ratio (y) = 0.31455 0.05505
# Poissons Ratio (z) = 0.08046 0.07260
#
# Static dielectric constant tensor:
#      x y z
#    x 2.028340 0.000000 -0.085220 
#    y 0.000000 2.229470 0.000000 
#    z -0.085220 0.000000 2.229000 
# 
# From -- ./inp_files/60427.got.cif
#   From: 2010.05.17/outbox.cif.g08.bks.cpg/sg13_31_cif.got.tgz:60427.got - 2010.06.03 16:44:36.
