data_PCOD9231216
_publ_section_title
;
Structure prediction by ZEFSAII (Michael W. Deem and Ramdas Pophale) SiO2 
 PCOD9231216
Probable space group: P 2/C
;
_chemical_formula_sum "Si O2"
_cell_formula_units_Z 22
_cell_length_a 12.402646
_cell_length_b 12.100657
_cell_length_c 14.432244
_cell_angle_alpha 90.000000
_cell_angle_beta 27.207855
_cell_angle_gamma 90.000000
_cell_volume 990.335269
_symmetry_space_group_name_H-M "P 2/C"
_symmetry_group_IT_number 13
_symmetry_cell_setting 'monoclinic'
loop_
_space_group_symop_operation_xyz
x,y,z
-x,y,1/2-z
-x,-y,-z
x,-y,1/2+z
loop_
_atom_site_type_symbol
_atom_site_label
_atom_site_fract_x
_atom_site_fract_y
_atom_site_fract_z
Si Si1 0.688932 0.005135 0.936132
Si Si2 0.000000 0.792505 0.250000
Si Si3 0.967629 0.185836 0.140645
Si Si4 0.262564 0.545560 0.379635
Si Si5 0.500000 0.864949 0.250000
Si Si6 0.066279 0.678104 0.003361
Si Si7 0.000000 0.364312 0.250000
O O1 0.904067 0.933852 0.727472
O O2 0.782745 0.124092 0.895002
O O3 0.564482 0.941572 0.114585
O O4 0.500000 0.000000 0.000000
O O5 0.966715 0.720556 0.367814
O O6 0.854896 0.273829 0.299413
O O7 0.252775 0.198583 0.922132
O O8 0.882129 0.219186 0.104345
O O9 0.500000 0.579369 0.250000
O O10 0.159901 0.616045 0.371979
O O11 0.263160 0.417688 0.349576
O O12 0.085266 0.559299 0.601712
#
# Coordination Sequence:
#
# PCOD9231216 Si02
#       7
#     4   2   4   4   2   4   2
#     4  12  27  42  68 103 138 184 227 283 344 406
#     4  12  24  48  66 104 146 174 230 286 340 410
#     4  11  23  44  67 102 132 181 234 276 343 416
#     4  10  23  46  70 100 134 179 224 290 347 407
#     4  12  22  44  70  92 138 182 228 282 332 412
#     4  10  25  42  71 100 136 178 231 281 344 411
#     4  10  20  38  70  94 134 164 232 278 326 416
#
# _framework density 22.214700000000001
#
# number of rings (size 3 to 8) (size 9 to 14) (size 15 to 20)
#    0.000    1.091    3.636    1.636    7.636    4.364 
#    0.000   14.545    0.000    0.000    0.000    0.000 
#    0.000    0.000    0.000    0.000    0.000    0.000 
#
# Total GULP energy -122669.084245 kJ/mol
# GULP energy per Si atom -5575.867466 kJ/mol
# Density = 2.216414 g / cm^3
# Si number density = 22.214700 Si / 1000 Ang^3
#
#
#
# Elastic Constant Matrix: (Units=GPa)
#
#
# Indices 1 2 3 4 5 6 
#
# 1 178.9489 47.7100 40.3904 0.0000 23.2854 0.0000
# 2 47.7100 89.1722 24.8301 0.0000 12.9545 0.0000
# 3 40.3904 24.8301 52.2465 0.0000 2.2071 0.0000
# 4 0.0000 0.0000 0.0000 9.2558 0.0000 16.4482
# 5 23.2854 12.9545 2.2071 0.0000 49.0014 0.0000
# 6 0.0000 0.0000 0.0000 16.4482 0.0000 46.1083
#
#
#
# Elastic Compliance Matrix: (Units=1/GPa)
#
#
# Indices 1 2 3 4 5 6 
#
# 1 0.007637 -0.002385 -0.004653 0.000000 -0.002789 0.000000
# 2 -0.002385 0.014173 -0.004790 0.000000 -0.002398 0.000000
# 3 -0.004653 -0.004790 0.024914 0.000000 0.002355 0.000000
# 4 0.000000 0.000000 0.000000 0.295140 0.000000 -0.105285
# 5 -0.002789 -0.002398 0.002355 0.000000 0.022261 0.000000
# 6 0.000000 0.000000 0.000000 -0.105285 0.000000 0.059246
#
#
# Mechanical properties :
#
#
# Convention : Reuss Voigt Hill
#
# Bulk Modulus (GPa) = 43.35134 60.69206 52.02170
# Shear Modulus (GPa) = 10.99587 34.70223 22.84905
#
# Velocity S-wave (km/s) = 2.22723 3.95667 3.21059
# Velocity P-wave (km/s) = 5.11578 6.94648 6.10019
#
# Compressibility (1/GPa) = 0.02306734
#
# Stress axis : x y z
#
# Youngs Moduli (GPa) = 130.93730 70.55836 40.13820
#
# Poissons Ratio (x) = 0.16831 0.18675
# Poissons Ratio (y) = 0.31235 0.19227
# Poissons Ratio (z) = 0.60921 0.33798
#
# Static dielectric constant tensor:
#      x y z
#    x 1.618080 0.000000 -0.052350 
#    y 0.000000 1.855370 0.000000 
#    z -0.052350 0.000000 1.966660 
# 
# From -- ./inp_files/51135.got.cif
#   From: 2010.05.17/outbox.cif.g08.bks.cpg/sg13_26_cif.got.tgz:51135.got - 2010.06.03 16:44:36.
