data_PCOD9231322
_publ_section_title
;
Structure prediction by ZEFSAII (Michael W. Deem and Ramdas Pophale) SiO2 
 PCOD9231322
Probable space group: P 2/C
;
_chemical_formula_sum "Si O2"
_cell_formula_units_Z 18
_cell_length_a 16.912257
_cell_length_b 4.973696
_cell_length_c 24.597047
_cell_angle_alpha 90.000000
_cell_angle_beta 25.359042
_cell_angle_gamma 90.000000
_cell_volume 886.137212
_symmetry_space_group_name_H-M "P 2/C"
_symmetry_group_IT_number 13
_symmetry_cell_setting 'monoclinic'
loop_
_space_group_symop_operation_xyz
x,y,z
-x,y,1/2-z
-x,-y,-z
x,-y,1/2+z
loop_
_atom_site_type_symbol
_atom_site_label
_atom_site_fract_x
_atom_site_fract_y
_atom_site_fract_z
Si Si1 0.223850 0.294804 0.522444
Si Si2 0.994900 0.192597 0.365346
Si Si3 0.188602 0.092684 0.354862
Si Si4 0.000000 0.939866 0.250000
Si Si5 0.420232 0.417704 0.739481
O O1 0.162862 0.236329 0.622365
O O2 0.419787 0.433556 0.394263
O O3 0.076958 0.505544 0.589699
O O4 0.182141 0.010849 0.518586
O O5 0.140223 0.142584 0.322018
O O6 0.063290 0.115354 0.262315
O O7 0.255706 0.366166 0.341241
O O8 0.342395 0.862055 0.265846
O O9 0.000000 0.000000 0.500000
O O10 0.500000 0.380843 0.750000
#
# Coordination Sequence:
#
# PCOD9231322 Si02
#       5
#     4   4   4   2   4
#     4  10  20  39  63  89 117 163 204 241 299 361
#     4  10  20  39  63  89 118 163 204 242 299 362
#     4  12  24  40  62  93 125 160 201 252 306 361
#     4   8  22  36  70  82 120 166 206 236 308 356
#     4  12  24  40  62  93 125 159 200 252 307 362
#
# _framework density 20.312881999999998
#
# number of rings (size 3 to 8) (size 9 to 14) (size 15 to 20)
#    1.333    0.000    0.000    7.333    0.000    0.000 
#    0.000    2.222    0.000    0.000    0.000    0.000 
#    0.000    0.000    0.000    0.000    0.000    0.000 
#
# Total GULP energy -100465.647512 kJ/mol
# GULP energy per Si atom -5581.424862 kJ/mol
# Density = 2.026665 g / cm^3
# Si number density = 20.312882 Si / 1000 Ang^3
#
#
#
# Elastic Constant Matrix: (Units=GPa)
#
#
# Indices 1 2 3 4 5 6 
#
# 1 131.2727 15.9236 18.4718 0.0000 -7.3257 0.0000
# 2 15.9236 73.8270 -16.7212 0.0000 -8.6955 0.0000
# 3 18.4718 -16.7212 47.6067 0.0000 4.0108 0.0000
# 4 0.0000 0.0000 0.0000 21.8351 0.0000 13.0809
# 5 -7.3257 -8.6955 4.0108 0.0000 25.1425 0.0000
# 6 0.0000 0.0000 0.0000 13.0809 0.0000 -3.9621
#
#
#
# Elastic Compliance Matrix: (Units=1/GPa)
#
#
# Indices 1 2 3 4 5 6 
#
# 1 0.008698 -0.002617 -0.004492 0.000000 0.002346 0.000000
# 2 -0.002617 0.015982 0.006312 0.000000 0.003758 0.000000
# 3 -0.004492 0.006312 0.025231 0.000000 -0.003151 0.000000
# 4 0.000000 0.000000 0.000000 0.015380 0.000000 0.050775
# 5 0.002346 0.003758 -0.003151 0.000000 0.042259 0.000000
# 6 0.000000 0.000000 0.000000 0.050775 0.000000 -0.084756
#
#
# Mechanical properties :
#
#
# Convention : Reuss Voigt Hill
#
# Bulk Modulus (GPa) = 20.69638 32.00610 26.35124
# Shear Modulus (GPa) = 123.47966 24.27192 73.87579
#
# Velocity S-wave (km/s) = 7.80518 3.46049 6.03721
# Velocity P-wave (km/s) = 9.56236 5.63537 7.84844
#
# Compressibility (1/GPa) = 0.04831764
#
# Stress axis : x y z
#
# Youngs Moduli (GPa) = 114.96682 62.57054 39.63403
#
# Poissons Ratio (x) = 0.16376 0.17803
# Poissons Ratio (y) = 0.30089 -0.25018
# Poissons Ratio (z) = 0.51641 -0.39497
#
# Static dielectric constant tensor:
#      x y z
#    x 1.691590 0.000000 0.020280 
#    y 0.000000 1.724190 0.000000 
#    z 0.020280 0.000000 1.752820 
# 
# From -- ./inp_files/41952.got.cif
#   From: 2010.05.17/outbox.cif.g08.bks.cpg/sg13_21_cif.got.tgz:41952.got - 2010.06.03 16:44:36.
