data_PCOD9231407
_publ_section_title
;
Structure prediction by ZEFSAII (Michael W. Deem and Ramdas Pophale) SiO2 
 PCOD9231407
Probable space group: P 2/C
;
_chemical_formula_sum "Si O2"
_cell_formula_units_Z 24
_cell_length_a 12.164022
_cell_length_b 7.393980
_cell_length_c 12.949016
_cell_angle_alpha 90.000000
_cell_angle_beta 86.500105
_cell_angle_gamma 90.000000
_cell_volume 1162.469271
_symmetry_space_group_name_H-M "P 2/C"
_symmetry_group_IT_number 13
_symmetry_cell_setting 'monoclinic'
loop_
_space_group_symop_operation_xyz
x,y,z
-x,y,1/2-z
-x,-y,-z
x,-y,1/2+z
loop_
_atom_site_type_symbol
_atom_site_label
_atom_site_fract_x
_atom_site_fract_y
_atom_site_fract_z
Si Si1 0.401075 0.250652 0.506952
Si Si2 0.635907 0.168271 0.538059
Si Si3 0.622851 0.643923 0.257896
Si Si4 0.878455 0.249617 0.520652
Si Si5 0.222236 0.586481 0.868354
Si Si6 0.057344 0.101751 0.354863
O O1 0.533418 0.275098 0.492751
O O2 0.371746 0.270929 0.629477
O O3 0.321850 0.375219 0.443146
O O4 0.381988 0.044216 0.474191
O O5 0.635864 0.218668 0.660114
O O6 0.755007 0.214605 0.486473
O O7 0.500000 0.564069 0.250000
O O8 0.719855 0.502758 0.233518
O O9 0.864008 0.443657 0.576627
O O10 0.970372 0.214027 0.429824
O O11 0.907454 0.089802 0.599435
O O12 0.163491 0.771431 0.844170
O O13 0.000000 0.070801 0.250000
#
# Coordination Sequence:
#
# PCOD9231407 Si02
#       6
#     4   4   4   4   4   4
#     4  10  20  39  66  97 137 168 207 271 325 393
#     4   9  19  40  64  95 130 171 211 260 328 393
#     4   9  21  38  61  97 132 169 215 260 320 402
#     4  10  23  43  63  90 129 164 213 276 314 385
#     4  11  23  42  66  97 129 166 218 264 333 388
#     4  11  25  44  63  92 123 170 229 264 323 386
#
# _framework density 20.645707000000002
#
# number of rings (size 3 to 8) (size 9 to 14) (size 15 to 20)
#    0.000    2.000    1.667    0.500    2.333    9.333 
#    0.000    2.500    0.000    0.000    0.000    0.000 
#    0.000    0.000    0.000    0.000    0.000    0.000 
#
# Total GULP energy -133984.978978 kJ/mol
# GULP energy per Si atom -5582.707457 kJ/mol
# Density = 2.059872 g / cm^3
# Si number density = 20.645707 Si / 1000 Ang^3
#
#
#
# Elastic Constant Matrix: (Units=GPa)
#
#
# Indices 1 2 3 4 5 6 
#
# 1 106.6400 35.7692 41.8188 0.0000 6.4531 0.0000
# 2 35.7692 70.3634 24.6769 0.0000 3.4552 0.0000
# 3 41.8188 24.6769 50.3381 0.0000 -0.9228 0.0000
# 4 0.0000 0.0000 0.0000 9.9075 0.0000 -0.0341
# 5 6.4531 3.4552 -0.9228 0.0000 22.3327 0.0000
# 6 0.0000 0.0000 0.0000 -0.0341 0.0000 46.7750
#
#
#
# Elastic Compliance Matrix: (Units=1/GPa)
#
#
# Indices 1 2 3 4 5 6 
#
# 1 0.015116 -0.003676 -0.010833 0.000000 -0.004247 0.000000
# 2 -0.003676 0.018261 -0.005935 0.000000 -0.002008 0.000000
# 3 -0.010833 -0.005935 0.031873 0.000000 0.005365 0.000000
# 4 0.000000 0.000000 0.000000 0.100933 0.000000 0.000074
# 5 -0.004247 -0.002008 0.005365 0.000000 0.046537 0.000000
# 6 0.000000 0.000000 0.000000 0.000074 0.000000 0.021379
#
#
# Mechanical properties :
#
#
# Convention : Reuss Voigt Hill
#
# Bulk Modulus (GPa) = 41.04842 47.98569 44.51706
# Shear Modulus (GPa) = 17.66120 24.14150 20.90135
#
# Velocity S-wave (km/s) = 2.92797 3.42325 3.18525
# Velocity P-wave (km/s) = 5.59965 6.23841 5.92764
#
# Compressibility (1/GPa) = 0.02436147
#
# Stress axis : x y z
#
# Youngs Moduli (GPa) = 66.15692 54.76259 31.37462
#
# Poissons Ratio (x) = 0.20132 0.33988
# Poissons Ratio (y) = 0.24321 0.18619
# Poissons Ratio (z) = 0.71668 0.32499
#
# Static dielectric constant tensor:
#      x y z
#    x 1.761250 0.000000 -0.007630 
#    y 0.000000 1.756960 0.000000 
#    z -0.007630 0.000000 1.703260 
# 
# From -- ./inp_files/32604.got.cif
#   From: 2010.05.17/outbox.cif.g08.bks.cpg/sg13_17_cif.got.tgz:32604.got - 2010.06.03 16:44:36.
