data_PCOD9231874
_publ_section_title
;
Structure prediction by ZEFSAII (Michael W. Deem and Ramdas Pophale) SiO2 
 PCOD9231874
Probable space group: P 2/C
;
_chemical_formula_sum "Si O2"
_cell_formula_units_Z 22
_cell_length_a 12.023696
_cell_length_b 12.234619
_cell_length_c 11.828773
_cell_angle_alpha 90.000000
_cell_angle_beta 36.370734
_cell_angle_gamma 90.000000
_cell_volume 1031.878234
_symmetry_space_group_name_H-M "P 2/C"
_symmetry_group_IT_number 13
_symmetry_cell_setting 'monoclinic'
loop_
_space_group_symop_operation_xyz
x,y,z
-x,y,1/2-z
-x,-y,-z
x,-y,1/2+z
loop_
_atom_site_type_symbol
_atom_site_label
_atom_site_fract_x
_atom_site_fract_y
_atom_site_fract_z
Si Si1 0.293957 0.543560 0.878045
Si Si2 0.000000 0.066493 0.750000
Si Si3 0.162639 0.332597 0.910284
Si Si4 0.000000 0.574861 0.750000
Si Si5 0.321590 0.928550 0.603499
Si Si6 0.843141 0.781569 0.560621
Si Si7 0.500000 0.202980 0.750000
O O1 0.500000 0.521679 0.750000
O O2 0.224608 0.458273 0.837454
O O3 0.264074 0.668437 0.872735
O O4 0.170453 0.505166 0.085852
O O5 0.139489 0.139721 0.560589
O O6 0.135984 0.996180 0.719605
O O7 0.342683 0.275145 0.816214
O O8 0.004154 0.348390 0.137554
O O9 0.058331 0.258910 0.905773
O O10 0.252964 0.846800 0.758362
O O11 0.394470 0.866886 0.431758
O O12 0.500000 0.000000 0.500000
#
# Coordination Sequence:
#
# PCOD9231874 Si02
#       7
#     4   2   4   2   4   4   2
#     4  10  22  41  67 104 145 183 225 287 346 436
#     4  12  27  49  70 100 140 180 243 315 346 402
#     4  10  20  42  66 106 135 185 220 279 347 439
#     4   8  19  39  64  94 152 172 219 283 336 408
#     4  12  27  46  69 102 136 183 244 302 351 417
#     4  12  25  43  74  99 137 191 232 285 370 411
#     4  12  22  44  72 100 140 184 232 286 360 420
#
# _framework density 21.320345
#
# number of rings (size 3 to 8) (size 9 to 14) (size 15 to 20)
#    1.091    0.000    0.909    6.000    2.545    0.000 
#    3.273    1.818    0.000    0.000    0.000    0.000 
#    0.000    0.000    0.000    0.000    0.000    0.000 
#
# Total GULP energy -122751.809187 kJ/mol
# GULP energy per Si atom -5579.627690 kJ/mol
# Density = 2.127182 g / cm^3
# Si number density = 21.320345 Si / 1000 Ang^3
#
#
#
# Elastic Constant Matrix: (Units=GPa)
#
#
# Indices 1 2 3 4 5 6 
#
# 1 46.3343 9.1382 5.3618 0.0000 -24.7400 0.0000
# 2 9.1382 95.2486 27.3680 0.0000 -1.2549 0.0000
# 3 5.3618 27.3680 82.2122 0.0000 -4.2770 0.0000
# 4 0.0000 0.0000 0.0000 6.1376 0.0000 -6.4704
# 5 -24.7400 -1.2549 -4.2770 0.0000 43.4430 0.0000
# 6 0.0000 0.0000 0.0000 -6.4704 0.0000 50.2409
#
#
#
# Elastic Compliance Matrix: (Units=1/GPa)
#
#
# Indices 1 2 3 4 5 6 
#
# 1 0.031750 -0.002746 -0.000221 0.000000 0.017980 0.000000
# 2 -0.002746 0.011847 -0.003848 0.000000 -0.001600 0.000000
# 3 -0.000221 -0.003848 0.013516 0.000000 0.001093 0.000000
# 4 0.000000 0.000000 0.000000 0.188528 0.000000 0.024280
# 5 0.017980 -0.001600 0.001093 0.000000 0.033319 0.000000
# 6 0.000000 0.000000 0.000000 0.024280 0.000000 0.023031
#
#
# Mechanical properties :
#
#
# Convention : Reuss Voigt Hill
#
# Bulk Modulus (GPa) = 22.99764 34.17011 28.58388
# Shear Modulus (GPa) = 15.14626 32.09277 23.61952
#
# Velocity S-wave (km/s) = 2.66825 3.88398 3.33203
# Velocity P-wave (km/s) = 4.50587 6.01461 5.31406
#
# Compressibility (1/GPa) = 0.04348273
#
# Stress axis : x y z
#
# Youngs Moduli (GPa) = 31.49641 84.41100 73.98691
#
# Poissons Ratio (x) = 0.23176 0.01637
# Poissons Ratio (y) = 0.08648 0.28469
# Poissons Ratio (z) = 0.00697 0.32481
#
# Static dielectric constant tensor:
#      x y z
#    x 1.843140 0.000000 0.014430 
#    y 0.000000 1.783090 0.000000 
#    z 0.014430 0.000000 1.722700 
# 
# From -- ./inp_files/33687.got.cif
#   From: 2010.05.17/outbox.cif.g08.bks.cpg/sg13_17_cif.got.tgz:33687.got - 2010.06.03 16:44:36.
