data_PCOD9231911
_publ_section_title
;
Structure prediction by ZEFSAII (Michael W. Deem and Ramdas Pophale) SiO2 
 PCOD9231911
Probable space group: P 2/C
;
_chemical_formula_sum "Si O2"
_cell_formula_units_Z 32
_cell_length_a 12.711101
_cell_length_b 8.575123
_cell_length_c 31.144678
_cell_angle_alpha 90.000000
_cell_angle_beta 27.059677
_cell_angle_gamma 90.000000
_cell_volume 1544.332358
_symmetry_space_group_name_H-M "P 2/C"
_symmetry_group_IT_number 13
_symmetry_cell_setting 'monoclinic'
loop_
_space_group_symop_operation_xyz
x,y,z
-x,y,1/2-z
-x,-y,-z
x,-y,1/2+z
loop_
_atom_site_type_symbol
_atom_site_label
_atom_site_fract_x
_atom_site_fract_y
_atom_site_fract_z
Si Si1 0.690308 0.495786 0.392744
Si Si2 0.966676 0.477684 0.449408
Si Si3 0.227800 0.868083 0.640080
Si Si4 0.895927 0.245566 0.037798
Si Si5 0.235606 0.043389 0.550305
Si Si6 0.726890 0.968522 0.056333
Si Si7 0.530153 0.324626 0.866515
Si Si8 0.014343 0.625923 0.342022
O O1 0.500000 0.500000 0.500000
O O2 0.731098 0.315665 0.366184
O O3 0.614678 0.608783 0.381656
O O4 0.919133 0.556496 0.332466
O O5 0.979576 0.639938 0.469848
O O6 0.714206 0.408293 0.551407
O O7 0.145057 0.355943 0.406010
O O8 0.972664 0.512514 0.397118
O O9 0.484328 0.939218 0.555041
O O10 0.000000 0.918164 0.750000
O O11 0.183276 0.918271 0.606646
O O12 0.697211 0.133755 0.090885
O O13 0.107020 0.134099 0.974211
O O14 0.119626 0.210111 0.603200
O O15 0.150539 0.996405 0.534044
O O16 0.511797 0.860233 0.122201
O O17 0.714139 0.359608 0.763142
#
# Coordination Sequence:
#
# PCOD9231911 Si02
#       8
#     4   4   4   4   4   4   4   4
#     4  12  22  43  63  95 129 174 215 260 316 385
#     4  10  20  42  68  95 125 170 217 269 332 376
#     4  11  25  41  62  93 134 172 215 262 310 391
#     4   9  20  40  71  87 123 172 210 276 335 378
#     4  11  24  40  63  95 131 172 209 262 325 385
#     4  10  21  41  66  95 125 169 216 266 336 385
#     4  11  24  39  68  98 129 174 215 261 318 401
#     4  12  24  40  66  95 135 170 214 262 322 391
#
# _framework density 20.720928000000001
#
# number of rings (size 3 to 8) (size 9 to 14) (size 15 to 20)
#    0.000    1.250    3.750    1.875    5.250    0.000 
#    0.000    5.625    2.750    0.000    0.000    0.000 
#    0.000    0.000    0.000    0.000    0.000    0.000 
#
# Total GULP energy -178459.726410 kJ/mol
# GULP energy per Si atom -5576.866450 kJ/mol
# Density = 2.067377 g / cm^3
# Si number density = 20.720928 Si / 1000 Ang^3
#
#
#
# Elastic Constant Matrix: (Units=GPa)
#
#
# Indices 1 2 3 4 5 6 
#
# 1 102.1512 46.6710 18.2444 0.0000 1.1453 0.0000
# 2 46.6710 97.9070 21.7225 0.0000 -8.0730 0.0000
# 3 18.2444 21.7225 106.1358 0.0000 0.7534 0.0000
# 4 0.0000 0.0000 0.0000 11.3675 0.0000 1.8095
# 5 1.1453 -8.0730 0.7534 0.0000 -4.1393 0.0000
# 6 0.0000 0.0000 0.0000 1.8095 0.0000 47.4533
#
#
#
# Elastic Compliance Matrix: (Units=1/GPa)
#
#
# Indices 1 2 3 4 5 6 
#
# 1 0.011903 -0.004436 -0.001221 0.000000 0.011724 0.000000
# 2 -0.004436 0.010762 -0.001281 0.000000 -0.022449 0.000000
# 3 -0.001221 -0.001281 0.009866 0.000000 0.003955 0.000000
# 4 0.000000 0.000000 0.000000 0.088508 0.000000 -0.003375
# 5 0.011724 -0.022449 0.003955 0.000000 -0.193840 0.000000
# 6 0.000000 0.000000 0.000000 -0.003375 0.000000 0.021202
#
#
# Mechanical properties :
#
#
# Convention : Reuss Voigt Hill
#
# Bulk Modulus (GPa) = 53.60818 53.27443 53.44131
# Shear Modulus (GPa) = -158.70061 25.57338 -66.56361
#
# Velocity S-wave (km/s) = -8.76104 3.51690 -5.67394
# Velocity P-wave (km/s) = 8.74147 6.50060 4.13253
#
# Compressibility (1/GPa) = 0.01865387
#
# Stress axis : x y z
#
# Youngs Moduli (GPa) = 84.01268 92.92331 101.35967
#
# Poissons Ratio (x) = 0.41224 0.12379
# Poissons Ratio (y) = 0.37271 0.12980
# Poissons Ratio (z) = 0.10261 0.11900
#
# Static dielectric constant tensor:
#      x y z
#    x 1.789560 0.000000 -0.018530 
#    y 0.000000 1.797270 0.000000 
#    z -0.018530 0.000000 1.765310 
# 
# From -- ./inp_files/96671.got.cif
#   From: 2010.05.17/outbox.cif.g08.bks.cpg/sg13_49_cif.got.tgz:96671.got - 2010.06.03 16:44:36.
