data_PCOD9231497
_publ_section_title
;
Structure prediction by ZEFSAII (Michael W. Deem and Ramdas Pophale) SiO2 
 PCOD9231497
Probable space group: P 2/C
;
_chemical_formula_sum "Si O2"
_cell_formula_units_Z 20
_cell_length_a 7.929207
_cell_length_b 12.506180
_cell_length_c 17.418805
_cell_angle_alpha 90.000000
_cell_angle_beta 148.889769
_cell_angle_gamma 90.000000
_cell_volume 892.482413
_symmetry_space_group_name_H-M "P 2/C"
_symmetry_group_IT_number 13
_symmetry_cell_setting 'monoclinic'
loop_
_space_group_symop_operation_xyz
x,y,z
-x,y,1/2-z
-x,-y,-z
x,-y,1/2+z
loop_
_atom_site_type_symbol
_atom_site_label
_atom_site_fract_x
_atom_site_fract_y
_atom_site_fract_z
Si Si1 0.000000 0.677588 0.750000
Si Si2 0.150657 0.885439 0.076145
Si Si3 0.151210 0.550435 0.657691
Si Si4 0.692732 0.854698 0.530277
Si Si5 0.114001 0.669394 0.091428
Si Si6 0.000000 0.966229 0.250000
O O1 0.150234 0.607078 0.739646
O O2 0.256396 0.757175 0.891814
O O3 0.500000 0.907432 0.250000
O O4 0.966224 0.788177 0.048335
O O5 0.187928 0.830614 0.007975
O O6 0.000000 0.000000 0.000000
O O7 0.500000 0.547043 0.750000
O O8 0.024617 0.428193 0.613162
O O9 0.946045 0.616660 0.515277
O O10 0.324874 0.895897 0.375006
O O11 0.920611 0.952441 0.649463
O O12 0.500000 0.688023 0.250000
#
# Coordination Sequence:
#
# PCOD9231497 Si02
#       6
#     2   4   4   4   4   2
#     4  11  22  42  68  99 136 171 228 285 330 402
#     4  11  22  38  64  97 132 173 219 271 334 399
#     4  10  21  43  71  97 130 177 224 274 335 395
#     4  10  20  40  60  96 132 176 227 272 339 403
#     4   9  20  42  66  93 138 170 216 283 329 392
#     4   9  20  38  60  81 140 175 212 287 328 400
#
# _framework density 22.409405
#
# number of rings (size 3 to 8) (size 9 to 14) (size 15 to 20)
#    0.000    2.000    2.000    1.200    0.000    0.800 
#   18.000    9.000    0.000    2.400    0.000    0.000 
#    0.000    0.000    0.000    0.000    0.000    0.000 
#
# Total GULP energy -111492.049933 kJ/mol
# GULP energy per Si atom -5574.602497 kJ/mol
# Density = 2.235840 g / cm^3
# Si number density = 22.409405 Si / 1000 Ang^3
#
#
#
# Elastic Constant Matrix: (Units=GPa)
#
#
# Indices 1 2 3 4 5 6 
#
# 1 73.8769 40.0192 31.6873 0.0000 -19.1153 0.0000
# 2 40.0192 230.9575 64.1432 0.0000 1.9530 0.0000
# 3 31.6873 64.1432 127.4985 0.0000 -9.5481 0.0000
# 4 0.0000 0.0000 0.0000 4.3512 0.0000 -0.5866
# 5 -19.1153 1.9530 -9.5481 0.0000 19.1217 0.0000
# 6 0.0000 0.0000 0.0000 -0.5866 0.0000 9.0571
#
#
#
# Elastic Compliance Matrix: (Units=1/GPa)
#
#
# Indices 1 2 3 4 5 6 
#
# 1 0.021684 -0.003340 -0.002140 0.000000 0.020949 0.000000
# 2 -0.003340 0.005611 -0.002375 0.000000 -0.005098 0.000000
# 3 -0.002140 -0.002375 0.009794 0.000000 0.002994 0.000000
# 4 0.000000 0.000000 0.000000 0.231848 0.000000 0.015016
# 5 0.020949 -0.005098 0.002994 0.000000 0.075254 0.000000
# 6 0.000000 0.000000 0.000000 0.015016 0.000000 0.111384
#
#
# Mechanical properties :
#
#
# Convention : Reuss Voigt Hill
#
# Bulk Modulus (GPa) = 46.77349 78.22581 62.49965
# Shear Modulus (GPa) = 10.45130 26.27154 18.36142
#
# Velocity S-wave (km/s) = 2.16193 3.42767 2.86556
# Velocity P-wave (km/s) = 5.21052 7.11678 6.23691
#
# Compressibility (1/GPa) = 0.02137963
#
# Stress axis : x y z
#
# Youngs Moduli (GPa) = 46.11773 178.21686 102.10474
#
# Poissons Ratio (x) = 0.59526 0.21849
# Poissons Ratio (y) = 0.15404 0.24245
# Poissons Ratio (z) = 0.09869 0.42319
#
# Static dielectric constant tensor:
#      x y z
#    x 1.822770 0.000000 0.027200 
#    y 0.000000 1.937890 0.000000 
#    z 0.027200 0.000000 1.839150 
# 
# From -- ./inp_files/11883.got.cif
#   From: 2010.05.17/outbox.cif.g08.bks.cpg/sg13_6_cif.got.tgz:11883.got - 2010.06.03 16:44:36.
