data_PCOD9231791
_publ_section_title
;
Structure prediction by ZEFSAII (Michael W. Deem and Ramdas Pophale) SiO2 
 PCOD9231791
Probable space group: P 2/C
;
_chemical_formula_sum "Si O2"
_cell_formula_units_Z 28
_cell_length_a 7.233717
_cell_length_b 9.800929
_cell_length_c 16.541782
_cell_angle_alpha 90.000000
_cell_angle_beta 106.174546
_cell_angle_gamma 90.000000
_cell_volume 1126.344210
_symmetry_space_group_name_H-M "P 2/C"
_symmetry_group_IT_number 13
_symmetry_cell_setting 'monoclinic'
loop_
_space_group_symop_operation_xyz
x,y,z
-x,y,1/2-z
-x,-y,-z
x,-y,1/2+z
loop_
_atom_site_type_symbol
_atom_site_label
_atom_site_fract_x
_atom_site_fract_y
_atom_site_fract_z
Si Si1 0.657967 0.789735 0.838256
Si Si2 0.088589 0.173109 0.385035
Si Si3 0.590111 0.378504 0.101156
Si Si4 0.525612 0.650387 0.403397
Si Si5 0.970755 0.134142 0.649701
Si Si6 0.949296 0.649487 0.456204
Si Si7 0.593922 0.073429 0.849121
O O1 0.500000 0.773189 0.750000
O O2 0.618437 0.664140 0.890907
O O3 0.869156 0.808934 0.828902
O O4 0.601456 0.922129 0.884874
O O5 0.242255 0.270698 0.360452
O O6 0.071226 0.238307 0.473373
O O7 0.134705 0.011547 0.382268
O O8 0.619720 0.530761 0.137718
O O9 0.568760 0.371245 0.002643
O O10 0.737654 0.629376 0.390460
O O11 0.481593 0.807141 0.380229
O O12 0.916498 0.272375 0.593482
O O13 0.183866 0.106670 0.639370
O O14 0.000000 0.150859 0.750000
O O15 0.000000 0.500000 0.500000
O O16 0.500000 0.061455 0.750000
#
# Coordination Sequence:
#
# PCOD9231791 Si02
#       7
#     4   4   4   4   4   4   4
#     4  10  22  38  61  92 128 163 212 272 333 387
#     4  10  22  39  65  96 128 174 220 275 329 408
#     4  10  21  38  62  90 123 170 214 264 329 385
#     4   9  20  40  59  88 130 165 215 270 319 396
#     4  10  22  40  64  96 134 171 223 281 341 403
#     4  10  20  41  68  92 133 176 225 277 338 403
#     4   9  20  39  60  86 125 168 207 266 336 390
#
# _framework density 24.859186000000001
#
# number of rings (size 3 to 8) (size 9 to 14) (size 15 to 20)
#    0.000    2.286    0.000    1.286    6.000    2.286 
#   10.286    0.714    0.000    0.000    0.000    0.000 
#    0.000    0.000    0.000    0.000    0.000    0.000 
#
# Total GULP energy -156123.056103 kJ/mol
# GULP energy per Si atom -5575.823432 kJ/mol
# Density = 2.480261 g / cm^3
# Si number density = 24.859186 Si / 1000 Ang^3
#
#
#
# Elastic Constant Matrix: (Units=GPa)
#
#
# Indices 1 2 3 4 5 6 
#
# 1 73.1522 51.0006 5.6961 0.0000 1.1292 0.0000
# 2 51.0006 208.5541 42.1239 0.0000 -13.6713 0.0000
# 3 5.6961 42.1239 54.7524 0.0000 -10.6887 0.0000
# 4 0.0000 0.0000 0.0000 39.0191 0.0000 -8.1649
# 5 1.1292 -13.6713 -10.6887 0.0000 30.4943 0.0000
# 6 0.0000 0.0000 0.0000 -8.1649 0.0000 24.6066
#
#
#
# Elastic Compliance Matrix: (Units=1/GPa)
#
#
# Indices 1 2 3 4 5 6 
#
# 1 0.016739 -0.004498 0.001293 0.000000 -0.002183 0.000000
# 2 -0.004498 0.006919 -0.004527 0.000000 0.001682 0.000000
# 3 0.001293 -0.004527 0.022765 0.000000 0.005902 0.000000
# 4 0.000000 0.000000 0.000000 0.027541 0.000000 0.009139
# 5 -0.002183 0.001682 0.005902 0.000000 0.035696 0.000000
# 6 0.000000 0.000000 0.000000 0.009139 0.000000 0.043672
#
#
# Mechanical properties :
#
#
# Convention : Reuss Voigt Hill
#
# Bulk Modulus (GPa) = 32.30119 59.34443 45.82281
# Shear Modulus (GPa) = 27.91485 34.66653 31.29069
#
# Velocity S-wave (km/s) = 3.35463 3.73837 3.55169
# Velocity P-wave (km/s) = 5.29402 6.52365 5.94073
#
# Compressibility (1/GPa) = 0.03095862
#
# Stress axis : x y z
#
# Youngs Moduli (GPa) = 59.74136 144.52040 43.92750
#
# Poissons Ratio (x) = 0.64999 -0.05678
# Poissons Ratio (y) = 0.26869 0.19887
# Poissons Ratio (z) = -0.07722 0.65428
#
# Static dielectric constant tensor:
#      x y z
#    x 2.066360 0.000000 0.003600 
#    y 0.000000 2.093420 0.000000 
#    z 0.003600 0.000000 2.116430 
# 
# From -- ./inp_files/63856.got.cif
#   From: 2010.05.17/outbox.cif.g08.bks.cpg/sg13_32_cif.got.tgz:63856.got - 2010.06.03 16:44:36.
