data_PCOD9231611
_publ_section_title
;
Structure prediction by ZEFSAII (Michael W. Deem and Ramdas Pophale) SiO2 
 PCOD9231611
Probable space group: P 2/C
;
_chemical_formula_sum "Si O2"
_cell_formula_units_Z 22
_cell_length_a 6.978180
_cell_length_b 10.950267
_cell_length_c 15.052149
_cell_angle_alpha 90.000000
_cell_angle_beta 85.204819
_cell_angle_gamma 90.000000
_cell_volume 1146.153122
_symmetry_space_group_name_H-M "P 2/C"
_symmetry_group_IT_number 13
_symmetry_cell_setting 'monoclinic'
loop_
_space_group_symop_operation_xyz
x,y,z
-x,y,1/2-z
-x,-y,-z
x,-y,1/2+z
loop_
_atom_site_type_symbol
_atom_site_label
_atom_site_fract_x
_atom_site_fract_y
_atom_site_fract_z
Si Si1 0.692742 0.371736 0.954343
Si Si2 0.492885 0.836321 0.579399
Si Si3 0.500000 0.311665 0.250000
Si Si4 0.659906 0.515946 0.128038
Si Si5 0.932846 0.737100 0.154434
Si Si6 0.794198 0.041046 0.543104
O O1 0.555470 0.436630 0.887257
O O2 0.879788 0.309173 0.906484
O O3 0.566852 0.268795 0.009486
O O4 0.740239 0.469164 0.029985
O O5 0.426841 0.772993 0.672849
O O6 0.326464 0.908682 0.535739
O O7 0.669608 0.929704 0.587653
O O8 0.649120 0.402696 0.195907
O O9 0.785147 0.624644 0.161558
O O10 0.830515 0.849902 0.110328
O O11 0.000000 0.770975 0.250000
O O12 0.000000 0.000000 0.500000
#
# Coordination Sequence:
#
# PCOD9231611 Si02
#       6
#     4   4   2   4   4   4
#     4  10  20  40  66  88 124 169 201 247 314 372
#     4  10  22  43  66  89 122 167 208 253 310 368
#     4  10  22  42  66  94 122 162 204 260 306 368
#     4  10  21  40  62  93 129 159 204 249 313 372
#     4  12  24  38  61  96 124 163 209 258 304 366
#     4  11  23  43  65  88 124 168 210 252 311 368
#
# _framework density 19.194641000000001
#
# number of rings (size 3 to 8) (size 9 to 14) (size 15 to 20)
#    0.000    1.455    3.636    1.636    0.000    1.455 
#    3.273    1.818    0.000    0.000    0.000    0.000 
#    0.000    0.000    0.000    0.000    0.000    0.000 
#
# Total GULP energy -122892.230010 kJ/mol
# GULP energy per Si atom -5586.010455 kJ/mol
# Density = 1.915095 g / cm^3
# Si number density = 19.194641 Si / 1000 Ang^3
#
#
#
# Elastic Constant Matrix: (Units=GPa)
#
#
# Indices 1 2 3 4 5 6 
#
# 1 77.2291 36.4393 38.9143 0.0000 9.0064 0.0000
# 2 36.4393 95.8595 34.7520 0.0000 7.0002 0.0000
# 3 38.9143 34.7520 89.4423 0.0000 6.0611 0.0000
# 4 0.0000 0.0000 0.0000 31.4975 0.0000 -2.4045
# 5 9.0064 7.0002 6.0611 0.0000 12.5278 0.0000
# 6 0.0000 0.0000 0.0000 -2.4045 0.0000 25.1395
#
#
#
# Elastic Compliance Matrix: (Units=1/GPa)
#
#
# Indices 1 2 3 4 5 6 
#
# 1 0.019038 -0.004460 -0.005988 0.000000 -0.008297 0.000000
# 2 -0.004460 0.013456 -0.003097 0.000000 -0.002814 0.000000
# 3 -0.005988 -0.003097 0.015074 0.000000 -0.001258 0.000000
# 4 0.000000 0.000000 0.000000 0.031982 0.000000 0.003059
# 5 -0.008297 -0.002814 -0.001258 0.000000 0.087969 0.000000
# 6 0.000000 0.000000 0.000000 0.003059 0.000000 0.040071
#
#
# Mechanical properties :
#
#
# Convention : Reuss Voigt Hill
#
# Bulk Modulus (GPa) = 48.83314 53.63801 51.23557
# Shear Modulus (GPa) = 20.70361 23.99465 22.34913
#
# Velocity S-wave (km/s) = 3.28779 3.53947 3.41595
# Velocity P-wave (km/s) = 6.31736 6.68646 6.50453
#
# Compressibility (1/GPa) = 0.02047790
#
# Stress axis : x y z
#
# Youngs Moduli (GPa) = 52.52755 74.31859 66.33965
#
# Poissons Ratio (x) = 0.33148 0.39721
# Poissons Ratio (y) = 0.23428 0.20544
# Poissons Ratio (z) = 0.31451 0.23015
#
# Static dielectric constant tensor:
#      x y z
#    x 1.642650 0.000000 -0.004070 
#    y 0.000000 1.681430 0.000000 
#    z -0.004070 0.000000 1.663990 
# 
# From -- ./inp_files/43618.got.cif
#   From: 2010.05.17/outbox.cif.g08.bks.cpg/sg13_22_cif.got.tgz:43618.got - 2010.06.03 16:44:36.
