data_PCOD9231192
_publ_section_title
;
Structure prediction by ZEFSAII (Michael W. Deem and Ramdas Pophale) SiO2 
 PCOD9231192
Probable space group: P 2/C
;
_chemical_formula_sum "Si O2"
_cell_formula_units_Z 32
_cell_length_a 11.308982
_cell_length_b 12.094014
_cell_length_c 11.182741
_cell_angle_alpha 90.000000
_cell_angle_beta 68.321442
_cell_angle_gamma 90.000000
_cell_volume 1421.296130
_symmetry_space_group_name_H-M "P 2/C"
_symmetry_group_IT_number 13
_symmetry_cell_setting 'monoclinic'
loop_
_space_group_symop_operation_xyz
x,y,z
-x,y,1/2-z
-x,-y,-z
x,-y,1/2+z
loop_
_atom_site_type_symbol
_atom_site_label
_atom_site_fract_x
_atom_site_fract_y
_atom_site_fract_z
Si Si1 0.963321 0.655240 0.897508
Si Si2 0.873809 0.911227 0.367515
Si Si3 0.747993 0.460888 0.600475
Si Si4 0.813847 0.204263 0.117858
Si Si5 0.848392 0.665643 0.295087
Si Si6 0.358992 0.340657 0.447000
Si Si7 0.768828 0.850895 0.910024
Si Si8 0.448686 0.711981 0.407891
O O1 0.877468 0.768613 0.925442
O O2 0.000000 0.624081 0.750000
O O3 0.095974 0.687941 0.907984
O O4 0.884336 0.558739 0.986499
O O5 0.891951 0.872491 0.497655
O O6 0.828770 0.800243 0.312309
O O7 0.000000 0.946726 0.250000
O O8 0.788708 0.018806 0.412739
O O9 0.782708 0.395091 0.709208
O O10 0.654578 0.567397 0.652663
O O11 0.652743 0.386323 0.558180
O O12 0.784917 0.170073 0.262438
O O13 0.679996 0.227913 0.103199
O O14 0.766888 0.621096 0.434919
O O15 0.000000 0.650778 0.250000
O O16 0.457867 0.320154 0.516566
O O17 0.635317 0.815876 0.017943
O O18 0.500000 0.723178 0.250000
#
# Coordination Sequence:
#
# PCOD9231192 Si02
#       8
#     4   4   4   4   4   4   4   4
#     4   9  19  36  58  96 137 163 209 272 333 407
#     4  10  20  38  68 104 141 181 221 265 344 416
#     4  11  22  39  68  93 126 180 223 278 335 408
#     4  10  22  41  61 103 144 169 218 284 333 414
#     4  10  22  39  63 102 143 174 213 273 338 412
#     4  11  24  42  65  93 130 178 226 281 350 402
#     4  10  23  40  69  96 128 184 227 280 343 399
#     4  11  24  48  67  92 130 175 243 300 333 400
#
# _framework density 22.514659000000002
#
# number of rings (size 3 to 8) (size 9 to 14) (size 15 to 20)
#    0.000    1.750    1.250    3.750    0.000   10.000 
#    2.250    2.500    0.000    0.000    0.000    0.000 
#    0.000    0.000    0.000    0.000    0.000    0.000 
#
# Total GULP energy -178141.253779 kJ/mol
# GULP energy per Si atom -5566.914181 kJ/mol
# Density = 2.246341 g / cm^3
# Si number density = 22.514659 Si / 1000 Ang^3
#
#
#
# Elastic Constant Matrix: (Units=GPa)
#
#
# Indices 1 2 3 4 5 6 
#
# 1 115.7651 26.2859 30.2549 0.0000 31.4558 0.0000
# 2 26.2859 56.4268 9.7118 0.0000 5.1530 0.0000
# 3 30.2549 9.7118 63.5018 0.0000 4.3796 0.0000
# 4 0.0000 0.0000 0.0000 -54.9059 0.0000 36.0504
# 5 31.4558 5.1530 4.3796 0.0000 35.1393 0.0000
# 6 0.0000 0.0000 0.0000 36.0504 0.0000 -19.0453
#
#
#
# Elastic Compliance Matrix: (Units=1/GPa)
#
#
# Indices 1 2 3 4 5 6 
#
# 1 0.014142 -0.004651 -0.005246 0.000000 -0.011324 0.000000
# 2 -0.004651 0.019924 -0.000925 0.000000 0.001357 0.000000
# 3 -0.005246 -0.000925 0.018212 0.000000 0.002562 0.000000
# 4 0.000000 0.000000 0.000000 0.075000 0.000000 0.141966
# 5 -0.011324 0.001357 0.002562 0.000000 0.038077 0.000000
# 6 0.000000 0.000000 0.000000 0.141966 0.000000 0.216219
#
#
# Mechanical properties :
#
#
# Convention : Reuss Voigt Hill
#
# Bulk Modulus (GPa) = 32.64249 40.91097 36.77673
# Shear Modulus (GPa) = 12.09401 3.53369 7.81385
#
# Velocity S-wave (km/s) = 2.32019 1.25416 1.86497
# Velocity P-wave (km/s) = 4.65913 4.50638 4.58339
#
# Compressibility (1/GPa) = 0.03063492
#
# Stress axis : x y z
#
# Youngs Moduli (GPa) = 70.71092 50.19084 54.91010
#
# Poissons Ratio (x) = 0.23344 0.28804
# Poissons Ratio (y) = 0.32888 0.05078
# Poissons Ratio (z) = 0.37092 0.04641
#
# Static dielectric constant tensor:
#      x y z
#    x 1.903640 0.000000 0.074770 
#    y 0.000000 1.985930 0.000000 
#    z 0.074770 0.000000 2.108940 
# 
# From -- ./inp_files/34138.got.cif
#   From: 2010.05.17/outbox.cif.g08.bks.cpg/sg13_18_cif.got.tgz:34138.got - 2010.06.03 16:44:36.
