data_PCOD9231863
_publ_section_title
;
Structure prediction by ZEFSAII (Michael W. Deem and Ramdas Pophale) SiO2 
 PCOD9231863
Probable space group: P 2/C
;
_chemical_formula_sum "Si O2"
_cell_formula_units_Z 24
_cell_length_a 13.349428
_cell_length_b 13.082217
_cell_length_c 19.544747
_cell_angle_alpha 90.000000
_cell_angle_beta 21.975967
_cell_angle_gamma 90.000000
_cell_volume 1277.315918
_symmetry_space_group_name_H-M "P 2/C"
_symmetry_group_IT_number 13
_symmetry_cell_setting 'monoclinic'
loop_
_space_group_symop_operation_xyz
x,y,z
-x,y,1/2-z
-x,-y,-z
x,-y,1/2+z
loop_
_atom_site_type_symbol
_atom_site_label
_atom_site_fract_x
_atom_site_fract_y
_atom_site_fract_z
Si Si1 0.393751 0.460684 0.740212
Si Si2 0.280750 0.561053 0.593296
Si Si3 0.189870 0.231943 0.234116
Si Si4 0.000000 0.068613 0.250000
Si Si5 0.877911 0.667391 0.588254
Si Si6 0.286192 0.127427 0.536214
Si Si7 0.500000 0.183470 0.250000
O O1 0.500000 0.457919 0.750000
O O2 0.595805 0.415642 0.558404
O O3 0.336405 0.578866 0.757431
O O4 0.123591 0.396397 0.903979
O O5 0.500000 0.500000 0.500000
O O6 0.221719 0.667108 0.668426
O O7 0.000000 0.506811 0.750000
O O8 0.040895 0.269728 0.396502
O O9 0.476917 0.188000 0.076486
O O10 0.045983 0.141921 0.284877
O O11 0.750494 0.991948 0.420617
O O12 0.738780 0.744601 0.625228
O O13 0.369878 0.132251 0.401764
O O14 0.000000 0.168375 0.750000
#
# Coordination Sequence:
#
# PCOD9231863 Si02
#       7
#     4   4   4   2   4   4   2
#     4  11  23  38  59  87 134 166 215 253 327 375
#     4  12  26  41  65  97 133 175 221 266 316 402
#     4  11  21  43  65  93 128 168 215 264 327 389
#     4  10  22  42  68  86 134 158 216 270 338 372
#     4  10  22  38  61  90 124 170 200 268 311 391
#     4   9  23  40  67  95 121 171 212 275 335 385
#     4  10  20  42  64  94 128 154 226 264 330 386
#
# _framework density 18.789401999999999
#
# number of rings (size 3 to 8) (size 9 to 14) (size 15 to 20)
#    0.500    1.000    3.333    1.500    4.667    0.667 
#    0.000    5.000    0.000    0.000    0.000    0.000 
#    0.000    0.000    0.000    0.000    0.000    0.000 
#
# Total GULP energy -133608.447216 kJ/mol
# GULP energy per Si atom -5567.018634 kJ/mol
# Density = 1.874664 g / cm^3
# Si number density = 18.789402 Si / 1000 Ang^3
#
#
#
# Elastic Constant Matrix: (Units=GPa)
#
#
# Indices 1 2 3 4 5 6 
#
# 1 100.5335 28.8492 18.8456 0.0000 10.2659 0.0000
# 2 28.8492 75.9639 3.4233 0.0000 -0.4886 0.0000
# 3 18.8456 3.4233 54.3272 0.0000 4.5901 0.0000
# 4 0.0000 0.0000 0.0000 18.3590 0.0000 -1.1448
# 5 10.2659 -0.4886 4.5901 0.0000 29.5069 0.0000
# 6 0.0000 0.0000 0.0000 -1.1448 0.0000 36.9445
#
#
#
# Elastic Compliance Matrix: (Units=1/GPa)
#
#
# Indices 1 2 3 4 5 6 
#
# 1 0.012325 -0.004540 -0.003669 0.000000 -0.003792 0.000000
# 2 -0.004540 0.014877 0.000489 0.000000 0.001750 0.000000
# 3 -0.003669 0.000489 0.019801 0.000000 -0.001796 0.000000
# 4 0.000000 0.000000 0.000000 0.054575 0.000000 0.001691
# 5 -0.003792 0.001750 -0.001796 0.000000 0.035518 0.000000
# 6 0.000000 0.000000 0.000000 0.001691 0.000000 0.027120
#
#
# Mechanical properties :
#
#
# Convention : Reuss Voigt Hill
#
# Bulk Modulus (GPa) = 31.68110 37.00676 34.34393
# Shear Modulus (GPa) = 26.29158 28.94251 27.61705
#
# Velocity S-wave (km/s) = 3.74475 3.92900 3.83798
# Velocity P-wave (km/s) = 5.96618 6.34989 6.16102
#
# Compressibility (1/GPa) = 0.03156456
#
# Stress axis : x y z
#
# Youngs Moduli (GPa) = 81.13830 67.21610 50.50366
#
# Poissons Ratio (x) = 0.30514 0.18529
# Poissons Ratio (y) = 0.36834 -0.02472
# Poissons Ratio (z) = 0.29768 -0.03290
#
# Static dielectric constant tensor:
#      x y z
#    x 1.688070 0.000000 -0.012900 
#    y 0.000000 1.635800 0.000000 
#    z -0.012900 0.000000 1.721140 
# 
# From -- ./inp_files/80155.got.cif
#   From: 2010.05.17/outbox.cif.g08.bks.cpg/sg13_41_cif.got.tgz:80155.got - 2010.06.03 16:44:36.
