data_PCOD9231314
_publ_section_title
;
Structure prediction by ZEFSAII (Michael W. Deem and Ramdas Pophale) SiO2 
 PCOD9231314
Probable space group: P 2/C
;
_chemical_formula_sum "Si O2"
_cell_formula_units_Z 22
_cell_length_a 6.516347
_cell_length_b 6.367011
_cell_length_c 27.402991
_cell_angle_alpha 90.000000
_cell_angle_beta 73.183793
_cell_angle_gamma 90.000000
_cell_volume 1088.322396
_symmetry_space_group_name_H-M "P 2/C"
_symmetry_group_IT_number 13
_symmetry_cell_setting 'monoclinic'
loop_
_space_group_symop_operation_xyz
x,y,z
-x,y,1/2-z
-x,-y,-z
x,-y,1/2+z
loop_
_atom_site_type_symbol
_atom_site_label
_atom_site_fract_x
_atom_site_fract_y
_atom_site_fract_z
Si Si1 0.054082 0.278600 0.934924
Si Si2 0.436384 0.187335 0.701803
Si Si3 0.337329 0.614681 0.975708
Si Si4 0.000000 0.425062 0.750000
Si Si5 0.180412 0.523454 0.837283
Si Si6 0.641716 0.899715 0.612022
O O1 0.207064 0.437372 0.954657
O O2 0.027534 0.391456 0.884275
O O3 0.178785 0.062677 0.918724
O O4 0.834868 0.261375 0.979530
O O5 0.500000 0.089051 0.750000
O O6 0.607786 0.377308 0.683184
O O7 0.200336 0.280742 0.721167
O O8 0.469779 0.029543 0.654871
O O9 0.440902 0.768765 0.928647
O O10 0.500000 0.500000 0.000000
O O11 0.924913 0.553968 0.708043
O O12 0.247647 0.736081 0.858853
#
# Coordination Sequence:
#
# PCOD9231314 Si02
#       6
#     4   4   4   2   4   4
#     4   9  20  39  59  85 120 154 192 240 292 345
#     4   9  20  39  58  84 118 151 194 247 295 346
#     4  10  21  38  60  87 119 155 194 241 293 346
#     4  10  20  40  64  84 118 158 194 242 296 350
#     4   9  20  38  60  86 119 154 193 243 293 346
#     4  10  20  39  63  86 119 156 193 243 295 347
#
# _framework density 20.214597999999999
#
# number of rings (size 3 to 8) (size 9 to 14) (size 15 to 20)
#    0.000    2.545    0.000    0.545    0.000    7.273 
#    0.000   32.727    0.000    0.000    0.000    0.000 
#    0.000    0.000    0.000    0.000    0.000    0.000 
#
# Total GULP energy -122871.458972 kJ/mol
# GULP energy per Si atom -5585.066317 kJ/mol
# Density = 2.016859 g / cm^3
# Si number density = 20.214598 Si / 1000 Ang^3
#
#
#
# Elastic Constant Matrix: (Units=GPa)
#
#
# Indices 1 2 3 4 5 6 
#
# 1 43.1651 8.4725 46.8130 0.0000 0.6386 0.0000
# 2 8.4725 68.3057 51.3133 0.0000 2.2411 0.0000
# 3 46.8130 51.3133 147.6218 0.0000 2.6315 0.0000
# 4 0.0000 0.0000 0.0000 33.4285 0.0000 15.2478
# 5 0.6386 2.2411 2.6315 0.0000 27.3692 0.0000
# 6 0.0000 0.0000 0.0000 15.2478 0.0000 -15.4365
#
#
#
# Elastic Compliance Matrix: (Units=1/GPa)
#
#
# Indices 1 2 3 4 5 6 
#
# 1 0.036880 0.005700 -0.013676 0.000000 -0.000012 0.000000
# 2 0.005700 0.020720 -0.008993 0.000000 -0.000965 0.000000
# 3 -0.013676 -0.008993 0.014243 0.000000 -0.000314 0.000000
# 4 0.000000 0.000000 0.000000 0.020623 0.000000 0.020371
# 5 -0.000012 -0.000965 -0.000314 0.000000 0.036647 0.000000
# 6 0.000000 0.000000 0.000000 0.020371 0.000000 -0.044660
#
#
# Mechanical properties :
#
#
# Convention : Reuss Voigt Hill
#
# Bulk Modulus (GPa) = 26.38180 52.47667 39.42924
# Shear Modulus (GPa) = 38.16026 19.23849 28.69938
#
# Velocity S-wave (km/s) = 4.34955 3.08833 3.77203
# Velocity P-wave (km/s) = 6.18902 6.22360 6.20633
#
# Compressibility (1/GPa) = 0.03790492
#
# Stress axis : x y z
#
# Youngs Moduli (GPa) = 27.11468 48.26181 70.21238
#
# Poissons Ratio (x) = -0.27509 0.96025
# Poissons Ratio (y) = -0.15455 0.63140
# Poissons Ratio (z) = 0.37083 0.43400
#
# Static dielectric constant tensor:
#      x y z
#    x 1.682490 0.000000 -0.005150 
#    y 0.000000 1.699230 0.000000 
#    z -0.005150 0.000000 1.755170 
# 
# From -- ./inp_files/94560.got.cif
#   From: 2010.05.17/outbox.cif.g08.bks.cpg/sg13_48_cif.got.tgz:94560.got - 2010.06.03 16:44:36.
