data_PCOD9231914
_publ_section_title
;
Structure prediction by ZEFSAII (Michael W. Deem and Ramdas Pophale) SiO2 
 PCOD9231914
Probable space group: P 2/C
;
_chemical_formula_sum "Si O2"
_cell_formula_units_Z 28
_cell_length_a 8.721947
_cell_length_b 5.230599
_cell_length_c 31.847322
_cell_angle_alpha 90.000000
_cell_angle_beta 115.240456
_cell_angle_gamma 90.000000
_cell_volume 1314.192347
_symmetry_space_group_name_H-M "P 2/C"
_symmetry_group_IT_number 13
_symmetry_cell_setting 'monoclinic'
loop_
_space_group_symop_operation_xyz
x,y,z
-x,y,1/2-z
-x,-y,-z
x,-y,1/2+z
loop_
_atom_site_type_symbol
_atom_site_label
_atom_site_fract_x
_atom_site_fract_y
_atom_site_fract_z
Si Si1 0.896453 0.737149 0.036608
Si Si2 0.000000 0.881798 0.750000
Si Si3 0.500000 0.513121 0.750000
Si Si4 0.720332 0.196605 0.155667
Si Si5 0.620203 0.141330 0.340384
Si Si6 0.177335 0.316929 0.878459
Si Si7 0.826523 0.782123 0.302451
Si Si8 0.129099 0.760834 0.558314
O O1 0.004595 0.478797 0.045707
O O2 0.800204 0.707483 0.069098
O O3 0.022817 0.979879 0.053636
O O4 0.799275 0.770880 0.980967
O O5 0.148482 0.736194 0.791524
O O6 0.090302 0.045859 0.724131
O O7 0.446288 0.676694 0.703934
O O8 0.329758 0.356117 0.738543
O O9 0.551261 0.073452 0.155332
O O10 0.708381 0.458190 0.127851
O O11 0.793306 0.966099 0.136296
O O12 0.735509 0.268323 0.389309
O O13 0.733688 0.933072 0.329485
O O14 0.980475 0.376902 0.841771
#
# Coordination Sequence:
#
# PCOD9231914 Si02
#       8
#     4   2   2   4   4   4   4   4
#     4  10  20  42  69 101 132 168 227 271 341 395
#     4  10  24  44  60  94 128 180 228 270 330 402
#     4  12  26  38  68  92 138 178 216 288 334 404
#     4  11  27  40  65  92 138 176 226 273 336 396
#     4  12  26  44  63 104 133 180 224 283 337 402
#     4  11  24  43  67  95 130 178 224 277 329 405
#     4  11  25  42  66  93 134 175 231 277 338 403
#     4  10  22  39  71 102 131 172 217 284 329 407
#
# _framework density 21.305862999999999
#
# number of rings (size 3 to 8) (size 9 to 14) (size 15 to 20)
#    0.000    1.143    1.429    3.857   14.000    0.571 
#    0.000    1.429    0.000    0.000    0.000    0.000 
#    0.000    0.000    0.000    0.000    0.000    0.000 
#
# Total GULP energy -156350.883301 kJ/mol
# GULP energy per Si atom -5583.960118 kJ/mol
# Density = 2.125737 g / cm^3
# Si number density = 21.305863 Si / 1000 Ang^3
#
#
#
# Elastic Constant Matrix: (Units=GPa)
#
#
# Indices 1 2 3 4 5 6 
#
# 1 68.7362 8.9100 23.2768 0.0000 -17.5647 0.0000
# 2 8.9100 78.7539 20.7796 0.0000 -8.9020 0.0000
# 3 23.2768 20.7796 152.5797 0.0000 -19.7245 0.0000
# 4 0.0000 0.0000 0.0000 28.4236 0.0000 -4.8131
# 5 -17.5647 -8.9020 -19.7245 0.0000 34.9814 0.0000
# 6 0.0000 0.0000 0.0000 -4.8131 0.0000 22.3924
#
#
#
# Elastic Compliance Matrix: (Units=1/GPa)
#
#
# Indices 1 2 3 4 5 6 
#
# 1 0.017084 -0.000674 -0.001540 0.000000 0.007538 0.000000
# 2 -0.000674 0.013408 -0.001430 0.000000 0.002267 0.000000
# 3 -0.001540 -0.001430 0.007374 0.000000 0.003021 0.000000
# 4 0.000000 0.000000 0.000000 0.036511 0.000000 0.007848
# 5 0.007538 0.002267 0.003021 0.000000 0.034652 0.000000
# 6 0.000000 0.000000 0.000000 0.007848 0.000000 0.046345
#
#
# Mechanical properties :
#
#
# Convention : Reuss Voigt Hill
#
# Bulk Modulus (GPa) = 32.70465 45.11139 38.90802
# Shear Modulus (GPa) = 28.92617 33.63302 31.27960
#
# Velocity S-wave (km/s) = 3.68864 3.97745 3.83576
# Velocity P-wave (km/s) = 5.79007 6.50482 6.15782
#
# Compressibility (1/GPa) = 0.03057669
#
# Stress axis : x y z
#
# Youngs Moduli (GPa) = 58.53599 74.58428 135.60911
#
# Poissons Ratio (x) = 0.05030 0.20882
# Poissons Ratio (y) = 0.03948 0.19392
# Poissons Ratio (z) = 0.09014 0.10666
#
# Static dielectric constant tensor:
#      x y z
#    x 1.864900 0.000000 -0.010540 
#    y 0.000000 1.784700 0.000000 
#    z -0.010540 0.000000 1.787450 
# 
# From -- ./inp_files/95526.got.cif
#   From: 2010.05.17/outbox.cif.g08.bks.cpg/sg13_48_cif.got.tgz:95526.got - 2010.06.03 16:44:36.
