data_PCOD9231390
_publ_section_title
;
Structure prediction by ZEFSAII (Michael W. Deem and Ramdas Pophale) SiO2 
 PCOD9231390
Probable space group: P 2/C
;
_chemical_formula_sum "Si O2"
_cell_formula_units_Z 24
_cell_length_a 12.691105
_cell_length_b 7.174693
_cell_length_c 23.652482
_cell_angle_alpha 90.000000
_cell_angle_beta 28.301725
_cell_angle_gamma 90.000000
_cell_volume 1021.087400
_symmetry_space_group_name_H-M "P 2/C"
_symmetry_group_IT_number 13
_symmetry_cell_setting 'monoclinic'
loop_
_space_group_symop_operation_xyz
x,y,z
-x,y,1/2-z
-x,-y,-z
x,-y,1/2+z
loop_
_atom_site_type_symbol
_atom_site_label
_atom_site_fract_x
_atom_site_fract_y
_atom_site_fract_z
Si Si1 0.045244 0.249844 0.789043
Si Si2 0.631025 0.681361 0.784808
Si Si3 0.840247 0.331063 0.002010
Si Si4 0.962260 0.175551 0.333451
Si Si5 0.260020 0.371821 0.861273
Si Si6 0.489657 0.387137 0.945431
O O1 0.310705 0.241410 0.661067
O O2 0.000000 0.342751 0.750000
O O3 0.939294 0.351893 0.892344
O O4 0.937082 0.047168 0.842924
O O5 0.706628 0.550101 0.697151
O O6 0.539535 0.542918 0.875912
O O7 0.834875 0.784324 0.719112
O O8 0.393577 0.779407 0.882385
O O9 0.053308 0.253942 0.936101
O O10 0.796012 0.529624 0.053202
O O11 0.737181 0.278212 0.455579
O O12 0.000000 0.230881 0.250000
O O13 0.500000 0.276348 0.750000
O O14 0.500000 0.500000 0.000000
#
# Coordination Sequence:
#
# PCOD9231390 Si02
#       6
#     4   4   4   4   4   4
#     4  11  26  41  64  97 141 178 218 273 353 409
#     4  11  21  38  67  95 129 171 234 281 326 397
#     4  10  20  39  65  93 131 171 219 280 342 389
#     4  11  26  42  62  98 143 183 221 270 351 410
#     4   9  19  37  65  98 125 164 230 287 329 391
#     4  12  24  39  67  96 133 177 233 279 323 401
#
# _framework density 23.504352000000001
#
# number of rings (size 3 to 8) (size 9 to 14) (size 15 to 20)
#    0.000    1.333    3.333    2.000    4.667    1.333 
#    0.000    0.833    0.000    3.000    0.000    0.000 
#    0.000    0.000    0.000    0.000    0.000    0.000 
#
# Total GULP energy -133966.889500 kJ/mol
# GULP energy per Si atom -5581.953729 kJ/mol
# Density = 2.345086 g / cm^3
# Si number density = 23.504352 Si / 1000 Ang^3
#
#
#
# Elastic Constant Matrix: (Units=GPa)
#
#
# Indices 1 2 3 4 5 6 
#
# 1 127.5773 14.2233 60.0694 0.0000 3.1910 0.0000
# 2 14.2233 57.3681 22.6554 0.0000 9.1655 0.0000
# 3 60.0694 22.6554 167.3724 0.0000 -14.4378 0.0000
# 4 0.0000 0.0000 0.0000 16.0261 0.0000 -8.9839
# 5 3.1910 9.1655 -14.4378 0.0000 70.9615 0.0000
# 6 0.0000 0.0000 0.0000 -8.9839 0.0000 -13.7001
#
#
#
# Elastic Compliance Matrix: (Units=1/GPa)
#
#
# Indices 1 2 3 4 5 6 
#
# 1 0.009562 -0.000866 -0.003402 0.000000 -0.001010 0.000000
# 2 -0.000866 0.019116 -0.002531 0.000000 -0.002945 0.000000
# 3 -0.003402 -0.002531 0.007715 0.000000 0.002050 0.000000
# 4 0.000000 0.000000 0.000000 0.045626 0.000000 -0.029920
# 5 -0.001010 -0.002945 0.002050 0.000000 0.014935 0.000000
# 6 0.000000 0.000000 0.000000 -0.029920 0.000000 -0.053372
#
#
# Mechanical properties :
#
#
# Convention : Reuss Voigt Hill
#
# Bulk Modulus (GPa) = 43.86740 60.69045 52.27892
# Shear Modulus (GPa) = 77.18824 31.68214 54.43519
#
# Velocity S-wave (km/s) = 5.73683 3.67539 4.81767
# Velocity P-wave (km/s) = 7.91111 6.62483 7.29637
#
# Compressibility (1/GPa) = 0.02279597
#
# Stress axis : x y z
#
# Youngs Moduli (GPa) = 104.58232 52.31240 129.61934
#
# Poissons Ratio (x) = 0.04530 0.44092
# Poissons Ratio (y) = 0.09056 0.32804
# Poissons Ratio (z) = 0.35575 0.13239
#
# Static dielectric constant tensor:
#      x y z
#    x 2.105600 0.000000 -0.152610 
#    y 0.000000 1.874280 0.000000 
#    z -0.152610 0.000000 1.996880 
# 
# From -- ./inp_files/86291.got.cif
#   From: 2010.05.17/outbox.cif.g08.bks.cpg/sg13_44_cif.got.tgz:86291.got - 2010.06.03 16:44:36.
