data_PCOD9231348
_publ_section_title
;
Structure prediction by ZEFSAII (Michael W. Deem and Ramdas Pophale) SiO2 
 PCOD9231348
Probable space group: P 2/C
;
_chemical_formula_sum "Si O2"
_cell_formula_units_Z 16
_cell_length_a 7.867959
_cell_length_b 18.838564
_cell_length_c 8.911494
_cell_angle_alpha 90.000000
_cell_angle_beta 35.462715
_cell_angle_gamma 90.000000
_cell_volume 766.333752
_symmetry_space_group_name_H-M "P 2/C"
_symmetry_group_IT_number 13
_symmetry_cell_setting 'monoclinic'
loop_
_space_group_symop_operation_xyz
x,y,z
-x,y,1/2-z
-x,-y,-z
x,-y,1/2+z
loop_
_atom_site_type_symbol
_atom_site_label
_atom_site_fract_x
_atom_site_fract_y
_atom_site_fract_z
Si Si1 0.294651 0.544654 0.253910
Si Si2 0.167920 0.939983 0.971054
Si Si3 0.318301 0.294620 0.723149
Si Si4 0.177169 0.794281 0.780291
O O1 0.500000 0.553060 0.250000
O O2 0.255035 0.624564 0.220840
O O3 0.000000 0.500000 0.500000
O O4 0.500000 0.500000 0.000000
O O5 0.500000 0.966005 0.750000
O O6 0.194537 0.868516 0.853407
O O7 0.000000 0.927761 0.250000
O O8 0.000000 0.000000 0.000000
O O9 0.500000 0.296870 0.750000
O O10 0.517217 0.245076 0.474362
O O11 0.015289 0.257360 0.978922
O O12 0.000000 0.803827 0.750000
#
# Coordination Sequence:
#
# PCOD9231348 Si02
#       4
#     4   4   4   4
#     4  11  22  39  61  89 123 163 209 256 307 368
#     4  12  26  44  66  95 129 165 205 256 311 372
#     4   9  19  36  61  87 118 161 206 248 304 376
#     4  10  20  39  64  89 117 159 208 254 305 366
#
# _framework density 20.878630999999999
#
# number of rings (size 3 to 8) (size 9 to 14) (size 15 to 20)
#    0.000    1.500    0.000    5.250    0.000    7.000 
#    0.000   12.500    0.000    0.000    0.000    0.000 
#    0.000    0.000    0.000    0.000    0.000    0.000 
#
# Total GULP energy -89413.942974 kJ/mol
# GULP energy per Si atom -5588.371436 kJ/mol
# Density = 2.083111 g / cm^3
# Si number density = 20.878631 Si / 1000 Ang^3
#
#
#
# Elastic Constant Matrix: (Units=GPa)
#
#
# Indices 1 2 3 4 5 6 
#
# 1 64.1495 51.9081 46.3098 0.0000 -7.8946 0.0000
# 2 51.9081 194.0332 92.1839 0.0000 10.9737 0.0000
# 3 46.3098 92.1839 204.4668 0.0000 -0.3901 0.0000
# 4 0.0000 0.0000 0.0000 24.5393 0.0000 -13.1993
# 5 -7.8946 10.9737 -0.3901 0.0000 24.3402 0.0000
# 6 0.0000 0.0000 0.0000 -13.1993 0.0000 14.3948
#
#
#
# Elastic Compliance Matrix: (Units=1/GPa)
#
#
# Indices 1 2 3 4 5 6 
#
# 1 0.023239 -0.005457 -0.002784 0.000000 0.009953 0.000000
# 2 -0.005457 0.008067 -0.002412 0.000000 -0.005446 0.000000
# 3 -0.002784 -0.002412 0.006609 0.000000 0.000290 0.000000
# 4 0.000000 0.000000 0.000000 0.080410 0.000000 0.073732
# 5 0.009953 -0.005446 0.000290 0.000000 0.046773 0.000000
# 6 0.000000 0.000000 0.000000 0.073732 0.000000 0.137078
#
#
# Mechanical properties :
#
#
# Convention : Reuss Voigt Hill
#
# Bulk Modulus (GPa) = 60.20468 93.71700 76.96084
# Shear Modulus (GPa) = 15.19668 30.80469 23.00069
#
# Velocity S-wave (km/s) = 2.70081 3.84528 3.32269
# Velocity P-wave (km/s) = 6.21482 8.04357 7.18759
#
# Compressibility (1/GPa) = 0.01661001
#
# Stress axis : x y z
#
# Youngs Moduli (GPa) = 43.03079 123.95585 151.30533
#
# Poissons Ratio (x) = 0.67645 0.42125
# Poissons Ratio (y) = 0.23483 0.36488
# Poissons Ratio (z) = 0.11980 0.29893
#
# Static dielectric constant tensor:
#      x y z
#    x 1.781280 0.000000 0.012230 
#    y 0.000000 1.749240 0.000000 
#    z 0.012230 0.000000 1.707480 
# 
# From -- ./inp_files/9622.got.cif
#   From: 2010.05.17/outbox.cif.g08.bks.cpg/sg13_5_cif.got.tgz:9622.got - 2010.06.03 16:44:36.
