data_PCOD9231859
_publ_section_title
;
Structure prediction by ZEFSAII (Michael W. Deem and Ramdas Pophale) SiO2 
 PCOD9231859
Probable space group: P 2/C
;
_chemical_formula_sum "Si O2"
_cell_formula_units_Z 28
_cell_length_a 6.971128
_cell_length_b 18.847498
_cell_length_c 11.465459
_cell_angle_alpha 90.000000
_cell_angle_beta 63.200012
_cell_angle_gamma 90.000000
_cell_volume 1344.615883
_symmetry_space_group_name_H-M "P 2/C"
_symmetry_group_IT_number 13
_symmetry_cell_setting 'monoclinic'
loop_
_space_group_symop_operation_xyz
x,y,z
-x,y,1/2-z
-x,-y,-z
x,-y,1/2+z
loop_
_atom_site_type_symbol
_atom_site_label
_atom_site_fract_x
_atom_site_fract_y
_atom_site_fract_z
Si Si1 0.963789 0.095260 0.626347
Si Si2 0.098420 0.441849 0.384836
Si Si3 0.080786 0.766967 0.488324
Si Si4 0.679032 0.363044 0.510718
Si Si5 0.359775 0.307115 0.402574
Si Si6 0.000000 0.167616 0.250000
Si Si7 0.251810 0.942090 0.840447
Si Si8 0.500000 0.468925 0.750000
O O1 0.176371 0.081506 0.489908
O O2 0.000000 0.112825 0.750000
O O3 0.849864 0.162040 0.596596
O O4 0.840080 0.020778 0.654278
O O5 0.230393 0.379202 0.410740
O O6 0.291954 0.484526 0.269750
O O7 0.000000 0.500000 0.500000
O O8 0.885860 0.401756 0.394265
O O9 0.222546 0.697465 0.431572
O O10 0.094826 0.783502 0.622622
O O11 0.831687 0.749425 0.525270
O O12 0.519677 0.325807 0.463578
O O13 0.562159 0.420665 0.622899
O O14 0.500000 0.287171 0.250000
O O15 0.844009 0.114647 0.223814
O O16 0.500000 0.943776 0.750000
#
# Coordination Sequence:
#
# PCOD9231859 Si02
#       8
#     4   4   4   4   4   2   4   2
#     4  10  22  43  63  98 138 165 216 274 330 391
#     4   9  20  40  60  92 121 157 212 263 322 377
#     4  10  23  40  61  90 131 172 214 268 324 386
#     4  10  23  41  61  89 129 164 214 268 313 392
#     4  11  22  41  62  92 124 168 221 259 319 390
#     4  10  20  42  66  92 130 168 222 274 314 376
#     4  10  22  42  68  97 129 173 221 271 322 390
#     4  10  20  42  64  92 124 166 212 258 334 386
#
# _framework density 20.823789000000001
#
# number of rings (size 3 to 8) (size 9 to 14) (size 15 to 20)
#    0.000    2.000    1.429    0.857    0.000   10.286 
#    6.429    5.000    0.000    0.000    0.000    0.000 
#    0.000    0.000    0.000    0.000    0.000    0.000 
#
# Total GULP energy -156267.982767 kJ/mol
# GULP energy per Si atom -5580.999385 kJ/mol
# Density = 2.077639 g / cm^3
# Si number density = 20.823789 Si / 1000 Ang^3
#
#
#
# Elastic Constant Matrix: (Units=GPa)
#
#
# Indices 1 2 3 4 5 6 
#
# 1 98.3404 19.4735 44.2157 0.0000 -12.7756 0.0000
# 2 19.4735 98.2757 5.9145 0.0000 -9.5075 0.0000
# 3 44.2157 5.9145 64.3253 0.0000 2.3024 0.0000
# 4 0.0000 0.0000 0.0000 10.3812 0.0000 12.0314
# 5 -12.7756 -9.5075 2.3024 0.0000 35.2642 0.0000
# 6 0.0000 0.0000 0.0000 12.0314 0.0000 -30.9283
#
#
#
# Elastic Compliance Matrix: (Units=1/GPa)
#
#
# Indices 1 2 3 4 5 6 
#
# 1 0.016472 -0.001983 -0.011361 0.000000 0.006175 0.000000
# 2 -0.001983 0.010760 0.000296 0.000000 0.002163 0.000000
# 3 -0.011361 0.000296 0.023527 0.000000 -0.005572 0.000000
# 4 0.000000 0.000000 0.000000 0.066394 0.000000 0.025828
# 5 0.006175 0.002163 -0.005572 0.000000 0.031541 0.000000
# 6 0.000000 0.000000 0.000000 0.025828 0.000000 -0.022286
#
#
# Mechanical properties :
#
#
# Convention : Reuss Voigt Hill
#
# Bulk Modulus (GPa) = 40.54529 44.46098 42.50313
# Shear Modulus (GPa) = 31.10898 15.69928 23.40413
#
# Velocity S-wave (km/s) = 3.86931 2.74872 3.35612
# Velocity P-wave (km/s) = 6.28292 5.60993 5.95594
#
# Compressibility (1/GPa) = 0.02466378
#
# Stress axis : x y z
#
# Youngs Moduli (GPa) = 60.71044 92.93847 42.50358
#
# Poissons Ratio (x) = 0.18428 0.48288
# Poissons Ratio (y) = 0.12038 -0.01259
# Poissons Ratio (z) = 0.68973 -0.02753
#
# Static dielectric constant tensor:
#      x y z
#    x 1.749850 0.000000 0.024770 
#    y 0.000000 1.803570 0.000000 
#    z 0.024770 0.000000 1.825270 
# 
# From -- ./inp_files/26719.got.cif
#   From: 2010.05.17/outbox.cif.g08.bks.cpg/sg13_14_cif.got.tgz:26719.got - 2010.06.03 16:44:36.
