data_PCOD9231042
_publ_section_title
;
Structure prediction by ZEFSAII (Michael W. Deem and Ramdas Pophale) SiO2 
 PCOD9231042
Probable space group: P 2/C
;
_chemical_formula_sum "Si O2"
_cell_formula_units_Z 22
_cell_length_a 8.218287
_cell_length_b 7.911932
_cell_length_c 21.172298
_cell_angle_alpha 90.000000
_cell_angle_beta 41.806192
_cell_angle_gamma 90.000000
_cell_volume 917.710385
_symmetry_space_group_name_H-M "P 2/C"
_symmetry_group_IT_number 13
_symmetry_cell_setting 'monoclinic'
loop_
_space_group_symop_operation_xyz
x,y,z
-x,y,1/2-z
-x,-y,-z
x,-y,1/2+z
loop_
_atom_site_type_symbol
_atom_site_label
_atom_site_fract_x
_atom_site_fract_y
_atom_site_fract_z
Si Si1 0.873747 0.387302 0.394470
Si Si2 0.549119 0.842535 0.901891
Si Si3 0.074788 0.227925 0.593436
Si Si4 0.574829 0.424505 0.300645
Si Si5 0.180636 0.661543 0.453556
Si Si6 0.000000 0.911160 0.250000
O O1 0.686432 0.302361 0.401882
O O2 0.822559 0.580609 0.428665
O O3 0.871544 0.279670 0.460239
O O4 0.136158 0.398787 0.284975
O O5 0.465889 0.745292 0.862597
O O6 0.303997 0.890055 0.009480
O O7 0.752739 0.980189 0.829005
O O8 0.972680 0.185322 0.691651
O O9 0.886893 0.229331 0.588733
O O10 0.500000 0.443515 0.250000
O O11 0.454383 0.585979 0.369631
O O12 0.000000 0.500000 0.500000
#
# Coordination Sequence:
#
# PCOD9231042 Si02
#       6
#     4   4   4   4   4   2
#     4  11  22  39  72 102 127 171 233 292 339 380
#     4  12  24  44  67  98 138 183 226 276 340 408
#     4  11  24  43  68  98 136 177 228 288 334 401
#     4  12  20  37  71  98 135 162 224 286 344 384
#     4  10  20  38  63 102 125 165 217 298 337 376
#     4  12  28  42  66  96 150 188 220 260 344 430
#
# _framework density 23.972705000000001
#
# number of rings (size 3 to 8) (size 9 to 14) (size 15 to 20)
#    0.000    0.727    9.091    1.091    2.545    0.000 
#    0.000    0.909    8.000    0.000    0.000    0.000 
#    0.000    0.000    0.000    0.000    0.000    0.000 
#
# Total GULP energy -122994.117253 kJ/mol
# GULP energy per Si atom -5590.641693 kJ/mol
# Density = 2.391814 g / cm^3
# Si number density = 23.972705 Si / 1000 Ang^3
#
#
#
# Elastic Constant Matrix: (Units=GPa)
#
#
# Indices 1 2 3 4 5 6 
#
# 1 58.0736 25.2164 59.8954 0.0000 6.0400 0.0000
# 2 25.2164 57.2050 31.8515 0.0000 4.9432 0.0000
# 3 59.8954 31.8515 172.2430 0.0000 14.4612 0.0000
# 4 0.0000 0.0000 0.0000 -18.3396 0.0000 -4.9211
# 5 6.0400 4.9432 14.4612 0.0000 31.2329 0.0000
# 6 0.0000 0.0000 0.0000 -4.9211 0.0000 21.3302
#
#
#
# Elastic Compliance Matrix: (Units=1/GPa)
#
#
# Indices 1 2 3 4 5 6 
#
# 1 0.029990 -0.008247 -0.008871 0.000000 -0.000387 0.000000
# 2 -0.008247 0.021821 -0.001052 0.000000 -0.001372 0.000000
# 3 -0.008871 -0.001052 0.009288 0.000000 -0.002418 0.000000
# 4 0.000000 0.000000 0.000000 -0.051348 0.000000 -0.011847
# 5 -0.000387 -0.001372 -0.002418 0.000000 0.033429 0.000000
# 6 0.000000 0.000000 0.000000 -0.011847 0.000000 0.044149
#
#
# Mechanical properties :
#
#
# Convention : Reuss Voigt Hill
#
# Bulk Modulus (GPa) = 40.39040 57.93870 49.16455
# Shear Modulus (GPa) = 37.90102 18.21526 28.05814
#
# Velocity S-wave (km/s) = 3.98050 2.75950 3.42485
# Velocity P-wave (km/s) = 6.16530 5.86295 6.01603
#
# Compressibility (1/GPa) = 0.02475836
#
# Stress axis : x y z
#
# Youngs Moduli (GPa) = 33.34420 45.82810 107.66325
#
# Poissons Ratio (x) = 0.37794 0.95510
# Poissons Ratio (y) = 0.27499 0.11328
# Poissons Ratio (z) = 0.29580 0.04822
#
# Static dielectric constant tensor:
#      x y z
#    x 1.924090 0.000000 0.016240 
#    y 0.000000 1.935220 0.000000 
#    z 0.016240 0.000000 2.005460 
# 
# From -- ./inp_files/75551.got.cif
#   From: 2010.05.17/outbox.cif.g08.bks.cpg/sg13_38_cif.got.tgz:75551.got - 2010.06.03 16:44:36.
