data_PCOD9231086
_publ_section_title
;
Structure prediction by ZEFSAII (Michael W. Deem and Ramdas Pophale) SiO2 
 PCOD9231086
Probable space group: P 2/C
;
_chemical_formula_sum "Si O2"
_cell_formula_units_Z 24
_cell_length_a 8.077230
_cell_length_b 10.618395
_cell_length_c 23.817213
_cell_angle_alpha 90.000000
_cell_angle_beta 30.727361
_cell_angle_gamma 90.000000
_cell_volume 1043.743113
_symmetry_space_group_name_H-M "P 2/C"
_symmetry_group_IT_number 13
_symmetry_cell_setting 'monoclinic'
loop_
_space_group_symop_operation_xyz
x,y,z
-x,y,1/2-z
-x,-y,-z
x,-y,1/2+z
loop_
_atom_site_type_symbol
_atom_site_label
_atom_site_fract_x
_atom_site_fract_y
_atom_site_fract_z
Si Si1 0.778835 0.144406 0.757400
Si Si2 0.351104 0.785631 0.014705
Si Si3 0.356366 0.368224 0.347370
Si Si4 0.625312 0.463581 0.375585
Si Si5 0.361487 0.724706 0.461468
Si Si6 0.341311 0.869826 0.682016
O O1 0.471418 0.220231 0.869723
O O2 0.000000 0.146341 0.750000
O O3 0.990509 0.200803 0.645191
O O4 0.683741 0.999477 0.777211
O O5 0.578294 0.815737 0.002643
O O6 0.478111 0.649721 0.955163
O O7 0.407729 0.872618 0.943609
O O8 0.500000 0.427887 0.250000
O O9 0.403237 0.461802 0.384906
O O10 0.563573 0.245931 0.306168
O O11 0.000861 0.321820 0.437405
O O12 0.587406 0.603786 0.409501
O O13 0.000000 0.442262 0.250000
O O14 0.000000 0.847932 0.750000
#
# Coordination Sequence:
#
# PCOD9231086 Si02
#       6
#     4   4   4   4   4   4
#     4   9  21  37  59  88 119 155 201 252 297 355
#     4  10  20  38  64  88 115 159 204 247 298 356
#     4  11  23  38  59  87 119 157 201 250 303 355
#     4  11  22  40  63  88 120 160 205 245 296 363
#     4  11  22  38  59  91 123 153 199 252 303 350
#     4  10  21  39  60  85 116 158 205 246 296 360
#
# _framework density 22.994164999999999
#
# number of rings (size 3 to 8) (size 9 to 14) (size 15 to 20)
#    0.000    1.667    0.000    6.500    0.000    9.333 
#    0.000    5.000    0.000    0.000    0.000    0.000 
#    0.000    0.000    0.000    0.000    0.000    0.000 
#
# Total GULP energy -134060.367521 kJ/mol
# GULP energy per Si atom -5585.848647 kJ/mol
# Density = 2.294183 g / cm^3
# Si number density = 22.994165 Si / 1000 Ang^3
#
#
#
# Elastic Constant Matrix: (Units=GPa)
#
#
# Indices 1 2 3 4 5 6 
#
# 1 46.2588 -14.8271 24.0922 0.0000 17.0023 0.0000
# 2 -14.8271 80.8959 1.2485 0.0000 4.0098 0.0000
# 3 24.0922 1.2485 87.0623 0.0000 20.8857 0.0000
# 4 0.0000 0.0000 0.0000 24.9764 0.0000 3.1721
# 5 17.0023 4.0098 20.8857 0.0000 33.9857 0.0000
# 6 0.0000 0.0000 0.0000 3.1721 0.0000 10.5211
#
#
#
# Elastic Compliance Matrix: (Units=1/GPa)
#
#
# Indices 1 2 3 4 5 6 
#
# 1 0.031433 0.006493 -0.005671 0.000000 -0.013006 0.000000
# 2 0.006493 0.013779 -0.000968 0.000000 -0.004279 0.000000
# 3 -0.005671 -0.000968 0.014499 0.000000 -0.005959 0.000000
# 4 0.000000 0.000000 0.000000 0.041632 0.000000 -0.012552
# 5 -0.013006 -0.004279 -0.005959 0.000000 0.040098 0.000000
# 6 0.000000 0.000000 0.000000 -0.012552 0.000000 0.098832
#
#
# Mechanical properties :
#
#
# Convention : Reuss Voigt Hill
#
# Bulk Modulus (GPa) = 16.82969 26.13826 21.48397
# Shear Modulus (GPa) = 19.20349 27.47686 23.34018
#
# Velocity S-wave (km/s) = 2.89303 3.46055 3.18944
# Velocity P-wave (km/s) = 4.30052 5.23061 4.78820
#
# Compressibility (1/GPa) = 0.05941879
#
# Stress axis : x y z
#
# Youngs Moduli (GPa) = 31.81391 72.57548 68.97157
#
# Poissons Ratio (x) = -0.47126 0.39115
# Poissons Ratio (y) = -0.20658 0.06676
# Poissons Ratio (z) = 0.18042 0.07024
#
# Static dielectric constant tensor:
#      x y z
#    x 1.836070 0.000000 0.003060 
#    y 0.000000 1.860920 0.000000 
#    z 0.003060 0.000000 1.895690 
# 
# From -- ./inp_files/29327.got.cif
#   From: 2010.05.17/outbox.cif.g08.bks.cpg/sg13_15_cif.got.tgz:29327.got - 2010.06.03 16:44:36.
