data_PCOD9231666
_publ_section_title
;
Structure prediction by ZEFSAII (Michael W. Deem and Ramdas Pophale) SiO2 
 PCOD9231666
Probable space group: P 2/C
;
_chemical_formula_sum "Si O2"
_cell_formula_units_Z 24
_cell_length_a 14.624595
_cell_length_b 11.015735
_cell_length_c 15.097645
_cell_angle_alpha 90.000000
_cell_angle_beta 27.656748
_cell_angle_gamma 90.000000
_cell_volume 1128.981735
_symmetry_space_group_name_H-M "P 2/C"
_symmetry_group_IT_number 13
_symmetry_cell_setting 'monoclinic'
loop_
_space_group_symop_operation_xyz
x,y,z
-x,y,1/2-z
-x,-y,-z
x,-y,1/2+z
loop_
_atom_site_type_symbol
_atom_site_label
_atom_site_fract_x
_atom_site_fract_y
_atom_site_fract_z
Si Si1 0.041853 0.273194 0.819384
Si Si2 0.500000 0.180278 0.250000
Si Si3 0.434357 0.389061 0.450291
Si Si4 0.899236 0.971147 0.431495
Si Si5 0.500000 0.596487 0.250000
Si Si6 0.854962 0.388059 0.133997
Si Si7 0.103096 0.247299 0.064516
O O1 0.042750 0.132506 0.849633
O O2 0.000000 0.277704 0.750000
O O3 0.232901 0.355118 0.672483
O O4 0.866446 0.331530 0.025474
O O5 0.456867 0.268286 0.369691
O O6 0.310622 0.095375 0.396480
O O7 0.433029 0.505702 0.386787
O O8 0.625069 0.404276 0.347995
O O9 0.000000 0.988860 0.250000
O O10 0.870457 0.107494 0.488803
O O11 0.310410 0.679510 0.388533
O O12 0.953403 0.305722 0.123445
O O13 0.000000 0.500000 0.000000
O O14 0.000000 0.254338 0.250000
#
# Coordination Sequence:
#
# PCOD9231666 Si02
#       7
#     4   2   4   4   2   4   4
#     4  11  22  41  71  98 129 170 221 279 329 391
#     4  11  17  38  70 100 125 171 226 272 326 393
#     4  11  22  38  69 100 128 169 229 277 326 392
#     4  10  20  40  68  96 129 174 223 270 333 398
#     4  11  23  42  68  98 129 187 222 266 346 393
#     4  12  26  43  64 101 135 175 223 274 337 397
#     4  11  27  45  66  95 140 180 217 274 342 401
#
# _framework density 21.258095999999998
#
# number of rings (size 3 to 8) (size 9 to 14) (size 15 to 20)
#    0.000    1.000    6.667    1.500    2.333    2.667 
#    0.000    0.833    0.000    0.000    0.000    0.000 
#    0.000    0.000    0.000    0.000    0.000    0.000 
#
# Total GULP energy -133948.831515 kJ/mol
# GULP energy per Si atom -5581.201313 kJ/mol
# Density = 2.120971 g / cm^3
# Si number density = 21.258096 Si / 1000 Ang^3
#
#
#
# Elastic Constant Matrix: (Units=GPa)
#
#
# Indices 1 2 3 4 5 6 
#
# 1 84.2459 45.6737 35.1119 0.0000 -21.0416 0.0000
# 2 45.6737 159.4634 48.6564 0.0000 -19.9927 0.0000
# 3 35.1119 48.6564 125.3251 0.0000 -29.1232 0.0000
# 4 0.0000 0.0000 0.0000 27.1449 0.0000 -9.7180
# 5 -21.0416 -19.9927 -29.1232 0.0000 43.9834 0.0000
# 6 0.0000 0.0000 0.0000 -9.7180 0.0000 -17.9532
#
#
#
# Elastic Compliance Matrix: (Units=1/GPa)
#
#
# Indices 1 2 3 4 5 6 
#
# 1 0.015658 -0.003281 -0.002031 0.000000 0.004654 0.000000
# 2 -0.003281 0.007906 -0.001985 0.000000 0.000709 0.000000
# 3 -0.002031 -0.001985 0.010499 0.000000 0.005078 0.000000
# 4 0.000000 0.000000 0.000000 0.030859 0.000000 -0.016704
# 5 0.004654 0.000709 0.005078 0.000000 0.028647 0.000000
# 6 0.000000 0.000000 0.000000 -0.016704 0.000000 -0.046659
#
#
# Mechanical properties :
#
#
# Convention : Reuss Voigt Hill
#
# Bulk Modulus (GPa) = 51.36929 69.76871 60.56900
# Shear Modulus (GPa) = 73.53489 26.60786 50.07137
#
# Velocity S-wave (km/s) = 5.88783 3.54172 4.85851
# Velocity P-wave (km/s) = 8.39280 7.04387 7.74775
#
# Compressibility (1/GPa) = 0.01946688
#
# Stress axis : x y z
#
# Youngs Moduli (GPa) = 63.86456 126.49362 95.24703
#
# Poissons Ratio (x) = 0.41509 0.19348
# Poissons Ratio (y) = 0.20957 0.18907
# Poissons Ratio (z) = 0.12973 0.25110
#
# Static dielectric constant tensor:
#      x y z
#    x 1.797570 0.000000 0.007210 
#    y 0.000000 1.807810 0.000000 
#    z 0.007210 0.000000 1.761100 
# 
# From -- ./inp_files/53650.got.cif
#   From: 2010.05.17/outbox.cif.g08.bks.cpg/sg13_27_cif.got.tgz:53650.got - 2010.06.03 16:44:36.
