data_PCOD9231212
_publ_section_title
;
Structure prediction by ZEFSAII (Michael W. Deem and Ramdas Pophale) SiO2 
 PCOD9231212
Probable space group: P 2/C
;
_chemical_formula_sum "Si O2"
_cell_formula_units_Z 20
_cell_length_a 10.529574
_cell_length_b 11.013112
_cell_length_c 13.403530
_cell_angle_alpha 90.000000
_cell_angle_beta 146.376984
_cell_angle_gamma 90.000000
_cell_volume 860.666773
_symmetry_space_group_name_H-M "P 2/C"
_symmetry_group_IT_number 13
_symmetry_cell_setting 'monoclinic'
loop_
_space_group_symop_operation_xyz
x,y,z
-x,y,1/2-z
-x,-y,-z
x,-y,1/2+z
loop_
_atom_site_type_symbol
_atom_site_label
_atom_site_fract_x
_atom_site_fract_y
_atom_site_fract_z
Si Si1 0.412152 0.106413 0.015351
Si Si2 0.245083 0.233128 0.719164
Si Si3 0.477662 0.521211 0.102670
Si Si4 0.789755 0.697999 0.813153
Si Si5 0.500000 0.960516 0.250000
Si Si6 0.000000 0.406555 0.250000
O O1 0.620641 0.190155 0.187766
O O2 0.341412 0.039483 0.071046
O O3 0.257768 0.190716 0.842867
O O4 0.500000 0.000000 0.000000
O O5 0.416410 0.346129 0.810272
O O6 0.337239 0.123917 0.710645
O O7 0.995285 0.273175 0.521601
O O8 0.641252 0.417311 0.252252
O O9 0.500000 0.500000 0.000000
O O10 0.204509 0.519658 0.937229
O O11 0.891525 0.670321 0.769186
#
# Coordination Sequence:
#
# PCOD9231212 Si02
#       6
#     4   4   4   4   2   2
#     4  10  23  44  66  99 144 184 245 293 331 422
#     4  11  21  42  72  99 141 189 230 294 352 422
#     4  10  20  40  69 108 140 178 232 290 360 427
#     4  11  23  41  73 103 147 189 230 293 356 423
#     4  10  24  42  68 102 140 192 248 284 348 412
#     4  10  20  38  70 104 150 188 228 288 364 430
#
# _framework density 23.237798000000002
#
# number of rings (size 3 to 8) (size 9 to 14) (size 15 to 20)
#    0.000    1.600    4.000    1.800    2.800    3.200 
#    0.000   12.000    4.400    0.000    0.000    0.000 
#    0.000    0.000    0.000    0.000    0.000    0.000 
#
# Total GULP energy -111801.957465 kJ/mol
# GULP energy per Si atom -5590.097873 kJ/mol
# Density = 2.318491 g / cm^3
# Si number density = 23.237798 Si / 1000 Ang^3
#
#
#
# Elastic Constant Matrix: (Units=GPa)
#
#
# Indices 1 2 3 4 5 6 
#
# 1 80.1373 44.2833 36.8064 0.0000 -20.5502 0.0000
# 2 44.2833 124.3593 87.1245 0.0000 2.0212 0.0000
# 3 36.8064 87.1245 220.2491 0.0000 -12.9436 0.0000
# 4 0.0000 0.0000 0.0000 104.3785 0.0000 -27.5755
# 5 -20.5502 2.0212 -12.9436 0.0000 33.7410 0.0000
# 6 0.0000 0.0000 0.0000 -27.5755 0.0000 15.9972
#
#
#
# Elastic Compliance Matrix: (Units=1/GPa)
#
#
# Indices 1 2 3 4 5 6 
#
# 1 0.019655 -0.007499 0.000421 0.000000 0.012582 0.000000
# 2 -0.007499 0.014179 -0.004782 0.000000 -0.007251 0.000000
# 3 0.000421 -0.004782 0.006541 0.000000 0.003052 0.000000
# 4 0.000000 0.000000 0.000000 0.017592 0.000000 0.030324
# 5 0.012582 -0.007251 0.003052 0.000000 0.038906 0.000000
# 6 0.000000 0.000000 0.000000 0.030324 0.000000 0.114783
#
#
# Mechanical properties :
#
#
# Convention : Reuss Voigt Hill
#
# Bulk Modulus (GPa) = 60.03627 84.57492 72.30560
# Shear Modulus (GPa) = 20.75310 47.92543 34.33927
#
# Velocity S-wave (km/s) = 2.99168 4.54628 3.84830
# Velocity P-wave (km/s) = 6.15022 8.00204 7.13645
#
# Compressibility (1/GPa) = 0.01665660
#
# Stress axis : x y z
#
# Youngs Moduli (GPa) = 50.87677 70.52462 152.88263
#
# Poissons Ratio (x) = 0.52883 -0.06436
# Poissons Ratio (y) = 0.38150 0.73109
# Poissons Ratio (z) = -0.02142 0.33725
#
# Static dielectric constant tensor:
#      x y z
#    x 1.864930 0.000000 -0.023940 
#    y 0.000000 1.898920 0.000000 
#    z -0.023940 0.000000 1.888950 
# 
# From -- ./inp_files/51277.got.cif
#   From: 2010.05.17/outbox.cif.g08.bks.cpg/sg13_26_cif.got.tgz:51277.got - 2010.06.03 16:44:36.
