data_PCOD9231354
_publ_section_title
;
Structure prediction by ZEFSAII (Michael W. Deem and Ramdas Pophale) SiO2 
 PCOD9231354
Probable space group: P 2/C
;
_chemical_formula_sum "Si O2"
_cell_formula_units_Z 22
_cell_length_a 20.798733
_cell_length_b 6.860140
_cell_length_c 13.296104
_cell_angle_alpha 90.000000
_cell_angle_beta 30.981613
_cell_angle_gamma 90.000000
_cell_volume 976.565913
_symmetry_space_group_name_H-M "P 2/C"
_symmetry_group_IT_number 13
_symmetry_cell_setting 'monoclinic'
loop_
_space_group_symop_operation_xyz
x,y,z
-x,y,1/2-z
-x,-y,-z
x,-y,1/2+z
loop_
_atom_site_type_symbol
_atom_site_label
_atom_site_fract_x
_atom_site_fract_y
_atom_site_fract_z
Si Si1 0.500000 0.500000 0.500000
Si Si2 0.021556 0.643302 0.102916
Si Si3 0.375050 0.331909 0.359764
Si Si4 0.160762 0.915513 0.244503
Si Si5 0.804283 0.335389 0.380448
Si Si6 0.769782 0.340873 0.661999
O O1 0.590678 0.372911 0.301000
O O2 0.377343 0.372015 0.631586
O O3 0.973772 0.837109 0.111978
O O4 0.922255 0.475551 0.204751
O O5 0.000000 0.678067 0.250000
O O6 0.155379 0.540716 0.912163
O O7 0.500000 0.274621 0.250000
O O8 0.263016 0.185242 0.532361
O O9 0.320960 0.540124 0.472286
O O10 0.187616 0.824784 0.317461
O O11 0.184788 0.141595 0.197281
O O12 0.803397 0.290320 0.501438
#
# Coordination Sequence:
#
# PCOD9231354 Si02
#       6
#     2   4   4   4   4   4
#     4  10  20  40  62  86 122 158 202 258 300 360
#     4   9  20  39  62  90 124 160 201 256 313 363
#     4  10  20  40  62  85 120 163 200 254 305 363
#     4  11  21  39  65  93 118 164 212 251 307 378
#     4   9  22  39  57  92 126 153 200 259 311 359
#     4  10  20  39  64  90 125 164 207 253 313 366
#
# _framework density 22.527922
#
# number of rings (size 3 to 8) (size 9 to 14) (size 15 to 20)
#    0.000    2.182    1.818    1.636    0.000    3.636 
#    3.273    5.455    0.000    0.000    0.000    0.000 
#    0.000    0.000    0.000    0.000    0.000    0.000 
#
# Total GULP energy -122538.022828 kJ/mol
# GULP energy per Si atom -5569.910129 kJ/mol
# Density = 2.247665 g / cm^3
# Si number density = 22.527922 Si / 1000 Ang^3
#
#
#
# Elastic Constant Matrix: (Units=GPa)
#
#
# Indices 1 2 3 4 5 6 
#
# 1 61.2223 8.6648 9.3814 0.0000 -0.8960 0.0000
# 2 8.6648 89.6037 14.0016 0.0000 -12.4578 0.0000
# 3 9.3814 14.0016 132.5224 0.0000 -10.5241 0.0000
# 4 0.0000 0.0000 0.0000 18.2283 0.0000 2.5465
# 5 -0.8960 -12.4578 -10.5241 0.0000 40.5887 0.0000
# 6 0.0000 0.0000 0.0000 2.5465 0.0000 20.4492
#
#
#
# Elastic Compliance Matrix: (Units=1/GPa)
#
#
# Indices 1 2 3 4 5 6 
#
# 1 0.016702 -0.001501 -0.001053 0.000000 -0.000365 0.000000
# 2 -0.001501 0.011915 -0.000883 0.000000 0.003395 0.000000
# 3 -0.001053 -0.000883 0.007852 0.000000 0.001742 0.000000
# 4 0.000000 0.000000 0.000000 0.055831 0.000000 -0.006953
# 5 -0.000365 0.003395 0.001742 0.000000 0.026123 0.000000
# 6 0.000000 0.000000 0.000000 -0.006953 0.000000 0.049767
#
#
# Mechanical properties :
#
#
# Convention : Reuss Voigt Hill
#
# Bulk Modulus (GPa) = 33.78886 38.60488 36.19687
# Shear Modulus (GPa) = 27.03716 32.60663 29.82190
#
# Velocity S-wave (km/s) = 3.46809 3.80858 3.64232
# Velocity P-wave (km/s) = 5.57388 6.04269 5.81301
#
# Compressibility (1/GPa) = 0.02959555
#
# Stress axis : x y z
#
# Youngs Moduli (GPa) = 59.87175 83.92462 127.35573
#
# Poissons Ratio (x) = 0.12600 0.13407
# Poissons Ratio (y) = 0.08989 0.11246
# Poissons Ratio (z) = 0.06303 0.07411
#
# Static dielectric constant tensor:
#      x y z
#    x 1.855410 0.000000 0.043000 
#    y 0.000000 1.805590 0.000000 
#    z 0.043000 0.000000 1.868220 
# 
# From -- ./inp_files/58179.got.cif
#   From: 2010.05.17/outbox.cif.g08.bks.cpg/sg13_30_cif.got.tgz:58179.got - 2010.06.03 16:44:36.
