data_PCOD9231089
_publ_section_title
;
Structure prediction by ZEFSAII (Michael W. Deem and Ramdas Pophale) SiO2 
 PCOD9231089
Probable space group: P 2/C
;
_chemical_formula_sum "Si O2"
_cell_formula_units_Z 24
_cell_length_a 16.277989
_cell_length_b 8.810925
_cell_length_c 15.556834
_cell_angle_alpha 90.000000
_cell_angle_beta 148.302344
_cell_angle_gamma 90.000000
_cell_volume 1172.368105
_symmetry_space_group_name_H-M "P 2/C"
_symmetry_group_IT_number 13
_symmetry_cell_setting 'monoclinic'
loop_
_space_group_symop_operation_xyz
x,y,z
-x,y,1/2-z
-x,-y,-z
x,-y,1/2+z
loop_
_atom_site_type_symbol
_atom_site_label
_atom_site_fract_x
_atom_site_fract_y
_atom_site_fract_z
Si Si1 0.641783 0.260888 0.810978
Si Si2 0.841253 0.981509 0.556064
Si Si3 0.233117 0.867314 0.241760
Si Si4 0.319798 0.384207 0.171181
Si Si5 0.878627 0.166469 0.410921
Si Si6 0.658452 0.232054 0.479488
O O1 0.500000 0.238623 0.750000
O O2 0.640998 0.169279 0.720092
O O3 0.652227 0.438037 0.799142
O O4 0.791217 0.189412 0.992299
O O5 0.000000 0.994566 0.750000
O O6 0.866156 0.072923 0.489626
O O7 0.697859 0.067317 0.475162
O O8 0.272618 0.779457 0.363957
O O9 0.208242 0.049693 0.230796
O O10 0.061460 0.814287 0.056574
O O11 0.204943 0.322920 0.142060
O O12 0.479559 0.286814 0.324921
O O13 0.266351 0.343549 0.025734
#
# Coordination Sequence:
#
# PCOD9231089 Si02
#       6
#     4   4   4   4   4   4
#     4  11  24  43  57  89 135 167 198 259 318 378
#     4  10  20  38  64  89 121 161 213 257 311 363
#     4  10  21  38  65  91 123 159 216 263 303 363
#     4  10  22  41  59  89 134 164 198 248 327 379
#     4   9  20  39  62  92 122 158 206 268 303 363
#     4  10  20  39  65  91 117 165 211 257 303 368
#
# _framework density 20.471385000000001
#
# number of rings (size 3 to 8) (size 9 to 14) (size 15 to 20)
#    0.000    2.000    3.333    0.000    7.000    2.000 
#    3.000    0.000    0.000    0.000    0.000    0.000 
#    0.000    0.000    0.000    0.000    0.000    0.000 
#
# Total GULP energy -133749.876489 kJ/mol
# GULP energy per Si atom -5572.911520 kJ/mol
# Density = 2.042479 g / cm^3
# Si number density = 20.471385 Si / 1000 Ang^3
#
#
#
# Elastic Constant Matrix: (Units=GPa)
#
#
# Indices 1 2 3 4 5 6 
#
# 1 73.2831 24.7826 5.3254 0.0000 17.8244 0.0000
# 2 24.7826 70.5013 45.1207 0.0000 8.7798 0.0000
# 3 5.3254 45.1207 50.4773 0.0000 -2.1041 0.0000
# 4 0.0000 0.0000 0.0000 11.4411 0.0000 4.8636
# 5 17.8244 8.7798 -2.1041 0.0000 30.8280 0.0000
# 6 0.0000 0.0000 0.0000 4.8636 0.0000 26.7631
#
#
#
# Elastic Compliance Matrix: (Units=1/GPa)
#
#
# Indices 1 2 3 4 5 6 
#
# 1 0.018192 -0.009459 0.006227 0.000000 -0.007399 0.000000
# 2 -0.009459 0.042694 -0.037552 0.000000 -0.009253 0.000000
# 3 0.006227 -0.037552 0.053168 0.000000 0.010723 0.000000
# 4 0.000000 0.000000 0.000000 0.094722 0.000000 -0.017214
# 5 -0.007399 -0.009253 0.010723 0.000000 0.040083 0.000000
# 6 0.000000 0.000000 0.000000 -0.017214 0.000000 0.040493
#
#
# Mechanical properties :
#
#
# Convention : Reuss Voigt Hill
#
# Bulk Modulus (GPa) = 30.78098 38.30213 34.54155
# Shear Modulus (GPa) = 13.09767 21.74198 17.41982
#
# Velocity S-wave (km/s) = 2.53218 3.26247 2.92024
# Velocity P-wave (km/s) = 4.85983 5.73954 5.31791
#
# Compressibility (1/GPa) = 0.03248760
#
# Stress axis : x y z
#
# Youngs Moduli (GPa) = 54.97046 23.42223 18.80844
#
# Poissons Ratio (x) = 0.22155 -0.11713
# Poissons Ratio (y) = 0.51995 0.70629
# Poissons Ratio (z) = -0.34232 0.87954
#
# Static dielectric constant tensor:
#      x y z
#    x 1.798660 0.000000 -0.000310 
#    y 0.000000 1.727860 0.000000 
#    z -0.000310 0.000000 1.734530 
# 
# From -- ./inp_files/69523.got.cif
#   From: 2010.05.17/outbox.cif.g08.bks.cpg/sg13_35_cif.got.tgz:69523.got - 2010.06.03 16:44:36.
