data_PCOD9231663
_publ_section_title
;
Structure prediction by ZEFSAII (Michael W. Deem and Ramdas Pophale) SiO2 
 PCOD9231663
Probable space group: P 2/C
;
_chemical_formula_sum "Si O2"
_cell_formula_units_Z 20
_cell_length_a 21.921241
_cell_length_b 7.631344
_cell_length_c 15.460960
_cell_angle_alpha 90.000000
_cell_angle_beta 163.496508
_cell_angle_gamma 90.000000
_cell_volume 734.740156
_symmetry_space_group_name_H-M "P 2/C"
_symmetry_group_IT_number 13
_symmetry_cell_setting 'monoclinic'
loop_
_space_group_symop_operation_xyz
x,y,z
-x,y,1/2-z
-x,-y,-z
x,-y,1/2+z
loop_
_atom_site_type_symbol
_atom_site_label
_atom_site_fract_x
_atom_site_fract_y
_atom_site_fract_z
Si Si1 0.158664 0.775843 0.640356
Si Si2 0.349776 0.304223 0.728401
Si Si3 0.000000 0.500000 0.000000
Si Si4 0.500000 0.926250 0.750000
Si Si5 0.565195 0.643293 0.969870
Si Si6 0.914471 0.127860 0.278568
O O1 0.049904 0.735218 0.593048
O O2 0.047814 0.595027 0.462661
O O3 0.411119 0.772393 0.966100
O O4 0.064597 0.957836 0.478104
O O5 0.309635 0.281072 0.775567
O O6 0.179596 0.213459 0.434557
O O7 0.387366 0.508181 0.760466
O O8 0.272059 0.543620 0.372224
O O9 0.534203 0.806618 0.713932
O O10 0.293278 0.042249 0.456037
#
# Coordination Sequence:
#
# PCOD9231663 Si02
#       6
#     4   4   2   2   4   4
#     4  10  21  39  67  98 136 179 237 286 354 435
#     4  10  22  44  67  97 138 183 232 304 348 417
#     4  10  20  40  68  92 134 176 232 290 334 448
#     4  12  22  40  66  98 128 188 224 286 366 436
#     4  10  24  41  70  97 133 182 240 285 359 426
#     4  11  22  39  68  99 137 183 230 291 366 421
#
# _framework density 27.220507000000001
#
# number of rings (size 3 to 8) (size 9 to 14) (size 15 to 20)
#    0.000    1.600    4.000    0.000    5.600    0.800 
#    0.000    4.000    4.400    0.000    0.000    0.000 
#    0.000    0.000    0.000    0.000    0.000    0.000 
#
# Total GULP energy -111576.105234 kJ/mol
# GULP energy per Si atom -5578.805262 kJ/mol
# Density = 2.715855 g / cm^3
# Si number density = 27.220507 Si / 1000 Ang^3
#
#
#
# Elastic Constant Matrix: (Units=GPa)
#
#
# Indices 1 2 3 4 5 6 
#
# 1 114.1862 34.1289 20.5204 0.0000 -10.0026 0.0000
# 2 34.1289 160.7092 33.6405 0.0000 -11.2712 0.0000
# 3 20.5204 33.6405 81.6563 0.0000 -6.0930 0.0000
# 4 0.0000 0.0000 0.0000 39.8219 0.0000 -9.5226
# 5 -10.0026 -11.2712 -6.0930 0.0000 54.5885 0.0000
# 6 0.0000 0.0000 0.0000 -9.5226 0.0000 29.5106
#
#
#
# Elastic Compliance Matrix: (Units=1/GPa)
#
#
# Indices 1 2 3 4 5 6 
#
# 1 0.009649 -0.001612 -0.001667 0.000000 0.001249 0.000000
# 2 -0.001612 0.007146 -0.002471 0.000000 0.000904 0.000000
# 3 -0.001667 -0.002471 0.013737 0.000000 0.000718 0.000000
# 4 0.000000 0.000000 0.000000 0.027212 0.000000 0.008781
# 5 0.001249 0.000904 0.000718 0.000000 0.018814 0.000000
# 6 0.000000 0.000000 0.000000 0.008781 0.000000 0.036719
#
#
# Mechanical properties :
#
#
# Convention : Reuss Voigt Hill
#
# Bulk Modulus (GPa) = 52.54982 59.23681 55.89332
# Shear Modulus (GPa) = 38.13259 42.66834 40.40046
#
# Velocity S-wave (km/s) = 3.74689 3.96347 3.85670
# Velocity P-wave (km/s) = 6.16977 6.53870 6.35691
#
# Compressibility (1/GPa) = 0.01902956
#
# Stress axis : x y z
#
# Youngs Moduli (GPa) = 103.64210 139.94787 72.79601
#
# Poissons Ratio (x) = 0.22566 0.12137
# Poissons Ratio (y) = 0.16712 0.17989
# Poissons Ratio (z) = 0.17280 0.34583
#
# Static dielectric constant tensor:
#      x y z
#    x 2.420870 0.000000 -0.220230 
#    y 0.000000 2.275640 0.000000 
#    z -0.220230 0.000000 2.362010 
# 
# From -- ./inp_files/57423.got.cif
#   From: 2010.05.17/outbox.cif.g08.bks.cpg/sg13_29_cif.got.tgz:57423.got - 2010.06.03 16:44:36.
