data_PCOD9231766
_publ_section_title
;
Structure prediction by ZEFSAII (Michael W. Deem and Ramdas Pophale) SiO2 
 PCOD9231766
Probable space group: P 2/C
;
_chemical_formula_sum "Si O2"
_cell_formula_units_Z 28
_cell_length_a 5.144459
_cell_length_b 18.080096
_cell_length_c 15.403931
_cell_angle_alpha 90.000000
_cell_angle_beta 133.605543
_cell_angle_gamma 90.000000
_cell_volume 1037.465440
_symmetry_space_group_name_H-M "P 2/C"
_symmetry_group_IT_number 13
_symmetry_cell_setting 'monoclinic'
loop_
_space_group_symop_operation_xyz
x,y,z
-x,y,1/2-z
-x,-y,-z
x,-y,1/2+z
loop_
_atom_site_type_symbol
_atom_site_label
_atom_site_fract_x
_atom_site_fract_y
_atom_site_fract_z
Si Si1 0.471912 0.548794 0.139515
Si Si2 0.973548 0.141111 0.431563
Si Si3 0.025685 0.714468 0.655810
Si Si4 0.199894 0.163107 0.914910
Si Si5 0.240879 0.678787 0.399660
Si Si6 0.228507 0.401616 0.068388
Si Si7 0.084177 0.997866 0.368309
O O1 0.500000 0.547704 0.250000
O O2 0.671449 0.624389 0.159011
O O3 0.547731 0.460751 0.140139
O O4 0.138195 0.555035 0.993035
O O5 0.883082 0.199683 0.335680
O O6 0.410421 0.149176 0.539583
O O7 0.782588 0.164838 0.476177
O O8 0.893018 0.057158 0.386576
O O9 0.625301 0.704676 0.525936
O O10 0.000000 0.692832 0.750000
O O11 0.248490 0.666334 0.637554
O O12 0.042404 0.242373 0.849416
O O13 0.975441 0.088241 0.847621
O O14 0.106612 0.627470 0.446612
O O15 0.000000 0.021632 0.250000
O O16 0.500000 0.000000 0.500000
#
# Coordination Sequence:
#
# PCOD9231766 Si02
#       7
#     4   4   4   4   4   4   4
#     4  10  23  40  61  90 120 166 218 277 348 415
#     4  10  20  41  65  98 136 180 229 290 358 425
#     4  10  21  35  59  95 125 170 219 283 349 414
#     4  10  21  41  67  95 137 181 233 288 350 431
#     4  10  21  40  60  88 127 169 219 281 340 417
#     4  10  21  41  60  87 125 160 220 276 340 421
#     4  10  22  43  69 106 145 195 245 306 368 443
#
# _framework density 26.988848999999998
#
# number of rings (size 3 to 8) (size 9 to 14) (size 15 to 20)
#    0.000    2.000    1.429    1.286    2.000    0.571 
#    2.571   15.714    0.000    0.000    0.000    0.000 
#    0.000    0.000    0.000    0.000    0.000    0.000 
#
# Total GULP energy -156155.871164 kJ/mol
# GULP energy per Si atom -5576.995399 kJ/mol
# Density = 2.692742 g / cm^3
# Si number density = 26.988849 Si / 1000 Ang^3
#
#
#
# Elastic Constant Matrix: (Units=GPa)
#
#
# Indices 1 2 3 4 5 6 
#
# 1 69.5400 10.9266 25.8222 0.0000 -16.6634 0.0000
# 2 10.9266 245.9647 30.1438 0.0000 -35.6904 0.0000
# 3 25.8222 30.1438 115.1750 0.0000 -29.0947 0.0000
# 4 0.0000 0.0000 0.0000 11.8002 0.0000 -31.7833
# 5 -16.6634 -35.6904 -29.0947 0.0000 58.1773 0.0000
# 6 0.0000 0.0000 0.0000 -31.7833 0.0000 27.2614
#
#
#
# Elastic Compliance Matrix: (Units=1/GPa)
#
#
# Indices 1 2 3 4 5 6 
#
# 1 0.016203 0.000104 -0.002829 0.000000 0.003290 0.000000
# 2 0.000104 0.004494 -0.000567 0.000000 0.002503 0.000000
# 3 -0.002829 -0.000567 0.010499 0.000000 0.004092 0.000000
# 4 0.000000 0.000000 0.000000 -0.039596 0.000000 -0.046164
# 5 0.003290 0.002503 0.004092 0.000000 0.021713 0.000000
# 6 0.000000 0.000000 0.000000 -0.046164 0.000000 -0.017139
#
#
# Mechanical properties :
#
#
# Convention : Reuss Voigt Hill
#
# Bulk Modulus (GPa) = 40.63086 62.71832 51.67459
# Shear Modulus (GPa) = 456.19553 43.70029 249.94791
#
# Velocity S-wave (km/s) = 13.01530 4.02829 9.63393
# Velocity P-wave (km/s) = 15.52261 6.70263 11.95568
#
# Compressibility (1/GPa) = 0.02461184
#
# Stress axis : x y z
#
# Youngs Moduli (GPa) = 61.71846 222.53396 95.24836
#
# Poissons Ratio (x) = -0.02321 0.26944
# Poissons Ratio (y) = -0.00644 0.05402
# Poissons Ratio (z) = 0.17459 0.12622
#
# Static dielectric constant tensor:
#      x y z
#    x 2.968070 0.000000 0.384900 
#    y 0.000000 2.239760 0.000000 
#    z 0.384900 0.000000 2.285440 
# 
# From -- ./inp_files/44515.got.cif
#   From: 2010.05.17/outbox.cif.g08.bks.cpg/sg13_23_cif.got.tgz:44515.got - 2010.06.03 16:44:36.
