data_PCOD9231112
_publ_section_title
;
Structure prediction by ZEFSAII (Michael W. Deem and Ramdas Pophale) SiO2 
 PCOD9231112
Probable space group: P 2/C
;
_chemical_formula_sum "Si O2"
_cell_formula_units_Z 26
_cell_length_a 10.075911
_cell_length_b 18.941168
_cell_length_c 15.644002
_cell_angle_alpha 90.000000
_cell_angle_beta 155.652569
_cell_angle_gamma 90.000000
_cell_volume 1230.890181
_symmetry_space_group_name_H-M "P 2/C"
_symmetry_group_IT_number 13
_symmetry_cell_setting 'monoclinic'
loop_
_space_group_symop_operation_xyz
x,y,z
-x,y,1/2-z
-x,-y,-z
x,-y,1/2+z
loop_
_atom_site_type_symbol
_atom_site_label
_atom_site_fract_x
_atom_site_fract_y
_atom_site_fract_z
Si Si1 0.278951 0.975465 0.987102
Si Si2 0.421387 0.246541 0.602059
Si Si3 0.302453 0.131584 0.861761
Si Si4 0.143544 0.516647 0.256191
Si Si5 0.108747 0.852602 0.664450
Si Si6 0.565965 0.405541 0.887570
Si Si7 0.500000 0.093725 0.250000
O O1 0.000000 0.984127 0.750000
O O2 0.141453 0.916144 0.969824
O O3 0.600986 0.940336 0.134122
O O4 0.360052 0.042841 0.093351
O O5 0.500000 0.243997 0.750000
O O6 0.647317 0.195895 0.676443
O O7 0.412651 0.326549 0.563671
O O8 0.064712 0.215028 0.398377
O O9 0.000000 0.135589 0.750000
O O10 0.598533 0.135599 0.100377
O O11 0.500000 0.500000 0.500000
O O12 0.238024 0.558209 0.228419
O O13 0.000000 0.561603 0.250000
O O14 0.889351 0.452890 0.092843
O O15 0.239410 0.857517 0.644907
O O16 0.500000 0.398497 0.750000
#
# Coordination Sequence:
#
# PCOD9231112 Si02
#       7
#     4   4   4   4   4   4   2
#     4   9  22  43  61  93 125 163 210 267 338 396
#     4  10  23  43  66  87 126 175 212 253 321 376
#     4  10  23  41  66  92 125 164 215 272 316 385
#     4   9  19  34  59  96 129 160 203 253 303 367
#     4  10  24  41  61  91 123 163 213 265 321 386
#     4  10  20  38  64  93 128 169 207 256 312 369
#     4  12  24  38  70  92 124 166 214 270 342 388
#
# _framework density 21.122923
#
# number of rings (size 3 to 8) (size 9 to 14) (size 15 to 20)
#    0.000    2.154    0.000    2.308    6.462    8.615 
#    0.000    3.077    1.692    0.000    0.000    0.000 
#    0.000    0.000    0.000    0.000    0.000    0.000 
#
# Total GULP energy -144840.075116 kJ/mol
# GULP energy per Si atom -5570.772120 kJ/mol
# Density = 2.107485 g / cm^3
# Si number density = 21.122923 Si / 1000 Ang^3
#
#
#
# Elastic Constant Matrix: (Units=GPa)
#
#
# Indices 1 2 3 4 5 6 
#
# 1 167.4311 54.7198 31.0517 0.0000 31.0540 0.0000
# 2 54.7198 101.8922 20.7142 0.0000 10.4777 0.0000
# 3 31.0517 20.7142 78.4835 0.0000 12.3388 0.0000
# 4 0.0000 0.0000 0.0000 107.5977 0.0000 -65.2801
# 5 31.0540 10.4777 12.3388 0.0000 40.1785 0.0000
# 6 0.0000 0.0000 0.0000 -65.2801 0.0000 52.5884
#
#
#
# Elastic Compliance Matrix: (Units=1/GPa)
#
#
# Indices 1 2 3 4 5 6 
#
# 1 0.008400 -0.003674 -0.001559 0.000000 -0.005056 0.000000
# 2 -0.003674 0.012127 -0.001782 0.000000 0.000225 0.000000
# 3 -0.001559 -0.001782 0.014254 0.000000 -0.002708 0.000000
# 4 0.000000 0.000000 0.000000 0.037647 0.000000 0.046732
# 5 -0.005056 0.000225 -0.002708 0.000000 0.029569 0.000000
# 6 0.000000 0.000000 0.000000 0.046732 0.000000 0.077026
#
#
# Mechanical properties :
#
#
# Convention : Reuss Voigt Hill
#
# Bulk Modulus (GPa) = 48.19201 62.30868 55.25035
# Shear Modulus (GPa) = 25.00356 56.16099 40.58227
#
# Velocity S-wave (km/s) = 3.44425 5.16192 4.38795
# Velocity P-wave (km/s) = 6.21946 8.06780 7.20316
#
# Compressibility (1/GPa) = 0.02075033
#
# Stress axis : x y z
#
# Youngs Moduli (GPa) = 119.04350 82.46198 70.15371
#
# Poissons Ratio (x) = 0.30300 0.10936
# Poissons Ratio (y) = 0.43742 0.12503
# Poissons Ratio (z) = 0.18558 0.14696
#
# Static dielectric constant tensor:
#      x y z
#    x 1.882060 0.000000 -0.066390 
#    y 0.000000 1.822940 0.000000 
#    z -0.066390 0.000000 1.984620 
# 
# From -- ./inp_files/48190.got.cif
#   From: 2010.05.17/outbox.cif.g08.bks.cpg/sg13_25_cif.got.tgz:48190.got - 2010.06.03 16:44:36.
