data_PCOD9231248
_publ_section_title
;
Structure prediction by ZEFSAII (Michael W. Deem and Ramdas Pophale) SiO2 
 PCOD9231248
Probable space group: P 2/C
;
_chemical_formula_sum "Si O2"
_cell_formula_units_Z 24
_cell_length_a 11.665807
_cell_length_b 13.375531
_cell_length_c 11.333618
_cell_angle_alpha 90.000000
_cell_angle_beta 145.611691
_cell_angle_gamma 90.000000
_cell_volume 998.821828
_symmetry_space_group_name_H-M "P 2/C"
_symmetry_group_IT_number 13
_symmetry_cell_setting 'monoclinic'
loop_
_space_group_symop_operation_xyz
x,y,z
-x,y,1/2-z
-x,-y,-z
x,-y,1/2+z
loop_
_atom_site_type_symbol
_atom_site_label
_atom_site_fract_x
_atom_site_fract_y
_atom_site_fract_z
Si Si1 0.376346 0.495840 0.270383
Si Si2 0.761088 0.000956 0.152592
Si Si3 0.624923 0.710026 0.200232
Si Si4 0.381879 0.722284 0.769823
Si Si5 0.221197 0.782573 0.953739
Si Si6 0.774286 0.931158 0.912352
O O1 0.500000 0.496172 0.250000
O O2 0.500000 0.500000 0.500000
O O3 0.269244 0.603859 0.186449
O O4 0.276091 0.386200 0.193177
O O5 0.761230 0.113877 0.100291
O O6 0.680682 0.007895 0.220106
O O7 0.993835 0.966311 0.372504
O O8 0.687508 0.940468 0.973008
O O9 0.735286 0.793833 0.370503
O O10 0.568521 0.734367 0.020249
O O11 0.393624 0.708505 0.054314
O O12 0.500000 0.718919 0.750000
O O13 0.236074 0.816884 0.640906
O O14 0.000000 0.740635 0.750000
#
# Coordination Sequence:
#
# PCOD9231248 Si02
#       6
#     4   4   4   4   4   4
#     4   9  17  34  62  89 122 166 200 257 323 373
#     4  10  21  38  61  82 123 170 210 264 316 362
#     4  10  21  39  66  96 128 163 219 267 311 386
#     4  10  21  38  61  95 128 167 210 260 333 384
#     4  11  20  38  66  95 121 166 219 265 313 371
#     4  10  20  39  59  85 120 171 209 257 319 376
#
# _framework density 24.028310000000001
#
# number of rings (size 3 to 8) (size 9 to 14) (size 15 to 20)
#    0.000    2.000    5.000    0.000    0.000    1.333 
#    6.000    1.667    3.667    9.000    0.000    0.000 
#    0.000    0.000    0.000    0.000    0.000    0.000 
#
# Total GULP energy -133689.834882 kJ/mol
# GULP energy per Si atom -5570.409787 kJ/mol
# Density = 2.397362 g / cm^3
# Si number density = 24.028310 Si / 1000 Ang^3
#
#
#
# Elastic Constant Matrix: (Units=GPa)
#
#
# Indices 1 2 3 4 5 6 
#
# 1 81.7672 29.5481 52.9693 0.0000 -41.7006 0.0000
# 2 29.5481 149.5073 48.2291 0.0000 -24.5798 0.0000
# 3 52.9693 48.2291 156.8707 0.0000 -53.0326 0.0000
# 4 0.0000 0.0000 0.0000 32.1852 0.0000 -17.5618
# 5 -41.7006 -24.5798 -53.0326 0.0000 54.1629 0.0000
# 6 0.0000 0.0000 0.0000 -17.5618 0.0000 21.4151
#
#
#
# Elastic Compliance Matrix: (Units=1/GPa)
#
#
# Indices 1 2 3 4 5 6 
#
# 1 0.020922 -0.001234 -0.002136 0.000000 0.013457 0.000000
# 2 -0.001234 0.007603 -0.001608 0.000000 0.000926 0.000000
# 3 -0.002136 -0.001608 0.010146 0.000000 0.007560 0.000000
# 4 0.000000 0.000000 0.000000 0.056233 0.000000 0.046115
# 5 0.013457 0.000926 0.007560 0.000000 0.036646 0.000000
# 6 0.000000 0.000000 0.000000 0.046115 0.000000 0.084513
#
#
# Mechanical properties :
#
#
# Convention : Reuss Voigt Hill
#
# Bulk Modulus (GPa) = 34.82274 72.18201 53.50237
# Shear Modulus (GPa) = 21.22319 38.71254 29.96787
#
# Velocity S-wave (km/s) = 2.97519 4.01823 3.53539
# Velocity P-wave (km/s) = 5.13090 7.18567 6.24340
#
# Compressibility (1/GPa) = 0.02871687
#
# Stress axis : x y z
#
# Youngs Moduli (GPa) = 47.79579 131.51945 98.55996
#
# Poissons Ratio (x) = 0.16223 0.21053
# Poissons Ratio (y) = 0.05896 0.15848
# Poissons Ratio (z) = 0.10209 0.21147
#
# Static dielectric constant tensor:
#      x y z
#    x 2.170370 0.000000 -0.082420 
#    y 0.000000 2.001020 0.000000 
#    z -0.082420 0.000000 2.012670 
# 
# From -- ./inp_files/37594.got.cif
#   From: 2010.05.17/outbox.cif.g08.bks.cpg/sg13_19_cif.got.tgz:37594.got - 2010.06.03 16:44:36.
