data_PCOD9231251
_publ_section_title
;
Structure prediction by ZEFSAII (Michael W. Deem and Ramdas Pophale) SiO2 
 PCOD9231251
Probable space group: P 2/C
;
_chemical_formula_sum "Si O2"
_cell_formula_units_Z 20
_cell_length_a 13.902738
_cell_length_b 4.862860
_cell_length_c 21.444958
_cell_angle_alpha 90.000000
_cell_angle_beta 139.568251
_cell_angle_gamma 90.000000
_cell_volume 940.275824
_symmetry_space_group_name_H-M "P 2/C"
_symmetry_group_IT_number 13
_symmetry_cell_setting 'monoclinic'
loop_
_space_group_symop_operation_xyz
x,y,z
-x,y,1/2-z
-x,-y,-z
x,-y,1/2+z
loop_
_atom_site_type_symbol
_atom_site_label
_atom_site_fract_x
_atom_site_fract_y
_atom_site_fract_z
Si Si1 0.041324 0.794282 0.577460
Si Si2 0.558795 0.659814 0.088552
Si Si3 0.294923 0.130463 0.284819
Si Si4 0.759959 0.472507 0.421754
Si Si5 0.416720 0.059292 0.625971
O O1 0.130151 0.918875 0.678981
O O2 0.164959 0.600704 0.606684
O O3 0.897275 0.620250 0.524805
O O4 0.000000 0.000000 0.500000
O O5 0.658346 0.438537 0.174886
O O6 0.421870 0.776177 0.062442
O O7 0.660099 0.932591 0.135083
O O8 0.500000 0.500000 0.000000
O O9 0.414103 0.044591 0.289766
O O10 0.637688 0.706142 0.354903
O O11 0.689968 0.202935 0.418917
#
# Coordination Sequence:
#
# PCOD9231251 Si02
#       5
#     4   4   4   4   4
#     4  11  25  40  60  90 135 176 205 241 317 387
#     4  10  21  40  65  93 119 154 211 275 321 355
#     4  10  23  38  63  95 120 163 211 257 308 379
#     4  11  22  38  58  88 131 173 203 252 309 375
#     4  10  20  39  59  92 121 164 212 266 303 366
#
# _framework density 21.270356
#
# number of rings (size 3 to 8) (size 9 to 14) (size 15 to 20)
#    1.200    0.400    4.000    0.600    5.600    0.800 
#    7.200    0.000    0.000    1.200   10.400    0.000 
#    0.000    0.000    0.000    0.000    0.000    0.000 
#
# Total GULP energy -111384.284582 kJ/mol
# GULP energy per Si atom -5569.214229 kJ/mol
# Density = 2.122194 g / cm^3
# Si number density = 21.270356 Si / 1000 Ang^3
#
#
#
# Elastic Constant Matrix: (Units=GPa)
#
#
# Indices 1 2 3 4 5 6 
#
# 1 47.0709 31.6392 37.4349 0.0000 13.3315 0.0000
# 2 31.6392 141.5378 36.6236 0.0000 8.5939 0.0000
# 3 37.4349 36.6236 116.1754 0.0000 12.5773 0.0000
# 4 0.0000 0.0000 0.0000 28.1641 0.0000 -3.0787
# 5 13.3315 8.5939 12.5773 0.0000 15.0301 0.0000
# 6 0.0000 0.0000 0.0000 -3.0787 0.0000 37.7280
#
#
#
# Elastic Compliance Matrix: (Units=1/GPa)
#
#
# Indices 1 2 3 4 5 6 
#
# 1 0.037680 -0.004899 -0.008008 0.000000 -0.023920 0.000000
# 2 -0.004899 0.008423 -0.001128 0.000000 0.000473 0.000000
# 3 -0.008008 -0.001128 0.011771 0.000000 -0.002102 0.000000
# 4 0.000000 0.000000 0.000000 0.035826 0.000000 0.002923
# 5 -0.023920 0.000473 -0.002102 0.000000 0.089239 0.000000
# 6 0.000000 0.000000 0.000000 0.002923 0.000000 0.026744
#
#
# Mechanical properties :
#
#
# Convention : Reuss Voigt Hill
#
# Bulk Modulus (GPa) = 33.55028 57.35328 45.45178
# Shear Modulus (GPa) = 20.18666 29.45687 24.82177
#
# Velocity S-wave (km/s) = 3.08401 3.72543 3.41979
# Velocity P-wave (km/s) = 5.33751 6.74742 6.08345
#
# Compressibility (1/GPa) = 0.02980601
#
# Stress axis : x y z
#
# Youngs Moduli (GPa) = 26.53908 118.71554 84.95271
#
# Poissons Ratio (x) = 0.58154 0.68028
# Poissons Ratio (y) = 0.13000 0.09584
# Poissons Ratio (z) = 0.21252 0.13393
#
# Static dielectric constant tensor:
#      x y z
#    x 1.797070 0.000000 -0.025650 
#    y 0.000000 1.837650 0.000000 
#    z -0.025650 0.000000 1.868020 
# 
# From -- ./inp_files/79138.got.cif
#   From: 2010.05.17/outbox.cif.g08.bks.cpg/sg13_40_cif.got.tgz:79138.got - 2010.06.03 16:44:36.
