data_PCOD9231125
_publ_section_title
;
Structure prediction by ZEFSAII (Michael W. Deem and Ramdas Pophale) SiO2 
 PCOD9231125
Probable space group: P 2/C
;
_chemical_formula_sum "Si O2"
_cell_formula_units_Z 22
_cell_length_a 5.259060
_cell_length_b 8.591877
_cell_length_c 21.524769
_cell_angle_alpha 90.000000
_cell_angle_beta 117.494679
_cell_angle_gamma 90.000000
_cell_volume 862.749256
_symmetry_space_group_name_H-M "P 2/C"
_symmetry_group_IT_number 13
_symmetry_cell_setting 'monoclinic'
loop_
_space_group_symop_operation_xyz
x,y,z
-x,y,1/2-z
-x,-y,-z
x,-y,1/2+z
loop_
_atom_site_type_symbol
_atom_site_label
_atom_site_fract_x
_atom_site_fract_y
_atom_site_fract_z
Si Si1 0.681185 0.577785 0.967510
Si Si2 0.008189 0.948748 0.828802
Si Si3 0.093411 0.878624 0.458592
Si Si4 0.155750 0.611110 0.702645
Si Si5 0.359065 0.632639 0.139275
Si Si6 0.500000 0.843588 0.250000
O O1 0.687920 0.759171 0.983593
O O2 0.500000 0.500000 0.000000
O O3 0.536302 0.512218 0.888995
O O4 0.000000 0.500000 0.000000
O O5 0.977219 0.767801 0.842215
O O6 0.000000 0.955575 0.750000
O O7 0.190053 0.040763 0.903450
O O8 0.717103 0.041710 0.806580
O O9 0.824007 0.762148 0.416563
O O10 0.000000 0.000000 0.500000
O O11 0.500000 0.639042 0.750000
O O12 0.139778 0.454521 0.660948
O O13 0.000000 0.593582 0.750000
O O14 0.592528 0.725963 0.205684
#
# Coordination Sequence:
#
# PCOD9231125 Si02
#       6
#     4   4   4   4   4   2
#     4  10  23  43  66  96 136 186 230 282 343 423
#     4  10  22  39  67  98 134 176 231 291 352 415
#     4  10  22  43  68  98 139 185 236 289 359 423
#     4  11  23  42  66 102 139 180 224 286 354 418
#     4  10  22  40  67  98 136 177 233 284 350 420
#     4  10  20  38  64  98 134 170 222 296 346 416
#
# _framework density 25.499877000000001
#
# number of rings (size 3 to 8) (size 9 to 14) (size 15 to 20)
#    0.000    1.818    1.818    1.091    2.545    5.818 
#    0.000    5.455    0.000    0.000    0.000    0.000 
#    0.000    0.000    0.000    0.000    0.000    0.000 
#
# Total GULP energy -122601.359081 kJ/mol
# GULP energy per Si atom -5572.789049 kJ/mol
# Density = 2.544184 g / cm^3
# Si number density = 25.499877 Si / 1000 Ang^3
#
#
#
# Elastic Constant Matrix: (Units=GPa)
#
#
# Indices 1 2 3 4 5 6 
#
# 1 78.4036 25.6413 13.8729 0.0000 -19.1868 0.0000
# 2 25.6413 199.7870 77.0468 0.0000 -8.5440 0.0000
# 3 13.8729 77.0468 98.5674 0.0000 -24.0378 0.0000
# 4 0.0000 0.0000 0.0000 37.6240 0.0000 -32.8454
# 5 -19.1868 -8.5440 -24.0378 0.0000 34.4304 0.0000
# 6 0.0000 0.0000 0.0000 -32.8454 0.0000 6.7020
#
#
#
# Elastic Compliance Matrix: (Units=1/GPa)
#
#
# Indices 1 2 3 4 5 6 
#
# 1 0.015474 -0.002330 0.001935 0.000000 0.009396 0.000000
# 2 -0.002330 0.007710 -0.006687 0.000000 -0.004054 0.000000
# 3 0.001935 -0.006687 0.018028 0.000000 0.012005 0.000000
# 4 0.000000 0.000000 0.000000 -0.008107 0.000000 -0.039733
# 5 0.009396 -0.004054 0.012005 0.000000 0.041655 0.000000
# 6 0.000000 0.000000 0.000000 -0.039733 0.000000 -0.045513
#
#
# Mechanical properties :
#
#
# Convention : Reuss Voigt Hill
#
# Bulk Modulus (GPa) = 36.97384 67.76445 52.36915
# Shear Modulus (GPa) = 95.37054 33.09773 64.23413
#
# Velocity S-wave (km/s) = 6.12222 3.60662 5.02441
# Velocity P-wave (km/s) = 8.03160 6.63142 7.36486
#
# Compressibility (1/GPa) = 0.02704615
#
# Stress axis : x y z
#
# Youngs Moduli (GPa) = 64.62653 129.70209 55.46929
#
# Poissons Ratio (x) = 0.30225 -0.10733
# Poissons Ratio (y) = 0.15060 0.37094
# Poissons Ratio (z) = -0.12505 0.86736
#
# Static dielectric constant tensor:
#      x y z
#    x 1.993560 0.000000 0.023850 
#    y 0.000000 1.935690 0.000000 
#    z 0.023850 0.000000 2.376670 
# 
# From -- ./inp_files/73105.got.cif
#   From: 2010.05.17/outbox.cif.g08.bks.cpg/sg13_37_cif.got.tgz:73105.got - 2010.06.03 16:44:36.
