data_PCOD9231482
_publ_section_title
;
Structure prediction by ZEFSAII (Michael W. Deem and Ramdas Pophale) SiO2 
 PCOD9231482
Probable space group: P 2/C
;
_chemical_formula_sum "Si O2"
_cell_formula_units_Z 28
_cell_length_a 28.977030
_cell_length_b 8.353544
_cell_length_c 10.184793
_cell_angle_alpha 90.000000
_cell_angle_beta 35.414269
_cell_angle_gamma 90.000000
_cell_volume 1428.625530
_symmetry_space_group_name_H-M "P 2/C"
_symmetry_group_IT_number 13
_symmetry_cell_setting 'monoclinic'
loop_
_space_group_symop_operation_xyz
x,y,z
-x,y,1/2-z
-x,-y,-z
x,-y,1/2+z
loop_
_atom_site_type_symbol
_atom_site_label
_atom_site_fract_x
_atom_site_fract_y
_atom_site_fract_z
Si Si1 0.970632 0.728480 0.959916
Si Si2 0.218919 0.846283 0.707331
Si Si3 0.370043 0.628171 0.392044
Si Si4 0.810455 0.124252 0.927153
Si Si5 0.665954 0.648840 0.728952
Si Si6 0.483940 0.857673 0.437634
Si Si7 0.066769 0.644479 0.986003
O O1 0.000000 0.786918 0.750000
O O2 0.040098 0.713170 0.906750
O O3 0.900672 0.834374 0.181423
O O4 0.936625 0.548045 0.017651
O O5 0.304843 0.764991 0.515566
O O6 0.151406 0.713791 0.832343
O O7 0.216507 0.980632 0.602706
O O8 0.199111 0.914768 0.897351
O O9 0.357476 0.581422 0.573310
O O10 0.350399 0.482564 0.342533
O O11 0.456559 0.708063 0.174416
O O12 0.754501 0.279044 0.029708
O O13 0.605890 0.795820 0.844269
O O14 0.500000 0.908494 0.250000
O O15 0.500000 0.000000 0.500000
O O16 0.000000 0.688090 0.250000
#
# Coordination Sequence:
#
# PCOD9231482 Si02
#       7
#     4   4   4   4   4   4   4
#     4  10  22  38  62  85 111 150 195 238 292 347
#     4  11  24  39  58  83 119 153 192 241 290 344
#     4  10  22  40  61  89 119 154 196 241 286 340
#     4  11  24  40  56  85 118 152 194 239 291 346
#     4  10  22  40  62  88 119 153 197 241 285 343
#     4  10  21  38  62  91 125 157 192 237 286 342
#     4  10  20  40  60  82 114 149 191 242 289 342
#
# _framework density 19.599257000000001
#
# number of rings (size 3 to 8) (size 9 to 14) (size 15 to 20)
#    0.000    1.714    1.429    2.143    2.000    3.429 
#    0.000    0.000    0.000    0.000    0.000    0.000 
#    0.000    0.000    0.000    0.000    0.000    0.000 
#
# Total GULP energy -156512.145030 kJ/mol
# GULP energy per Si atom -5589.719465 kJ/mol
# Density = 1.955465 g / cm^3
# Si number density = 19.599257 Si / 1000 Ang^3
#
#
#
# Elastic Constant Matrix: (Units=GPa)
#
#
# Indices 1 2 3 4 5 6 
#
# 1 92.1194 19.2404 13.9008 0.0000 23.7451 0.0000
# 2 19.2404 31.9297 5.5908 0.0000 27.4725 0.0000
# 3 13.9008 5.5908 44.3622 0.0000 4.5332 0.0000
# 4 0.0000 0.0000 0.0000 6.8892 0.0000 3.6261
# 5 23.7451 27.4725 4.5332 0.0000 37.8296 0.0000
# 6 0.0000 0.0000 0.0000 3.6261 0.0000 45.2461
#
#
#
# Elastic Compliance Matrix: (Units=1/GPa)
#
#
# Indices 1 2 3 4 5 6 
#
# 1 0.013467 -0.001609 -0.003313 0.000000 -0.006888 0.000000
# 2 -0.001609 0.084523 -0.004028 0.000000 -0.059889 0.000000
# 3 -0.003313 -0.004028 0.023868 0.000000 0.002145 0.000000
# 4 0.000000 0.000000 0.000000 0.151548 0.000000 -0.012145
# 5 -0.006888 -0.059889 0.002145 0.000000 0.073993 0.000000
# 6 0.000000 0.000000 0.000000 -0.012145 0.000000 0.023075
#
#
# Mechanical properties :
#
#
# Convention : Reuss Voigt Hill
#
# Bulk Modulus (GPa) = 9.61931 27.31950 18.46941
# Shear Modulus (GPa) = 11.81958 26.63826 19.22892
#
# Velocity S-wave (km/s) = 2.45840 3.69066 3.13566
# Velocity P-wave (km/s) = 3.60235 5.66839 4.74908
#
# Compressibility (1/GPa) = 0.10395758
#
# Stress axis : x y z
#
# Youngs Moduli (GPa) = 74.25656 11.83116 41.89643
#
# Poissons Ratio (x) = 0.01903 0.13881
# Poissons Ratio (y) = 0.11944 0.16877
# Poissons Ratio (z) = 0.24603 0.04766
#
# Static dielectric constant tensor:
#      x y z
#    x 1.673020 0.000000 0.001210 
#    y 0.000000 1.658830 0.000000 
#    z 0.001210 0.000000 1.670830 
# 
# From -- ./inp_files/23004.got.cif
#   From: 2010.05.17/outbox.cif.g08.bks.cpg/sg13_12_cif.got.tgz:23004.got - 2010.06.03 16:44:36.
