data_PCOD9231910
_publ_section_title
;
Structure prediction by ZEFSAII (Michael W. Deem and Ramdas Pophale) SiO2 
 PCOD9231910
Probable space group: P 2/C
;
_chemical_formula_sum "Si O2"
_cell_formula_units_Z 26
_cell_length_a 9.408762
_cell_length_b 7.515479
_cell_length_c 24.703243
_cell_angle_alpha 90.000000
_cell_angle_beta 138.860593
_cell_angle_gamma 90.000000
_cell_volume 1149.207982
_symmetry_space_group_name_H-M "P 2/C"
_symmetry_group_IT_number 13
_symmetry_cell_setting 'monoclinic'
loop_
_space_group_symop_operation_xyz
x,y,z
-x,y,1/2-z
-x,-y,-z
x,-y,1/2+z
loop_
_atom_site_type_symbol
_atom_site_label
_atom_site_fract_x
_atom_site_fract_y
_atom_site_fract_z
Si Si1 0.014193 0.538078 0.834961
Si Si2 0.122381 0.451499 0.589427
Si Si3 0.940551 0.969968 0.420369
Si Si4 0.500000 0.946847 0.250000
Si Si5 0.779965 0.884947 0.597834
Si Si6 0.382091 0.752089 0.419435
Si Si7 0.428358 0.355174 0.815766
O O1 0.965323 0.556998 0.884767
O O2 0.798878 0.455352 0.747793
O O3 0.076696 0.733695 0.833939
O O4 0.209717 0.399359 0.884201
O O5 0.082079 0.243555 0.590950
O O6 0.378139 0.470347 0.653730
O O7 0.000000 0.500000 0.500000
O O8 0.705340 0.044864 0.334891
O O9 0.000000 0.000000 0.500000
O O10 0.113680 0.041295 0.427227
O O11 0.588033 0.818075 0.227248
O O12 0.557418 0.787915 0.516320
O O13 0.735769 0.057961 0.620941
O O14 0.491991 0.700215 0.394491
#
# Coordination Sequence:
#
# PCOD9231910 Si02
#       7
#     4   4   4   2   4   4   4
#     4  12  22  44  70  97 140 178 232 289 353 423
#     4  11  22  41  71  99 133 181 229 290 357 416
#     4  11  21  41  65 101 139 180 232 288 351 421
#     4  10  20  42  68  94 142 182 226 292 360 412
#     4  11  24  43  70 103 136 183 242 288 348 430
#     4  11  24  44  70  98 143 186 230 294 357 421
#     4  11  21  43  69  97 138 187 224 290 365 413
#
# _framework density 22.624275999999998
#
# number of rings (size 3 to 8) (size 9 to 14) (size 15 to 20)
#    0.000    0.923    4.615    4.615    0.000    0.000 
#    5.538    6.154    0.000    0.000    0.000    0.000 
#    0.000    0.000    0.000    0.000    0.000    0.000 
#
# Total GULP energy -145491.371414 kJ/mol
# GULP energy per Si atom -5595.821977 kJ/mol
# Density = 2.257278 g / cm^3
# Si number density = 22.624276 Si / 1000 Ang^3
#
#
#
# Elastic Constant Matrix: (Units=GPa)
#
#
# Indices 1 2 3 4 5 6 
#
# 1 80.7568 19.3475 23.1471 0.0000 5.5443 0.0000
# 2 19.3475 83.6097 2.2068 0.0000 17.2759 0.0000
# 3 23.1471 2.2068 85.6650 0.0000 7.8940 0.0000
# 4 0.0000 0.0000 0.0000 28.7867 0.0000 2.6707
# 5 5.5443 17.2759 7.8940 0.0000 39.0241 0.0000
# 6 0.0000 0.0000 0.0000 2.6707 0.0000 17.9986
#
#
#
# Elastic Compliance Matrix: (Units=1/GPa)
#
#
# Indices 1 2 3 4 5 6 
#
# 1 0.014227 -0.003228 -0.003777 0.000000 0.000172 0.000000
# 2 -0.003228 0.013900 0.001059 0.000000 -0.005909 0.000000
# 3 -0.003777 0.001059 0.012901 0.000000 -0.002542 0.000000
# 4 0.000000 0.000000 0.000000 0.035223 0.000000 -0.005227
# 5 0.000172 -0.005909 -0.002542 0.000000 0.028731 0.000000
# 6 0.000000 0.000000 0.000000 -0.005227 0.000000 0.056335
#
#
# Mechanical properties :
#
#
# Convention : Reuss Voigt Hill
#
# Bulk Modulus (GPa) = 34.32201 37.71493 36.01847
# Shear Modulus (GPa) = 27.33405 30.85054 29.09230
#
# Velocity S-wave (km/s) = 3.47965 3.69671 3.58982
# Velocity P-wave (km/s) = 5.59887 5.90992 5.75650
#
# Compressibility (1/GPa) = 0.02913583
#
# Stress axis : x y z
#
# Youngs Moduli (GPa) = 70.28910 71.94064 77.51426
#
# Poissons Ratio (x) = 0.23222 0.29276
# Poissons Ratio (y) = 0.22689 -0.08206
# Poissons Ratio (z) = 0.26547 -0.07616
#
# Static dielectric constant tensor:
#      x y z
#    x 1.831300 0.000000 0.008620 
#    y 0.000000 1.823630 0.000000 
#    z 0.008620 0.000000 1.883490 
# 
# From -- ./inp_files/91328.got.cif
#   From: 2010.05.17/outbox.cif.g08.bks.cpg/sg13_46_cif.got.tgz:91328.got - 2010.06.03 16:44:36.
