data_PCOD9231372
_publ_section_title
;
Structure prediction by ZEFSAII (Michael W. Deem and Ramdas Pophale) SiO2 
 PCOD9231372
Probable space group: P 2/C
;
_chemical_formula_sum "Si O2"
_cell_formula_units_Z 20
_cell_length_a 6.540495
_cell_length_b 21.855732
_cell_length_c 9.230838
_cell_angle_alpha 90.000000
_cell_angle_beta 132.485771
_cell_angle_gamma 90.000000
_cell_volume 973.076072
_symmetry_space_group_name_H-M "P 2/C"
_symmetry_group_IT_number 13
_symmetry_cell_setting 'monoclinic'
loop_
_space_group_symop_operation_xyz
x,y,z
-x,y,1/2-z
-x,-y,-z
x,-y,1/2+z
loop_
_atom_site_type_symbol
_atom_site_label
_atom_site_fract_x
_atom_site_fract_y
_atom_site_fract_z
Si Si1 0.500000 0.488668 0.750000
Si Si2 0.312528 0.940434 0.405448
Si Si3 0.500000 0.677112 0.750000
Si Si4 0.046902 0.230619 0.111057
Si Si5 0.500000 0.156874 0.750000
Si Si6 0.299202 0.584452 0.436552
Si Si7 0.500000 0.862624 0.750000
O O1 0.287763 0.533879 0.561725
O O2 0.600555 0.447402 0.663829
O O3 0.404855 0.890200 0.330694
O O4 0.330268 0.904371 0.562772
O O5 0.000000 0.962408 0.250000
O O6 0.500000 0.000000 0.500000
O O7 0.780310 0.717579 0.891649
O O8 0.494012 0.635487 0.602552
O O9 0.279017 0.177582 0.230982
O O10 0.000000 0.254276 0.250000
O O11 0.764212 0.200649 0.914281
O O12 0.000000 0.609615 0.250000
#
# Coordination Sequence:
#
# PCOD9231372 Si02
#       7
#     2   4   2   4   2   4   2
#     4   9  20  37  67  98 132 180 215 264 324 402
#     4  12  27  42  68 102 133 163 210 269 334 401
#     4  10  26  42  63  96 135 168 222 286 314 384
#     4  11  24  44  68  90 123 174 224 267 324 380
#     4  12  25  44  72  94 122 178 219 264 334 400
#     4  10  20  39  64  99 136 173 219 266 330 381
#     4  11  23  45  66  92 129 162 212 264 316 402
#
# _framework density 20.553377000000001
#
# number of rings (size 3 to 8) (size 9 to 14) (size 15 to 20)
#    0.000    1.200    4.000    1.200    2.800    4.800 
#    0.000    2.000    0.000    0.000    0.000    0.000 
#    0.000    0.000    0.000    0.000    0.000    0.000 
#
# Total GULP energy -111453.586512 kJ/mol
# GULP energy per Si atom -5572.679326 kJ/mol
# Density = 2.050660 g / cm^3
# Si number density = 20.553377 Si / 1000 Ang^3
#
#
#
# Elastic Constant Matrix: (Units=GPa)
#
#
# Indices 1 2 3 4 5 6 
#
# 1 82.9404 38.7822 46.1047 0.0000 4.2288 0.0000
# 2 38.7822 94.6388 45.8907 0.0000 6.8838 0.0000
# 3 46.1047 45.8907 114.9090 0.0000 14.8865 0.0000
# 4 0.0000 0.0000 0.0000 27.8119 0.0000 2.4854
# 5 4.2288 6.8838 14.8865 0.0000 51.2935 0.0000
# 6 0.0000 0.0000 0.0000 2.4854 0.0000 4.0434
#
#
#
# Elastic Compliance Matrix: (Units=1/GPa)
#
#
# Indices 1 2 3 4 5 6 
#
# 1 0.016971 -0.004538 -0.005086 0.000000 0.000686 0.000000
# 2 -0.004538 0.014321 -0.003842 0.000000 -0.000433 0.000000
# 3 -0.005086 -0.003842 0.012631 0.000000 -0.002731 0.000000
# 4 0.000000 0.000000 0.000000 0.038046 0.000000 -0.023385
# 5 0.000686 -0.000433 -0.002731 0.000000 0.020290 0.000000
# 6 0.000000 0.000000 0.000000 -0.023385 0.000000 0.261689
#
#
# Mechanical properties :
#
#
# Convention : Reuss Voigt Hill
#
# Bulk Modulus (GPa) = 58.85619 61.56036 60.20828
# Shear Modulus (GPa) = 12.60895 27.41047 20.00971
#
# Velocity S-wave (km/s) = 2.47953 3.65584 3.12356
# Velocity P-wave (km/s) = 6.07415 6.91641 6.50892
#
# Compressibility (1/GPa) = 0.01699057
#
# Stress axis : x y z
#
# Youngs Moduli (GPa) = 58.92412 69.82803 79.16853
#
# Poissons Ratio (x) = 0.31691 0.40262
# Poissons Ratio (y) = 0.26742 0.30419
# Poissons Ratio (z) = 0.29966 0.26830
#
# Static dielectric constant tensor:
#      x y z
#    x 1.748790 0.000000 -0.008410 
#    y 0.000000 1.744320 0.000000 
#    z -0.008410 0.000000 1.749620 
# 
# From -- ./inp_files/10212.got.cif
#   From: 2010.05.17/outbox.cif.g08.bks.cpg/sg13_6_cif.got.tgz:10212.got - 2010.06.03 16:44:36.
