data_PCOD9231606
_publ_section_title
;
Structure prediction by ZEFSAII (Michael W. Deem and Ramdas Pophale) SiO2 
 PCOD9231606
Probable space group: P 2/C
;
_chemical_formula_sum "Si O2"
_cell_formula_units_Z 26
_cell_length_a 16.258308
_cell_length_b 8.579803
_cell_length_c 9.799637
_cell_angle_alpha 90.000000
_cell_angle_beta 94.116542
_cell_angle_gamma 90.000000
_cell_volume 1363.454869
_symmetry_space_group_name_H-M "P 2/C"
_symmetry_group_IT_number 13
_symmetry_cell_setting 'monoclinic'
loop_
_space_group_symop_operation_xyz
x,y,z
-x,y,1/2-z
-x,-y,-z
x,-y,1/2+z
loop_
_atom_site_type_symbol
_atom_site_label
_atom_site_fract_x
_atom_site_fract_y
_atom_site_fract_z
Si Si1 0.920157 0.181266 0.453528
Si Si2 0.615514 0.325904 0.262335
Si Si3 0.891484 0.173941 0.992130
Si Si4 0.500000 0.381957 0.750000
Si Si5 0.193590 0.668020 0.782534
Si Si6 0.906636 0.630456 0.224318
Si Si7 0.506546 0.183942 0.474296
O O1 0.864068 0.284328 0.350396
O O2 0.911798 0.239273 0.607907
O O3 0.017204 0.195149 0.431922
O O4 0.892005 0.002748 0.440086
O O5 0.577108 0.499172 0.269970
O O6 0.712100 0.332359 0.249878
O O7 0.586307 0.231385 0.393135
O O8 0.568960 0.244427 0.129149
O O9 0.883696 0.290828 0.864663
O O10 0.824242 0.212032 0.097386
O O11 0.506590 0.277139 0.616140
O O12 0.158516 0.500610 0.823979
O O13 0.000000 0.565019 0.250000
O O14 0.500000 0.000000 0.500000
#
# Coordination Sequence:
#
# PCOD9231606 Si02
#       7
#     4   4   4   2   4   4   4
#     4  10  21  38  58  80 112 156 200 240 284 330
#     4  10  23  39  58  89 120 148 181 225 287 345
#     4  10  21  38  58  80 112 156 200 240 284 330
#     4  10  20  40  66  84 112 152 186 222 276 346
#     4  12  23  36  57  86 119 150 187 235 285 337
#     4  10  21  36  56  82 112 153 202 242 278 326
#     4  10  21  42  67  88 110 144 188 230 275 336
#
# _framework density 19.069206000000001
#
# number of rings (size 3 to 8) (size 9 to 14) (size 15 to 20)
#    0.000    1.846    0.000    6.000    0.000   11.077 
#    0.000    3.077    0.000    0.000    0.000    0.000 
#    0.000    0.000    0.000    0.000    0.000    0.000 
#
# Total GULP energy -145277.287688 kJ/mol
# GULP energy per Si atom -5587.587988 kJ/mol
# Density = 1.902580 g / cm^3
# Si number density = 19.069206 Si / 1000 Ang^3
#
#
#
# Elastic Constant Matrix: (Units=GPa)
#
#
# Indices 1 2 3 4 5 6 
#
# 1 97.3452 32.1839 22.3664 0.0000 -31.2615 0.0000
# 2 32.1839 105.3865 28.7876 0.0000 -14.7278 0.0000
# 3 22.3664 28.7876 97.6397 0.0000 -23.0673 0.0000
# 4 0.0000 0.0000 0.0000 26.6674 0.0000 -6.3947
# 5 -31.2615 -14.7278 -23.0673 0.0000 18.1377 0.0000
# 6 0.0000 0.0000 0.0000 -6.3947 0.0000 0.7913
#
#
#
# Elastic Compliance Matrix: (Units=1/GPa)
#
#
# Indices 1 2 3 4 5 6 
#
# 1 0.026259 -0.002673 0.007080 0.000000 0.052091 0.000000
# 2 -0.002673 0.011148 -0.002322 0.000000 0.001492 0.000000
# 3 0.007080 -0.002322 0.016785 0.000000 0.031664 0.000000
# 4 0.000000 0.000000 0.000000 -0.039980 0.000000 -0.323104
# 5 0.052091 0.001492 0.031664 0.000000 0.186397 0.000000
# 6 0.000000 0.000000 0.000000 -0.323104 0.000000 -1.347416
#
#
# Mechanical properties :
#
#
# Convention : Reuss Voigt Hill
#
# Bulk Modulus (GPa) = 17.13491 51.89412 34.51452
# Shear Modulus (GPa) = -4.41883 23.58818 9.58468
#
# Velocity S-wave (km/s) = -1.52391 3.52088 2.24436
# Velocity P-wave (km/s) = 2.43080 6.61827 4.98549
#
# Compressibility (1/GPa) = 0.05836038
#
# Stress axis : x y z
#
# Youngs Moduli (GPa) = 38.08290 89.70221 59.57637
#
# Poissons Ratio (x) = 0.23979 -0.42178
# Poissons Ratio (y) = 0.10180 0.13834
# Poissons Ratio (z) = -0.26961 0.20830
#
# Static dielectric constant tensor:
#      x y z
#    x 1.637110 0.000000 -0.001840 
#    y 0.000000 1.645500 0.000000 
#    z -0.001840 0.000000 1.645330 
# 
# From -- ./inp_files/21161.got.cif
#   From: 2010.05.17/outbox.cif.g08.bks.cpg/sg13_11_cif.got.tgz:21161.got - 2010.06.03 16:44:36.
