data_PCOD9231907
_publ_section_title
;
Structure prediction by ZEFSAII (Michael W. Deem and Ramdas Pophale) SiO2 
 PCOD9231907
Probable space group: P 2/C
;
_chemical_formula_sum "Si O2"
_cell_formula_units_Z 28
_cell_length_a 15.650437
_cell_length_b 9.124189
_cell_length_c 20.245921
_cell_angle_alpha 90.000000
_cell_angle_beta 30.414873
_cell_angle_gamma 90.000000
_cell_volume 1463.625173
_symmetry_space_group_name_H-M "P 2/C"
_symmetry_group_IT_number 13
_symmetry_cell_setting 'monoclinic'
loop_
_space_group_symop_operation_xyz
x,y,z
-x,y,1/2-z
-x,-y,-z
x,-y,1/2+z
loop_
_atom_site_type_symbol
_atom_site_label
_atom_site_fract_x
_atom_site_fract_y
_atom_site_fract_z
Si Si1 0.961630 0.998682 0.130709
Si Si2 0.689278 0.564612 0.364082
Si Si3 0.974557 0.752403 0.010602
Si Si4 0.000000 0.612791 0.250000
Si Si5 0.657088 0.904265 0.417074
Si Si6 0.247122 0.495492 0.329340
Si Si7 0.500000 0.652088 0.750000
Si Si8 0.238227 0.170062 0.510298
O O1 0.935474 0.867733 0.094716
O O2 0.823292 0.985010 0.279534
O O3 0.142850 0.964809 0.040726
O O4 0.959416 0.150961 0.093874
O O5 0.500000 0.500000 0.500000
O O6 0.663802 0.740256 0.383242
O O7 0.748342 0.512125 0.252626
O O8 0.842788 0.535483 0.315203
O O9 0.814947 0.650866 0.101241
O O10 0.115081 0.632611 0.936180
O O11 0.095336 0.717044 0.133144
O O12 0.660872 0.881991 0.492888
O O13 0.500000 0.000000 0.500000
O O14 0.421679 0.446639 0.244519
O O15 0.641372 0.751433 0.621682
#
# Coordination Sequence:
#
# PCOD9231907 Si02
#       8
#     4   4   4   2   4   4   2   4
#     4  11  20  43  65  95 123 177 216 271 338 405
#     4  11  23  42  68  98 133 174 227 283 337 406
#     4  10  23  37  69  89 130 167 218 266 334 400
#     4  10  20  42  68  94 128 188 216 270 342 418
#     4  11  24  41  66  93 129 170 223 281 335 399
#     4  11  22  44  60  99 130 172 219 276 331 403
#     4  12  26  38  70  98 134 178 226 270 344 412
#     4  11  21  42  66  95 128 176 223 269 331 419
#
# _framework density 19.130582
#
# number of rings (size 3 to 8) (size 9 to 14) (size 15 to 20)
#    0.000    1.143    5.714    1.714    6.000    0.000 
#    2.571    0.000    0.000    0.000    0.000    0.000 
#    0.000    0.000    0.000    0.000    0.000    0.000 
#
# Total GULP energy -156238.042303 kJ/mol
# GULP energy per Si atom -5579.930082 kJ/mol
# Density = 1.908704 g / cm^3
# Si number density = 19.130582 Si / 1000 Ang^3
#
#
#
# Elastic Constant Matrix: (Units=GPa)
#
#
# Indices 1 2 3 4 5 6 
#
# 1 102.0158 31.2147 24.3133 0.0000 -12.5978 0.0000
# 2 31.2147 70.1835 26.7224 0.0000 -2.3252 0.0000
# 3 24.3133 26.7224 85.8145 0.0000 -2.6942 0.0000
# 4 0.0000 0.0000 0.0000 34.2599 0.0000 -1.5105
# 5 -12.5978 -2.3252 -2.6942 0.0000 36.2002 0.0000
# 6 0.0000 0.0000 0.0000 -1.5105 0.0000 -23.1211
#
#
#
# Elastic Compliance Matrix: (Units=1/GPa)
#
#
# Indices 1 2 3 4 5 6 
#
# 1 0.012111 -0.004538 -0.001899 0.000000 0.003782 0.000000
# 2 -0.004538 0.017881 -0.004306 0.000000 -0.000751 0.000000
# 3 -0.001899 -0.004306 0.013534 0.000000 0.000070 0.000000
# 4 0.000000 0.000000 0.000000 0.029105 0.000000 -0.001901
# 5 0.003782 -0.000751 0.000070 0.000000 0.028897 0.000000
# 6 0.000000 0.000000 0.000000 -0.001901 0.000000 -0.043126
#
#
# Mechanical properties :
#
#
# Convention : Reuss Voigt Hill
#
# Bulk Modulus (GPa) = 45.37309 46.94606 46.15958
# Shear Modulus (GPa) = 57.31656 21.18536 39.25096
#
# Velocity S-wave (km/s) = 5.47957 3.33138 4.53453
# Velocity P-wave (km/s) = 7.98770 6.27619 7.18310
#
# Compressibility (1/GPa) = 0.02203950
#
# Stress axis : x y z
#
# Youngs Moduli (GPa) = 82.57269 55.92460 73.88638
#
# Poissons Ratio (x) = 0.25377 0.14034
# Poissons Ratio (y) = 0.37469 0.31816
# Poissons Ratio (z) = 0.15684 0.24082
#
# Static dielectric constant tensor:
#      x y z
#    x 1.727770 0.000000 -0.042670 
#    y 0.000000 1.643110 0.000000 
#    z -0.042670 0.000000 1.698290 
# 
# From -- ./inp_files/79964.got.cif
#   From: 2010.05.17/outbox.cif.g08.bks.cpg/sg13_40_cif.got.tgz:79964.got - 2010.06.03 16:44:36.
