data_PCOD9231434
_publ_section_title
;
Structure prediction by ZEFSAII (Michael W. Deem and Ramdas Pophale) SiO2 
 PCOD9231434
Probable space group: P 2/C
;
_chemical_formula_sum "Si O2"
_cell_formula_units_Z 28
_cell_length_a 12.248759
_cell_length_b 7.763027
_cell_length_c 14.132953
_cell_angle_alpha 90.000000
_cell_angle_beta 95.535499
_cell_angle_gamma 90.000000
_cell_volume 1337.599462
_symmetry_space_group_name_H-M "P 2/C"
_symmetry_group_IT_number 13
_symmetry_cell_setting 'monoclinic'
loop_
_space_group_symop_operation_xyz
x,y,z
-x,y,1/2-z
-x,-y,-z
x,-y,1/2+z
loop_
_atom_site_type_symbol
_atom_site_label
_atom_site_fract_x
_atom_site_fract_y
_atom_site_fract_z
Si Si1 0.267661 0.105585 0.259979
Si Si2 0.372723 0.692031 0.907311
Si Si3 0.500000 0.664809 0.250000
Si Si4 0.746716 0.631291 0.040919
Si Si5 0.500000 0.161853 0.250000
Si Si6 0.533221 0.821380 0.052483
Si Si7 0.265635 0.513505 0.672941
Si Si8 0.129235 0.768083 0.275174
O O1 0.462861 0.783714 0.335861
O O2 0.294596 0.149042 0.372757
O O3 0.183874 0.950941 0.250726
O O4 0.244603 0.295062 0.215393
O O5 0.306513 0.517902 0.898331
O O6 0.466994 0.722915 0.837092
O O7 0.436027 0.697263 0.009750
O O8 0.610169 0.558078 0.293042
O O9 0.649869 0.768613 0.020751
O O10 0.840122 0.717095 0.113445
O O11 0.763252 0.543104 0.940447
O O12 0.614196 0.064571 0.278145
O O13 0.500000 0.000000 0.000000
O O14 0.184500 0.375465 0.712902
O O15 0.000000 0.773874 0.250000
#
# Coordination Sequence:
#
# PCOD9231434 Si02
#       8
#     4   4   2   4   2   4   4   4
#     4  10  22  44  71 108 146 185 235 303 364 439
#     4  10  20  39  68 105 146 188 230 288 366 445
#     4  12  25  43  74 109 161 198 231 295 376 457
#     4  12  25  46  70 108 147 196 245 300 367 439
#     4   8  19  35  68 101 149 178 231 285 366 443
#     4  12  25  38  66 110 154 197 234 286 364 453
#     4  12  26  46  77 108 149 191 240 301 375 446
#     4  12  28  52  75 102 140 194 260 312 364 428
#
# _framework density 20.933022000000001
#
# number of rings (size 3 to 8) (size 9 to 14) (size 15 to 20)
#    0.857    0.000    4.286    2.571    4.000    4.571 
#    2.571    0.714    0.000    0.000    0.000    0.000 
#    0.000    0.000    0.000    0.000    0.000    0.000 
#
# Total GULP energy -156076.824253 kJ/mol
# GULP energy per Si atom -5574.172295 kJ/mol
# Density = 2.088538 g / cm^3
# Si number density = 20.933022 Si / 1000 Ang^3
#
#
#
# Elastic Constant Matrix: (Units=GPa)
#
#
# Indices 1 2 3 4 5 6 
#
# 1 140.8931 84.5643 51.7225 0.0000 25.9189 0.0000
# 2 84.5643 144.0934 57.6469 0.0000 10.9969 0.0000
# 3 51.7225 57.6469 140.0033 0.0000 -0.1736 0.0000
# 4 0.0000 0.0000 0.0000 25.9692 0.0000 -8.5727
# 5 25.9189 10.9969 -0.1736 0.0000 31.5608 0.0000
# 6 0.0000 0.0000 0.0000 -8.5727 0.0000 22.0535
#
#
#
# Elastic Compliance Matrix: (Units=1/GPa)
#
#
# Indices 1 2 3 4 5 6 
#
# 1 0.013295 -0.006182 -0.002377 0.000000 -0.008778 0.000000
# 2 -0.006182 0.011460 -0.002433 0.000000 0.001070 0.000000
# 3 -0.002377 -0.002433 0.009027 0.000000 0.002850 0.000000
# 4 0.000000 0.000000 0.000000 0.044176 0.000000 0.017172
# 5 -0.008778 0.001070 0.002850 0.000000 0.038536 0.000000
# 6 0.000000 0.000000 0.000000 0.017172 0.000000 0.052019
#
#
# Mechanical properties :
#
#
# Convention : Reuss Voigt Hill
#
# Bulk Modulus (GPa) = 84.77104 90.31747 87.54425
# Shear Modulus (GPa) = 25.71619 31.32044 28.51832
#
# Velocity S-wave (km/s) = 3.50880 3.87230 3.69502
# Velocity P-wave (km/s) = 7.54982 7.95189 7.75346
#
# Compressibility (1/GPa) = 0.01179648
#
# Stress axis : x y z
#
# Youngs Moduli (GPa) = 75.21434 87.26260 110.78473
#
# Poissons Ratio (x) = 0.53943 0.26338
# Poissons Ratio (y) = 0.46495 0.26959
# Poissons Ratio (z) = 0.17881 0.21235
#
# Static dielectric constant tensor:
#      x y z
#    x 1.720530 0.000000 0.003070 
#    y 0.000000 1.871420 0.000000 
#    z 0.003070 0.000000 1.888490 
# 
# From -- ./inp_files/50138.got.cif
#   From: 2010.05.17/outbox.cif.g08.bks.cpg/sg13_26_cif.got.tgz:50138.got - 2010.06.03 16:44:36.
