data_PCOD9231230
_publ_section_title
;
Structure prediction by ZEFSAII (Michael W. Deem and Ramdas Pophale) SiO2 
 PCOD9231230
Probable space group: P 2/C
;
_chemical_formula_sum "Si O2"
_cell_formula_units_Z 22
_cell_length_a 25.875679
_cell_length_b 9.067069
_cell_length_c 8.720230
_cell_angle_alpha 90.000000
_cell_angle_beta 149.947820
_cell_angle_gamma 90.000000
_cell_volume 1024.568399
_symmetry_space_group_name_H-M "P 2/C"
_symmetry_group_IT_number 13
_symmetry_cell_setting 'monoclinic'
loop_
_space_group_symop_operation_xyz
x,y,z
-x,y,1/2-z
-x,-y,-z
x,-y,1/2+z
loop_
_atom_site_type_symbol
_atom_site_label
_atom_site_fract_x
_atom_site_fract_y
_atom_site_fract_z
Si Si1 0.500000 0.979014 0.750000
Si Si2 0.154565 0.688333 0.917085
Si Si3 0.923254 0.202432 0.821990
Si Si4 0.220709 0.596131 0.748304
Si Si5 0.632983 0.842861 0.355723
Si Si6 0.836614 0.032798 0.893711
O O1 0.442162 0.877948 0.477665
O O2 0.420065 0.085560 0.632147
O O3 0.173922 0.632620 0.795011
O O4 0.032142 0.717013 0.623645
O O5 0.205599 0.573414 0.165730
O O6 0.198991 0.848970 0.070437
O O7 0.844130 0.320460 0.549965
O O8 0.880022 0.126176 0.863725
O O9 0.921969 0.073177 0.690284
O O10 0.332843 0.673096 0.037032
O O11 0.739715 0.931768 0.604884
#
# Coordination Sequence:
#
# PCOD9231230 Si02
#       6
#     2   4   4   4   4   4
#     4  10  20  38  72  98 118 144 208 266 328 394
#     4  12  24  39  59  86 125 175 215 251 296 367
#     4  11  23  39  59  91 126 171 216 256 297 356
#     4  11  24  41  60  86 129 167 213 258 311 368
#     4  10  21  40  65  96 120 156 198 266 326 375
#     4  11  22  39  63  91 131 164 211 261 310 361
#
# _framework density 21.472455
#
# number of rings (size 3 to 8) (size 9 to 14) (size 15 to 20)
#    0.000    1.091    0.000    8.727    0.000    4.364 
#    0.000    0.000    0.000   18.545    0.000    0.000 
#    0.000    0.000    0.000    0.000    0.000    0.000 
#
# Total GULP energy -123057.541387 kJ/mol
# GULP energy per Si atom -5593.524608 kJ/mol
# Density = 2.142358 g / cm^3
# Si number density = 21.472455 Si / 1000 Ang^3
#
#
#
# Elastic Constant Matrix: (Units=GPa)
#
#
# Indices 1 2 3 4 5 6 
#
# 1 109.9200 17.3178 23.7578 0.0000 -3.3483 0.0000
# 2 17.3178 103.6335 34.0751 0.0000 6.2346 0.0000
# 3 23.7578 34.0751 59.2671 0.0000 0.4933 0.0000
# 4 0.0000 0.0000 0.0000 44.7023 0.0000 0.7734
# 5 -3.3483 6.2346 0.4933 0.0000 25.0410 0.0000
# 6 0.0000 0.0000 0.0000 0.7734 0.0000 2.5437
#
#
#
# Elastic Compliance Matrix: (Units=1/GPa)
#
#
# Indices 1 2 3 4 5 6 
#
# 1 0.010035 -0.000547 -0.003721 0.000000 0.001551 0.000000
# 2 -0.000547 0.012132 -0.006732 0.000000 -0.002961 0.000000
# 3 -0.003721 -0.006732 0.022229 0.000000 0.000741 0.000000
# 4 0.000000 0.000000 0.000000 0.022488 0.000000 -0.006837
# 5 0.001551 -0.002961 0.000741 0.000000 0.040865 0.000000
# 6 0.000000 0.000000 0.000000 -0.006837 0.000000 0.395201
#
#
# Mechanical properties :
#
#
# Convention : Reuss Voigt Hill
#
# Bulk Modulus (GPa) = 44.64895 47.01358 45.83126
# Shear Modulus (GPa) = 9.39118 27.63541 18.51329
#
# Velocity S-wave (km/s) = 2.09358 3.59139 2.93949
# Velocity P-wave (km/s) = 5.16554 6.25618 5.73684
#
# Compressibility (1/GPa) = 0.02239694
#
# Stress axis : x y z
#
# Youngs Moduli (GPa) = 99.64897 82.42504 44.98717
#
# Poissons Ratio (x) = 0.04506 0.16741
# Poissons Ratio (y) = 0.05448 0.30283
# Poissons Ratio (z) = 0.37083 0.55485
#
# Static dielectric constant tensor:
#      x y z
#    x 1.804330 0.000000 -0.016440 
#    y 0.000000 1.803880 0.000000 
#    z -0.016440 0.000000 1.785850 
# 
# From -- ./inp_files/18042.got.cif
#   From: 2010.05.17/outbox.cif.g08.bks.cpg/sg13_10_cif.got.tgz:18042.got - 2010.06.03 16:44:36.
