data_PCOD9231428
_publ_section_title
;
Structure prediction by ZEFSAII (Michael W. Deem and Ramdas Pophale) SiO2 
 PCOD9231428
Probable space group: P 2/C
;
_chemical_formula_sum "Si O2"
_cell_formula_units_Z 28
_cell_length_a 9.881502
_cell_length_b 5.364001
_cell_length_c 28.895414
_cell_angle_alpha 90.000000
_cell_angle_beta 64.385335
_cell_angle_gamma 90.000000
_cell_volume 1381.062565
_symmetry_space_group_name_H-M "P 2/C"
_symmetry_group_IT_number 13
_symmetry_cell_setting 'monoclinic'
loop_
_space_group_symop_operation_xyz
x,y,z
-x,y,1/2-z
-x,-y,-z
x,-y,1/2+z
loop_
_atom_site_type_symbol
_atom_site_label
_atom_site_fract_x
_atom_site_fract_y
_atom_site_fract_z
Si Si1 0.718331 0.549238 0.615910
Si Si2 0.999070 0.201185 0.898445
Si Si3 0.057783 0.556644 0.192289
Si Si4 0.903670 0.749251 0.507068
Si Si5 0.621338 0.407147 0.321905
Si Si6 0.362531 0.899022 0.236597
Si Si7 0.856380 0.177511 0.174394
O O1 0.775747 0.716847 0.564391
O O2 0.541228 0.515367 0.633253
O O3 0.728801 0.681098 0.664569
O O4 0.843014 0.327580 0.606265
O O5 0.951435 0.300257 0.855242
O O6 0.875430 0.244152 0.956090
O O7 0.032842 0.912559 0.882658
O O8 0.227631 0.458373 0.171671
O O9 0.000000 0.672541 0.250000
O O10 0.942648 0.332372 0.199774
O O11 0.000000 0.500000 0.500000
O O12 0.000000 0.000000 0.500000
O O13 0.636680 0.616397 0.279979
O O14 0.626745 0.120535 0.303226
O O15 0.500000 0.937634 0.250000
O O16 0.216760 0.947656 0.288856
#
# Coordination Sequence:
#
# PCOD9231428 Si02
#       7
#     4   4   4   4   4   4   4
#     4  10  22  40  64  97 125 163 214 271 327 372
#     4  10  22  39  66  92 126 168 219 267 315 383
#     4  11  24  40  58  91 130 177 212 255 317 394
#     4  10  20  39  67  99 124 161 214 277 323 372
#     4  12  26  41  60  92 130 169 207 262 320 384
#     4  12  24  39  63  89 126 165 214 262 318 372
#     4  11  21  37  63  88 124 166 215 260 313 382
#
# _framework density 20.274242000000001
#
# number of rings (size 3 to 8) (size 9 to 14) (size 15 to 20)
#    0.000    1.143    4.286    2.143    4.000    0.571 
#    0.000    0.714    0.000    0.857    0.000    0.000 
#    0.000    0.000    0.000    0.000    0.000    0.000 
#
# Total GULP energy -155968.965239 kJ/mol
# GULP energy per Si atom -5570.320187 kJ/mol
# Density = 2.022810 g / cm^3
# Si number density = 20.274242 Si / 1000 Ang^3
#
#
#
# Elastic Constant Matrix: (Units=GPa)
#
#
# Indices 1 2 3 4 5 6 
#
# 1 117.9182 2.7407 46.1579 0.0000 -1.5316 0.0000
# 2 2.7407 50.7992 14.1371 0.0000 3.8607 0.0000
# 3 46.1579 14.1371 110.8264 0.0000 6.9774 0.0000
# 4 0.0000 0.0000 0.0000 29.8975 0.0000 1.7709
# 5 -1.5316 3.8607 6.9774 0.0000 29.0706 0.0000
# 6 0.0000 0.0000 0.0000 1.7709 0.0000 15.3802
#
#
#
# Elastic Compliance Matrix: (Units=1/GPa)
#
#
# Indices 1 2 3 4 5 6 
#
# 1 0.010219 0.000564 -0.004424 0.000000 0.001525 0.000000
# 2 0.000564 0.020570 -0.002730 0.000000 -0.002047 0.000000
# 3 -0.004424 -0.002730 0.011378 0.000000 -0.002601 0.000000
# 4 0.000000 0.000000 0.000000 0.033677 0.000000 -0.003878
# 5 0.001525 -0.002047 -0.002601 0.000000 0.035376 0.000000
# 6 0.000000 0.000000 0.000000 -0.003878 0.000000 0.065465
#
#
# Mechanical properties :
#
#
# Convention : Reuss Voigt Hill
#
# Bulk Modulus (GPa) = 34.49857 45.06836 39.78347
# Shear Modulus (GPa) = 25.05925 29.30353 27.18139
#
# Velocity S-wave (km/s) = 3.51951 3.80591 3.66551
# Velocity P-wave (km/s) = 5.79386 6.44910 6.13024
#
# Compressibility (1/GPa) = 0.02898671
#
# Stress axis : x y z
#
# Youngs Moduli (GPa) = 97.85792 48.61396 87.89136
#
# Poissons Ratio (x) = -0.02741 0.38883
# Poissons Ratio (y) = -0.05519 0.23994
# Poissons Ratio (z) = 0.43293 0.13271
#
# Static dielectric constant tensor:
#      x y z
#    x 1.731620 0.000000 -0.002360 
#    y 0.000000 1.806590 0.000000 
#    z -0.002360 0.000000 1.779990 
# 
# From -- ./inp_files/95457.got.cif
#   From: 2010.05.17/outbox.cif.g08.bks.cpg/sg13_48_cif.got.tgz:95457.got - 2010.06.03 16:44:36.
