data_PCOD9231835
_publ_section_title
;
Structure prediction by ZEFSAII (Michael W. Deem and Ramdas Pophale) SiO2 
 PCOD9231835
Probable space group: P 2/C
;
_chemical_formula_sum "Si O2"
_cell_formula_units_Z 18
_cell_length_a 11.399089
_cell_length_b 10.968156
_cell_length_c 10.956700
_cell_angle_alpha 90.000000
_cell_angle_beta 42.800771
_cell_angle_gamma 90.000000
_cell_volume 930.768741
_symmetry_space_group_name_H-M "P 2/C"
_symmetry_group_IT_number 13
_symmetry_cell_setting 'monoclinic'
loop_
_space_group_symop_operation_xyz
x,y,z
-x,y,1/2-z
-x,-y,-z
x,-y,1/2+z
loop_
_atom_site_type_symbol
_atom_site_label
_atom_site_fract_x
_atom_site_fract_y
_atom_site_fract_z
Si Si1 0.000000 0.545279 0.750000
Si Si2 0.749546 0.895333 0.867068
Si Si3 0.892802 0.227455 0.485198
Si Si4 0.836090 0.692419 0.300483
Si Si5 0.431712 0.862111 0.934000
O O1 0.077021 0.637917 0.593042
O O2 0.132207 0.452650 0.715161
O O3 0.589167 0.852515 0.907958
O O4 0.928831 0.851076 0.666895
O O5 0.760117 0.838171 0.994666
O O6 0.709097 0.038286 0.913851
O O7 0.837774 0.250538 0.664858
O O8 0.664930 0.734083 0.498872
O O9 0.000000 0.743192 0.250000
O O10 0.500000 0.900616 0.750000
#
# Coordination Sequence:
#
# PCOD9231835 Si02
#       5
#     2   4   4   4   4
#     4   8  20  38  62  90 110 152 196 250 282 336
#     4   9  23  37  60  83 121 156 184 244 290 343
#     4  10  20  42  62  86 117 151 204 233 294 348
#     4  10  22  35  65  86 114 158 193 242 288 336
#     4  11  23  39  55  88 124 150 193 238 290 349
#
# _framework density 19.338853
#
# number of rings (size 3 to 8) (size 9 to 14) (size 15 to 20)
#    0.667    1.778    0.000    2.000    9.333    0.889 
#    0.000    4.444    0.000    0.000    0.000    0.000 
#    0.000    0.000    0.000    0.000    0.000    0.000 
#
# Total GULP energy -100244.703387 kJ/mol
# GULP energy per Si atom -5569.150188 kJ/mol
# Density = 1.929484 g / cm^3
# Si number density = 19.338853 Si / 1000 Ang^3
#
#
#
# Elastic Constant Matrix: (Units=GPa)
#
#
# Indices 1 2 3 4 5 6 
#
# 1 100.2068 55.3206 10.8957 0.0000 -12.4810 0.0000
# 2 55.3206 94.5297 38.7371 0.0000 -9.5160 0.0000
# 3 10.8957 38.7371 52.3239 0.0000 3.9736 0.0000
# 4 0.0000 0.0000 0.0000 -3.4070 0.0000 5.1933
# 5 -12.4810 -9.5160 3.9736 0.0000 18.0136 0.0000
# 6 0.0000 0.0000 0.0000 5.1933 0.0000 6.5878
#
#
#
# Elastic Compliance Matrix: (Units=1/GPa)
#
#
# Indices 1 2 3 4 5 6 
#
# 1 0.015927 -0.010572 0.004166 0.000000 0.004532 0.000000
# 2 -0.010572 0.024534 -0.016669 0.000000 0.009312 0.000000
# 3 0.004166 -0.016669 0.031563 0.000000 -0.012882 0.000000
# 4 0.000000 0.000000 0.000000 -0.133315 0.000000 0.105096
# 5 0.004532 0.009312 -0.012882 0.000000 0.066414 0.000000
# 6 0.000000 0.000000 0.000000 0.105096 0.000000 0.068945
#
#
# Mechanical properties :
#
#
# Convention : Reuss Voigt Hill
#
# Bulk Modulus (GPa) = 38.64840 50.77412 44.71126
# Shear Modulus (GPa) = 38.80707 13.71270 26.25989
#
# Velocity S-wave (km/s) = 4.48447 2.66574 3.68894
# Velocity P-wave (km/s) = 6.84413 5.98221 6.42764
#
# Compressibility (1/GPa) = 0.02587429
#
# Stress axis : x y z
#
# Youngs Moduli (GPa) = 62.78581 40.76028 31.68272
#
# Poissons Ratio (x) = 0.43091 -0.13199
# Poissons Ratio (y) = 0.66376 0.52811
# Poissons Ratio (z) = -0.26156 0.67943
#
# Static dielectric constant tensor:
#      x y z
#    x 1.675380 0.000000 0.004660 
#    y 0.000000 1.660820 0.000000 
#    z 0.004660 0.000000 1.666100 
# 
# From -- ./inp_files/32859.got.cif
#   From: 2010.05.17/outbox.cif.g08.bks.cpg/sg13_17_cif.got.tgz:32859.got - 2010.06.03 16:44:36.
