data_PCOD9231096
_publ_section_title
;
Structure prediction by ZEFSAII (Michael W. Deem and Ramdas Pophale) SiO2 
 PCOD9231096
Probable space group: P 2/C
;
_chemical_formula_sum "Si O2"
_cell_formula_units_Z 22
_cell_length_a 13.018714
_cell_length_b 5.232020
_cell_length_c 13.905172
_cell_angle_alpha 90.000000
_cell_angle_beta 110.591650
_cell_angle_gamma 90.000000
_cell_volume 886.627308
_symmetry_space_group_name_H-M "P 2/C"
_symmetry_group_IT_number 13
_symmetry_cell_setting 'monoclinic'
loop_
_space_group_symop_operation_xyz
x,y,z
-x,y,1/2-z
-x,-y,-z
x,-y,1/2+z
loop_
_atom_site_type_symbol
_atom_site_label
_atom_site_fract_x
_atom_site_fract_y
_atom_site_fract_z
Si Si1 0.069274 0.704478 0.459340
Si Si2 0.122128 0.941285 0.654213
Si Si3 0.652687 0.777691 0.547891
Si Si4 0.495083 0.965110 0.353723
Si Si5 0.000000 0.572461 0.750000
Si Si6 0.724791 0.264176 0.667027
O O1 0.159494 0.804481 0.566818
O O2 0.000000 0.500000 0.500000
O O3 0.070220 0.580817 0.353279
O O4 0.996883 0.948272 0.408693
O O5 0.092347 0.733215 0.724285
O O6 0.191042 0.175492 0.721392
O O7 0.546082 0.823880 0.582605
O O8 0.729303 0.020638 0.596378
O O9 0.396933 0.178612 0.573465
O O10 0.709054 0.518485 0.598930
O O11 0.500000 0.078728 0.250000
O O12 0.394234 0.767321 0.321671
#
# Coordination Sequence:
#
# PCOD9231096 Si02
#       6
#     4   4   4   4   2   4
#     4   9  20  37  62  84 125 167 211 265 325 387
#     4  10  21  38  64  93 122 169 219 264 327 386
#     4   9  21  39  62  92 128 168 203 264 326 373
#     4   9  20  39  66  92 127 170 209 257 325 393
#     4  10  20  38  64  90 124 176 212 274 328 396
#     4  10  21  39  65  89 128 164 209 271 309 384
#
# _framework density 24.813130000000001
#
# number of rings (size 3 to 8) (size 9 to 14) (size 15 to 20)
#    1.091    1.455    0.000    1.091    5.091    0.727 
#    0.000    7.273    0.000    0.000    0.000    0.000 
#    0.000    0.000    0.000    0.000    0.000    0.000 
#
# Total GULP energy -122473.907761 kJ/mol
# GULP energy per Si atom -5566.995807 kJ/mol
# Density = 2.475665 g / cm^3
# Si number density = 24.813130 Si / 1000 Ang^3
#
#
#
# Elastic Constant Matrix: (Units=GPa)
#
#
# Indices 1 2 3 4 5 6 
#
# 1 38.5117 13.5651 36.6966 0.0000 20.6682 0.0000
# 2 13.5651 147.0432 66.9447 0.0000 12.1734 0.0000
# 3 36.6966 66.9447 201.7035 0.0000 11.3710 0.0000
# 4 0.0000 0.0000 0.0000 33.0610 0.0000 8.3274
# 5 20.6682 12.1734 11.3710 0.0000 36.0327 0.0000
# 6 0.0000 0.0000 0.0000 8.3274 0.0000 16.0236
#
#
#
# Elastic Compliance Matrix: (Units=1/GPa)
#
#
# Indices 1 2 3 4 5 6 
#
# 1 0.045483 0.001121 -0.007285 0.000000 -0.024169 0.000000
# 2 0.001121 0.008169 -0.002773 0.000000 -0.002528 0.000000
# 3 -0.007285 -0.002773 0.007040 0.000000 0.002893 0.000000
# 4 0.000000 0.000000 0.000000 0.034803 0.000000 -0.018087
# 5 -0.024169 -0.002528 0.002893 0.000000 0.041557 0.000000
# 6 0.000000 0.000000 0.000000 -0.018087 0.000000 0.071808
#
#
# Mechanical properties :
#
#
# Convention : Reuss Voigt Hill
#
# Bulk Modulus (GPa) = 23.35324 69.07456 46.21390
# Shear Modulus (GPa) = 20.74645 35.02692 27.88669
#
# Velocity S-wave (km/s) = 2.89469 3.76124 3.35605
# Velocity P-wave (km/s) = 4.53921 6.83820 5.80368
#
# Compressibility (1/GPa) = 0.04282062
#
# Stress axis : x y z
#
# Youngs Moduli (GPa) = 21.98610 122.41525 142.04071
#
# Poissons Ratio (x) = -0.13728 1.03471
# Poissons Ratio (y) = -0.02466 0.39384
# Poissons Ratio (z) = 0.16016 0.33943
#
# Static dielectric constant tensor:
#      x y z
#    x 2.154060 0.000000 0.069120 
#    y 0.000000 2.092380 0.000000 
#    z 0.069120 0.000000 2.726170 
# 
# From -- ./inp_files/54083.got.cif
#   From: 2010.05.17/outbox.cif.g08.bks.cpg/sg13_28_cif.got.tgz:54083.got - 2010.06.03 16:44:36.
