data_PCOD9231262
_publ_section_title
;
Structure prediction by ZEFSAII (Michael W. Deem and Ramdas Pophale) SiO2 
 PCOD9231262
Probable space group: P 2/C
;
_chemical_formula_sum "Si O2"
_cell_formula_units_Z 32
_cell_length_a 14.379858
_cell_length_b 9.718760
_cell_length_c 15.144493
_cell_angle_alpha 90.000000
_cell_angle_beta 52.587828
_cell_angle_gamma 90.000000
_cell_volume 1681.112847
_symmetry_space_group_name_H-M "P 2/C"
_symmetry_group_IT_number 13
_symmetry_cell_setting 'monoclinic'
loop_
_space_group_symop_operation_xyz
x,y,z
-x,y,1/2-z
-x,-y,-z
x,-y,1/2+z
loop_
_atom_site_type_symbol
_atom_site_label
_atom_site_fract_x
_atom_site_fract_y
_atom_site_fract_z
Si Si1 0.605897 0.717445 0.326718
Si Si2 0.743195 0.282460 0.571628
Si Si3 0.909090 0.247984 0.872598
Si Si4 0.762865 0.917483 0.329562
Si Si5 0.315307 0.603441 0.915977
Si Si6 0.366162 0.816009 0.538502
Si Si7 0.075749 0.878020 0.418786
Si Si8 0.576672 0.609990 0.836267
O O1 0.646356 0.749384 0.203490
O O2 0.701598 0.773291 0.339950
O O3 0.489236 0.799169 0.417714
O O4 0.592206 0.553463 0.344118
O O5 0.725030 0.444941 0.568397
O O6 0.725361 0.219452 0.485670
O O7 0.859699 0.220194 0.548359
O O8 0.856492 0.114506 0.851929
O O9 0.000000 0.316940 0.750000
O O10 0.991209 0.211882 0.906721
O O11 0.794079 0.322167 0.976086
O O12 0.829969 0.949655 0.200433
O O13 0.669555 0.034024 0.406569
O O14 0.436784 0.624449 0.899863
O O15 0.352975 0.645234 0.794401
O O16 0.376957 0.705541 0.611638
O O17 0.000000 0.000000 0.500000
#
# Coordination Sequence:
#
# PCOD9231262 Si02
#       8
#     4   4   4   4   4   4   4   4
#     4  10  20  39  60  88 129 168 194 241 320 384
#     4  10  22  38  62  90 121 166 207 253 308 375
#     4  10  22  41  64  86 118 168 213 265 309 365
#     4  10  23  37  61  93 121 158 216 251 309 375
#     4  10  21  41  63  92 125 161 210 248 321 378
#     4  12  21  35  61  98 125 159 204 256 302 374
#     4  10  22  42  62  79 122 167 206 258 317 355
#     4  10  22  37  65  94 130 162 195 257 318 380
#
# _framework density 19.03501
#
# number of rings (size 3 to 8) (size 9 to 14) (size 15 to 20)
#    0.000    1.750    1.250    2.625    3.500    0.500 
#    0.000    1.250    0.000    0.000    0.000    0.000 
#    0.000    0.000    0.000    0.000    0.000    0.000 
#
# Total GULP energy -178391.149491 kJ/mol
# GULP energy per Si atom -5574.723422 kJ/mol
# Density = 1.899169 g / cm^3
# Si number density = 19.035010 Si / 1000 Ang^3
#
#
#
# Elastic Constant Matrix: (Units=GPa)
#
#
# Indices 1 2 3 4 5 6 
#
# 1 130.9315 39.4026 56.9342 0.0000 18.5636 0.0000
# 2 39.4026 58.7118 60.1250 0.0000 1.5085 0.0000
# 3 56.9342 60.1250 121.7760 0.0000 -6.9939 0.0000
# 4 0.0000 0.0000 0.0000 31.9312 0.0000 -12.8978
# 5 18.5636 1.5085 -6.9939 0.0000 38.5897 0.0000
# 6 0.0000 0.0000 0.0000 -12.8978 0.0000 10.8326
#
#
#
# Elastic Compliance Matrix: (Units=1/GPa)
#
#
# Indices 1 2 3 4 5 6 
#
# 1 0.011197 -0.003336 -0.003931 0.000000 -0.005968 0.000000
# 2 -0.003336 0.036228 -0.016488 0.000000 -0.002800 0.000000
# 3 -0.003931 -0.016488 0.018529 0.000000 0.005893 0.000000
# 4 0.000000 0.000000 0.000000 0.060333 0.000000 0.071836
# 5 -0.005968 -0.002800 0.005893 0.000000 0.029962 0.000000
# 6 0.000000 0.000000 0.000000 0.071836 0.000000 0.177844
#
#
# Mechanical properties :
#
#
# Convention : Reuss Voigt Hill
#
# Bulk Modulus (GPa) = 54.21720 69.37144 61.79432
# Shear Modulus (GPa) = 12.89487 26.60120 19.74803
#
# Velocity S-wave (km/s) = 2.60557 3.74235 3.22445
# Velocity P-wave (km/s) = 6.13162 7.42946 6.81152
#
# Compressibility (1/GPa) = 0.01844433
#
# Stress axis : x y z
#
# Youngs Moduli (GPa) = 89.31083 27.60285 53.96996
#
# Poissons Ratio (x) = 0.09208 0.21214
# Poissons Ratio (y) = 0.29792 0.88987
# Poissons Ratio (z) = 0.35105 0.45512
#
# Static dielectric constant tensor:
#      x y z
#    x 1.696230 0.000000 -0.002810 
#    y 0.000000 1.646860 0.000000 
#    z -0.002810 0.000000 1.694710 
# 
# From -- ./inp_files/53039.got.cif
#   From: 2010.05.17/outbox.cif.g08.bks.cpg/sg13_27_cif.got.tgz:53039.got - 2010.06.03 16:44:36.
