data_PCOD9231501
_publ_section_title
;
Structure prediction by ZEFSAII (Michael W. Deem and Ramdas Pophale) SiO2 
 PCOD9231501
Probable space group: P 2/C
;
_chemical_formula_sum "Si O2"
_cell_formula_units_Z 28
_cell_length_a 11.335651
_cell_length_b 9.817761
_cell_length_c 13.882363
_cell_angle_alpha 90.000000
_cell_angle_beta 71.024254
_cell_angle_gamma 90.000000
_cell_volume 1461.018254
_symmetry_space_group_name_H-M "P 2/C"
_symmetry_group_IT_number 13
_symmetry_cell_setting 'monoclinic'
loop_
_space_group_symop_operation_xyz
x,y,z
-x,y,1/2-z
-x,-y,-z
x,-y,1/2+z
loop_
_atom_site_type_symbol
_atom_site_label
_atom_site_fract_x
_atom_site_fract_y
_atom_site_fract_z
Si Si1 0.007134 0.308758 0.590857
Si Si2 0.247917 0.045196 0.123762
Si Si3 0.712623 0.742957 0.462812
Si Si4 0.000000 0.541158 0.750000
Si Si5 0.364972 0.477829 0.079853
Si Si6 0.161071 0.693311 0.553272
Si Si7 0.460588 0.768418 0.653321
Si Si8 0.000000 0.928628 0.250000
O O1 0.155285 0.303216 0.526566
O O2 0.970746 0.435267 0.670340
O O3 0.927260 0.317331 0.515237
O O4 0.991689 0.172377 0.659936
O O5 0.205846 0.151871 0.053285
O O6 0.368946 0.113948 0.138996
O O7 0.276330 0.894341 0.079995
O O8 0.123199 0.021374 0.219308
O O9 0.691957 0.626377 0.386970
O O10 0.589547 0.747695 0.560998
O O11 0.096839 0.640257 0.669745
O O12 0.282022 0.403312 0.020381
O O13 0.382114 0.371729 0.161673
O O14 0.500000 0.500000 0.000000
O O15 0.500000 0.797330 0.750000
#
# Coordination Sequence:
#
# PCOD9231501 Si02
#       8
#     4   4   4   2   4   4   4   2
#     4  10  22  38  61  93 123 166 202 256 321 371
#     4  10  22  39  60  88 123 165 200 251 312 369
#     4  10  20  40  61  81 124 163 197 248 309 375
#     4  11  21  36  58  92 124 154 208 264 308 370
#     4   9  20  40  57  81 116 158 203 251 304 358
#     4  11  22  38  62  90 121 161 209 256 315 374
#     4  10  22  39  61  89 117 156 211 257 302 362
#     4   9  21  40  58  92 134 156 202 262 306 380
#
# _framework density 19.164715000000001
#
# number of rings (size 3 to 8) (size 9 to 14) (size 15 to 20)
#    0.000    2.000    1.429    1.286    0.000    6.857 
#    5.143    0.714    0.000    0.000    0.000    0.000 
#    0.000    0.000    0.000    0.000    0.000    0.000 
#
# Total GULP energy -155895.308839 kJ/mol
# GULP energy per Si atom -5567.689601 kJ/mol
# Density = 1.912110 g / cm^3
# Si number density = 19.164715 Si / 1000 Ang^3
#
#
#
# Elastic Constant Matrix: (Units=GPa)
#
#
# Indices 1 2 3 4 5 6 
#
# 1 157.9010 48.3661 59.6781 0.0000 5.7411 0.0000
# 2 48.3661 134.3309 24.8317 0.0000 10.1327 0.0000
# 3 59.6781 24.8317 57.3063 0.0000 1.0581 0.0000
# 4 0.0000 0.0000 0.0000 12.6893 0.0000 -15.0405
# 5 5.7411 10.1327 1.0581 0.0000 28.4555 0.0000
# 6 0.0000 0.0000 0.0000 -15.0405 0.0000 22.4006
#
#
#
# Elastic Compliance Matrix: (Units=1/GPa)
#
#
# Indices 1 2 3 4 5 6 
#
# 1 0.010946 -0.001905 -0.010553 0.000000 -0.001138 0.000000
# 2 -0.001905 0.008645 -0.001714 0.000000 -0.002631 0.000000
# 3 -0.010553 -0.001714 0.029152 0.000000 0.001655 0.000000
# 4 0.000000 0.000000 0.000000 0.386007 0.000000 0.259178
# 5 -0.001138 -0.002631 0.001655 0.000000 0.036247 0.000000
# 6 0.000000 0.000000 0.000000 0.259178 0.000000 0.218663
#
#
# Mechanical properties :
#
#
# Convention : Reuss Voigt Hill
#
# Bulk Modulus (GPa) = 49.01927 68.36557 58.69242
# Shear Modulus (GPa) = 6.89841 27.15322 17.02581
#
# Velocity S-wave (km/s) = 1.89930 3.76817 2.98383
# Velocity P-wave (km/s) = 5.51754 7.39474 6.52401
#
# Compressibility (1/GPa) = 0.02040014
#
# Stress axis : x y z
#
# Youngs Moduli (GPa) = 91.35465 115.66892 34.30280
#
# Poissons Ratio (x) = 0.22031 0.36200
# Poissons Ratio (y) = 0.17400 0.05880
# Poissons Ratio (z) = 0.96407 0.19827
#
# Static dielectric constant tensor:
#      x y z
#    x 1.705670 0.000000 -0.053300 
#    y 0.000000 1.703240 0.000000 
#    z -0.053300 0.000000 1.673030 
# 
# From -- ./inp_files/50017.got.cif
#   From: 2010.05.17/outbox.cif.g08.bks.cpg/sg13_26_cif.got.tgz:50017.got - 2010.06.03 16:44:36.
