data_PCOD9231855
_publ_section_title
;
Structure prediction by ZEFSAII (Michael W. Deem and Ramdas Pophale) SiO2 
 PCOD9231855
Probable space group: P 2/C
;
_chemical_formula_sum "Si O2"
_cell_formula_units_Z 20
_cell_length_a 8.298014
_cell_length_b 6.375267
_cell_length_c 17.679072
_cell_angle_alpha 90.000000
_cell_angle_beta 78.079025
_cell_angle_gamma 90.000000
_cell_volume 915.088904
_symmetry_space_group_name_H-M "P 2/C"
_symmetry_group_IT_number 13
_symmetry_cell_setting 'monoclinic'
loop_
_space_group_symop_operation_xyz
x,y,z
-x,y,1/2-z
-x,-y,-z
x,-y,1/2+z
loop_
_atom_site_type_symbol
_atom_site_label
_atom_site_fract_x
_atom_site_fract_y
_atom_site_fract_z
Si Si1 0.737455 0.325472 0.500404
Si Si2 0.156053 0.296087 0.845410
Si Si3 0.000000 0.362721 0.250000
Si Si4 0.616807 0.649804 0.394762
Si Si5 0.500000 0.647973 0.250000
Si Si6 0.140561 0.022189 0.132586
O O1 0.830112 0.371402 0.569347
O O2 0.727818 0.511381 0.440004
O O3 0.547536 0.290348 0.543401
O O4 0.815655 0.126295 0.451761
O O5 0.338529 0.235658 0.798195
O O6 0.090694 0.485204 0.800143
O O7 0.030124 0.104720 0.852057
O O8 0.122549 0.208621 0.194001
O O9 0.562642 0.537334 0.321483
O O10 0.718527 0.854791 0.362637
#
# Coordination Sequence:
#
# PCOD9231855 Si02
#       6
#     4   4   2   4   2   4
#     4  10  23  42  68  96 129 169 207 260 320 373
#     4  11  24  42  64  93 128 166 214 264 313 377
#     4  12  26  42  64  94 126 170 212 262 320 368
#     4  10  22  42  65  95 130 166 211 259 310 379
#     4  10  20  42  64  84 126 168 206 260 310 364
#     4  12  23  41  66  95 128 166 213 262 315 380
#
# _framework density 21.855799000000001
#
# number of rings (size 3 to 8) (size 9 to 14) (size 15 to 20)
#    0.000    1.200    0.000    6.600    0.000    4.800 
#    0.000   19.000    0.000    0.000    0.000    0.000 
#    0.000    0.000    0.000    0.000    0.000    0.000 
#
# Total GULP energy -111755.934031 kJ/mol
# GULP energy per Si atom -5587.796702 kJ/mol
# Density = 2.180605 g / cm^3
# Si number density = 21.855799 Si / 1000 Ang^3
#
#
#
# Elastic Constant Matrix: (Units=GPa)
#
#
# Indices 1 2 3 4 5 6 
#
# 1 93.5732 73.1410 57.8330 0.0000 1.8142 0.0000
# 2 73.1410 101.6824 66.2118 0.0000 8.2511 0.0000
# 3 57.8330 66.2118 168.1343 0.0000 26.1796 0.0000
# 4 0.0000 0.0000 0.0000 41.0277 0.0000 -14.3589
# 5 1.8142 8.2511 26.1796 0.0000 53.1476 0.0000
# 6 0.0000 0.0000 0.0000 -14.3589 0.0000 14.6983
#
#
#
# Elastic Compliance Matrix: (Units=1/GPa)
#
#
# Indices 1 2 3 4 5 6 
#
# 1 0.025356 -0.016809 -0.002571 0.000000 0.003010 0.000000
# 2 -0.016809 0.024384 -0.003597 0.000000 -0.001440 0.000000
# 3 -0.002571 -0.003597 0.008825 0.000000 -0.003701 0.000000
# 4 0.000000 0.000000 0.000000 0.037036 0.000000 0.036181
# 5 0.003010 -0.001440 -0.003701 0.000000 0.020759 0.000000
# 6 0.000000 0.000000 0.000000 0.036181 0.000000 0.103381
#
#
# Mechanical properties :
#
#
# Convention : Reuss Voigt Hill
#
# Bulk Modulus (GPa) = 79.29142 84.19573 81.74358
# Shear Modulus (GPa) = 18.52550 32.85499 25.69025
#
# Velocity S-wave (km/s) = 2.91456 3.88140 3.43219
# Velocity P-wave (km/s) = 6.90538 7.66120 7.29309
#
# Compressibility (1/GPa) = 0.01261171
#
# Stress axis : x y z
#
# Youngs Moduli (GPa) = 39.43818 41.01014 113.32041
#
# Poissons Ratio (x) = 0.68934 0.29135
# Poissons Ratio (y) = 0.66292 0.40756
# Poissons Ratio (z) = 0.10140 0.14749
#
# Static dielectric constant tensor:
#      x y z
#    x 1.814220 0.000000 -0.004170 
#    y 0.000000 1.754120 0.000000 
#    z -0.004170 0.000000 1.830930 
# 
# From -- ./inp_files/62348.got.cif
#   From: 2010.05.17/outbox.cif.g08.bks.cpg/sg13_32_cif.got.tgz:62348.got - 2010.06.03 16:44:36.
