data_PCOD9231137
_publ_section_title
;
Structure prediction by ZEFSAII (Michael W. Deem and Ramdas Pophale) SiO2 
 PCOD9231137
Probable space group: P 2/C
;
_chemical_formula_sum "Si O2"
_cell_formula_units_Z 28
_cell_length_a 9.553892
_cell_length_b 15.050367
_cell_length_c 20.883440
_cell_angle_alpha 90.000000
_cell_angle_beta 149.789547
_cell_angle_gamma 90.000000
_cell_volume 1510.952355
_symmetry_space_group_name_H-M "P 2/C"
_symmetry_group_IT_number 13
_symmetry_cell_setting 'monoclinic'
loop_
_space_group_symop_operation_xyz
x,y,z
-x,y,1/2-z
-x,-y,-z
x,-y,1/2+z
loop_
_atom_site_type_symbol
_atom_site_label
_atom_site_fract_x
_atom_site_fract_y
_atom_site_fract_z
Si Si1 0.640965 0.423984 0.377067
Si Si2 0.166247 0.047514 0.124589
Si Si3 0.276325 0.623256 0.105575
Si Si4 0.210335 0.690550 0.782585
Si Si5 0.078832 0.967462 0.349883
Si Si6 0.817438 0.221548 0.024211
Si Si7 0.582436 0.145134 0.051161
O O1 0.500000 0.417826 0.250000
O O2 0.662386 0.528133 0.403442
O O3 0.455428 0.370348 0.353875
O O4 0.953281 0.385481 0.498602
O O5 0.500000 0.061180 0.250000
O O6 0.995220 0.139132 0.067351
O O7 0.132571 0.991360 0.177546
O O8 0.000000 0.000000 0.000000
O O9 0.500000 0.628572 0.250000
O O10 0.302311 0.711714 0.074667
O O11 0.312976 0.780428 0.858684
O O12 0.000000 0.645613 0.750000
O O13 0.031635 0.721835 0.651617
O O14 0.304926 0.899936 0.467001
O O15 0.000000 0.927596 0.250000
O O16 0.218631 0.060806 0.383574
O O17 0.581307 0.188613 0.980286
#
# Coordination Sequence:
#
# PCOD9231137 Si02
#       7
#     4   4   4   4   4   4   4
#     4  10  20  39  68  93 120 167 208 254 321 388
#     4  11  27  40  62  98 128 162 215 270 314 366
#     4  10  22  39  63  92 130 165 204 253 324 382
#     4  10  20  38  65  94 115 156 216 264 301 369
#     4  10  21  40  63  79 124 173 201 253 321 384
#     4  10  21  39  63  89 126 160 211 259 305 373
#     4   9  20  37  62  86 114 160 214 247 309 372
#
# _framework density 18.531358999999998
#
# number of rings (size 3 to 8) (size 9 to 14) (size 15 to 20)
#    0.000    2.000    1.429    2.143   10.000    0.571 
#    2.571    2.857    0.000    0.000    0.000    0.000 
#    0.000    0.000    0.000    0.000    0.000    0.000 
#
# Total GULP energy -156018.498861 kJ/mol
# GULP energy per Si atom -5572.089245 kJ/mol
# Density = 1.848918 g / cm^3
# Si number density = 18.531359 Si / 1000 Ang^3
#
#
#
# Elastic Constant Matrix: (Units=GPa)
#
#
# Indices 1 2 3 4 5 6 
#
# 1 63.8646 29.8094 39.9908 0.0000 16.3756 0.0000
# 2 29.8094 61.1679 34.5322 0.0000 14.9527 0.0000
# 3 39.9908 34.5322 72.8347 0.0000 0.6138 0.0000
# 4 0.0000 0.0000 0.0000 -6.9225 0.0000 52.2711
# 5 16.3756 14.9527 0.6138 0.0000 26.8545 0.0000
# 6 0.0000 0.0000 0.0000 52.2711 0.0000 -123.6581
#
#
#
# Elastic Compliance Matrix: (Units=1/GPa)
#
#
# Indices 1 2 3 4 5 6 
#
# 1 0.031049 -0.001765 -0.016063 0.000000 -0.017584 0.000000
# 2 -0.001765 0.027282 -0.011849 0.000000 -0.013844 0.000000
# 3 -0.016063 -0.011849 0.028034 0.000000 0.015752 0.000000
# 4 0.000000 0.000000 0.000000 0.065907 0.000000 0.027859
# 5 -0.017584 -0.013844 0.015752 0.000000 0.055308 0.000000
# 6 0.000000 0.000000 0.000000 0.027859 0.000000 0.003690
#
#
# Mechanical properties :
#
#
# Convention : Reuss Voigt Hill
#
# Bulk Modulus (GPa) = 37.02116 45.17025 41.09571
# Shear Modulus (GPa) = 17.88091 -14.50958 1.68567
#
# Velocity S-wave (km/s) = 3.10965 -2.80120 0.95478
# Velocity P-wave (km/s) = 5.73709 3.73706 4.84148
#
# Compressibility (1/GPa) = 0.02701158
#
# Stress axis : x y z
#
# Youngs Moduli (GPa) = 32.20750 36.65407 35.67036
#
# Poissons Ratio (x) = 0.06468 0.57297
# Poissons Ratio (y) = 0.05683 0.42267
# Poissons Ratio (z) = 0.51734 0.43433
#
# Static dielectric constant tensor:
#      x y z
#    x 1.658160 0.000000 -0.024480 
#    y 0.000000 1.637330 0.000000 
#    z -0.024480 0.000000 1.694660 
# 
# From -- ./inp_files/76655.got.cif
#   From: 2010.05.17/outbox.cif.g08.bks.cpg/sg13_39_cif.got.tgz:76655.got - 2010.06.03 16:44:36.
