data_PCOD9231944
_publ_section_title
;
Structure prediction by ZEFSAII (Michael W. Deem and Ramdas Pophale) SiO2 
 PCOD9231944
Probable space group: P 2/C
;
_chemical_formula_sum "Si O2"
_cell_formula_units_Z 20
_cell_length_a 5.185429
_cell_length_b 11.011874
_cell_length_c 16.570852
_cell_angle_alpha 90.000000
_cell_angle_beta 56.646619
_cell_angle_gamma 90.000000
_cell_volume 790.370823
_symmetry_space_group_name_H-M "P 2/C"
_symmetry_group_IT_number 13
_symmetry_cell_setting 'monoclinic'
loop_
_space_group_symop_operation_xyz
x,y,z
-x,y,1/2-z
-x,-y,-z
x,-y,1/2+z
loop_
_atom_site_type_symbol
_atom_site_label
_atom_site_fract_x
_atom_site_fract_y
_atom_site_fract_z
Si Si1 0.000000 0.988882 0.750000
Si Si2 0.810189 0.643595 0.642670
Si Si3 0.037831 0.594254 0.154207
Si Si4 0.353696 0.833892 0.099790
Si Si5 0.500000 0.208505 0.750000
Si Si6 0.384667 0.202819 0.109586
O O1 0.714084 0.895504 0.806478
O O2 0.947783 0.079725 0.834804
O O3 0.500000 0.627477 0.750000
O O4 0.964108 0.511411 0.604684
O O5 0.670817 0.715306 0.590388
O O6 0.080307 0.719794 0.639439
O O7 0.781498 0.697280 0.197537
O O8 0.000000 0.536128 0.250000
O O9 0.327746 0.684933 0.098949
O O10 0.499257 0.855048 0.162882
O O11 0.521218 0.863949 0.988891
#
# Coordination Sequence:
#
# PCOD9231944 Si02
#       6
#     2   4   4   4   2   4
#     4  12  24  54  72 104 152 206 248 318 366 446
#     4  12  24  48  73 106 153 196 245 306 385 447
#     4  10  21  42  75 106 148 200 245 305 377 449
#     4  11  26  46  73 112 145 199 259 308 373 447
#     4  10  20  42  72 102 146 194 242 302 370 434
#     4  12  29  46  75 112 149 198 252 311 376 445
#
# _framework density 25.304576999999998
#
# number of rings (size 3 to 8) (size 9 to 14) (size 15 to 20)
#    0.000    0.800    6.000    1.800    5.600    3.200 
#    0.000    3.000    0.000    0.000    0.000    0.000 
#    0.000    0.000    0.000    0.000    0.000    0.000 
#
# Total GULP energy -111538.012189 kJ/mol
# GULP energy per Si atom -5576.900609 kJ/mol
# Density = 2.524698 g / cm^3
# Si number density = 25.304577 Si / 1000 Ang^3
#
#
#
# Elastic Constant Matrix: (Units=GPa)
#
#
# Indices 1 2 3 4 5 6 
#
# 1 122.1941 52.9157 5.2968 0.0000 26.1371 0.0000
# 2 52.9157 166.0017 32.1529 0.0000 2.7832 0.0000
# 3 5.2968 32.1529 101.5264 0.0000 15.0249 0.0000
# 4 0.0000 0.0000 0.0000 3.2708 0.0000 15.7249
# 5 26.1371 2.7832 15.0249 0.0000 29.0186 0.0000
# 6 0.0000 0.0000 0.0000 15.7249 0.0000 -12.8525
#
#
#
# Elastic Compliance Matrix: (Units=1/GPa)
#
#
# Indices 1 2 3 4 5 6 
#
# 1 0.012530 -0.004274 0.002501 0.000000 -0.012170 0.000000
# 2 -0.004274 0.007882 -0.002958 0.000000 0.004625 0.000000
# 3 0.002501 -0.002958 0.011856 0.000000 -0.008108 0.000000
# 4 0.000000 0.000000 0.000000 0.044425 0.000000 0.054353
# 5 -0.012170 0.004625 -0.008108 0.000000 0.049177 0.000000
# 6 0.000000 0.000000 0.000000 0.054353 0.000000 -0.011306
#
#
# Mechanical properties :
#
#
# Convention : Reuss Voigt Hill
#
# Bulk Modulus (GPa) = 43.84961 63.38366 53.61664
# Shear Modulus (GPa) = 37.98620 23.84450 30.91535
#
# Velocity S-wave (km/s) = 3.87868 3.07302 3.49912
# Velocity P-wave (km/s) = 6.11762 6.13954 6.12859
#
# Compressibility (1/GPa) = 0.02280522
#
# Stress axis : x y z
#
# Youngs Moduli (GPa) = 79.81149 126.87334 84.34771
#
# Poissons Ratio (x) = 0.54230 -0.21096
# Poissons Ratio (y) = 0.34114 0.24947
# Poissons Ratio (z) = -0.19962 0.37525
#
# Static dielectric constant tensor:
#      x y z
#    x 2.212160 0.000000 -0.090200 
#    y 0.000000 2.047100 0.000000 
#    z -0.090200 0.000000 2.042540 
# 
# From -- ./inp_files/60909.got.cif
#   From: 2010.05.17/outbox.cif.g08.bks.cpg/sg13_31_cif.got.tgz:60909.got - 2010.06.03 16:44:36.
