data_PCOD9231413
_publ_section_title
;
Structure prediction by ZEFSAII (Michael W. Deem and Ramdas Pophale) SiO2 
 PCOD9231413
Probable space group: P 2/C
;
_chemical_formula_sum "Si O2"
_cell_formula_units_Z 20
_cell_length_a 10.628508
_cell_length_b 11.793708
_cell_length_c 9.041511
_cell_angle_alpha 90.000000
_cell_angle_beta 48.631282
_cell_angle_gamma 90.000000
_cell_volume 850.546757
_symmetry_space_group_name_H-M "P 2/C"
_symmetry_group_IT_number 13
_symmetry_cell_setting 'monoclinic'
loop_
_space_group_symop_operation_xyz
x,y,z
-x,y,1/2-z
-x,-y,-z
x,-y,1/2+z
loop_
_atom_site_type_symbol
_atom_site_label
_atom_site_fract_x
_atom_site_fract_y
_atom_site_fract_z
Si Si1 0.433819 0.798634 0.467046
Si Si2 0.199796 0.608783 0.598857
Si Si3 0.792224 0.836513 0.300383
Si Si4 0.829592 0.040231 0.456084
Si Si5 0.858723 0.409011 0.668695
O O1 0.500000 0.776243 0.250000
O O2 0.305431 0.698909 0.607761
O O3 0.593354 0.809923 0.447203
O O4 0.323443 0.910381 0.522067
O O5 0.221215 0.482393 0.640720
O O6 0.253346 0.609623 0.387411
O O7 0.000000 0.639017 0.750000
O O8 0.827406 0.906278 0.422789
O O9 0.891099 0.718338 0.198520
O O10 0.822515 0.916015 0.130232
O O11 0.000000 0.084829 0.250000
O O12 0.000000 0.500000 0.500000
#
# Coordination Sequence:
#
# PCOD9231413 Si02
#       5
#     4   4   4   4   4
#     4  10  20  39  67  88 130 170 216 257 326 380
#     4  10  20  40  65  92 128 173 211 268 327 385
#     4  11  24  44  64  97 132 172 215 271 319 392
#     4  11  23  41  68  92 129 172 216 260 324 383
#     4  10  22  39  66  94 128 165 218 268 324 378
#
# _framework density 23.514285999999998
#
# number of rings (size 3 to 8) (size 9 to 14) (size 15 to 20)
#    0.000    1.600    4.000    1.800    2.800    3.200 
#    3.600    0.000    0.000    0.000    0.000    0.000 
#    0.000    0.000    0.000    0.000    0.000    0.000 
#
# Total GULP energy -111549.385756 kJ/mol
# GULP energy per Si atom -5577.469288 kJ/mol
# Density = 2.346077 g / cm^3
# Si number density = 23.514286 Si / 1000 Ang^3
#
#
#
# Elastic Constant Matrix: (Units=GPa)
#
#
# Indices 1 2 3 4 5 6 
#
# 1 66.0330 34.5631 28.2883 0.0000 -5.0119 0.0000
# 2 34.5631 195.5436 39.0232 0.0000 10.5710 0.0000
# 3 28.2883 39.0232 53.9559 0.0000 -11.6144 0.0000
# 4 0.0000 0.0000 0.0000 22.5219 0.0000 21.4491
# 5 -5.0119 10.5710 -11.6144 0.0000 39.2971 0.0000
# 6 0.0000 0.0000 0.0000 21.4491 0.0000 -30.7170
#
#
#
# Elastic Compliance Matrix: (Units=1/GPa)
#
#
# Indices 1 2 3 4 5 6 
#
# 1 0.019998 -0.001720 -0.009176 0.000000 0.000301 0.000000
# 2 -0.001720 0.006496 -0.004506 0.000000 -0.003298 0.000000
# 3 -0.009176 -0.004506 0.028421 0.000000 0.008442 0.000000
# 4 0.000000 0.000000 0.000000 0.026667 0.000000 0.018621
# 5 0.000301 -0.003298 0.008442 0.000000 0.028868 0.000000
# 6 0.000000 0.000000 0.000000 0.018621 0.000000 -0.019552
#
#
# Mechanical properties :
#
#
# Convention : Reuss Voigt Hill
#
# Bulk Modulus (GPa) = 41.47618 57.69797 49.58707
# Shear Modulus (GPa) = 38.53944 20.46425 29.50184
#
# Velocity S-wave (km/s) = 4.05282 2.95327 3.54593
# Velocity P-wave (km/s) = 6.29107 6.01828 6.15619
#
# Compressibility (1/GPa) = 0.02411022
#
# Stress axis : x y z
#
# Youngs Moduli (GPa) = 50.00518 153.95250 35.18566
#
# Poissons Ratio (x) = 0.26477 0.32286
# Poissons Ratio (y) = 0.08600 0.15855
# Poissons Ratio (z) = 0.45885 0.69374
#
# Static dielectric constant tensor:
#      x y z
#    x 2.828220 0.000000 0.700770 
#    y 0.000000 1.971300 0.000000 
#    z 0.700770 0.000000 2.597470 
# 
# From -- ./inp_files/33035.got.cif
#   From: 2010.05.17/outbox.cif.g08.bks.cpg/sg13_17_cif.got.tgz:33035.got - 2010.06.03 16:44:36.
