data_PCOD9231462
_publ_section_title
;
Structure prediction by ZEFSAII (Michael W. Deem and Ramdas Pophale) SiO2 
 PCOD9231462
Probable space group: P 2/C
;
_chemical_formula_sum "Si O2"
_cell_formula_units_Z 18
_cell_length_a 5.131165
_cell_length_b 11.954168
_cell_length_c 12.179663
_cell_angle_alpha 90.000000
_cell_angle_beta 100.591290
_cell_angle_gamma 90.000000
_cell_volume 734.358137
_symmetry_space_group_name_H-M "P 2/C"
_symmetry_group_IT_number 13
_symmetry_cell_setting 'monoclinic'
loop_
_space_group_symop_operation_xyz
x,y,z
-x,y,1/2-z
-x,-y,-z
x,-y,1/2+z
loop_
_atom_site_type_symbol
_atom_site_label
_atom_site_fract_x
_atom_site_fract_y
_atom_site_fract_z
Si Si1 0.693499 0.723870 0.369770
Si Si2 0.000000 0.553338 0.250000
Si Si3 0.783929 0.964951 0.330669
Si Si4 0.785653 0.793259 0.829708
Si Si5 0.865399 0.404686 0.061909
O O1 0.500000 0.730296 0.250000
O O2 0.783543 0.850250 0.398786
O O3 0.631096 0.660039 0.478946
O O4 0.905293 0.640084 0.333821
O O5 0.198484 0.467119 0.327786
O O6 0.500000 0.970115 0.250000
O O7 0.000000 0.952647 0.250000
O O8 0.794561 0.085595 0.390520
O O9 0.500000 0.774999 0.750000
O O10 0.000000 0.808894 0.750000
O O11 0.907070 0.688737 0.902602
O O12 0.000000 0.500000 0.000000
#
# Coordination Sequence:
#
# PCOD9231462 Si02
#       5
#     4   2   4   4   4
#     4  10  21  38  60  89 126 162 210 262 315 373
#     4  10  20  40  56  86 124 164 220 252 312 374
#     4   9  18  36  65  90 123 163 203 258 318 370
#     4  10  21  42  65  93 128 163 208 262 312 374
#     4  10  22  39  60  93 121 173 210 254 315 370
#
# _framework density 24.511201
#
# number of rings (size 3 to 8) (size 9 to 14) (size 15 to 20)
#    0.000    2.222    2.222    0.000    0.000    5.333 
#    8.000    0.000    0.000   10.667    0.000    0.000 
#    0.000    0.000    0.000    0.000    0.000    0.000 
#
# Total GULP energy -100243.477644 kJ/mol
# GULP energy per Si atom -5569.082091 kJ/mol
# Density = 2.445541 g / cm^3
# Si number density = 24.511201 Si / 1000 Ang^3
#
#
#
# Elastic Constant Matrix: (Units=GPa)
#
#
# Indices 1 2 3 4 5 6 
#
# 1 79.3584 2.9305 -3.0852 0.0000 18.4721 0.0000
# 2 2.9305 236.0697 53.7914 0.0000 24.9516 0.0000
# 3 -3.0852 53.7914 60.4472 0.0000 31.2994 0.0000
# 4 0.0000 0.0000 0.0000 127.6233 0.0000 45.5896
# 5 18.4721 24.9516 31.2994 0.0000 28.9926 0.0000
# 6 0.0000 0.0000 0.0000 45.5896 0.0000 32.7863
#
#
#
# Elastic Compliance Matrix: (Units=1/GPa)
#
#
# Indices 1 2 3 4 5 6 
#
# 1 0.021213 -0.001157 0.019490 0.000000 -0.033561 0.000000
# 2 -0.001157 0.005395 -0.006435 0.000000 0.003041 0.000000
# 3 0.019490 -0.006435 0.060831 0.000000 -0.072551 0.000000
# 4 0.000000 0.000000 0.000000 0.015569 0.000000 -0.021649
# 5 -0.033561 0.003041 -0.072551 0.000000 0.131581 0.000000
# 6 0.000000 0.000000 0.000000 -0.021649 0.000000 0.060603
#
#
# Mechanical properties :
#
#
# Convention : Reuss Voigt Hill
#
# Bulk Modulus (GPa) = 8.98990 53.68318 31.33654
# Shear Modulus (GPa) = 16.20880 59.36301 37.78591
#
# Velocity S-wave (km/s) = 2.57433 4.92659 3.93055
# Velocity P-wave (km/s) = 3.53721 7.36958 5.78025
#
# Compressibility (1/GPa) = 0.11123592
#
# Stress axis : x y z
#
# Youngs Moduli (GPa) = 47.14009 185.34857 16.43901
#
# Poissons Ratio (x) = 0.21448 -0.32040
# Poissons Ratio (y) = 0.05455 0.10578
# Poissons Ratio (z) = -0.91876 1.19266
#
# Static dielectric constant tensor:
#      x y z
#    x 1.955310 0.000000 0.031160 
#    y 0.000000 2.025350 0.000000 
#    z 0.031160 0.000000 2.161790 
# 
# From -- ./inp_files/25872.got.cif
#   From: 2010.05.17/outbox.cif.g08.bks.cpg/sg13_13_cif.got.tgz:25872.got - 2010.06.03 16:44:36.
