data_PCOD9231453
_publ_section_title
;
Structure prediction by ZEFSAII (Michael W. Deem and Ramdas Pophale) SiO2 
 PCOD9231453
Probable space group: P 2/C
;
_chemical_formula_sum "Si O2"
_cell_formula_units_Z 30
_cell_length_a 11.529769
_cell_length_b 8.282125
_cell_length_c 22.946070
_cell_angle_alpha 90.000000
_cell_angle_beta 38.482855
_cell_angle_gamma 90.000000
_cell_volume 1363.505330
_symmetry_space_group_name_H-M "P 2/C"
_symmetry_group_IT_number 13
_symmetry_cell_setting 'monoclinic'
loop_
_space_group_symop_operation_xyz
x,y,z
-x,y,1/2-z
-x,-y,-z
x,-y,1/2+z
loop_
_atom_site_type_symbol
_atom_site_label
_atom_site_fract_x
_atom_site_fract_y
_atom_site_fract_z
Si Si1 0.000000 0.818497 0.750000
Si Si2 0.746810 0.448264 0.013486
Si Si3 0.932298 0.579285 0.209418
Si Si4 0.553338 0.061926 0.291114
Si Si5 0.952647 0.837534 0.481563
Si Si6 0.634471 0.667694 0.852812
Si Si7 0.060481 0.938721 0.328552
Si Si8 0.649774 0.274759 0.641851
O O1 0.200867 0.730197 0.669916
O O2 0.008013 0.929131 0.803200
O O3 0.562635 0.400006 0.048968
O O4 0.686887 0.605894 0.073512
O O5 0.915164 0.465335 0.900402
O O6 0.805725 0.312207 0.039669
O O7 0.000000 0.559331 0.250000
O O8 0.749353 0.470132 0.272885
O O9 0.890465 0.768512 0.219455
O O10 0.500000 0.136822 0.250000
O O11 0.570284 0.185963 0.336737
O O12 0.763389 0.998337 0.204325
O O13 0.424345 0.903182 0.349096
O O14 0.902703 0.906429 0.437529
O O15 0.148809 0.743868 0.407530
O O16 0.000000 0.000000 0.500000
O O17 0.500000 0.328482 0.750000
#
# Coordination Sequence:
#
# PCOD9231453 Si02
#       8
#     2   4   4   4   4   4   4   4
#     4  10  22  42  72 100 132 194 238 300 350 416
#     4  11  27  43  72 109 138 198 238 293 373 427
#     4  11  24  48  73  99 139 192 242 303 352 419
#     4  10  20  39  71 104 137 192 225 289 362 423
#     4  11  23  43  68 107 148 181 238 299 356 439
#     4  11  24  45  69 105 142 178 252 294 356 428
#     4  10  20  41  72  96 139 186 236 284 367 420
#     4  11  22  44  68 104 149 190 232 285 366 442
#
# _framework density 22.002115
#
# number of rings (size 3 to 8) (size 9 to 14) (size 15 to 20)
#    0.000    1.333    4.000    2.000    1.867    3.200 
#    2.400    2.667    0.000    0.000    0.000    0.000 
#    0.000    0.000    0.000    0.000    0.000    0.000 
#
# Total GULP energy -167081.561468 kJ/mol
# GULP energy per Si atom -5569.385382 kJ/mol
# Density = 2.195204 g / cm^3
# Si number density = 22.002115 Si / 1000 Ang^3
#
#
#
# Elastic Constant Matrix: (Units=GPa)
#
#
# Indices 1 2 3 4 5 6 
#
# 1 114.3763 25.4544 25.2467 0.0000 -15.9895 0.0000
# 2 25.4544 53.7660 16.4370 0.0000 -2.3602 0.0000
# 3 25.2467 16.4370 86.1083 0.0000 -23.6725 0.0000
# 4 0.0000 0.0000 0.0000 23.0099 0.0000 -12.0276
# 5 -15.9895 -2.3602 -23.6725 0.0000 38.2856 0.0000
# 6 0.0000 0.0000 0.0000 -12.0276 0.0000 26.5425
#
#
#
# Elastic Compliance Matrix: (Units=1/GPa)
#
#
# Indices 1 2 3 4 5 6 
#
# 1 0.010476 -0.004410 -0.001327 0.000000 0.003283 0.000000
# 2 -0.004410 0.021665 -0.003593 0.000000 -0.002727 0.000000
# 3 -0.001327 -0.003593 0.015030 0.000000 0.008517 0.000000
# 4 0.000000 0.000000 0.000000 0.056949 0.000000 0.025806
# 5 0.003283 -0.002727 0.008517 0.000000 0.032589 0.000000
# 6 0.000000 0.000000 0.000000 0.025806 0.000000 0.049369
#
#
# Mechanical properties :
#
#
# Convention : Reuss Voigt Hill
#
# Bulk Modulus (GPa) = 35.07294 43.16965 39.12129
# Shear Modulus (GPa) = 23.33810 30.04178 26.68994
#
# Velocity S-wave (km/s) = 3.26040 3.69915 3.48668
# Velocity P-wave (km/s) = 5.49081 6.15696 5.83340
#
# Compressibility (1/GPa) = 0.02851201
#
# Stress axis : x y z
#
# Youngs Moduli (GPa) = 95.45243 46.15640 66.53469
#
# Poissons Ratio (x) = 0.20355 0.08832
# Poissons Ratio (y) = 0.42094 0.23903
# Poissons Ratio (z) = 0.12670 0.16582
#
# Static dielectric constant tensor:
#      x y z
#    x 1.807280 0.000000 0.003780 
#    y 0.000000 1.902640 0.000000 
#    z 0.003780 0.000000 1.869440 
# 
# From -- ./inp_files/86366.got.cif
#   From: 2010.05.17/outbox.cif.g08.bks.cpg/sg13_44_cif.got.tgz:86366.got - 2010.06.03 16:44:36.
