data_PCOD9231934
_publ_section_title
;
Structure prediction by ZEFSAII (Michael W. Deem and Ramdas Pophale) SiO2 
 PCOD9231934
Probable space group: P 2/C
;
_chemical_formula_sum "Si O2"
_cell_formula_units_Z 22
_cell_length_a 7.632174
_cell_length_b 23.926373
_cell_length_c 5.283323
_cell_angle_alpha 90.000000
_cell_angle_beta 114.875407
_cell_angle_gamma 90.000000
_cell_volume 875.280266
_symmetry_space_group_name_H-M "P 2/C"
_symmetry_group_IT_number 13
_symmetry_cell_setting 'monoclinic'
loop_
_space_group_symop_operation_xyz
x,y,z
-x,y,1/2-z
-x,-y,-z
x,-y,1/2+z
loop_
_atom_site_type_symbol
_atom_site_label
_atom_site_fract_x
_atom_site_fract_y
_atom_site_fract_z
Si Si1 0.865370 0.632218 0.921194
Si Si2 0.713285 0.480332 0.533567
Si Si3 0.680510 0.143030 0.686255
Si Si4 0.206762 0.752789 0.520916
Si Si5 0.000000 0.168596 0.250000
Si Si6 0.230928 0.031522 0.938097
O O1 0.000000 0.631810 0.750000
O O2 0.733681 0.578088 0.897127
O O3 0.745596 0.690204 0.865207
O O4 0.000000 0.632192 0.250000
O O5 0.500000 0.500000 0.500000
O O6 0.802023 0.521914 0.372992
O O7 0.500000 0.130859 0.750000
O O8 0.665647 0.206509 0.573800
O O9 0.702787 0.095504 0.489931
O O10 0.880891 0.136636 0.965884
O O11 0.000000 0.749100 0.250000
O O12 0.160423 0.790395 0.733322
O O13 0.000000 0.029834 0.750000
O O14 0.297551 0.003798 0.717686
#
# Coordination Sequence:
#
# PCOD9231934 Si02
#       6
#     4   4   4   4   2   4
#     4  11  22  39  68  99 127 170 230 281 331 410
#     4  10  22  41  59  89 130 173 211 267 333 399
#     4  11  25  42  65 103 136 178 233 283 352 422
#     4   9  20  40  64  95 128 171 220 284 346 406
#     4  10  20  42  70  86 136 180 220 288 356 398
#     4  10  23  42  69  98 135 185 235 284 348 413
#
# _framework density 25.134806000000001
#
# number of rings (size 3 to 8) (size 9 to 14) (size 15 to 20)
#    0.000    1.818    0.909    2.727    6.364    3.636 
#    3.273    1.818    0.000    0.000    0.000    0.000 
#    0.000    0.000    0.000    0.000    0.000    0.000 
#
# Total GULP energy -122863.224483 kJ/mol
# GULP energy per Si atom -5584.692022 kJ/mol
# Density = 2.507760 g / cm^3
# Si number density = 25.134806 Si / 1000 Ang^3
#
#
#
# Elastic Constant Matrix: (Units=GPa)
#
#
# Indices 1 2 3 4 5 6 
#
# 1 117.5731 49.7334 39.2403 0.0000 -16.9162 0.0000
# 2 49.7334 173.7915 36.2794 0.0000 -23.7457 0.0000
# 3 39.2403 36.2794 139.4441 0.0000 -33.8641 0.0000
# 4 0.0000 0.0000 0.0000 12.0430 0.0000 -10.6315
# 5 -16.9162 -23.7457 -33.8641 0.0000 46.7936 0.0000
# 6 0.0000 0.0000 0.0000 -10.6315 0.0000 -21.1223
#
#
#
# Elastic Compliance Matrix: (Units=1/GPa)
#
#
# Indices 1 2 3 4 5 6 
#
# 1 0.010348 -0.002393 -0.002033 0.000000 0.001055 0.000000
# 2 -0.002393 0.006860 -0.000578 0.000000 0.002198 0.000000
# 3 -0.002033 -0.000578 0.009274 0.000000 0.005683 0.000000
# 4 0.000000 0.000000 0.000000 0.057491 0.000000 -0.028937
# 5 0.001055 0.002198 0.005683 0.000000 0.026980 0.000000
# 6 0.000000 0.000000 0.000000 -0.028937 0.000000 -0.032779
#
#
# Mechanical properties :
#
#
# Convention : Reuss Voigt Hill
#
# Bulk Modulus (GPa) = 60.69927 75.70164 68.20046
# Shear Modulus (GPa) = 53.37776 27.91324 40.64550
#
# Velocity S-wave (km/s) = 4.61332 3.33609 4.02568
# Velocity P-wave (km/s) = 7.25113 6.70992 6.98577
#
# Compressibility (1/GPa) = 0.01647466
#
# Stress axis : x y z
#
# Youngs Moduli (GPa) = 96.63875 145.78114 107.82880
#
# Poissons Ratio (x) = 0.34879 0.21923
# Poissons Ratio (y) = 0.23122 0.06228
# Poissons Ratio (z) = 0.19648 0.08420
#
# Static dielectric constant tensor:
#      x y z
#    x 2.071370 0.000000 0.171590 
#    y 0.000000 2.030240 0.000000 
#    z 0.171590 0.000000 2.541370 
# 
# From -- ./inp_files/2141.got.cif
#   From: 2010.05.17/outbox.cif.g08.bks.cpg/sg13_2_cif.got.tgz:2141.got - 2010.06.03 16:44:36.
