data_PCOD9231310
_publ_section_title
;
Structure prediction by ZEFSAII (Michael W. Deem and Ramdas Pophale) SiO2 
 PCOD9231310
Probable space group: P 2/C
;
_chemical_formula_sum "Si O2"
_cell_formula_units_Z 18
_cell_length_a 16.007002
_cell_length_b 5.335172
_cell_length_c 8.677470
_cell_angle_alpha 90.000000
_cell_angle_beta 115.363769
_cell_angle_gamma 90.000000
_cell_volume 669.623705
_symmetry_space_group_name_H-M "P 2/C"
_symmetry_group_IT_number 13
_symmetry_cell_setting 'monoclinic'
loop_
_space_group_symop_operation_xyz
x,y,z
-x,y,1/2-z
-x,-y,-z
x,-y,1/2+z
loop_
_atom_site_type_symbol
_atom_site_label
_atom_site_fract_x
_atom_site_fract_y
_atom_site_fract_z
Si Si1 0.061938 0.342275 0.668885
Si Si2 0.500000 0.700271 0.250000
Si Si3 0.340237 0.008641 0.450144
Si Si4 0.821843 0.701358 0.510246
Si Si5 0.340906 0.355895 0.181179
O O1 0.118260 0.540936 0.819839
O O2 0.122618 0.186627 0.592931
O O3 0.000000 0.798463 0.250000
O O4 0.000000 0.500000 0.500000
O O5 0.567316 0.865522 0.407626
O O6 0.430068 0.519659 0.284940
O O7 0.245556 0.115169 0.449904
O O8 0.340416 0.100334 0.276404
O O9 0.344109 0.722150 0.503964
O O10 0.752640 0.505697 0.373150
#
# Coordination Sequence:
#
# PCOD9231310 Si02
#       5
#     4   2   4   4   4
#     4   9  18  35  66  94 116 161 205 247 306 365
#     4  10  24  42  64  88 122 160 212 252 302 350
#     4  11  24  39  62  91 125 163 205 252 300 362
#     4  10  20  39  62  91 126 162 203 249 304 361
#     4  11  24  39  62  91 125 164 204 251 302 360
#
# _framework density 26.880766999999999
#
# number of rings (size 3 to 8) (size 9 to 14) (size 15 to 20)
#    0.000    1.778    2.222    1.333    3.111    5.333 
#    0.000    0.000    0.000   26.667    0.000    0.000 
#    0.000    0.000    0.000    0.000    0.000    0.000 
#
# Total GULP energy -100774.552419 kJ/mol
# GULP energy per Si atom -5598.586246 kJ/mol
# Density = 2.681959 g / cm^3
# Si number density = 26.880767 Si / 1000 Ang^3
#
#
#
# Elastic Constant Matrix: (Units=GPa)
#
#
# Indices 1 2 3 4 5 6 
#
# 1 146.0427 17.2772 77.7405 0.0000 -22.0462 0.0000
# 2 17.2772 18.2919 7.3845 0.0000 -7.3783 0.0000
# 3 77.7405 7.3845 143.2448 0.0000 -7.7549 0.0000
# 4 0.0000 0.0000 0.0000 37.0744 0.0000 -8.8279
# 5 -22.0462 -7.3783 -7.7549 0.0000 49.5177 0.0000
# 6 0.0000 0.0000 0.0000 -8.8279 0.0000 12.4935
#
#
#
# Elastic Compliance Matrix: (Units=1/GPa)
#
#
# Indices 1 2 3 4 5 6 
#
# 1 0.011042 -0.007006 -0.005468 0.000000 0.003016 0.000000
# 2 -0.007006 0.063548 0.000877 0.000000 0.006487 0.000000
# 3 -0.005468 0.000877 0.009862 0.000000 -0.000759 0.000000
# 4 0.000000 0.000000 0.000000 0.032429 0.000000 0.022914
# 5 0.003016 0.006487 -0.000759 0.000000 0.022385 0.000000
# 6 0.000000 0.000000 0.000000 0.022914 0.000000 0.096233
#
#
# Mechanical properties :
#
#
# Convention : Reuss Voigt Hill
#
# Bulk Modulus (GPa) = 16.32393 56.93154 36.62773
# Shear Modulus (GPa) = 17.91383 33.49561 25.70472
#
# Velocity S-wave (km/s) = 2.58431 3.53382 3.09568
# Velocity P-wave (km/s) = 3.87179 6.15433 5.14133
#
# Compressibility (1/GPa) = 0.06125975
#
# Stress axis : x y z
#
# Youngs Moduli (GPa) = 90.56150 15.73602 101.39481
#
# Poissons Ratio (x) = 0.11024 0.55446
# Poissons Ratio (y) = 0.63444 -0.08894
# Poissons Ratio (z) = 0.49522 -0.01380
#
# Static dielectric constant tensor:
#      x y z
#    x 2.148490 0.000000 -0.023650 
#    y 0.000000 2.035390 0.000000 
#    z -0.023650 0.000000 2.052300 
# 
# From -- ./inp_files/20276.got.cif
#   From: 2010.05.17/outbox.cif.g08.bks.cpg/sg13_11_cif.got.tgz:20276.got - 2010.06.03 16:44:36.
