data_PCOD9231942
_publ_section_title
;
Structure prediction by ZEFSAII (Michael W. Deem and Ramdas Pophale) SiO2 
 PCOD9231942
Probable space group: P 2/C
;
_chemical_formula_sum "Si O2"
_cell_formula_units_Z 22
_cell_length_a 14.998060
_cell_length_b 8.011723
_cell_length_c 24.598628
_cell_angle_alpha 90.000000
_cell_angle_beta 160.488824
_cell_angle_gamma 90.000000
_cell_volume 987.202622
_symmetry_space_group_name_H-M "P 2/C"
_symmetry_group_IT_number 13
_symmetry_cell_setting 'monoclinic'
loop_
_space_group_symop_operation_xyz
x,y,z
-x,y,1/2-z
-x,-y,-z
x,-y,1/2+z
loop_
_atom_site_type_symbol
_atom_site_label
_atom_site_fract_x
_atom_site_fract_y
_atom_site_fract_z
Si Si1 0.309701 0.092363 0.273325
Si Si2 0.483369 0.621732 0.070087
Si Si3 0.500000 0.641549 0.250000
Si Si4 0.310430 0.737058 0.424973
Si Si5 0.739767 0.862859 0.471495
Si Si6 0.778536 0.547057 0.827320
O O1 0.507971 0.137242 0.436322
O O2 0.257040 0.265178 0.211298
O O3 0.471840 0.968789 0.327697
O O4 0.019437 0.040083 0.129335
O O5 0.578833 0.722029 0.072374
O O6 0.280670 0.729477 0.990765
O O7 0.750029 0.569651 0.257790
O O8 0.351726 0.447935 0.975198
O O9 0.711767 0.768548 0.397664
O O10 0.476778 0.515346 0.286422
O O11 0.000000 0.781312 0.250000
O O12 0.000000 0.500000 0.000000
#
# Coordination Sequence:
#
# PCOD9231942 Si02
#       6
#     4   4   2   4   4   4
#     4  11  26  44  69  99 140 180 229 280 349 413
#     4   9  23  40  67  95 135 176 229 288 338 402
#     4  10  22  44  70  98 136 172 230 280 340 412
#     4  10  23  42  68 100 128 180 237 290 337 407
#     4  11  25  45  65 101 139 183 218 282 350 418
#     4  10  20  42  71  99 129 178 231 284 336 407
#
# _framework density 22.285191999999999
#
# number of rings (size 3 to 8) (size 9 to 14) (size 15 to 20)
#    0.000    1.818    1.818    0.000   10.182    3.636 
#    3.273    0.000    0.000    0.000    0.000    0.000 
#    0.000    0.000    0.000    0.000    0.000    0.000 
#
# Total GULP energy -122600.122758 kJ/mol
# GULP energy per Si atom -5572.732853 kJ/mol
# Density = 2.223447 g / cm^3
# Si number density = 22.285192 Si / 1000 Ang^3
#
#
#
# Elastic Constant Matrix: (Units=GPa)
#
#
# Indices 1 2 3 4 5 6 
#
# 1 87.8241 23.9274 37.2588 0.0000 -3.8185 0.0000
# 2 23.9274 47.3905 4.0375 0.0000 4.9769 0.0000
# 3 37.2588 4.0375 94.5082 0.0000 10.7945 0.0000
# 4 0.0000 0.0000 0.0000 5.2481 0.0000 -3.3576
# 5 -3.8185 4.9769 10.7945 0.0000 43.1187 0.0000
# 6 0.0000 0.0000 0.0000 -3.3576 0.0000 24.1198
#
#
#
# Elastic Compliance Matrix: (Units=1/GPa)
#
#
# Indices 1 2 3 4 5 6 
#
# 1 0.016651 -0.008269 -0.006680 0.000000 0.004101 0.000000
# 2 -0.008269 0.025505 0.002666 0.000000 -0.004344 0.000000
# 3 -0.006680 0.002666 0.013592 0.000000 -0.004302 0.000000
# 4 0.000000 0.000000 0.000000 0.209176 0.000000 0.029118
# 5 0.004101 -0.004344 -0.004302 0.000000 0.025133 0.000000
# 6 0.000000 0.000000 0.000000 0.029118 0.000000 0.045513
#
#
# Mechanical properties :
#
#
# Convention : Reuss Voigt Hill
#
# Bulk Modulus (GPa) = 32.06763 40.01889 36.04326
# Shear Modulus (GPa) = 13.49418 25.46392 19.47905
#
# Velocity S-wave (km/s) = 2.46341 3.38396 2.95969
# Velocity P-wave (km/s) = 4.74469 5.76757 5.28095
#
# Compressibility (1/GPa) = 0.03118410
#
# Stress axis : x y z
#
# Youngs Moduli (GPa) = 60.05496 39.20764 73.57273
#
# Poissons Ratio (x) = 0.32420 0.49145
# Poissons Ratio (y) = 0.49659 -0.19618
# Poissons Ratio (z) = 0.40116 -0.10454
#
# Static dielectric constant tensor:
#      x y z
#    x 1.983180 0.000000 0.118930 
#    y 0.000000 1.826240 0.000000 
#    z 0.118930 0.000000 2.124560 
# 
# From -- ./inp_files/87373.got.cif
#   From: 2010.05.17/outbox.cif.g08.bks.cpg/sg13_44_cif.got.tgz:87373.got - 2010.06.03 16:44:36.
