data_PCOD9231638
_publ_section_title
;
Structure prediction by ZEFSAII (Michael W. Deem and Ramdas Pophale) SiO2 
 PCOD9231638
Probable space group: P 2/C
;
_chemical_formula_sum "Si O2"
_cell_formula_units_Z 20
_cell_length_a 11.661576
_cell_length_b 8.711416
_cell_length_c 11.183679
_cell_angle_alpha 90.000000
_cell_angle_beta 52.135030
_cell_angle_gamma 90.000000
_cell_volume 896.934132
_symmetry_space_group_name_H-M "P 2/C"
_symmetry_group_IT_number 13
_symmetry_cell_setting 'monoclinic'
loop_
_space_group_symop_operation_xyz
x,y,z
-x,y,1/2-z
-x,-y,-z
x,-y,1/2+z
loop_
_atom_site_type_symbol
_atom_site_label
_atom_site_fract_x
_atom_site_fract_y
_atom_site_fract_z
Si Si1 0.368611 0.570369 0.657646
Si Si2 0.848609 0.678348 0.121859
Si Si3 0.000000 0.811084 0.250000
Si Si4 0.500000 0.820416 0.750000
Si Si5 0.098685 0.746051 0.797242
Si Si6 0.794278 0.978230 0.570277
O O1 0.500000 0.500000 0.500000
O O2 0.281436 0.444395 0.792730
O O3 0.439052 0.706353 0.689031
O O4 0.237976 0.648961 0.667098
O O5 0.900361 0.709638 0.225223
O O6 0.799829 0.843322 0.098960
O O7 0.993091 0.647172 0.950947
O O8 0.901273 0.913465 0.400516
O O9 0.635285 0.926724 0.630837
O O10 0.156265 0.886101 0.841534
O O11 0.000000 0.789175 0.750000
#
# Coordination Sequence:
#
# PCOD9231638 Si02
#       6
#     4   4   2   2   4   4
#     4  11  25  44  66  97 134 185 216 274 338 398
#     4  11  24  39  71 101 129 175 226 274 337 394
#     4  10  20  40  66  98 136 160 220 284 330 392
#     4  10  24  48  58  88 144 170 222 274 332 396
#     4  10  23  42  67 100 135 171 223 277 337 397
#     4  10  23  42  68  96 132 178 217 283 333 389
#
# _framework density 22.298181
#
# number of rings (size 3 to 8) (size 9 to 14) (size 15 to 20)
#    0.000    1.600    0.000    4.200    9.800    0.800 
#    0.000    3.000    0.000    0.000    0.000    0.000 
#    0.000    0.000    0.000    0.000    0.000    0.000 
#
# Total GULP energy -111830.426788 kJ/mol
# GULP energy per Si atom -5591.521339 kJ/mol
# Density = 2.224743 g / cm^3
# Si number density = 22.298181 Si / 1000 Ang^3
#
#
#
# Elastic Constant Matrix: (Units=GPa)
#
#
# Indices 1 2 3 4 5 6 
#
# 1 132.4013 44.5961 47.9352 0.0000 -21.2922 0.0000
# 2 44.5961 59.5446 23.3708 0.0000 -18.0065 0.0000
# 3 47.9352 23.3708 90.1949 0.0000 -29.6978 0.0000
# 4 0.0000 0.0000 0.0000 24.4726 0.0000 -5.5359
# 5 -21.2922 -18.0065 -29.6978 0.0000 48.8503 0.0000
# 6 0.0000 0.0000 0.0000 -5.5359 0.0000 12.8136
#
#
#
# Elastic Compliance Matrix: (Units=1/GPa)
#
#
# Indices 1 2 3 4 5 6 
#
# 1 0.011421 -0.006911 -0.004349 0.000000 -0.000214 0.000000
# 2 -0.006911 0.023880 -0.000760 0.000000 0.005328 0.000000
# 3 -0.004349 -0.000760 0.016102 0.000000 0.007613 0.000000
# 4 0.000000 0.000000 0.000000 0.045288 0.000000 0.019566
# 5 -0.000214 0.005328 0.007613 0.000000 0.026970 0.000000
# 6 0.000000 0.000000 0.000000 0.019566 0.000000 0.086495
#
#
# Mechanical properties :
#
#
# Convention : Reuss Voigt Hill
#
# Bulk Modulus (GPa) = 36.54802 57.10498 46.82650
# Shear Modulus (GPa) = 20.54917 28.30987 24.42952
#
# Velocity S-wave (km/s) = 3.03902 3.56702 3.31355
# Velocity P-wave (km/s) = 5.36100 6.52917 5.97371
#
# Compressibility (1/GPa) = 0.02736126
#
# Stress axis : x y z
#
# Youngs Moduli (GPa) = 87.55794 41.87623 62.10266
#
# Poissons Ratio (x) = 0.28942 0.27011
# Poissons Ratio (y) = 0.60514 0.04722
# Poissons Ratio (z) = 0.38082 0.03184
#
# Static dielectric constant tensor:
#      x y z
#    x 1.839550 0.000000 -0.018280 
#    y 0.000000 1.865960 0.000000 
#    z -0.018280 0.000000 1.857460 
# 
# From -- ./inp_files/32473.got.cif
#   From: 2010.05.17/outbox.cif.g08.bks.cpg/sg13_17_cif.got.tgz:32473.got - 2010.06.03 16:44:36.
