data_PCOD9231702
_publ_section_title
;
Structure prediction by ZEFSAII (Michael W. Deem and Ramdas Pophale) SiO2 
 PCOD9231702
Probable space group: P 2/C
;
_chemical_formula_sum "Si O2"
_cell_formula_units_Z 26
_cell_length_a 8.319322
_cell_length_b 9.556367
_cell_length_c 19.322589
_cell_angle_alpha 90.000000
_cell_angle_beta 47.973867
_cell_angle_gamma 90.000000
_cell_volume 1141.145680
_symmetry_space_group_name_H-M "P 2/C"
_symmetry_group_IT_number 13
_symmetry_cell_setting 'monoclinic'
loop_
_space_group_symop_operation_xyz
x,y,z
-x,y,1/2-z
-x,-y,-z
x,-y,1/2+z
loop_
_atom_site_type_symbol
_atom_site_label
_atom_site_fract_x
_atom_site_fract_y
_atom_site_fract_z
Si Si1 0.965802 0.412468 0.111355
Si Si2 0.000000 0.714959 0.750000
Si Si3 0.086605 0.839138 0.480198
Si Si4 0.456887 0.199366 0.136492
Si Si5 0.165041 0.685344 0.059610
Si Si6 0.500000 0.414558 0.250000
Si Si7 0.000000 0.778547 0.250000
Si Si8 0.547876 0.111590 0.816498
O O1 0.730592 0.486413 0.172672
O O2 0.993068 0.376517 0.183457
O O3 0.144475 0.525814 0.039153
O O4 0.972806 0.265265 0.068336
O O5 0.787714 0.807073 0.818049
O O6 0.343861 0.824659 0.417377
O O7 0.016912 0.773836 0.427521
O O8 0.000000 0.000000 0.500000
O O9 0.472044 0.317625 0.190703
O O10 0.501205 0.052839 0.159518
O O11 0.614638 0.242589 0.028986
O O12 0.112531 0.693430 0.155418
O O13 0.789207 0.855732 0.275592
O O14 0.500000 0.147095 0.750000
#
# Coordination Sequence:
#
# PCOD9231702 Si02
#       8
#     4   2   4   4   4   2   2   4
#     4  11  25  46  71 107 146 196 245 307 374 454
#     4  10  26  44  70 110 143 199 248 302 377 443
#     4  12  25  46  75 106 143 193 253 304 378 447
#     4  11  23  44  74 103 145 193 246 309 369 451
#     4  12  26  48  71 108 151 196 247 316 376 447
#     4  10  20  40  72 102 136 182 246 298 364 448
#     4  12  30  46  70 112 155 199 256 316 369 453
#     4  12  25  47  74 107 152 197 247 317 378 438
#
# _framework density 22.784122
#
# number of rings (size 3 to 8) (size 9 to 14) (size 15 to 20)
#    0.000    0.615    5.385    1.385    4.308    3.692 
#    2.769    0.000    0.000    0.000    0.000    0.000 
#    0.000    0.000    0.000    0.000    0.000    0.000 
#
# Total GULP energy -145120.913512 kJ/mol
# GULP energy per Si atom -5581.573597 kJ/mol
# Density = 2.273226 g / cm^3
# Si number density = 22.784122 Si / 1000 Ang^3
#
#
#
# Elastic Constant Matrix: (Units=GPa)
#
#
# Indices 1 2 3 4 5 6 
#
# 1 110.0579 16.5393 48.1373 0.0000 -17.2341 0.0000
# 2 16.5393 90.8663 30.2574 0.0000 6.2849 0.0000
# 3 48.1373 30.2574 126.9595 0.0000 -9.6651 0.0000
# 4 0.0000 0.0000 0.0000 8.2715 0.0000 -4.3816
# 5 -17.2341 6.2849 -9.6651 0.0000 55.9011 0.0000
# 6 0.0000 0.0000 0.0000 -4.3816 0.0000 7.2395
#
#
#
# Elastic Compliance Matrix: (Units=1/GPa)
#
#
# Indices 1 2 3 4 5 6 
#
# 1 0.011384 -0.000993 -0.003855 0.000000 0.002955 0.000000
# 2 -0.000993 0.012235 -0.002703 0.000000 -0.002149 0.000000
# 3 -0.003855 -0.002703 0.010047 0.000000 0.000853 0.000000
# 4 0.000000 0.000000 0.000000 0.177946 0.000000 0.107698
# 5 0.002955 -0.002149 0.000853 0.000000 0.019189 0.000000
# 6 0.000000 0.000000 0.000000 0.107698 0.000000 0.203313
#
#
# Mechanical properties :
#
#
# Convention : Reuss Voigt Hill
#
# Bulk Modulus (GPa) = 53.86578 57.52796 55.69687
# Shear Modulus (GPa) = 10.97931 29.81240 20.39585
#
# Velocity S-wave (km/s) = 2.19757 3.62121 2.99520
# Velocity P-wave (km/s) = 5.48928 6.54126 6.03823
#
# Compressibility (1/GPa) = 0.01856466
#
# Stress axis : x y z
#
# Youngs Moduli (GPa) = 87.84237 81.73554 99.53071
#
# Poissons Ratio (x) = 0.08115 0.38366
# Poissons Ratio (y) = 0.08722 0.26902
# Poissons Ratio (z) = 0.33861 0.22092
#
# Static dielectric constant tensor:
#      x y z
#    x 1.576880 0.000000 -0.220580 
#    y 0.000000 1.848900 0.000000 
#    z -0.220580 0.000000 1.766460 
# 
# From -- ./inp_files/75969.got.cif
#   From: 2010.05.17/outbox.cif.g08.bks.cpg/sg13_38_cif.got.tgz:75969.got - 2010.06.03 16:44:36.
