data_PCOD9231532
_publ_section_title
;
Structure prediction by ZEFSAII (Michael W. Deem and Ramdas Pophale) SiO2 
 PCOD9231532
Probable space group: P 2/C
;
_chemical_formula_sum "Si O2"
_cell_formula_units_Z 26
_cell_length_a 8.256304
_cell_length_b 15.892444
_cell_length_c 8.910261
_cell_angle_alpha 90.000000
_cell_angle_beta 81.761157
_cell_angle_gamma 90.000000
_cell_volume 1157.074392
_symmetry_space_group_name_H-M "P 2/C"
_symmetry_group_IT_number 13
_symmetry_cell_setting 'monoclinic'
loop_
_space_group_symop_operation_xyz
x,y,z
-x,y,1/2-z
-x,-y,-z
x,-y,1/2+z
loop_
_atom_site_type_symbol
_atom_site_label
_atom_site_fract_x
_atom_site_fract_y
_atom_site_fract_z
Si Si1 0.140759 0.929748 0.454922
Si Si2 0.312096 0.045903 0.235657
Si Si3 0.213092 0.671556 0.136739
Si Si4 0.000000 0.666209 0.750000
Si Si5 0.131287 0.405433 0.934395
Si Si6 0.613643 0.447308 0.093678
Si Si7 0.131585 0.192776 0.445384
O O1 0.273737 0.936528 0.568467
O O2 0.047035 0.843105 0.490347
O O3 0.222598 0.958568 0.290541
O O4 0.000000 0.000000 0.500000
O O5 0.500000 0.040736 0.250000
O O6 0.232447 0.120144 0.348360
O O7 0.236235 0.654829 0.309660
O O8 0.050860 0.617385 0.105036
O O9 0.347214 0.633812 0.009494
O O10 0.195039 0.767727 0.091317
O O11 0.108574 0.614348 0.614530
O O12 0.111146 0.729133 0.833929
O O13 0.222452 0.495298 0.897952
O O14 0.500000 0.428985 0.250000
O O15 0.500000 0.500000 0.000000
#
# Coordination Sequence:
#
# PCOD9231532 Si02
#       7
#     4   4   4   2   4   4   4
#     4  10  20  41  66  94 125 172 225 265 318 403
#     4  11  22  40  64 100 136 169 214 274 335 404
#     4  10  23  43  64  94 127 170 224 273 326 384
#     4  10  20  40  68  88 122 170 224 264 326 370
#     4  10  23  42  64  92 125 168 226 273 318 390
#     4  12  25  42  65  95 132 173 218 270 334 400
#     4  10  20  40  62  92 125 170 219 268 322 388
#
# _framework density 22.470466999999999
#
# number of rings (size 3 to 8) (size 9 to 14) (size 15 to 20)
#    0.000    1.538    3.077    2.308    4.308    1.846 
#   22.154    0.000    0.000    0.000    0.000    0.000 
#    0.000    0.000    0.000    0.000    0.000    0.000 
#
# Total GULP energy -145015.262464 kJ/mol
# GULP energy per Si atom -5577.510095 kJ/mol
# Density = 2.241932 g / cm^3
# Si number density = 22.470467 Si / 1000 Ang^3
#
#
#
# Elastic Constant Matrix: (Units=GPa)
#
#
# Indices 1 2 3 4 5 6 
#
# 1 45.7461 8.5806 -2.4710 0.0000 -8.6417 0.0000
# 2 8.5806 39.1173 38.5214 0.0000 -7.2207 0.0000
# 3 -2.4710 38.5214 143.1152 0.0000 -27.8546 0.0000
# 4 0.0000 0.0000 0.0000 -454.4874 0.0000 37.6929
# 5 -8.6417 -7.2207 -27.8546 0.0000 34.2905 0.0000
# 6 0.0000 0.0000 0.0000 37.6929 0.0000 21.5488
#
#
#
# Elastic Compliance Matrix: (Units=1/GPa)
#
#
# Indices 1 2 3 4 5 6 
#
# 1 0.025132 -0.008160 0.004191 0.000000 0.008020 0.000000
# 2 -0.008160 0.037437 -0.010789 0.000000 -0.002937 0.000000
# 3 0.004191 -0.010789 0.011554 0.000000 0.008170 0.000000
# 4 0.000000 0.000000 0.000000 -0.001922 0.000000 0.003361
# 5 0.008020 -0.002937 0.008170 0.000000 0.037201 0.000000
# 6 0.000000 0.000000 0.000000 0.003361 0.000000 0.040527
#
#
# Mechanical properties :
#
#
# Convention : Reuss Voigt Hill
#
# Bulk Modulus (GPa) = 22.41813 35.24894 28.83354
# Shear Modulus (GPa) = 25.73160 -67.50645 -20.88742
#
# Velocity S-wave (km/s) = 3.38765 -5.48703 -3.05216
# Velocity P-wave (km/s) = 5.02990 4.94191 0.66234
#
# Compressibility (1/GPa) = 0.04460675
#
# Stress axis : x y z
#
# Youngs Moduli (GPa) = 39.79037 26.71181 86.55115
#
# Poissons Ratio (x) = 0.21796 -0.36275
# Poissons Ratio (y) = 0.32468 0.93382
# Poissons Ratio (z) = -0.16677 0.28820
#
# Static dielectric constant tensor:
#      x y z
#    x 1.845830 0.000000 0.010800 
#    y 0.000000 1.776400 0.000000 
#    z 0.010800 0.000000 1.880940 
# 
# From -- ./inp_files/13083.got.cif
#   From: 2010.05.17/outbox.cif.g08.bks.cpg/sg13_7_cif.got.tgz:13083.got - 2010.06.03 16:44:36.
