data_PCOD9231786
_publ_section_title
;
Structure prediction by ZEFSAII (Michael W. Deem and Ramdas Pophale) SiO2 
 PCOD9231786
Probable space group: P 2/C
;
_chemical_formula_sum "Si O2"
_cell_formula_units_Z 20
_cell_length_a 18.614422
_cell_length_b 4.772368
_cell_length_c 17.976706
_cell_angle_alpha 90.000000
_cell_angle_beta 151.547211
_cell_angle_gamma 90.000000
_cell_volume 760.846007
_symmetry_space_group_name_H-M "P 2/C"
_symmetry_group_IT_number 13
_symmetry_cell_setting 'monoclinic'
loop_
_space_group_symop_operation_xyz
x,y,z
-x,y,1/2-z
-x,-y,-z
x,-y,1/2+z
loop_
_atom_site_type_symbol
_atom_site_label
_atom_site_fract_x
_atom_site_fract_y
_atom_site_fract_z
Si Si1 0.552867 0.660219 0.473729
Si Si2 0.176286 0.301720 0.777123
Si Si3 0.377151 0.731566 0.587528
Si Si4 0.162273 0.520356 0.519434
Si Si5 0.257737 0.018470 0.698017
O O1 0.500000 0.500000 0.500000
O O2 0.730961 0.594443 0.644089
O O3 0.529170 0.500262 0.373644
O O4 0.437998 0.921615 0.366051
O O5 0.186720 0.136310 0.709253
O O6 0.008961 0.382862 0.646776
O O7 0.273418 0.135067 0.928645
O O8 0.500000 0.890571 0.750000
O O9 0.257848 0.591872 0.534035
O O10 0.814204 0.798125 0.434098
O O11 0.222510 0.703187 0.644177
#
# Coordination Sequence:
#
# PCOD9231786 Si02
#       5
#     4   4   4   4   4
#     4   8  18  41  67  93 133 177 227 273 341 414
#     4   9  21  41  69  97 139 178 231 286 351 415
#     4  10  20  41  67  96 137 178 230 280 353 406
#     4  12  23  43  68 102 134 176 232 292 349 412
#     4  11  23  44  68  98 135 182 229 282 350 426
#
# _framework density 26.286525999999999
#
# number of rings (size 3 to 8) (size 9 to 14) (size 15 to 20)
#    1.200    0.800    2.000    1.800    0.000    0.000 
#    3.600   26.000    0.000    0.000    0.000    0.000 
#    0.000    0.000    0.000    0.000    0.000    0.000 
#
# Total GULP energy -111810.264072 kJ/mol
# GULP energy per Si atom -5590.513204 kJ/mol
# Density = 2.622670 g / cm^3
# Si number density = 26.286526 Si / 1000 Ang^3
#
#
#
# Elastic Constant Matrix: (Units=GPa)
#
#
# Indices 1 2 3 4 5 6 
#
# 1 153.4451 5.5494 57.1866 0.0000 7.4275 0.0000
# 2 5.5494 72.6414 8.5987 0.0000 3.5250 0.0000
# 3 57.1866 8.5987 155.3243 0.0000 24.9339 0.0000
# 4 0.0000 0.0000 0.0000 32.6946 0.0000 -10.1804
# 5 7.4275 3.5250 24.9339 0.0000 50.1907 0.0000
# 6 0.0000 0.0000 0.0000 -10.1804 0.0000 19.4872
#
#
#
# Elastic Compliance Matrix: (Units=1/GPa)
#
#
# Indices 1 2 3 4 5 6 
#
# 1 0.007562 -0.000259 -0.002818 0.000000 0.000299 0.000000
# 2 -0.000259 0.013885 -0.000568 0.000000 -0.000655 0.000000
# 3 -0.002818 -0.000568 0.008078 0.000000 -0.003556 0.000000
# 4 0.000000 0.000000 0.000000 0.036528 0.000000 0.019083
# 5 0.000299 -0.000655 -0.003556 0.000000 0.021692 0.000000
# 6 0.000000 0.000000 0.000000 0.019083 0.000000 0.061285
#
#
# Mechanical properties :
#
#
# Convention : Reuss Voigt Hill
#
# Bulk Modulus (GPa) = 44.97353 58.23113 51.60233
# Shear Modulus (GPa) = 30.53783 41.14626 35.84204
#
# Velocity S-wave (km/s) = 3.41211 3.96068 3.69658
# Velocity P-wave (km/s) = 5.71572 6.56632 6.15573
#
# Compressibility (1/GPa) = 0.02223530
#
# Stress axis : x y z
#
# Youngs Moduli (GPa) = 132.23961 72.01986 123.79446
#
# Poissons Ratio (x) = 0.01863 0.34883
# Poissons Ratio (y) = 0.03420 0.07036
# Poissons Ratio (z) = 0.37263 0.04093
#
# Static dielectric constant tensor:
#      x y z
#    x 2.026970 0.000000 -0.034640 
#    y 0.000000 2.174300 0.000000 
#    z -0.034640 0.000000 2.086640 
# 
# From -- ./inp_files/62997.got.cif
#   From: 2010.05.17/outbox.cif.g08.bks.cpg/sg13_32_cif.got.tgz:62997.got - 2010.06.03 16:44:36.
