data_PCOD9231347
_publ_section_title
;
Structure prediction by ZEFSAII (Michael W. Deem and Ramdas Pophale) SiO2 
 PCOD9231347
Probable space group: P 2/C
;
_chemical_formula_sum "Si O2"
_cell_formula_units_Z 18
_cell_length_a 7.759848
_cell_length_b 5.052243
_cell_length_c 24.528460
_cell_angle_alpha 90.000000
_cell_angle_beta 72.184403
_cell_angle_gamma 90.000000
_cell_volume 915.515549
_symmetry_space_group_name_H-M "P 2/C"
_symmetry_group_IT_number 13
_symmetry_cell_setting 'monoclinic'
loop_
_space_group_symop_operation_xyz
x,y,z
-x,y,1/2-z
-x,-y,-z
x,-y,1/2+z
loop_
_atom_site_type_symbol
_atom_site_label
_atom_site_fract_x
_atom_site_fract_y
_atom_site_fract_z
Si Si1 0.500000 0.198238 0.250000
Si Si2 0.088492 0.066061 0.049508
Si Si3 0.683716 0.431974 0.950518
Si Si4 0.493683 0.567212 0.861633
Si Si5 0.723034 0.050709 0.638610
O O1 0.430653 0.375004 0.206335
O O2 0.346686 0.021759 0.293940
O O3 0.161758 0.363378 0.045535
O O4 0.931429 0.006440 0.108481
O O5 0.251641 0.864160 0.044752
O O6 0.000000 0.000000 0.000000
O O7 0.639260 0.481882 0.891442
O O8 0.500000 0.500000 0.000000
O O9 0.392737 0.840996 0.886516
O O10 0.341094 0.341961 0.870868
#
# Coordination Sequence:
#
# PCOD9231347 Si02
#       5
#     2   4   4   4   4
#     4   8  22  36  72  76 126 160 216 228 320 348
#     4  12  24  40  63  94 125 159 201 254 308 363
#     4  12  24  40  63  94 125 159 201 254 308 363
#     4  10  20  39  64  88 118 163 205 242 301 363
#     4  10  20  39  64  88 118 163 205 242 301 363
#
# _framework density 19.661052000000002
#
# number of rings (size 3 to 8) (size 9 to 14) (size 15 to 20)
#    1.333    0.000    0.000    7.333    0.000    0.000 
#    0.000    1.111    0.000    0.000    0.000    0.000 
#    0.000    0.000    0.000    0.000    0.000    0.000 
#
# Total GULP energy -100435.275031 kJ/mol
# GULP energy per Si atom -5579.737502 kJ/mol
# Density = 1.961630 g / cm^3
# Si number density = 19.661052 Si / 1000 Ang^3
#
#
#
# Elastic Constant Matrix: (Units=GPa)
#
#
# Indices 1 2 3 4 5 6 
#
# 1 46.7154 -15.7246 24.2693 0.0000 -12.1362 0.0000
# 2 -15.7246 45.8509 -8.2363 0.0000 -6.4769 0.0000
# 3 24.2693 -8.2363 99.9040 0.0000 -1.9174 0.0000
# 4 0.0000 0.0000 0.0000 15.7761 0.0000 6.2253
# 5 -12.1362 -6.4769 -1.9174 0.0000 43.4258 0.0000
# 6 0.0000 0.0000 0.0000 6.2253 0.0000 45.1654
#
#
#
# Elastic Compliance Matrix: (Units=1/GPa)
#
#
# Indices 1 2 3 4 5 6 
#
# 1 0.031023 0.010896 -0.006446 0.000000 0.010010 0.000000
# 2 0.010896 0.026473 -0.000330 0.000000 0.006979 0.000000
# 3 -0.006446 -0.000330 0.011523 0.000000 -0.001342 0.000000
# 4 0.000000 0.000000 0.000000 0.067033 0.000000 -0.009239
# 5 0.010010 0.006979 -0.001342 0.000000 0.026807 0.000000
# 6 0.000000 0.000000 0.000000 -0.009239 0.000000 0.023414
#
#
# Mechanical properties :
#
#
# Convention : Reuss Voigt Hill
#
# Bulk Modulus (GPa) = 12.94381 21.45412 17.19896
# Shear Modulus (GPa) = 24.53547 33.68425 29.10986
#
# Velocity S-wave (km/s) = 3.53643 4.14363 3.85201
# Velocity P-wave (km/s) = 4.82420 5.81623 5.34329
#
# Compressibility (1/GPa) = 0.07725701
#
# Stress axis : x y z
#
# Youngs Moduli (GPa) = 32.23406 37.77440 86.78662
#
# Poissons Ratio (x) = -0.41157 0.55942
# Poissons Ratio (y) = -0.35121 0.02867
# Poissons Ratio (z) = 0.20778 0.01248
#
# Static dielectric constant tensor:
#      x y z
#    x 1.655310 0.000000 -0.007550 
#    y 0.000000 1.686660 0.000000 
#    z -0.007550 0.000000 1.721900 
# 
# From -- ./inp_files/89806.got.cif
#   From: 2010.05.17/outbox.cif.g08.bks.cpg/sg13_45_cif.got.tgz:89806.got - 2010.06.03 16:44:36.
