data_PCOD9231225
_publ_section_title
;
Structure prediction by ZEFSAII (Michael W. Deem and Ramdas Pophale) SiO2 
 PCOD9231225
Probable space group: P 2/C
;
_chemical_formula_sum "Si O2"
_cell_formula_units_Z 28
_cell_length_a 16.913374
_cell_length_b 9.285992
_cell_length_c 8.311324
_cell_angle_alpha 90.000000
_cell_angle_beta 81.652540
_cell_angle_gamma 90.000000
_cell_volume 1291.526302
_symmetry_space_group_name_H-M "P 2/C"
_symmetry_group_IT_number 13
_symmetry_cell_setting 'monoclinic'
loop_
_space_group_symop_operation_xyz
x,y,z
-x,y,1/2-z
-x,-y,-z
x,-y,1/2+z
loop_
_atom_site_type_symbol
_atom_site_label
_atom_site_fract_x
_atom_site_fract_y
_atom_site_fract_z
Si Si1 0.479717 0.160005 0.066246
Si Si2 0.500000 0.357716 0.750000
Si Si3 0.735250 0.296496 0.027012
Si Si4 0.682636 0.078306 0.264417
Si Si5 0.882281 0.093644 0.030422
Si Si6 0.685332 0.570516 0.206612
Si Si7 0.000000 0.950103 0.750000
Si Si8 0.244594 0.849188 0.446083
O O1 0.500000 0.187666 0.250000
O O2 0.385113 0.145361 0.106219
O O3 0.505236 0.267584 0.916634
O O4 0.500000 0.000000 0.000000
O O5 0.411821 0.433421 0.789621
O O6 0.680283 0.163352 0.097363
O O7 0.820745 0.218090 0.995997
O O8 0.722602 0.414104 0.168543
O O9 0.704516 0.372513 0.877959
O O10 0.754362 0.109509 0.365425
O O11 0.688124 0.917223 0.197220
O O12 0.937169 0.139026 0.163614
O O13 0.832316 0.945338 0.084437
O O14 0.945514 0.050313 0.877270
O O15 0.736399 0.681676 0.080460
#
# Coordination Sequence:
#
# PCOD9231225 Si02
#       8
#     4   2   4   4   4   4   2   4
#     4  12  22  38  60  90 132 173 225 303 367 397
#     4  12  26  44  62  96 134 186 242 312 344 396
#     4  11  25  44  66  91 130 184 227 271 336 415
#     4  11  21  38  60  90 121 167 227 276 328 402
#     4  10  21  40  70 104 135 167 207 267 335 412
#     4  12  25  44  65  91 132 181 241 283 338 393
#     4  10  20  38  72 112 136 154 206 272 340 406
#     4  11  20  38  66  95 131 172 221 267 329 408
#
# _framework density 21.679776
#
# number of rings (size 3 to 8) (size 9 to 14) (size 15 to 20)
#    0.000    0.857    2.143    7.714    0.000    0.571 
#    1.286    0.000    0.000   14.571    0.000    0.000 
#    0.000    0.000    0.000    0.000    0.000    0.000 
#
# Total GULP energy -155976.981226 kJ/mol
# GULP energy per Si atom -5570.606472 kJ/mol
# Density = 2.163043 g / cm^3
# Si number density = 21.679776 Si / 1000 Ang^3
#
#
#
# Elastic Constant Matrix: (Units=GPa)
#
#
# Indices 1 2 3 4 5 6 
#
# 1 112.2966 20.3749 22.4288 0.0000 -5.0774 0.0000
# 2 20.3749 67.4780 -2.4128 0.0000 -10.0126 0.0000
# 3 22.4288 -2.4128 97.6155 0.0000 1.6794 0.0000
# 4 0.0000 0.0000 0.0000 32.8318 0.0000 -1.2157
# 5 -5.0774 -10.0126 1.6794 0.0000 43.2373 0.0000
# 6 0.0000 0.0000 0.0000 -1.2157 0.0000 17.5839
#
#
#
# Elastic Compliance Matrix: (Units=1/GPa)
#
#
# Indices 1 2 3 4 5 6 
#
# 1 0.009949 -0.003005 -0.002370 0.000000 0.000564 0.000000
# 2 -0.003005 0.016265 0.001034 0.000000 0.003373 0.000000
# 3 -0.002370 0.001034 0.010822 0.000000 -0.000459 0.000000
# 4 0.000000 0.000000 0.000000 0.030536 0.000000 0.002111
# 5 0.000564 0.003373 -0.000459 0.000000 0.023993 0.000000
# 6 0.000000 0.000000 0.000000 0.002111 0.000000 0.057016
#
#
# Mechanical properties :
#
#
# Convention : Reuss Voigt Hill
#
# Bulk Modulus (GPa) = 35.26748 39.79688 37.53218
# Shear Modulus (GPa) = 29.99129 34.53052 32.26091
#
# Velocity S-wave (km/s) = 3.72341 3.99526 3.86173
# Velocity P-wave (km/s) = 5.89812 6.29915 6.10193
#
# Compressibility (1/GPa) = 0.02835473
#
# Stress axis : x y z
#
# Youngs Moduli (GPa) = 100.51153 61.48331 92.40193
#
# Poissons Ratio (x) = 0.18476 0.21899
# Poissons Ratio (y) = 0.30205 -0.09559
# Poissons Ratio (z) = 0.23821 -0.06360
#
# Static dielectric constant tensor:
#      x y z
#    x 2.128250 0.000000 -0.000020 
#    y 0.000000 1.772270 0.000000 
#    z -0.000020 0.000000 1.901730 
# 
# From -- ./inp_files/21145.got.cif
#   From: 2010.05.17/outbox.cif.g08.bks.cpg/sg13_11_cif.got.tgz:21145.got - 2010.06.03 16:44:36.
