data_PCOD9231103
_publ_section_title
;
Structure prediction by ZEFSAII (Michael W. Deem and Ramdas Pophale) SiO2 
 PCOD9231103
Probable space group: P 2/C
;
_chemical_formula_sum "Si O2"
_cell_formula_units_Z 20
_cell_length_a 9.047229
_cell_length_b 6.996049
_cell_length_c 19.419951
_cell_angle_alpha 90.000000
_cell_angle_beta 124.382575
_cell_angle_gamma 90.000000
_cell_volume 1014.426660
_symmetry_space_group_name_H-M "P 2/C"
_symmetry_group_IT_number 13
_symmetry_cell_setting 'monoclinic'
loop_
_space_group_symop_operation_xyz
x,y,z
-x,y,1/2-z
-x,-y,-z
x,-y,1/2+z
loop_
_atom_site_type_symbol
_atom_site_label
_atom_site_fract_x
_atom_site_fract_y
_atom_site_fract_z
Si Si1 0.197226 0.592994 0.557561
Si Si2 0.414819 0.210133 0.621860
Si Si3 0.215385 0.945457 0.463846
Si Si4 0.799435 0.108168 0.699180
Si Si5 0.810319 0.931565 0.843392
O O1 0.330528 0.417626 0.597410
O O2 0.233868 0.736321 0.503193
O O3 0.000000 0.500000 0.500000
O O4 0.217532 0.726172 0.630150
O O5 0.628468 0.228415 0.677765
O O6 0.330305 0.081395 0.660882
O O7 0.344306 0.091442 0.537000
O O8 0.241862 0.952739 0.389292
O O9 0.007842 0.003633 0.419851
O O10 0.807688 0.944249 0.760070
O O11 0.000000 0.196460 0.750000
#
# Coordination Sequence:
#
# PCOD9231103 Si02
#       5
#     4   4   4   4   4
#     4  11  19  36  69  95 115 159 217 256 307 374
#     4  11  20  38  66  89 121 166 215 258 303 380
#     4  10  20  38  64  92 124 161 211 257 311 380
#     4  10  23  40  60  86 132 172 202 256 326 365
#     4  10  20  39  63  92 125 162 208 260 313 376
#
# _framework density 19.715572000000002
#
# number of rings (size 3 to 8) (size 9 to 14) (size 15 to 20)
#    0.000    1.600    4.000    2.400    0.000    0.800 
#    0.000   10.000    0.000    0.000    0.000    0.000 
#    0.000    0.000    0.000    0.000    0.000    0.000 
#
# Total GULP energy -111583.993620 kJ/mol
# GULP energy per Si atom -5579.199681 kJ/mol
# Density = 1.967070 g / cm^3
# Si number density = 19.715572 Si / 1000 Ang^3
#
#
#
# Elastic Constant Matrix: (Units=GPa)
#
#
# Indices 1 2 3 4 5 6 
#
# 1 135.2553 56.8033 63.5473 0.0000 19.7251 0.0000
# 2 56.8033 148.2449 57.3993 0.0000 3.5482 0.0000
# 3 63.5473 57.3993 106.3412 0.0000 -14.9021 0.0000
# 4 0.0000 0.0000 0.0000 -0.0501 0.0000 11.7450
# 5 19.7251 3.5482 -14.9021 0.0000 49.5066 0.0000
# 6 0.0000 0.0000 0.0000 11.7450 0.0000 14.8474
#
#
#
# Elastic Compliance Matrix: (Units=1/GPa)
#
#
# Indices 1 2 3 4 5 6 
#
# 1 0.012838 -0.001739 -0.007760 0.000000 -0.007326 0.000000
# 2 -0.001739 0.008975 -0.003965 0.000000 -0.001144 0.000000
# 3 -0.007760 -0.003965 0.017387 0.000000 0.008610 0.000000
# 4 0.000000 0.000000 0.000000 -0.107054 0.000000 0.084685
# 5 -0.007326 -0.001144 0.008610 0.000000 0.025792 0.000000
# 6 0.000000 0.000000 0.000000 0.084685 0.000000 0.000362
#
#
# Mechanical properties :
#
#
# Convention : Reuss Voigt Hill
#
# Bulk Modulus (GPa) = 81.48582 82.81569 82.15075
# Shear Modulus (GPa) = -468.07637 27.00021 -220.53808
#
# Velocity S-wave (km/s) = -15.42498 3.70467 -10.58786
# Velocity P-wave (km/s) = 16.60782 7.77148 10.37843
#
# Compressibility (1/GPa) = 0.01227207
#
# Stress axis : x y z
#
# Youngs Moduli (GPa) = 77.89372 111.42425 57.51312
#
# Poissons Ratio (x) = 0.19381 0.44627
# Poissons Ratio (y) = 0.13549 0.22804
# Poissons Ratio (z) = 0.60442 0.44181
#
# Static dielectric constant tensor:
#      x y z
#    x 1.735930 0.000000 -0.004850 
#    y 0.000000 1.633060 0.000000 
#    z -0.004850 0.000000 1.743160 
# 
# From -- ./inp_files/74689.got.cif
#   From: 2010.05.17/outbox.cif.g08.bks.cpg/sg13_38_cif.got.tgz:74689.got - 2010.06.03 16:44:36.
