data_PCOD9231896
_publ_section_title
;
Structure prediction by ZEFSAII (Michael W. Deem and Ramdas Pophale) SiO2 
 PCOD9231896
Probable space group: P 2/C
;
_chemical_formula_sum "Si O2"
_cell_formula_units_Z 22
_cell_length_a 12.618628
_cell_length_b 5.459742
_cell_length_c 18.143153
_cell_angle_alpha 90.000000
_cell_angle_beta 136.934372
_cell_angle_gamma 90.000000
_cell_volume 853.518995
_symmetry_space_group_name_H-M "P 2/C"
_symmetry_group_IT_number 13
_symmetry_cell_setting 'monoclinic'
loop_
_space_group_symop_operation_xyz
x,y,z
-x,y,1/2-z
-x,-y,-z
x,-y,1/2+z
loop_
_atom_site_type_symbol
_atom_site_label
_atom_site_fract_x
_atom_site_fract_y
_atom_site_fract_z
Si Si1 0.345102 0.167823 0.771992
Si Si2 0.118159 0.196677 0.093293
Si Si3 0.500000 0.554294 0.750000
Si Si4 0.246909 0.669462 0.517739
Si Si5 0.131490 0.921183 0.755365
Si Si6 0.320114 0.830348 0.980618
O O1 0.376105 0.378307 0.728681
O O2 0.286517 0.937507 0.692688
O O3 0.194828 0.173294 0.750007
O O4 0.502796 0.158834 0.900216
O O5 0.135577 0.368479 0.031490
O O6 0.082077 0.245045 0.160566
O O7 0.000000 0.000000 0.000000
O O8 0.415924 0.684897 0.640779
O O9 0.250990 0.427135 0.471972
O O10 0.233319 0.928344 0.469480
O O11 0.286187 0.830731 0.876306
O O12 0.000000 0.936877 0.750000
#
# Coordination Sequence:
#
# PCOD9231896 Si02
#       6
#     4   4   2   4   4   4
#     4   9  21  40  75 101 148 182 253 295 371 419
#     4  10  21  41  73 107 146 196 242 299 362 442
#     4  10  20  42  68 116 132 194 248 326 348 436
#     4  11  23  42  76 103 147 180 252 295 372 419
#     4  10  23  44  71 107 154 194 241 295 380 441
#     4  11  23  47  73 110 141 193 239 315 359 442
#
# _framework density 25.775641
#
# number of rings (size 3 to 8) (size 9 to 14) (size 15 to 20)
#    1.091    0.727    0.000    4.909    0.000    0.727 
#    3.273   13.636    0.000    0.000    0.000    0.000 
#    0.000    0.000    0.000    0.000    0.000    0.000 
#
# Total GULP energy -122614.073633 kJ/mol
# GULP energy per Si atom -5573.366983 kJ/mol
# Density = 2.571697 g / cm^3
# Si number density = 25.775641 Si / 1000 Ang^3
#
#
#
# Elastic Constant Matrix: (Units=GPa)
#
#
# Indices 1 2 3 4 5 6 
#
# 1 102.8677 36.8843 6.1425 0.0000 -24.4577 0.0000
# 2 36.8843 88.3853 25.5037 0.0000 -16.9585 0.0000
# 3 6.1425 25.5037 153.6950 0.0000 -29.3356 0.0000
# 4 0.0000 0.0000 0.0000 25.7503 0.0000 3.5364
# 5 -24.4577 -16.9585 -29.3356 0.0000 41.7134 0.0000
# 6 0.0000 0.0000 0.0000 3.5364 0.0000 19.9312
#
#
#
# Elastic Compliance Matrix: (Units=1/GPa)
#
#
# Indices 1 2 3 4 5 6 
#
# 1 0.012858 -0.004505 0.001528 0.000000 0.006782 0.000000
# 2 -0.004505 0.014062 -0.001809 0.000000 0.001803 0.000000
# 3 0.001528 -0.001809 0.007827 0.000000 0.005665 0.000000
# 4 0.000000 0.000000 0.000000 0.039804 0.000000 -0.007063
# 5 0.006782 0.001803 0.005665 0.000000 0.032666 0.000000
# 6 0.000000 0.000000 0.000000 -0.007063 0.000000 0.051426
#
#
# Mechanical properties :
#
#
# Convention : Reuss Voigt Hill
#
# Bulk Modulus (GPa) = 39.72365 53.55657 46.64011
# Shear Modulus (GPa) = 28.31130 35.90682 32.10906
#
# Velocity S-wave (km/s) = 3.31777 3.73641 3.53330
# Velocity P-wave (km/s) = 5.48831 6.27992 5.89741
#
# Compressibility (1/GPa) = 0.02517392
#
# Stress axis : x y z
#
# Youngs Moduli (GPa) = 77.77297 71.11218 127.76661
#
# Poissons Ratio (x) = 0.32040 -0.19526
# Poissons Ratio (y) = 0.35041 0.23117
# Poissons Ratio (z) = -0.11885 0.12866
#
# Static dielectric constant tensor:
#      x y z
#    x 2.154120 0.000000 0.074730 
#    y 0.000000 2.071210 0.000000 
#    z 0.074730 0.000000 2.000500 
# 
# From -- ./inp_files/79385.got.cif
#   From: 2010.05.17/outbox.cif.g08.bks.cpg/sg13_40_cif.got.tgz:79385.got - 2010.06.03 16:44:36.
