data_PCOD9231715
_publ_section_title
;
Structure prediction by ZEFSAII (Michael W. Deem and Ramdas Pophale) SiO2 
 PCOD9231715
Probable space group: P 2/C
;
_chemical_formula_sum "Si O2"
_cell_formula_units_Z 16
_cell_length_a 8.106191
_cell_length_b 8.761544
_cell_length_c 10.603371
_cell_angle_alpha 90.000000
_cell_angle_beta 126.774759
_cell_angle_gamma 90.000000
_cell_volume 603.213902
_symmetry_space_group_name_H-M "P 2/C"
_symmetry_group_IT_number 13
_symmetry_cell_setting 'monoclinic'
loop_
_space_group_symop_operation_xyz
x,y,z
-x,y,1/2-z
-x,-y,-z
x,-y,1/2+z
loop_
_atom_site_type_symbol
_atom_site_label
_atom_site_fract_x
_atom_site_fract_y
_atom_site_fract_z
Si Si1 0.291920 0.891250 0.447628
Si Si2 0.927530 0.261399 0.944668
Si Si3 0.389210 0.406194 0.836192
Si Si4 0.000000 0.838041 0.750000
Si Si5 0.500000 0.063986 0.750000
O O1 0.183326 0.038935 0.337964
O O2 0.387921 0.760114 0.404009
O O3 0.108786 0.814381 0.447016
O O4 0.464700 0.950733 0.619006
O O5 0.846544 0.406134 0.826081
O O6 0.717955 0.156782 0.856794
O O7 0.994999 0.262400 0.121107
O O8 0.500000 0.431615 0.750000
O O9 0.500000 0.500000 0.000000
#
# Coordination Sequence:
#
# PCOD9231715 Si02
#       5
#     4   4   4   2   2
#     4  11  24  45  78 118 165 208 258 335 413 480
#     4  11  23  47  78 124 164 206 261 334 416 486
#     4  12  29  52  77 105 157 219 282 324 385 480
#     4  10  20  40  86 124 160 196 248 338 428 478
#     4  10  22  40  84 130 164 196 256 338 428 496
#
# _framework density 26.524588000000001
#
# number of rings (size 3 to 8) (size 9 to 14) (size 15 to 20)
#    0.000    1.000    3.750    3.000    1.750    5.000 
#    0.000    5.000    0.000    0.000    0.000    0.000 
#    0.000    0.000    0.000    0.000    0.000    0.000 
#
# Total GULP energy -89136.719294 kJ/mol
# GULP energy per Si atom -5571.044956 kJ/mol
# Density = 2.646422 g / cm^3
# Si number density = 26.524588 Si / 1000 Ang^3
#
#
#
# Elastic Constant Matrix: (Units=GPa)
#
#
# Indices 1 2 3 4 5 6 
#
# 1 183.9902 43.2943 50.4657 0.0000 -5.4257 0.0000
# 2 43.2943 125.8760 99.4741 0.0000 -5.7773 0.0000
# 3 50.4657 99.4741 293.8895 0.0000 -15.7087 0.0000
# 4 0.0000 0.0000 0.0000 85.4383 0.0000 1.5408
# 5 -5.4257 -5.7773 -15.7087 0.0000 41.2432 0.0000
# 6 0.0000 0.0000 0.0000 1.5408 0.0000 10.3450
#
#
#
# Elastic Compliance Matrix: (Units=1/GPa)
#
#
# Indices 1 2 3 4 5 6 
#
# 1 0.005963 -0.001693 -0.000430 0.000000 0.000383 0.000000
# 2 -0.001693 0.011327 -0.003542 0.000000 0.000015 0.000000
# 3 -0.000430 -0.003542 0.004742 0.000000 0.001254 0.000000
# 4 0.000000 0.000000 0.000000 0.011736 0.000000 -0.001748
# 5 0.000383 0.000015 0.001254 0.000000 0.024776 0.000000
# 6 0.000000 0.000000 0.000000 -0.001748 0.000000 0.096925
#
#
# Mechanical properties :
#
#
# Convention : Reuss Voigt Hill
#
# Bulk Modulus (GPa) = 93.45436 110.02488 101.73962
# Shear Modulus (GPa) = 29.34822 54.77341 42.06081
#
# Velocity S-wave (km/s) = 3.32995 4.54916 3.98644
# Velocity P-wave (km/s) = 7.07774 8.31646 7.72198
#
# Compressibility (1/GPa) = 0.01070041
#
# Stress axis : x y z
#
# Youngs Moduli (GPa) = 167.70541 88.28736 210.85962
#
# Poissons Ratio (x) = 0.14949 0.09074
# Poissons Ratio (y) = 0.28396 0.74692
# Poissons Ratio (z) = 0.07217 0.31274
#
# Static dielectric constant tensor:
#      x y z
#    x 2.282730 0.000000 -0.151010 
#    y 0.000000 2.258330 0.000000 
#    z -0.151010 0.000000 2.240050 
# 
# From -- ./inp_files/14715.got.cif
#   From: 2010.05.17/outbox.cif.g08.bks.cpg/sg13_8_cif.got.tgz:14715.got - 2010.06.03 16:44:36.
