data_PCOD9231562
_publ_section_title
;
Structure prediction by ZEFSAII (Michael W. Deem and Ramdas Pophale) SiO2 
 PCOD9231562
Probable space group: P 2/C
;
_chemical_formula_sum "Si O2"
_cell_formula_units_Z 26
_cell_length_a 4.967074
_cell_length_b 8.532456
_cell_length_c 29.129047
_cell_angle_alpha 90.000000
_cell_angle_beta 66.668960
_cell_angle_gamma 90.000000
_cell_volume 1133.583115
_symmetry_space_group_name_H-M "P 2/C"
_symmetry_group_IT_number 13
_symmetry_cell_setting 'monoclinic'
loop_
_space_group_symop_operation_xyz
x,y,z
-x,y,1/2-z
-x,-y,-z
x,-y,1/2+z
loop_
_atom_site_type_symbol
_atom_site_label
_atom_site_fract_x
_atom_site_fract_y
_atom_site_fract_z
Si Si1 0.319331 0.373339 0.947824
Si Si2 0.311938 0.286368 0.342113
Si Si3 0.168344 0.594719 0.555940
Si Si4 0.611437 0.221941 0.845962
Si Si5 0.965817 0.038559 0.203514
Si Si6 0.910922 0.472334 0.308009
Si Si7 0.500000 0.219122 0.750000
O O1 0.557331 0.516744 0.935957
O O2 0.406029 0.246908 0.903696
O O3 0.017613 0.448168 0.950702
O O4 0.282021 0.316902 0.002766
O O5 0.642029 0.345016 0.331469
O O6 0.069176 0.309096 0.398477
O O7 0.201001 0.406585 0.311348
O O8 0.232537 0.125492 0.320944
O O9 0.743972 0.046287 0.835613
O O10 0.839702 0.364175 0.837176
O O11 0.492907 0.275501 0.803565
O O12 0.000000 0.130716 0.250000
O O13 0.780114 0.891074 0.232228
O O14 0.000000 0.503953 0.250000
#
# Coordination Sequence:
#
# PCOD9231562 Si02
#       7
#     4   4   4   4   4   4   2
#     4  10  21  38  67  93 129 165 213 275 333 388
#     4  12  24  42  63  95 131 169 214 268 328 390
#     4  10  20  40  63  98 127 165 213 272 340 385
#     4  11  23  42  62  95 124 175 217 272 323 393
#     4  10  25  42  60  87 133 183 212 254 338 406
#     4  12  26  37  64  96 127 161 219 277 318 381
#     4  10  24  40  62  82 132 174 212 252 324 402
#
# _framework density 22.936121
#
# number of rings (size 3 to 8) (size 9 to 14) (size 15 to 20)
#    0.000    1.231    3.077    2.308   12.923    0.000 
#    0.000    0.769    0.000    0.923    0.000    0.000 
#    0.000    0.000    0.000    0.000    0.000    0.000 
#
# Total GULP energy -144911.426787 kJ/mol
# GULP energy per Si atom -5573.516415 kJ/mol
# Density = 2.288392 g / cm^3
# Si number density = 22.936121 Si / 1000 Ang^3
#
#
#
# Elastic Constant Matrix: (Units=GPa)
#
#
# Indices 1 2 3 4 5 6 
#
# 1 91.4723 9.8162 -2.7344 0.0000 -5.8528 0.0000
# 2 9.8162 61.0403 15.4145 0.0000 -6.9135 0.0000
# 3 -2.7344 15.4145 158.5042 0.0000 -5.0270 0.0000
# 4 0.0000 0.0000 0.0000 21.6123 0.0000 -5.0147
# 5 -5.8528 -6.9135 -5.0270 0.0000 29.3873 0.0000
# 6 0.0000 0.0000 0.0000 -5.0147 0.0000 21.3902
#
#
#
# Elastic Compliance Matrix: (Units=1/GPa)
#
#
# Indices 1 2 3 4 5 6 
#
# 1 0.011249 -0.001698 0.000420 0.000000 0.001913 0.000000
# 2 -0.001698 0.017460 -0.001616 0.000000 0.003493 0.000000
# 3 0.000420 -0.001616 0.006499 0.000000 0.000815 0.000000
# 4 0.000000 0.000000 0.000000 0.048932 0.000000 0.011471
# 5 0.001913 0.003493 0.000815 0.000000 0.035370 0.000000
# 6 0.000000 0.000000 0.000000 0.011471 0.000000 0.049440
#
#
# Mechanical properties :
#
#
# Convention : Reuss Voigt Hill
#
# Bulk Modulus (GPa) = 33.99258 39.55661 36.77460
# Shear Modulus (GPa) = 27.09348 33.71265 30.40306
#
# Velocity S-wave (km/s) = 3.44067 3.83802 3.64477
# Velocity P-wave (km/s) = 5.53507 6.07655 5.81212
#
# Compressibility (1/GPa) = 0.02941818
#
# Stress axis : x y z
#
# Youngs Moduli (GPa) = 88.89301 57.27527 153.86319
#
# Poissons Ratio (x) = 0.09728 -0.06461
# Poissons Ratio (y) = 0.15098 0.24872
# Poissons Ratio (z) = -0.03733 0.09258
#
# Static dielectric constant tensor:
#      x y z
#    x 1.966450 0.000000 -0.045840 
#    y 0.000000 1.930270 0.000000 
#    z -0.045840 0.000000 2.088090 
# 
# From -- ./inp_files/94821.got.cif
#   From: 2010.05.17/outbox.cif.g08.bks.cpg/sg13_48_cif.got.tgz:94821.got - 2010.06.03 16:44:36.
