data_PCOD9231997
_publ_section_title
;
Structure prediction by ZEFSAII (Michael W. Deem and Ramdas Pophale) SiO2 
 PCOD9231997
Probable space group: P 2/C
;
_chemical_formula_sum "Si O2"
_cell_formula_units_Z 26
_cell_length_a 17.001803
_cell_length_b 8.146849
_cell_length_c 16.033725
_cell_angle_alpha 90.000000
_cell_angle_beta 152.183946
_cell_angle_gamma 90.000000
_cell_volume 1036.324822
_symmetry_space_group_name_H-M "P 2/C"
_symmetry_group_IT_number 13
_symmetry_cell_setting 'monoclinic'
loop_
_space_group_symop_operation_xyz
x,y,z
-x,y,1/2-z
-x,-y,-z
x,-y,1/2+z
loop_
_atom_site_type_symbol
_atom_site_label
_atom_site_fract_x
_atom_site_fract_y
_atom_site_fract_z
Si Si1 0.221165 0.369423 0.503016
Si Si2 0.625123 0.351181 0.132277
Si Si3 0.534981 0.146191 0.187397
Si Si4 0.641555 0.195646 0.723973
Si Si5 0.167378 0.136150 0.758520
Si Si6 0.875289 0.239516 0.254269
Si Si7 0.000000 0.331064 0.750000
O O1 0.355560 0.334271 0.701246
O O2 0.242673 0.264204 0.438649
O O3 0.160734 0.549455 0.418120
O O4 0.055951 0.293884 0.392095
O O5 0.631771 0.292776 0.232379
O O6 0.804435 0.362718 0.257521
O O7 0.500000 0.500000 0.000000
O O8 0.530037 0.207894 0.990806
O O9 0.500000 0.172166 0.250000
O O10 0.637000 0.979690 0.264710
O O11 0.350252 0.139845 0.973505
O O12 0.791314 0.206205 0.795294
O O13 0.043601 0.227643 0.707563
O O14 0.118018 0.945354 0.707099
#
# Coordination Sequence:
#
# PCOD9231997 Si02
#       7
#     4   4   4   4   4   4   2
#     4  10  25  39  65  95 132 176 215 277 334 405
#     4  11  24  42  66  94 135 173 215 281 334 398
#     4  11  23  42  67  98 130 171 226 273 329 405
#     4  11  23  43  66  96 128 171 222 274 337 397
#     4  11  21  42  68  91 130 175 220 282 330 401
#     4  10  20  44  63  93 131 171 225 260 344 396
#     4  10  24  42  64  94 138 176 226 278 344 398
#
# _framework density 25.088659
#
# number of rings (size 3 to 8) (size 9 to 14) (size 15 to 20)
#    0.000    1.538    3.077    2.769    8.615    2.462 
#    2.769    0.000    0.000    0.000    0.000    0.000 
#    0.000    0.000    0.000    0.000    0.000    0.000 
#
# Total GULP energy -145476.434759 kJ/mol
# GULP energy per Si atom -5595.247491 kJ/mol
# Density = 2.503156 g / cm^3
# Si number density = 25.088659 Si / 1000 Ang^3
#
#
#
# Elastic Constant Matrix: (Units=GPa)
#
#
# Indices 1 2 3 4 5 6 
#
# 1 179.6112 43.3412 2.4600 0.0000 -21.3228 0.0000
# 2 43.3412 101.2385 -5.6762 0.0000 -11.8765 0.0000
# 3 2.4600 -5.6762 57.3570 0.0000 -20.6030 0.0000
# 4 0.0000 0.0000 0.0000 20.7339 0.0000 11.4755
# 5 -21.3228 -11.8765 -20.6030 0.0000 40.5642 0.0000
# 6 0.0000 0.0000 0.0000 11.4755 0.0000 -19.9163
#
#
#
# Elastic Compliance Matrix: (Units=1/GPa)
#
#
# Indices 1 2 3 4 5 6 
#
# 1 0.006494 -0.002397 0.000561 0.000000 0.002997 0.000000
# 2 -0.002397 0.011429 0.002426 0.000000 0.003318 0.000000
# 3 0.000561 0.002426 0.022031 0.000000 0.012195 0.000000
# 4 0.000000 0.000000 0.000000 0.036569 0.000000 0.021070
# 5 0.002997 0.003318 0.012195 0.000000 0.033393 0.000000
# 6 0.000000 0.000000 0.000000 0.021070 0.000000 -0.038070
#
#
# Mechanical properties :
#
#
# Convention : Reuss Voigt Hill
#
# Bulk Modulus (GPa) = 24.31145 46.49519 35.40332
# Shear Modulus (GPa) = 59.25674 28.14848 43.70261
#
# Velocity S-wave (km/s) = 4.86520 3.35320 4.17817
# Velocity P-wave (km/s) = 6.42429 5.79349 6.11703
#
# Compressibility (1/GPa) = 0.04113288
#
# Stress axis : x y z
#
# Youngs Moduli (GPa) = 153.98573 87.49496 45.39032
#
# Poissons Ratio (x) = 0.20975 -0.02545
# Poissons Ratio (y) = 0.36914 -0.11011
# Poissons Ratio (z) = -0.08633 -0.21225
#
# Static dielectric constant tensor:
#      x y z
#    x 2.057480 0.000000 -0.058580 
#    y 0.000000 2.006240 0.000000 
#    z -0.058580 0.000000 2.085130 
# 
# From -- ./inp_files/53376.got.cif
#   From: 2010.05.17/outbox.cif.g08.bks.cpg/sg13_27_cif.got.tgz:53376.got - 2010.06.03 16:44:36.
