data_PCOD9231483
_publ_section_title
;
Structure prediction by ZEFSAII (Michael W. Deem and Ramdas Pophale) SiO2 
 PCOD9231483
Probable space group: P 2/C
;
_chemical_formula_sum "Si O2"
_cell_formula_units_Z 16
_cell_length_a 6.453226
_cell_length_b 15.194882
_cell_length_c 9.053564
_cell_angle_alpha 90.000000
_cell_angle_beta 123.895448
_cell_angle_gamma 90.000000
_cell_volume 736.888004
_symmetry_space_group_name_H-M "P 2/C"
_symmetry_group_IT_number 13
_symmetry_cell_setting 'monoclinic'
loop_
_space_group_symop_operation_xyz
x,y,z
-x,y,1/2-z
-x,-y,-z
x,-y,1/2+z
loop_
_atom_site_type_symbol
_atom_site_label
_atom_site_fract_x
_atom_site_fract_y
_atom_site_fract_z
Si Si1 0.485913 0.696190 0.420500
Si Si2 0.000000 0.585932 0.250000
Si Si3 0.500000 0.979069 0.750000
Si Si4 0.334332 0.558569 0.822999
Si Si5 0.716805 0.117484 0.606064
O O1 0.500000 0.680744 0.250000
O O2 0.706030 0.646278 0.596136
O O3 0.464225 0.799421 0.441274
O O4 0.227772 0.651176 0.375437
O O5 0.877747 0.511296 0.308161
O O6 0.326059 0.920250 0.574979
O O7 0.651405 0.041461 0.698002
O O8 0.500000 0.582861 0.750000
O O9 0.500000 0.500000 0.000000
O O10 0.000000 0.145316 0.750000
#
# Coordination Sequence:
#
# PCOD9231483 Si02
#       5
#     4   2   2   4   4
#     4  11  23  38  60  91 127 166 210 263 312 375
#     4  10  20  40  60  82 120 172 206 256 318 358
#     4  10  24  42  72  96 130 164 212 266 316 394
#     4  10  22  37  58  85 119 162 216 260 311 374
#     4  11  22  44  68  98 130 169 209 260 328 380
#
# _framework density 21.712931999999999
#
# number of rings (size 3 to 8) (size 9 to 14) (size 15 to 20)
#    0.000    1.500    2.500    3.750    1.750    9.000 
#    0.000    0.000    2.750    0.000    0.000    0.000 
#    0.000    0.000    0.000    0.000    0.000    0.000 
#
# Total GULP energy -89122.416672 kJ/mol
# GULP energy per Si atom -5570.151042 kJ/mol
# Density = 2.166351 g / cm^3
# Si number density = 21.712932 Si / 1000 Ang^3
#
#
#
# Elastic Constant Matrix: (Units=GPa)
#
#
# Indices 1 2 3 4 5 6 
#
# 1 31.7100 13.5509 25.8493 0.0000 -2.3916 0.0000
# 2 13.5509 121.3668 51.1654 0.0000 -7.5030 0.0000
# 3 25.8493 51.1654 133.0522 0.0000 -21.7852 0.0000
# 4 0.0000 0.0000 0.0000 20.1657 0.0000 15.9405
# 5 -2.3916 -7.5030 -21.7852 0.0000 32.9536 0.0000
# 6 0.0000 0.0000 0.0000 15.9405 0.0000 97.4057
#
#
#
# Elastic Compliance Matrix: (Units=1/GPa)
#
#
# Indices 1 2 3 4 5 6 
#
# 1 0.037810 -0.001322 -0.007218 0.000000 -0.002329 0.000000
# 2 -0.001322 0.009882 -0.003578 0.000000 -0.000211 0.000000
# 3 -0.007218 -0.003578 0.011298 0.000000 0.006130 0.000000
# 4 0.000000 0.000000 0.000000 0.056957 0.000000 -0.009321
# 5 -0.002329 -0.000211 0.006130 0.000000 0.034181 0.000000
# 6 0.000000 0.000000 0.000000 -0.009321 0.000000 0.011792
#
#
# Mechanical properties :
#
#
# Convention : Reuss Voigt Hill
#
# Bulk Modulus (GPa) = 28.77504 51.91779 40.34641
# Shear Modulus (GPa) = 25.28547 43.14256 34.21402
#
# Velocity S-wave (km/s) = 3.41623 4.46236 3.97387
# Velocity P-wave (km/s) = 5.37048 7.10726 6.29902
#
# Compressibility (1/GPa) = 0.03475234
#
# Stress axis : x y z
#
# Youngs Moduli (GPa) = 26.44831 101.18923 88.51186
#
# Poissons Ratio (x) = 0.13381 0.63892
# Poissons Ratio (y) = 0.03497 0.31670
# Poissons Ratio (z) = 0.19092 0.36206
#
# Static dielectric constant tensor:
#      x y z
#    x 1.916140 0.000000 0.078290 
#    y 0.000000 1.802100 0.000000 
#    z 0.078290 0.000000 1.848600 
# 
# From -- ./inp_files/8997.got.cif
#   From: 2010.05.17/outbox.cif.g08.bks.cpg/sg13_5_cif.got.tgz:8997.got - 2010.06.03 16:44:36.
