data_PCOD9231629
_publ_section_title
;
Structure prediction by ZEFSAII (Michael W. Deem and Ramdas Pophale) SiO2 
 PCOD9231629
Probable space group: P 2/C
;
_chemical_formula_sum "Si O2"
_cell_formula_units_Z 28
_cell_length_a 20.363907
_cell_length_b 10.652938
_cell_length_c 11.588120
_cell_angle_alpha 90.000000
_cell_angle_beta 151.382443
_cell_angle_gamma 90.000000
_cell_volume 1204.047237
_symmetry_space_group_name_H-M "P 2/C"
_symmetry_group_IT_number 13
_symmetry_cell_setting 'monoclinic'
loop_
_space_group_symop_operation_xyz
x,y,z
-x,y,1/2-z
-x,-y,-z
x,-y,1/2+z
loop_
_atom_site_type_symbol
_atom_site_label
_atom_site_fract_x
_atom_site_fract_y
_atom_site_fract_z
Si Si1 0.000000 0.147929 0.250000
Si Si2 0.186343 0.798415 0.683194
Si Si3 0.000000 0.000000 0.500000
Si Si4 0.268781 0.796574 0.054248
Si Si5 0.849811 0.557650 0.028643
Si Si6 0.325951 0.678362 0.570215
Si Si7 0.353104 0.062355 0.248917
Si Si8 0.614258 0.368991 0.590127
O O1 0.973107 0.066374 0.091845
O O2 0.132335 0.228945 0.417709
O O3 0.147470 0.683879 0.543081
O O4 0.279742 0.894605 0.753588
O O5 0.266425 0.751825 0.920144
O O6 0.055896 0.868257 0.535203
O O7 0.388120 0.729766 0.308957
O O8 0.275447 0.948438 0.064669
O O9 0.806881 0.605829 0.089455
O O10 0.722972 0.475576 0.787866
O O11 0.000000 0.499940 0.250000
O O12 0.345144 0.814998 0.656928
O O13 0.331900 0.695231 0.443602
O O14 0.458265 0.597698 0.817184
O O15 0.500000 0.000000 0.500000
#
# Coordination Sequence:
#
# PCOD9231629 Si02
#       8
#     2   4   2   4   4   4   4   4
#     4  10  22  36  64  98 138 184 220 292 346 446
#     4  10  25  42  68 104 138 189 228 305 355 432
#     4  10  20  40  66  94 140 174 230 280 372 420
#     4  11  24  40  68 102 142 178 235 287 367 425
#     4  11  27  48  71 102 139 188 246 298 353 423
#     4  10  25  47  74  99 144 185 236 298 358 425
#     4  11  22  43  68 107 141 182 234 288 364 436
#     4  11  25  46  72 102 136 194 235 294 353 428
#
# _framework density 23.254901
#
# number of rings (size 3 to 8) (size 9 to 14) (size 15 to 20)
#    0.000    1.429    2.857    0.429    6.000    4.571 
#    0.000    0.000    0.000    0.000    0.000    0.000 
#    0.000    0.000    0.000    0.000    0.000    0.000 
#
# Total GULP energy -155956.907354 kJ/mol
# GULP energy per Si atom -5569.889548 kJ/mol
# Density = 2.320197 g / cm^3
# Si number density = 23.254901 Si / 1000 Ang^3
#
#
#
# Elastic Constant Matrix: (Units=GPa)
#
#
# Indices 1 2 3 4 5 6 
#
# 1 122.4468 17.3837 8.8676 0.0000 -17.1060 0.0000
# 2 17.3837 69.6256 12.5811 0.0000 13.9781 0.0000
# 3 8.8676 12.5811 30.9565 0.0000 2.4324 0.0000
# 4 0.0000 0.0000 0.0000 36.1328 0.0000 6.8598
# 5 -17.1060 13.9781 2.4324 0.0000 38.6119 0.0000
# 6 0.0000 0.0000 0.0000 6.8598 0.0000 19.0362
#
#
#
# Elastic Compliance Matrix: (Units=1/GPa)
#
#
# Indices 1 2 3 4 5 6 
#
# 1 0.009511 -0.003132 -0.001881 0.000000 0.005466 0.000000
# 2 -0.003132 0.017665 -0.005699 0.000000 -0.007424 0.000000
# 3 -0.001881 -0.005699 0.035236 0.000000 -0.000990 0.000000
# 4 0.000000 0.000000 0.000000 0.029708 0.000000 -0.010706
# 5 0.005466 -0.007424 -0.000990 0.000000 0.031070 0.000000
# 6 0.000000 0.000000 0.000000 -0.010706 0.000000 0.056389
#
#
# Mechanical properties :
#
#
# Convention : Reuss Voigt Hill
#
# Bulk Modulus (GPa) = 24.39728 33.41042 28.90385
# Shear Modulus (GPa) = 23.29198 31.03595 27.16397
#
# Velocity S-wave (km/s) = 3.16823 3.65718 3.42145
# Velocity P-wave (km/s) = 4.88852 5.67728 5.29760
#
# Compressibility (1/GPa) = 0.04098817
#
# Stress axis : x y z
#
# Youngs Moduli (GPa) = 105.13758 56.61032 28.38007
#
# Poissons Ratio (x) = 0.17732 0.05339
# Poissons Ratio (y) = 0.32931 0.16173
# Poissons Ratio (z) = 0.19777 0.32260
#
# Static dielectric constant tensor:
#      x y z
#    x 1.859270 0.000000 0.045450 
#    y 0.000000 1.871560 0.000000 
#    z 0.045450 0.000000 1.992390 
# 
# From -- ./inp_files/40860.got.cif
#   From: 2010.05.17/outbox.cif.g08.bks.cpg/sg13_21_cif.got.tgz:40860.got - 2010.06.03 16:44:36.
