data_PCOD9231587
_publ_section_title
;
Structure prediction by ZEFSAII (Michael W. Deem and Ramdas Pophale) SiO2 
 PCOD9231587
Probable space group: P 2/C
;
_chemical_formula_sum "Si O2"
_cell_formula_units_Z 24
_cell_length_a 28.906434
_cell_length_b 8.677607
_cell_length_c 14.559447
_cell_angle_alpha 90.000000
_cell_angle_beta 160.133918
_cell_angle_gamma 90.000000
_cell_volume 1241.057674
_symmetry_space_group_name_H-M "P 2/C"
_symmetry_group_IT_number 13
_symmetry_cell_setting 'monoclinic'
loop_
_space_group_symop_operation_xyz
x,y,z
-x,y,1/2-z
-x,-y,-z
x,-y,1/2+z
loop_
_atom_site_type_symbol
_atom_site_label
_atom_site_fract_x
_atom_site_fract_y
_atom_site_fract_z
Si Si1 0.859812 0.911999 0.229026
Si Si2 0.383601 0.560654 0.345836
Si Si3 0.372488 0.070861 0.821555
Si Si4 0.000000 0.373281 0.250000
Si Si5 0.090873 0.568098 0.249973
Si Si6 0.260411 0.830409 0.298831
Si Si7 0.500000 0.398961 0.250000
O O1 0.890177 0.747893 0.237457
O O2 0.798494 0.899820 0.217430
O O3 0.000000 0.000000 0.500000
O O4 0.756943 0.005709 0.973313
O O5 0.500000 0.500000 0.500000
O O6 0.383552 0.744894 0.339028
O O7 0.428921 0.513346 0.533522
O O8 0.242303 0.496658 0.046000
O O9 0.334110 0.057878 0.860486
O O10 0.500000 0.000000 0.000000
O O11 0.983732 0.492568 0.302532
O O12 0.134284 0.264841 0.515801
O O13 0.000000 0.500000 0.000000
O O14 0.376852 0.712072 0.551190
#
# Coordination Sequence:
#
# PCOD9231587 Si02
#       7
#     4   4   4   2   4   4   2
#     4  12  25  43  68 100 139 185 229 289 359 417
#     4  11  23  42  67  97 133 179 236 283 339 410
#     4  11  23  42  66 101 136 184 231 283 350 426
#     4  12  22  42  70 102 140 188 242 294 352 420
#     4  12  24  42  68 103 135 183 240 293 342 430
#     4  11  22  43  69  93 144 189 227 284 371 413
#     4  10  20  40  64  98 120 186 222 270 346 406
#
# _framework density 19.338343999999999
#
# number of rings (size 3 to 8) (size 9 to 14) (size 15 to 20)
#    0.000    0.667    5.000    6.000    0.000    1.333 
#    0.000    3.333    0.000    1.000    0.000    0.000 
#    0.000    0.000    0.000    0.000    0.000    0.000 
#
# Total GULP energy -133703.925804 kJ/mol
# GULP energy per Si atom -5570.996908 kJ/mol
# Density = 1.929433 g / cm^3
# Si number density = 19.338344 Si / 1000 Ang^3
#
#
#
# Elastic Constant Matrix: (Units=GPa)
#
#
# Indices 1 2 3 4 5 6 
#
# 1 137.4191 19.9327 30.7421 0.0000 -8.2593 0.0000
# 2 19.9327 54.0059 23.2631 0.0000 -11.3116 0.0000
# 3 30.7421 23.2631 147.5537 0.0000 -10.8863 0.0000
# 4 0.0000 0.0000 0.0000 44.5528 0.0000 6.3863
# 5 -8.2593 -11.3116 -10.8863 0.0000 38.8056 0.0000
# 6 0.0000 0.0000 0.0000 6.3863 0.0000 31.8539
#
#
#
# Elastic Compliance Matrix: (Units=1/GPa)
#
#
# Indices 1 2 3 4 5 6 
#
# 1 0.007922 -0.002244 -0.001246 0.000000 0.000682 0.000000
# 2 -0.002244 0.021506 -0.002548 0.000000 0.005076 0.000000
# 3 -0.001246 -0.002548 0.007520 0.000000 0.001101 0.000000
# 4 0.000000 0.000000 0.000000 0.023109 0.000000 -0.004633
# 5 0.000682 0.005076 0.001101 0.000000 0.027703 0.000000
# 6 0.000000 0.000000 0.000000 -0.004633 0.000000 0.032322
#
#
# Mechanical properties :
#
#
# Convention : Reuss Voigt Hill
#
# Bulk Modulus (GPa) = 40.20931 54.09494 47.15213
# Shear Modulus (GPa) = 35.59955 40.71187 38.15571
#
# Velocity S-wave (km/s) = 4.29520 4.59327 4.44673
# Velocity P-wave (km/s) = 6.74062 7.49429 7.12743
#
# Compressibility (1/GPa) = 0.02486986
#
# Stress axis : x y z
#
# Youngs Moduli (GPa) = 126.22469 46.49913 132.97987
#
# Poissons Ratio (x) = 0.10435 0.16575
# Poissons Ratio (y) = 0.28327 0.33890
# Poissons Ratio (z) = 0.15733 0.11850
#
# Static dielectric constant tensor:
#      x y z
#    x 1.665580 0.000000 0.059830 
#    y 0.000000 1.632810 0.000000 
#    z 0.059830 0.000000 1.637980 
# 
# From -- ./inp_files/59952.got.cif
#   From: 2010.05.17/outbox.cif.g08.bks.cpg/sg13_30_cif.got.tgz:59952.got - 2010.06.03 16:44:36.
