data_PCOD9231065
_publ_section_title
;
Structure prediction by ZEFSAII (Michael W. Deem and Ramdas Pophale) SiO2 
 PCOD9231065
Probable space group: P 2/C
;
_chemical_formula_sum "Si O2"
_cell_formula_units_Z 30
_cell_length_a 12.373092
_cell_length_b 9.616791
_cell_length_c 19.726265
_cell_angle_alpha 90.000000
_cell_angle_beta 145.314383
_cell_angle_gamma 90.000000
_cell_volume 1335.738232
_symmetry_space_group_name_H-M "P 2/C"
_symmetry_group_IT_number 13
_symmetry_cell_setting 'monoclinic'
loop_
_space_group_symop_operation_xyz
x,y,z
-x,y,1/2-z
-x,-y,-z
x,-y,1/2+z
loop_
_atom_site_type_symbol
_atom_site_label
_atom_site_fract_x
_atom_site_fract_y
_atom_site_fract_z
Si Si1 0.421070 0.058326 0.138531
Si Si2 0.282286 0.024856 0.370245
Si Si3 0.693634 0.682478 0.011560
Si Si4 0.104657 0.414539 0.409461
Si Si5 0.280137 0.656152 0.854366
Si Si6 0.815884 0.937802 0.311088
Si Si7 0.000000 0.138712 0.750000
Si Si8 0.097610 0.836371 0.007551
O O1 0.500000 0.114582 0.250000
O O2 0.592336 0.968802 0.195230
O O3 0.364054 0.189255 0.065463
O O4 0.261726 0.946433 0.074078
O O5 0.166614 0.910537 0.261219
O O6 0.145893 0.993550 0.361042
O O7 0.500000 0.000000 0.500000
O O8 0.258476 0.178199 0.330861
O O9 0.799112 0.561124 0.024985
O O10 0.844576 0.742098 0.142335
O O11 0.498419 0.628392 0.946584
O O12 0.221483 0.364531 0.402607
O O13 0.120386 0.304307 0.478165
O O14 0.882973 0.420726 0.272900
O O15 0.887130 0.826122 0.402296
O O16 0.912607 0.079274 0.387696
#
# Coordination Sequence:
#
# PCOD9231065 Si02
#       8
#     4   4   4   4   4   4   2   4
#     4  10  21  39  63  87 123 164 210 272 330 377
#     4  12  22  37  66 100 129 165 221 278 334 392
#     4  12  24  42  64  94 134 173 220 266 338 399
#     4  11  24  40  66  92 132 181 220 265 326 410
#     4  11  23  42  63  94 140 174 214 275 340 390
#     4  10  20  38  63  93 125 164 209 276 330 380
#     4  12  24  36  62 102 134 166 220 276 338 396
#     4  10  21  39  65  91 123 164 222 267 325 389
#
# _framework density 22.459489000000001
#
# number of rings (size 3 to 8) (size 9 to 14) (size 15 to 20)
#    0.000    1.067    4.000    2.800    3.733    0.000 
#    0.000    3.333    0.000   15.200    0.000    0.000 
#    0.000    0.000    0.000    0.000    0.000    0.000 
#
# Total GULP energy -167174.841307 kJ/mol
# GULP energy per Si atom -5572.494710 kJ/mol
# Density = 2.240837 g / cm^3
# Si number density = 22.459489 Si / 1000 Ang^3
#
#
#
# Elastic Constant Matrix: (Units=GPa)
#
#
# Indices 1 2 3 4 5 6 
#
# 1 76.7456 22.1633 60.2892 0.0000 3.2988 0.0000
# 2 22.1633 69.9257 20.7960 0.0000 3.5516 0.0000
# 3 60.2892 20.7960 130.5826 0.0000 14.2104 0.0000
# 4 0.0000 0.0000 0.0000 20.9591 0.0000 5.4075
# 5 3.2988 3.5516 14.2104 0.0000 67.3390 0.0000
# 6 0.0000 0.0000 0.0000 5.4075 0.0000 38.2696
#
#
#
# Elastic Compliance Matrix: (Units=1/GPa)
#
#
# Indices 1 2 3 4 5 6 
#
# 1 0.021573 -0.004090 -0.009434 0.000000 0.001150 0.000000
# 2 -0.004090 0.015793 -0.000571 0.000000 -0.000512 0.000000
# 3 -0.009434 -0.000571 0.012334 0.000000 -0.002111 0.000000
# 4 0.000000 0.000000 0.000000 0.049517 0.000000 -0.006997
# 5 0.001150 -0.000512 -0.002111 0.000000 0.015266 0.000000
# 6 0.000000 0.000000 0.000000 -0.006997 0.000000 0.027119
#
#
# Mechanical properties :
#
#
# Convention : Reuss Voigt Hill
#
# Bulk Modulus (GPa) = 46.49006 53.75011 50.12008
# Shear Modulus (GPa) = 28.25456 36.91390 32.58423
#
# Velocity S-wave (km/s) = 3.55071 4.05850 3.81307
# Velocity P-wave (km/s) = 6.12817 6.77834 6.46144
#
# Compressibility (1/GPa) = 0.02150997
#
# Stress axis : x y z
#
# Youngs Moduli (GPa) = 46.35469 63.31859 81.07611
#
# Poissons Ratio (x) = 0.25900 0.76485
# Poissons Ratio (y) = 0.18961 0.04629
# Poissons Ratio (z) = 0.43730 0.03615
#
# Static dielectric constant tensor:
#      x y z
#    x 2.282410 0.000000 -0.039750 
#    y 0.000000 1.829300 0.000000 
#    z -0.039750 0.000000 1.929980 
# 
# From -- ./inp_files/87308.got.cif
#   From: 2010.05.17/outbox.cif.g08.bks.cpg/sg13_44_cif.got.tgz:87308.got - 2010.06.03 16:44:36.
