data_PCOD9231574
_publ_section_title
;
Structure prediction by ZEFSAII (Michael W. Deem and Ramdas Pophale) SiO2 
 PCOD9231574
Probable space group: P 2/C
;
_chemical_formula_sum "Si O2"
_cell_formula_units_Z 32
_cell_length_a 27.786190
_cell_length_b 9.138448
_cell_length_c 11.534556
_cell_angle_alpha 90.000000
_cell_angle_beta 29.067054
_cell_angle_gamma 90.000000
_cell_volume 1422.948623
_symmetry_space_group_name_H-M "P 2/C"
_symmetry_group_IT_number 13
_symmetry_cell_setting 'monoclinic'
loop_
_space_group_symop_operation_xyz
x,y,z
-x,y,1/2-z
-x,-y,-z
x,-y,1/2+z
loop_
_atom_site_type_symbol
_atom_site_label
_atom_site_fract_x
_atom_site_fract_y
_atom_site_fract_z
Si Si1 0.957927 0.375884 0.001593
Si Si2 0.678812 0.480562 0.108014
Si Si3 0.425284 0.778993 0.581132
Si Si4 0.719142 0.018407 0.544407
Si Si5 0.645986 0.236311 0.526694
Si Si6 0.776207 0.291424 0.544835
Si Si7 0.072453 0.862582 0.355538
Si Si8 0.867915 0.640463 0.095356
O O1 0.863945 0.302184 0.264169
O O2 0.914462 0.477730 0.991462
O O3 0.000000 0.500000 0.000000
O O4 0.041014 0.250093 0.818848
O O5 0.589312 0.370176 0.316192
O O6 0.669230 0.602845 0.028455
O O7 0.704210 0.573378 0.169109
O O8 0.774568 0.382862 0.877129
O O9 0.364058 0.763654 0.589661
O O10 0.538282 0.800650 0.307671
O O11 0.374340 0.911915 0.755143
O O12 0.718496 0.112873 0.426844
O O13 0.716432 0.143389 0.648843
O O14 0.817828 0.927176 0.364017
O O15 0.826367 0.305161 0.562350
O O16 0.061747 0.760200 0.492641
O O17 0.000000 0.000000 0.500000
#
# Coordination Sequence:
#
# PCOD9231574 Si02
#       8
#     4   4   4   4   4   4   4   4
#     4   9  20  37  59  80 120 156 201 257 298 352
#     4  10  20  40  64  90 123 160 202 264 313 365
#     4  11  22  41  67  93 127 163 212 252 326 380
#     4  11  23  40  63  88 135 161 205 257 315 368
#     4  10  24  41  64  97 125 163 206 266 311 387
#     4  10  21  38  60  90 118 163 207 253 310 366
#     4  11  21  39  59  84 124 162 200 253 307 366
#     4  10  21  38  64  85 118 164 206 252 305 370
#
# _framework density 22.488513999999999
#
# number of rings (size 3 to 8) (size 9 to 14) (size 15 to 20)
#    0.000    1.750    2.500    1.500    1.750    2.000 
#    0.000    0.000   11.000    6.000    0.000    0.000 
#    0.000    0.000    0.000    0.000    0.000    0.000 
#
# Total GULP energy -178723.701045 kJ/mol
# GULP energy per Si atom -5585.115658 kJ/mol
# Density = 2.243733 g / cm^3
# Si number density = 22.488514 Si / 1000 Ang^3
#
#
#
# Elastic Constant Matrix: (Units=GPa)
#
#
# Indices 1 2 3 4 5 6 
#
# 1 72.9395 34.1488 -28.5409 0.0000 -0.7790 0.0000
# 2 34.1488 137.0743 17.8019 0.0000 -1.5668 0.0000
# 3 -28.5409 17.8019 31.7546 0.0000 -12.0877 0.0000
# 4 0.0000 0.0000 0.0000 21.9200 0.0000 -13.8550
# 5 -0.7790 -1.5668 -12.0877 0.0000 23.8612 0.0000
# 6 0.0000 0.0000 0.0000 -13.8550 0.0000 31.3937
#
#
#
# Elastic Compliance Matrix: (Units=1/GPa)
#
#
# Indices 1 2 3 4 5 6 
#
# 1 0.056670 -0.024032 0.079922 0.000000 0.040760 0.000000
# 2 -0.024032 0.018147 -0.039172 0.000000 -0.019437 0.000000
# 3 0.079922 -0.039172 0.155235 0.000000 0.078677 0.000000
# 4 0.000000 0.000000 0.000000 0.063270 0.000000 0.027923
# 5 0.040760 -0.019437 0.078677 0.000000 0.081820 0.000000
# 6 0.000000 0.000000 0.000000 0.027923 0.000000 0.044177
#
#
# Mechanical properties :
#
#
# Convention : Reuss Voigt Hill
#
# Bulk Modulus (GPa) = 3.79522 32.06532 17.93027
# Shear Modulus (GPa) = 10.55499 29.99222 20.27361
#
# Velocity S-wave (km/s) = 2.16880 3.65590 3.00577
# Velocity P-wave (km/s) = 2.82186 5.66660 4.47623
#
# Compressibility (1/GPa) = 0.26348965
#
# Stress axis : x y z
#
# Youngs Moduli (GPa) = 17.64611 55.10467 6.44186
#
# Poissons Ratio (x) = 1.32425 -0.51485
# Poissons Ratio (y) = 0.42406 0.25234
# Poissons Ratio (z) = -1.41032 2.15855
#
# Static dielectric constant tensor:
#      x y z
#    x 1.859570 0.000000 -0.018400 
#    y 0.000000 1.861790 0.000000 
#    z -0.018400 0.000000 1.870380 
# 
# From -- ./inp_files/42760.got.cif
#   From: 2010.05.17/outbox.cif.g08.bks.cpg/sg13_22_cif.got.tgz:42760.got - 2010.06.03 16:44:36.
