data_PCOD9231659
_publ_section_title
;
Structure prediction by ZEFSAII (Michael W. Deem and Ramdas Pophale) SiO2 
 PCOD9231659
Probable space group: P 2/C
;
_chemical_formula_sum "Si O2"
_cell_formula_units_Z 22
_cell_length_a 13.847209
_cell_length_b 11.996543
_cell_length_c 17.469941
_cell_angle_alpha 90.000000
_cell_angle_beta 158.302317
_cell_angle_gamma 90.000000
_cell_volume 1072.926666
_symmetry_space_group_name_H-M "P 2/C"
_symmetry_group_IT_number 13
_symmetry_cell_setting 'monoclinic'
loop_
_space_group_symop_operation_xyz
x,y,z
-x,y,1/2-z
-x,-y,-z
x,-y,1/2+z
loop_
_atom_site_type_symbol
_atom_site_label
_atom_site_fract_x
_atom_site_fract_y
_atom_site_fract_z
Si Si1 0.500000 0.297718 0.750000
Si Si2 0.723031 0.118763 0.585420
Si Si3 0.772239 0.009114 0.271694
Si Si4 0.739363 0.369738 0.607609
Si Si5 0.501635 0.392370 0.582694
Si Si6 0.939538 0.787391 0.790390
O O1 0.533526 0.360527 0.694134
O O2 0.222082 0.237417 0.534575
O O3 0.507427 0.032658 0.396181
O O4 0.643366 0.247068 0.513414
O O5 0.000000 0.103197 0.750000
O O6 0.757525 0.092317 0.701220
O O7 0.811769 0.118223 0.248028
O O8 0.000000 0.000000 0.500000
O O9 0.743762 0.367727 0.703993
O O10 0.558084 0.476264 0.460898
O O11 0.000000 0.389224 0.750000
O O12 0.254641 0.319410 0.366494
O O13 0.000000 0.830437 0.750000
#
# Coordination Sequence:
#
# PCOD9231659 Si02
#       6
#     2   4   4   4   4   4
#     4  10  22  36  68  94 124 160 212 266 312 372
#     4  10  23  43  64  88 126 172 206 258 324 376
#     4  11  24  39  64  91 125 161 218 263 315 374
#     4  10  20  40  68  90 129 173 202 254 323 380
#     4  10  21  41  65  94 128 163 212 258 316 377
#     4  10  21  39  61  91 122 161 210 261 318 370
#
# _framework density 20.504663000000001
#
# number of rings (size 3 to 8) (size 9 to 14) (size 15 to 20)
#    0.000    1.818    1.818    2.182    2.545    3.636 
#    0.000   13.636    0.000    0.000    0.000    0.000 
#    0.000    0.000    0.000    0.000    0.000    0.000 
#
# Total GULP energy -122652.890847 kJ/mol
# GULP energy per Si atom -5575.131402 kJ/mol
# Density = 2.045799 g / cm^3
# Si number density = 20.504663 Si / 1000 Ang^3
#
#
#
# Elastic Constant Matrix: (Units=GPa)
#
#
# Indices 1 2 3 4 5 6 
#
# 1 114.5921 25.4432 39.1251 0.0000 23.4847 0.0000
# 2 25.4432 104.1934 39.3052 0.0000 4.3127 0.0000
# 3 39.1251 39.3052 119.1739 0.0000 -8.5858 0.0000
# 4 0.0000 0.0000 0.0000 5.0335 0.0000 10.9696
# 5 23.4847 4.3127 -8.5858 0.0000 32.6225 0.0000
# 6 0.0000 0.0000 0.0000 10.9696 0.0000 28.3102
#
#
#
# Elastic Compliance Matrix: (Units=1/GPa)
#
#
# Indices 1 2 3 4 5 6 
#
# 1 0.012558 -0.000934 -0.004543 0.000000 -0.010112 0.000000
# 2 -0.000934 0.011226 -0.003521 0.000000 -0.001738 0.000000
# 3 -0.004543 -0.003521 0.011532 0.000000 0.006771 0.000000
# 4 0.000000 0.000000 0.000000 1.277088 0.000000 -0.494843
# 5 -0.010112 -0.001738 0.006771 0.000000 0.039945 0.000000
# 6 0.000000 0.000000 0.000000 -0.494843 0.000000 0.227063
#
#
# Mechanical properties :
#
#
# Convention : Reuss Voigt Hill
#
# Bulk Modulus (GPa) = 57.74118 60.63406 59.18762
# Shear Modulus (GPa) = 3.11880 28.79898 15.95889
#
# Velocity S-wave (km/s) = 1.23463 3.75174 2.79284
# Velocity P-wave (km/s) = 5.50033 6.95719 6.27121
#
# Compressibility (1/GPa) = 0.01731866
#
# Stress axis : x y z
#
# Youngs Moduli (GPa) = 79.63302 89.08033 86.71732
#
# Poissons Ratio (x) = 0.08321 0.39397
# Poissons Ratio (y) = 0.07438 0.30533
# Poissons Ratio (z) = 0.36179 0.31365
#
# Static dielectric constant tensor:
#      x y z
#    x 1.797970 0.000000 0.047480 
#    y 0.000000 1.760160 0.000000 
#    z 0.047480 0.000000 1.747160 
# 
# From -- ./inp_files/68604.got.cif
#   From: 2010.05.17/outbox.cif.g08.bks.cpg/sg13_35_cif.got.tgz:68604.got - 2010.06.03 16:44:36.
