data_PCOD9231129
_publ_section_title
;
Structure prediction by ZEFSAII (Michael W. Deem and Ramdas Pophale) SiO2 
 PCOD9231129
Probable space group: P 2/C
;
_chemical_formula_sum "Si O2"
_cell_formula_units_Z 24
_cell_length_a 12.463646
_cell_length_b 11.115477
_cell_length_c 11.327123
_cell_angle_alpha 90.000000
_cell_angle_beta 48.616537
_cell_angle_gamma 90.000000
_cell_volume 1177.413139
_symmetry_space_group_name_H-M "P 2/C"
_symmetry_group_IT_number 13
_symmetry_cell_setting 'monoclinic'
loop_
_space_group_symop_operation_xyz
x,y,z
-x,y,1/2-z
-x,-y,-z
x,-y,1/2+z
loop_
_atom_site_type_symbol
_atom_site_label
_atom_site_fract_x
_atom_site_fract_y
_atom_site_fract_z
Si Si1 0.230233 0.930649 0.349574
Si Si2 0.440535 0.133741 0.133266
Si Si3 0.412461 0.499175 0.438651
Si Si4 0.363734 0.763031 0.436442
Si Si5 0.294938 0.752194 0.959353
Si Si6 0.978857 0.882591 0.386266
O O1 0.255279 0.845466 0.442612
O O2 0.134148 0.857329 0.326257
O O3 0.373900 0.002371 0.208297
O O4 0.124250 0.040720 0.455465
O O5 0.608677 0.148342 0.040595
O O6 0.363200 0.228747 0.278875
O O7 0.404119 0.174435 0.029187
O O8 0.500000 0.496015 0.250000
O O9 0.500000 0.500000 0.500000
O O10 0.326131 0.624690 0.492941
O O11 0.325995 0.375305 0.495267
O O12 0.500000 0.757765 0.250000
O O13 0.126764 0.775065 0.072747
O O14 0.000000 0.955635 0.250000
#
# Coordination Sequence:
#
# PCOD9231129 Si02
#       6
#     4   4   4   4   4   4
#     4  10  23  39  56  88 121 165 203 243 310 366
#     4  10  20  40  62  87 123 161 199 249 317 368
#     4  11  20  38  61  93 126 156 204 263 312 356
#     4  11  24  34  60  96 124 152 203 266 300 357
#     4  10  20  38  65  86 115 171 200 242 316 364
#     4  10  22  38  58  80 122 165 201 247 299 373
#
# _framework density 20.383669000000001
#
# number of rings (size 3 to 8) (size 9 to 14) (size 15 to 20)
#    0.000    1.667    3.333    1.000    7.000    0.667 
#    0.000    0.833    0.000    5.000    0.000    0.000 
#    0.000    0.000    0.000    0.000    0.000    0.000 
#
# Total GULP energy -133735.170870 kJ/mol
# GULP energy per Si atom -5572.298786 kJ/mol
# Density = 2.033727 g / cm^3
# Si number density = 20.383669 Si / 1000 Ang^3
#
#
#
# Elastic Constant Matrix: (Units=GPa)
#
#
# Indices 1 2 3 4 5 6 
#
# 1 162.5858 72.0526 46.4727 0.0000 22.6646 0.0000
# 2 72.0526 133.0186 21.4167 0.0000 2.7551 0.0000
# 3 46.4727 21.4167 60.8267 0.0000 10.6440 0.0000
# 4 0.0000 0.0000 0.0000 15.5221 0.0000 12.1690
# 5 22.6646 2.7551 10.6440 0.0000 41.6142 0.0000
# 6 0.0000 0.0000 0.0000 12.1690 0.0000 26.7702
#
#
#
# Elastic Compliance Matrix: (Units=1/GPa)
#
#
# Indices 1 2 3 4 5 6 
#
# 1 0.010339 -0.004619 -0.005591 0.000000 -0.003895 0.000000
# 2 -0.004619 0.010035 -0.000343 0.000000 0.001939 0.000000
# 3 -0.005591 -0.000343 0.021247 0.000000 -0.002367 0.000000
# 4 0.000000 0.000000 0.000000 0.100096 0.000000 -0.045501
# 5 -0.003895 0.001939 -0.002367 0.000000 0.026629 0.000000
# 6 0.000000 0.000000 0.000000 -0.045501 0.000000 0.058038
#
#
# Mechanical properties :
#
#
# Convention : Reuss Voigt Hill
#
# Bulk Modulus (GPa) = 48.74907 70.70170 59.72538
# Shear Modulus (GPa) = 19.65959 31.21390 25.43675
#
# Velocity S-wave (km/s) = 3.10897 3.91745 3.53639
# Velocity P-wave (km/s) = 6.07086 7.43120 6.78520
#
# Compressibility (1/GPa) = 0.02051321
#
# Stress axis : x y z
#
# Youngs Moduli (GPa) = 96.72258 99.65051 47.06587
#
# Poissons Ratio (x) = 0.46033 0.26315
# Poissons Ratio (y) = 0.44680 0.01616
# Poissons Ratio (z) = 0.54078 0.03421
#
# Static dielectric constant tensor:
#      x y z
#    x 1.784140 0.000000 0.009080 
#    y 0.000000 1.759510 0.000000 
#    z 0.009080 0.000000 1.840350 
# 
# From -- ./inp_files/33134.got.cif
#   From: 2010.05.17/outbox.cif.g08.bks.cpg/sg13_17_cif.got.tgz:33134.got - 2010.06.03 16:44:36.
