data_PCOD9231784
_publ_section_title
;
Structure prediction by ZEFSAII (Michael W. Deem and Ramdas Pophale) SiO2 
 PCOD9231784
Probable space group: P 2/C
;
_chemical_formula_sum "Si O2"
_cell_formula_units_Z 30
_cell_length_a 13.410471
_cell_length_b 18.881058
_cell_length_c 5.552135
_cell_angle_alpha 90.000000
_cell_angle_beta 77.796811
_cell_angle_gamma 90.000000
_cell_volume 1374.056355
_symmetry_space_group_name_H-M "P 2/C"
_symmetry_group_IT_number 13
_symmetry_cell_setting 'monoclinic'
loop_
_space_group_symop_operation_xyz
x,y,z
-x,y,1/2-z
-x,-y,-z
x,-y,1/2+z
loop_
_atom_site_type_symbol
_atom_site_label
_atom_site_fract_x
_atom_site_fract_y
_atom_site_fract_z
Si Si1 0.500000 0.044309 0.250000
Si Si2 0.882651 0.473322 0.591961
Si Si3 0.150751 0.041182 0.827187
Si Si4 0.086930 0.811387 0.508771
Si Si5 0.612052 0.737119 0.160083
Si Si6 0.752454 0.766258 0.707882
Si Si7 0.175458 0.318089 0.715408
Si Si8 0.666915 0.873649 0.409548
O O1 0.402485 0.093616 0.346191
O O2 0.500000 0.000000 0.500000
O O3 0.837829 0.484900 0.346787
O O4 0.868721 0.392390 0.679720
O O5 0.000000 0.500000 0.500000
O O6 0.270075 0.065839 0.758889
O O7 0.131789 0.002877 0.581535
O O8 0.086278 0.113047 0.884072
O O9 0.191378 0.805748 0.606834
O O10 0.097360 0.742316 0.342011
O O11 0.000000 0.805748 0.750000
O O12 0.500000 0.705285 0.250000
O O13 0.709781 0.696310 0.231055
O O14 0.609054 0.816685 0.274569
O O15 0.642834 0.744658 0.865015
O O16 0.809457 0.697486 0.576039
O O17 0.748167 0.823355 0.500154
#
# Coordination Sequence:
#
# PCOD9231784 Si02
#       8
#     2   4   4   4   4   4   4   4
#     4  12  28  38  58  94 128 174 226 290 374 444
#     4  10  24  42  70 109 151 184 217 268 343 411
#     4  12  25  43  64  84 128 178 231 292 359 410
#     4  11  25  41  65  93 125 177 237 293 343 410
#     4  10  21  38  70  97 131 175 232 290 336 408
#     4  10  20  41  67  92 134 170 234 285 343 403
#     4  10  23  42  68 104 137 184 225 277 341 421
#     4  11  22  41  60  90 123 177 225 296 359 417
#
# _framework density 21.833165000000001
#
# number of rings (size 3 to 8) (size 9 to 14) (size 15 to 20)
#    0.000    1.333    4.000    2.400    8.400    3.733 
#    0.000    0.000    0.000    0.800    0.000    0.000 
#    0.000    0.000    0.000    0.000    0.000    0.000 
#
# Total GULP energy -167432.780290 kJ/mol
# GULP energy per Si atom -5581.092676 kJ/mol
# Density = 2.178347 g / cm^3
# Si number density = 21.833165 Si / 1000 Ang^3
#
#
#
# Elastic Constant Matrix: (Units=GPa)
#
#
# Indices 1 2 3 4 5 6 
#
# 1 76.5977 29.0289 24.0881 0.0000 -15.9778 0.0000
# 2 29.0289 146.1495 72.5820 0.0000 -12.8020 0.0000
# 3 24.0881 72.5820 161.0379 0.0000 -14.1799 0.0000
# 4 0.0000 0.0000 0.0000 37.9833 0.0000 -4.0038
# 5 -15.9778 -12.8020 -14.1799 0.0000 42.0703 0.0000
# 6 0.0000 0.0000 0.0000 -4.0038 0.0000 68.0113
#
#
#
# Elastic Compliance Matrix: (Units=1/GPa)
#
#
# Indices 1 2 3 4 5 6 
#
# 1 0.015148 -0.002155 -0.000872 0.000000 0.004803 0.000000
# 2 -0.002155 0.009201 -0.003762 0.000000 0.000713 0.000000
# 3 -0.000872 -0.003762 0.008147 0.000000 0.001270 0.000000
# 4 0.000000 0.000000 0.000000 0.026492 0.000000 0.001560
# 5 0.004803 0.000713 0.001270 0.000000 0.026239 0.000000
# 6 0.000000 0.000000 0.000000 0.001560 0.000000 0.014795
#
#
# Mechanical properties :
#
#
# Convention : Reuss Voigt Hill
#
# Bulk Modulus (GPa) = 52.85566 70.57593 61.71579
# Shear Modulus (GPa) = 41.69911 46.81872 44.25892
#
# Velocity S-wave (km/s) = 4.37498 4.63577 4.50726
# Velocity P-wave (km/s) = 7.05564 7.81340 7.44416
#
# Compressibility (1/GPa) = 0.01891945
#
# Stress axis : x y z
#
# Youngs Moduli (GPa) = 66.01520 108.68224 122.73736
#
# Poissons Ratio (x) = 0.23423 0.10697
# Poissons Ratio (y) = 0.14228 0.46172
# Poissons Ratio (z) = 0.05753 0.40885
#
# Static dielectric constant tensor:
#      x y z
#    x 1.474900 0.000000 -0.331270 
#    y 0.000000 1.808530 0.000000 
#    z -0.331270 0.000000 1.672370 
# 
# From -- ./inp_files/5348.got.cif
#   From: 2010.05.17/outbox.cif.g08.bks.cpg/sg13_3_cif.got.tgz:5348.got - 2010.06.03 16:44:36.
