data_PCOD9231005
_publ_section_title
;
Structure prediction by ZEFSAII (Michael W. Deem and Ramdas Pophale) SiO2 
 PCOD9231005
Probable space group: P 2/C
;
_chemical_formula_sum "Si O2"
_cell_formula_units_Z 22
_cell_length_a 13.350122
_cell_length_b 8.490613
_cell_length_c 16.637674
_cell_angle_alpha 90.000000
_cell_angle_beta 24.839416
_cell_angle_gamma 90.000000
_cell_volume 792.219004
_symmetry_space_group_name_H-M "P 2/C"
_symmetry_group_IT_number 13
_symmetry_cell_setting 'monoclinic'
loop_
_space_group_symop_operation_xyz
x,y,z
-x,y,1/2-z
-x,-y,-z
x,-y,1/2+z
loop_
_atom_site_type_symbol
_atom_site_label
_atom_site_fract_x
_atom_site_fract_y
_atom_site_fract_z
Si Si1 0.500000 0.618439 0.250000
Si Si2 0.000000 0.884501 0.750000
Si Si3 0.207104 0.289216 0.255187
Si Si4 0.020668 0.434363 0.640937
Si Si5 0.782402 0.160165 0.653770
Si Si6 0.500000 0.000000 0.500000
Si Si7 0.240336 0.105575 0.464140
O O1 0.266172 0.517066 0.435113
O O2 0.430838 0.730467 0.225796
O O3 0.212124 0.000065 0.566145
O O4 0.915642 0.783564 0.736581
O O5 0.195028 0.476716 0.248305
O O6 0.027334 0.256954 0.460180
O O7 0.438148 0.180689 0.088095
O O8 0.063260 0.249911 0.601290
O O9 0.000000 0.464377 0.750000
O O10 0.691651 0.082189 0.800823
O O11 0.812073 0.018986 0.567831
O O12 0.500000 0.165054 0.250000
#
# Coordination Sequence:
#
# PCOD9231005 Si02
#       7
#     2   2   4   4   4   2   4
#     4  10  20  38  62  90 116 156 210 252 296 360
#     4  10  20  38  62  90 116 156 210 252 296 360
#     4  10  22  37  62  88 120 157 207 253 301 368
#     4  11  20  34  57  92 125 155 196 256 314 358
#     4  10  22  37  62  88 120 157 207 253 301 368
#     4  12  22  40  62  88 122 164 206 260 312 354
#     4  11  20  34  57  92 125 155 196 256 314 358
#
# _framework density 27.770098000000001
#
# number of rings (size 3 to 8) (size 9 to 14) (size 15 to 20)
#    0.000    1.455    3.636    2.727    2.545    0.000 
#    0.000    0.909    0.000    8.727    0.000    0.000 
#    0.000    0.000    0.000    0.000    0.000    0.000 
#
# Total GULP energy -122837.517277 kJ/mol
# GULP energy per Si atom -5583.523513 kJ/mol
# Density = 2.770689 g / cm^3
# Si number density = 27.770098 Si / 1000 Ang^3
#
#
#
# Elastic Constant Matrix: (Units=GPa)
#
#
# Indices 1 2 3 4 5 6 
#
# 1 42.0979 6.5835 17.9111 0.0000 -4.1917 0.0000
# 2 6.5835 142.4468 34.6922 0.0000 -2.4324 0.0000
# 3 17.9111 34.6922 168.1440 0.0000 20.5194 0.0000
# 4 0.0000 0.0000 0.0000 60.1847 0.0000 -3.1843
# 5 -4.1917 -2.4324 20.5194 0.0000 39.9484 0.0000
# 6 0.0000 0.0000 0.0000 -3.1843 0.0000 39.4648
#
#
#
# Elastic Compliance Matrix: (Units=1/GPa)
#
#
# Indices 1 2 3 4 5 6 
#
# 1 0.025588 -0.000334 -0.003181 0.000000 0.004299 0.000000
# 2 -0.000334 0.007461 -0.001659 0.000000 0.001271 0.000000
# 3 -0.003181 -0.001659 0.007128 0.000000 -0.004096 0.000000
# 4 0.000000 0.000000 0.000000 0.016687 0.000000 0.001346
# 5 0.004299 0.001271 -0.004096 0.000000 0.027665 0.000000
# 6 0.000000 0.000000 0.000000 0.001346 0.000000 0.025448
#
#
# Mechanical properties :
#
#
# Convention : Reuss Voigt Hill
#
# Bulk Modulus (GPa) = 33.52517 52.34024 42.93271
# Shear Modulus (GPa) = 38.38211 47.48637 42.93424
#
# Velocity S-wave (km/s) = 3.72174 4.13968 3.93626
# Velocity P-wave (km/s) = 5.52875 6.46049 6.01269
#
# Compressibility (1/GPa) = 0.02982834
#
# Stress axis : x y z
#
# Youngs Moduli (GPa) = 39.08085 134.02364 140.28527
#
# Poissons Ratio (x) = 0.04482 0.44628
# Poissons Ratio (y) = 0.01307 0.23273
# Poissons Ratio (z) = 0.12433 0.22234
#
# Static dielectric constant tensor:
#      x y z
#    x 2.525760 0.000000 -0.104010 
#    y 0.000000 2.201470 0.000000 
#    z -0.104010 0.000000 2.066060 
# 
# From -- ./inp_files/81517.got.cif
#   From: 2010.05.17/outbox.cif.g08.bks.cpg/sg13_41_cif.got.tgz:81517.got - 2010.06.03 16:44:36.
