data_PCOD9231186
_publ_section_title
;
Structure prediction by ZEFSAII (Michael W. Deem and Ramdas Pophale) SiO2 
 PCOD9231186
Probable space group: P 2/C
;
_chemical_formula_sum "Si O2"
_cell_formula_units_Z 22
_cell_length_a 8.925927
_cell_length_b 8.737524
_cell_length_c 27.982345
_cell_angle_alpha 90.000000
_cell_angle_beta 148.396803
_cell_angle_gamma 90.000000
_cell_volume 1143.628085
_symmetry_space_group_name_H-M "P 2/C"
_symmetry_group_IT_number 13
_symmetry_cell_setting 'monoclinic'
loop_
_space_group_symop_operation_xyz
x,y,z
-x,y,1/2-z
-x,-y,-z
x,-y,1/2+z
loop_
_atom_site_type_symbol
_atom_site_label
_atom_site_fract_x
_atom_site_fract_y
_atom_site_fract_z
Si Si1 0.702846 0.932486 0.938997
Si Si2 0.267933 0.810246 0.357306
Si Si3 0.277719 0.544794 0.011986
Si Si4 0.668545 0.638500 0.874395
Si Si5 0.896681 0.743759 0.084010
Si Si6 0.500000 0.581160 0.250000
O O1 0.589068 0.809459 0.868921
O O2 0.466517 0.057221 0.888958
O O3 0.793394 0.845531 0.011935
O O4 0.000000 0.000000 0.000000
O O5 0.464984 0.661406 0.416034
O O6 0.157071 0.831936 0.381310
O O7 0.000000 0.784864 0.250000
O O8 0.291195 0.450678 0.065048
O O9 0.267998 0.418311 0.967782
O O10 0.976577 0.635950 0.931609
O O11 0.469604 0.533800 0.786876
O O12 0.225150 0.688766 0.168716
#
# Coordination Sequence:
#
# PCOD9231186 Si02
#       6
#     4   4   4   4   4   2
#     4  11  23  42  63  86 130 177 199 246 322 390
#     4  12  24  39  61  97 128 163 206 266 317 368
#     4   9  18  37  64  86 120 161 212 251 309 364
#     4   9  18  37  62  91 117 161 210 253 302 371
#     4  10  23  40  66  91 125 165 214 257 313 373
#     4  10  20  38  68 100 118 156 226 270 300 360
#
# _framework density 19.237024000000002
#
# number of rings (size 3 to 8) (size 9 to 14) (size 15 to 20)
#    0.000    1.818    1.818    3.273    2.545    0.000 
#    3.273    9.091    0.000    0.000    0.000    0.000 
#    0.000    0.000    0.000    0.000    0.000    0.000 
#
# Total GULP energy -122669.293638 kJ/mol
# GULP energy per Si atom -5575.876984 kJ/mol
# Density = 1.919324 g / cm^3
# Si number density = 19.237024 Si / 1000 Ang^3
#
#
#
# Elastic Constant Matrix: (Units=GPa)
#
#
# Indices 1 2 3 4 5 6 
#
# 1 68.2209 23.4725 7.3351 0.0000 -2.5952 0.0000
# 2 23.4725 69.5337 18.2521 0.0000 18.6626 0.0000
# 3 7.3351 18.2521 78.1340 0.0000 11.6368 0.0000
# 4 0.0000 0.0000 0.0000 -43.1144 0.0000 -45.4427
# 5 -2.5952 18.6626 11.6368 0.0000 24.9215 0.0000
# 6 0.0000 0.0000 0.0000 -45.4427 0.0000 -1.9449
#
#
#
# Elastic Compliance Matrix: (Units=1/GPa)
#
#
# Indices 1 2 3 4 5 6 
#
# 1 0.017833 -0.007978 -0.001050 0.000000 0.008321 0.000000
# 2 -0.007978 0.021983 -0.001946 0.000000 -0.016384 0.000000
# 3 -0.001050 -0.001946 0.014134 0.000000 -0.005252 0.000000
# 4 0.000000 0.000000 0.000000 0.000982 0.000000 -0.022937
# 5 0.008321 -0.016384 -0.005252 0.000000 0.055714 0.000000
# 6 0.000000 0.000000 0.000000 -0.022937 0.000000 0.021762
#
#
# Mechanical properties :
#
#
# Convention : Reuss Voigt Hill
#
# Bulk Modulus (GPa) = 31.24800 34.88978 33.06889
# Shear Modulus (GPa) = 30.29916 7.09435 18.69676
#
# Velocity S-wave (km/s) = 3.97299 1.92246 3.12094
# Velocity P-wave (km/s) = 6.10943 4.80666 5.49678
#
# Compressibility (1/GPa) = 0.03200205
#
# Stress axis : x y z
#
# Youngs Moduli (GPa) = 56.07738 45.49023 70.75223
#
# Poissons Ratio (x) = 0.36290 0.07428
# Poissons Ratio (y) = 0.44736 0.13769
# Poissons Ratio (z) = 0.05887 0.08853
#
# Static dielectric constant tensor:
#      x y z
#    x 1.733500 0.000000 0.010360 
#    y 0.000000 1.680810 0.000000 
#    z 0.010360 0.000000 1.656430 
# 
# From -- ./inp_files/63030.got.cif
#   From: 2010.05.17/outbox.cif.g08.bks.cpg/sg13_32_cif.got.tgz:63030.got - 2010.06.03 16:44:36.
