data_PCOD9231300
_publ_section_title
;
Structure prediction by ZEFSAII (Michael W. Deem and Ramdas Pophale) SiO2 
 PCOD9231300
Probable space group: P 2/C
;
_chemical_formula_sum "Si O2"
_cell_formula_units_Z 22
_cell_length_a 10.495842
_cell_length_b 6.933158
_cell_length_c 14.793386
_cell_angle_alpha 90.000000
_cell_angle_beta 81.195417
_cell_angle_gamma 90.000000
_cell_volume 1063.819421
_symmetry_space_group_name_H-M "P 2/C"
_symmetry_group_IT_number 13
_symmetry_cell_setting 'monoclinic'
loop_
_space_group_symop_operation_xyz
x,y,z
-x,y,1/2-z
-x,-y,-z
x,-y,1/2+z
loop_
_atom_site_type_symbol
_atom_site_label
_atom_site_fract_x
_atom_site_fract_y
_atom_site_fract_z
Si Si1 0.664770 0.825486 0.032990
Si Si2 0.000000 0.554001 0.750000
Si Si3 0.474657 0.432356 0.651343
Si Si4 0.117130 0.466043 0.919208
Si Si5 0.263831 0.276829 0.169187
Si Si6 0.326574 0.219234 0.362269
O O1 0.533943 0.709728 0.071335
O O2 0.783068 0.698587 0.060884
O O3 0.657821 0.029401 0.081902
O O4 0.692745 0.836013 0.923900
O O5 0.937094 0.433021 0.675683
O O6 0.887953 0.685545 0.805706
O O7 0.500000 0.352790 0.750000
O O8 0.330280 0.509642 0.655891
O O9 0.558301 0.628807 0.638029
O O10 0.199503 0.662661 0.904398
O O11 0.000000 0.500000 0.000000
O O12 0.312603 0.181835 0.256663
#
# Coordination Sequence:
#
# PCOD9231300 Si02
#       6
#     4   2   4   4   4   4
#     4  11  21  39  65  91 115 161 204 246 304 366
#     4  10  20  40  60  86 124 156 196 254 292 348
#     4   9  20  39  62  88 121 158 197 247 305 359
#     4  10  20  40  61  85 119 160 199 246 299 359
#     4  10  20  39  62  86 125 162 195 249 305 351
#     4   9  22  39  57  90 123 150 201 256 296 348
#
# _framework density 20.680199999999999
#
# number of rings (size 3 to 8) (size 9 to 14) (size 15 to 20)
#    0.000    2.182    1.818    1.636    0.000    3.636 
#    3.273    4.545    0.000    0.000    0.000    0.000 
#    0.000    0.000    0.000    0.000    0.000    0.000 
#
# Total GULP energy -122963.104385 kJ/mol
# GULP energy per Si atom -5589.232018 kJ/mol
# Density = 2.063313 g / cm^3
# Si number density = 20.680200 Si / 1000 Ang^3
#
#
#
# Elastic Constant Matrix: (Units=GPa)
#
#
# Indices 1 2 3 4 5 6 
#
# 1 85.6171 18.1250 32.2617 0.0000 -23.5072 0.0000
# 2 18.1250 66.3987 54.6285 0.0000 -2.0701 0.0000
# 3 32.2617 54.6285 154.6395 0.0000 -18.4397 0.0000
# 4 0.0000 0.0000 0.0000 14.6545 0.0000 5.7514
# 5 -23.5072 -2.0701 -18.4397 0.0000 38.6177 0.0000
# 6 0.0000 0.0000 0.0000 5.7514 0.0000 5.5052
#
#
#
# Elastic Compliance Matrix: (Units=1/GPa)
#
#
# Indices 1 2 3 4 5 6 
#
# 1 0.015041 -0.002949 -0.001085 0.000000 0.008480 0.000000
# 2 -0.002949 0.022057 -0.007687 0.000000 -0.004283 0.000000
# 3 -0.001085 -0.007687 0.009841 0.000000 0.003626 0.000000
# 4 0.000000 0.000000 0.000000 0.115661 0.000000 -0.120834
# 5 0.008480 -0.004283 0.003626 0.000000 0.032558 0.000000
# 6 0.000000 0.000000 0.000000 -0.120834 0.000000 0.307886
#
#
# Mechanical properties :
#
#
# Convention : Reuss Voigt Hill
#
# Bulk Modulus (GPa) = 42.55949 57.40953 49.98451
# Shear Modulus (GPa) = 9.35771 25.19816 17.27794
#
# Velocity S-wave (km/s) = 2.12950 3.49444 2.89361
# Velocity P-wave (km/s) = 5.16439 6.64096 5.94867
#
# Compressibility (1/GPa) = 0.02349652
#
# Stress axis : x y z
#
# Youngs Moduli (GPa) = 66.48398 45.33804 101.61423
#
# Poissons Ratio (x) = 0.13368 0.11027
# Poissons Ratio (y) = 0.19604 0.78114
# Poissons Ratio (z) = 0.07215 0.34853
#
# Static dielectric constant tensor:
#      x y z
#    x 1.790250 0.000000 0.022970 
#    y 0.000000 1.687980 0.000000 
#    z 0.022970 0.000000 1.774800 
# 
# From -- ./inp_files/48865.got.cif
#   From: 2010.05.17/outbox.cif.g08.bks.cpg/sg13_25_cif.got.tgz:48865.got - 2010.06.03 16:44:36.
