data_PCOD9231754
_publ_section_title
;
Structure prediction by ZEFSAII (Michael W. Deem and Ramdas Pophale) SiO2 
 PCOD9231754
Probable space group: P 2/C
;
_chemical_formula_sum "Si O2"
_cell_formula_units_Z 30
_cell_length_a 14.360547
_cell_length_b 5.171027
_cell_length_c 23.820531
_cell_angle_alpha 90.000000
_cell_angle_beta 49.826003
_cell_angle_gamma 90.000000
_cell_volume 1351.584204
_symmetry_space_group_name_H-M "P 2/C"
_symmetry_group_IT_number 13
_symmetry_cell_setting 'monoclinic'
loop_
_space_group_symop_operation_xyz
x,y,z
-x,y,1/2-z
-x,-y,-z
x,-y,1/2+z
loop_
_atom_site_type_symbol
_atom_site_label
_atom_site_fract_x
_atom_site_fract_y
_atom_site_fract_z
Si Si1 0.613465 0.598361 0.489779
Si Si2 0.849158 0.252625 0.519635
Si Si3 0.007440 0.843025 0.313035
Si Si4 0.723372 0.954060 0.660630
Si Si5 0.365474 0.600298 0.889667
Si Si6 0.500000 0.233106 0.750000
Si Si7 0.750617 0.091206 0.443972
Si Si8 0.915099 0.673311 0.649786
O O1 0.500000 0.500000 0.500000
O O2 0.586636 0.596460 0.566486
O O3 0.648802 0.892418 0.463500
O O4 0.721798 0.386093 0.438133
O O5 0.778285 0.523202 0.551215
O O6 0.980080 0.284798 0.439251
O O7 0.830047 0.118250 0.587583
O O8 0.768494 0.102361 0.504275
O O9 0.873472 0.954586 0.377225
O O10 0.000000 0.781489 0.250000
O O11 0.051196 0.594152 0.332073
O O12 0.083702 0.091674 0.305285
O O13 0.634389 0.859896 0.645411
O O14 0.786555 0.719229 0.668811
O O15 0.619998 0.107404 0.734026
O O16 0.435716 0.402962 0.822992
#
# Coordination Sequence:
#
# PCOD9231754 Si02
#       8
#     4   4   4   4   4   2   4   4
#     4  11  22  40  67  98 125 167 229 276 317 384
#     4   9  20  37  65  95 129 162 207 271 345 383
#     4  11  24  46  66  91 135 179 213 266 336 398
#     4  11  22  41  64  94 132 169 219 269 333 397
#     4  10  21  40  64  88 134 177 211 270 342 389
#     4  10  24  42  60  86 134 186 210 260 334 400
#     4  10  20  41  64  93 127 167 210 269 332 379
#     4  11  25  39  70 102 128 164 227 274 324 404
#
# _framework density 22.196173000000002
#
# number of rings (size 3 to 8) (size 9 to 14) (size 15 to 20)
#    0.000    1.600    1.333    4.000    5.600    0.533 
#    2.400    1.333    0.000    0.000    0.000    0.000 
#    0.000    0.000    0.000    0.000    0.000    0.000 
#
# Total GULP energy -167187.296958 kJ/mol
# GULP energy per Si atom -5572.909899 kJ/mol
# Density = 2.214565 g / cm^3
# Si number density = 22.196173 Si / 1000 Ang^3
#
#
#
# Elastic Constant Matrix: (Units=GPa)
#
#
# Indices 1 2 3 4 5 6 
#
# 1 70.7850 7.7418 15.1530 0.0000 8.6595 0.0000
# 2 7.7418 94.5424 13.4220 0.0000 1.1345 0.0000
# 3 15.1530 13.4220 36.6819 0.0000 -1.4135 0.0000
# 4 0.0000 0.0000 0.0000 2967.6715 0.0000 1402.7831
# 5 8.6595 1.1345 -1.4135 0.0000 20.4080 0.0000
# 6 0.0000 0.0000 0.0000 1402.7831 0.0000 694.3762
#
#
#
# Elastic Compliance Matrix: (Units=1/GPa)
#
#
# Indices 1 2 3 4 5 6 
#
# 1 0.016583 -0.000268 -0.007041 0.000000 -0.007509 0.000000
# 2 -0.000268 0.011178 -0.004010 0.000000 -0.000785 0.000000
# 3 -0.007041 -0.004010 0.031846 0.000000 0.005416 0.000000
# 4 0.000000 0.000000 0.000000 0.007476 0.000000 -0.015103
# 5 -0.007509 -0.000785 0.005416 0.000000 0.052605 0.000000
# 6 0.000000 0.000000 0.000000 -0.015103 0.000000 0.031952
#
#
# Mechanical properties :
#
#
# Convention : Reuss Voigt Hill
#
# Bulk Modulus (GPa) = 27.05015 30.51589 28.78302
# Shear Modulus (GPa) = 26.79521 747.53730 387.16626
#
# Velocity S-wave (km/s) = 3.47825 18.37165 13.22150
# Velocity P-wave (km/s) = 5.32393 21.53606 15.68671
#
# Compressibility (1/GPa) = 0.03696837
#
# Stress axis : x y z
#
# Youngs Moduli (GPa) = 60.30414 89.46248 31.40114
#
# Poissons Ratio (x) = 0.02399 0.22111
# Poissons Ratio (y) = 0.01617 0.12590
# Poissons Ratio (z) = 0.42462 0.35870
#
# Static dielectric constant tensor:
#      x y z
#    x 1.868400 0.000000 -0.009790 
#    y 0.000000 1.914160 0.000000 
#    z -0.009790 0.000000 1.975060 
# 
# From -- ./inp_files/86984.got.cif
#   From: 2010.05.17/outbox.cif.g08.bks.cpg/sg13_44_cif.got.tgz:86984.got - 2010.06.03 16:44:36.
