data_PCOD9231898
_publ_section_title
;
Structure prediction by ZEFSAII (Michael W. Deem and Ramdas Pophale) SiO2 
 PCOD9231898
Probable space group: P 2/C
;
_chemical_formula_sum "Si O2"
_cell_formula_units_Z 28
_cell_length_a 14.772948
_cell_length_b 13.063258
_cell_length_c 14.057201
_cell_angle_alpha 90.000000
_cell_angle_beta 150.141665
_cell_angle_gamma 90.000000
_cell_volume 1350.586261
_symmetry_space_group_name_H-M "P 2/C"
_symmetry_group_IT_number 13
_symmetry_cell_setting 'monoclinic'
loop_
_space_group_symop_operation_xyz
x,y,z
-x,y,1/2-z
-x,-y,-z
x,-y,1/2+z
loop_
_atom_site_type_symbol
_atom_site_label
_atom_site_fract_x
_atom_site_fract_y
_atom_site_fract_z
Si Si1 0.879295 0.164936 0.946471
Si Si2 0.156095 0.278156 0.310973
Si Si3 0.537837 0.722822 0.896853
Si Si4 0.339595 0.059770 0.910321
Si Si5 0.803955 0.630783 0.282597
Si Si6 0.306462 0.095508 0.537065
Si Si7 0.221127 0.592828 0.703212
O O1 0.821880 0.095194 0.806743
O O2 0.777068 0.272567 0.828953
O O3 0.818724 0.107489 0.986044
O O4 0.077396 0.206179 0.153842
O O5 0.313570 0.209515 0.499118
O O6 0.204554 0.380827 0.300764
O O7 0.000000 0.290830 0.250000
O O8 0.500000 0.718118 0.750000
O O9 0.571550 0.839567 0.961041
O O10 0.367381 0.668722 0.792336
O O11 0.711550 0.661705 0.098895
O O12 0.253751 0.986050 0.910710
O O13 0.500000 0.000000 0.000000
O O14 0.726437 0.526116 0.255443
O O15 0.021414 0.610895 0.475414
O O16 0.500000 0.061929 0.750000
#
# Coordination Sequence:
#
# PCOD9231898 Si02
#       7
#     4   4   4   4   4   4   4
#     4   9  20  38  58  83 120 150 200 260 296 363
#     4   9  20  38  59  92 121 153 209 257 302 365
#     4  11  24  40  59  96 132 159 210 256 308 378
#     4  11  21  36  61  84 116 164 204 250 309 370
#     4   9  21  42  65  90 123 163 212 248 313 372
#     4  11  20  34  57  87 112 157 200 244 308 362
#     4  10  20  42  68  88 125 171 198 257 314 363
#
# _framework density 20.731738
#
# number of rings (size 3 to 8) (size 9 to 14) (size 15 to 20)
#    0.000    2.000    1.429    1.714    2.000    1.143 
#   10.286    1.429    6.286    0.000    0.000    0.000 
#    0.000    0.000    0.000    0.000    0.000    0.000 
#
# Total GULP energy -156107.559583 kJ/mol
# GULP energy per Si atom -5575.269985 kJ/mol
# Density = 2.068455 g / cm^3
# Si number density = 20.731738 Si / 1000 Ang^3
#
#
#
# Elastic Constant Matrix: (Units=GPa)
#
#
# Indices 1 2 3 4 5 6 
#
# 1 65.4510 52.7821 32.1120 0.0000 -27.8854 0.0000
# 2 52.7821 103.5929 31.1429 0.0000 -13.0182 0.0000
# 3 32.1120 31.1429 88.2612 0.0000 -27.9751 0.0000
# 4 0.0000 0.0000 0.0000 36.3008 0.0000 3.1056
# 5 -27.8854 -13.0182 -27.9751 0.0000 25.6334 0.0000
# 6 0.0000 0.0000 0.0000 3.1056 0.0000 21.3489
#
#
#
# Elastic Compliance Matrix: (Units=1/GPa)
#
#
# Indices 1 2 3 4 5 6 
#
# 1 0.051899 -0.021506 0.004799 0.000000 0.050774 0.000000
# 2 -0.021506 0.019779 -0.005177 0.000000 -0.018999 0.000000
# 3 0.004799 -0.005177 0.018701 0.000000 0.023001 0.000000
# 4 0.000000 0.000000 0.000000 0.027895 0.000000 -0.004058
# 5 0.050774 -0.018999 0.023001 0.000000 0.109700 0.000000
# 6 0.000000 0.000000 0.000000 -0.004058 0.000000 0.047431
#
#
# Mechanical properties :
#
#
# Convention : Reuss Voigt Hill
#
# Bulk Modulus (GPa) = 21.45321 54.37546 37.91434
# Shear Modulus (GPa) = 14.93834 26.07449 20.50642
#
# Velocity S-wave (km/s) = 2.68723 3.55027 3.14846
# Velocity P-wave (km/s) = 4.47199 6.56437 5.61648
#
# Compressibility (1/GPa) = 0.04661306
#
# Stress axis : x y z
#
# Youngs Moduli (GPa) = 19.26808 50.55808 53.47331
#
# Poissons Ratio (x) = 1.08728 -0.25662
# Poissons Ratio (y) = 0.41437 0.27682
# Poissons Ratio (z) = -0.09247 0.26173
#
# Static dielectric constant tensor:
#      x y z
#    x 1.805110 0.000000 0.018120 
#    y 0.000000 1.790760 0.000000 
#    z 0.018120 0.000000 1.805300 
# 
# From -- ./inp_files/55540.got.cif
#   From: 2010.05.17/outbox.cif.g08.bks.cpg/sg13_28_cif.got.tgz:55540.got - 2010.06.03 16:44:36.
