data_PCOD9231958
_publ_section_title
;
Structure prediction by ZEFSAII (Michael W. Deem and Ramdas Pophale) SiO2 
 PCOD9231958
Probable space group: P 2/C
;
_chemical_formula_sum "Si O2"
_cell_formula_units_Z 20
_cell_length_a 7.428234
_cell_length_b 15.182383
_cell_length_c 7.736349
_cell_angle_alpha 90.000000
_cell_angle_beta 61.914071
_cell_angle_gamma 90.000000
_cell_volume 769.749745
_symmetry_space_group_name_H-M "P 2/C"
_symmetry_group_IT_number 13
_symmetry_cell_setting 'monoclinic'
loop_
_space_group_symop_operation_xyz
x,y,z
-x,y,1/2-z
-x,-y,-z
x,-y,1/2+z
loop_
_atom_site_type_symbol
_atom_site_label
_atom_site_fract_x
_atom_site_fract_y
_atom_site_fract_z
Si Si1 0.658560 0.387903 0.416271
Si Si2 0.500000 0.757987 0.750000
Si Si3 0.000000 0.168219 0.250000
Si Si4 0.851369 0.868574 0.479426
Si Si5 0.208022 0.427795 0.760728
Si Si6 0.344945 0.949112 0.452449
O O1 0.645602 0.301514 0.305714
O O2 0.417564 0.401573 0.567793
O O3 0.771398 0.391378 0.552141
O O4 0.760085 0.465811 0.256831
O O5 0.637720 0.818113 0.563021
O O6 0.029691 0.192854 0.435617
O O7 0.793974 0.113553 0.374243
O O8 0.000000 0.874173 0.250000
O O9 0.795700 0.970201 0.553648
O O10 0.000000 0.406321 0.750000
O O11 0.500000 0.903106 0.250000
O O12 0.500000 0.000000 0.500000
#
# Coordination Sequence:
#
# PCOD9231958 Si02
#       6
#     4   2   2   4   4   4
#     4  10  22  40  69 105 145 183 242 302 353 439
#     4  12  26  50  62  96 156 200 232 292 372 436
#     4  12  24  46  72 112 136 174 254 310 354 432
#     4  12  26  47  69 100 145 189 241 295 360 449
#     4  10  20  42  74 110 136 180 248 308 360 413
#     4  12  21  39  75 105 132 177 230 303 373 413
#
# _framework density 25.982468999999998
#
# number of rings (size 3 to 8) (size 9 to 14) (size 15 to 20)
#    0.000    0.800    4.000    4.800    0.000    0.800 
#   12.600    2.000    0.000    0.000    0.000    0.000 
#    0.000    0.000    0.000    0.000    0.000    0.000 
#
# Total GULP energy -111624.121578 kJ/mol
# GULP energy per Si atom -5581.206079 kJ/mol
# Density = 2.592333 g / cm^3
# Si number density = 25.982469 Si / 1000 Ang^3
#
#
#
# Elastic Constant Matrix: (Units=GPa)
#
#
# Indices 1 2 3 4 5 6 
#
# 1 183.4367 12.4231 34.6440 0.0000 -3.3491 0.0000
# 2 12.4231 42.4514 7.3729 0.0000 -5.3313 0.0000
# 3 34.6440 7.3729 136.4537 0.0000 -13.6288 0.0000
# 4 0.0000 0.0000 0.0000 20.8975 0.0000 -0.3839
# 5 -3.3491 -5.3313 -13.6288 0.0000 49.9971 0.0000
# 6 0.0000 0.0000 0.0000 -0.3839 0.0000 52.1341
#
#
#
# Elastic Compliance Matrix: (Units=1/GPa)
#
#
# Indices 1 2 3 4 5 6 
#
# 1 0.005815 -0.001476 -0.001412 0.000000 -0.000153 0.000000
# 2 -0.001476 0.024402 -0.000713 0.000000 0.002309 0.000000
# 3 -0.001412 -0.000713 0.007924 0.000000 0.001989 0.000000
# 4 0.000000 0.000000 0.000000 0.047859 0.000000 0.000352
# 5 -0.000153 0.002309 0.001989 0.000000 0.020779 0.000000
# 6 0.000000 0.000000 0.000000 0.000352 0.000000 0.019184
#
#
# Mechanical properties :
#
#
# Convention : Reuss Voigt Hill
#
# Bulk Modulus (GPa) = 32.32094 52.35798 42.33946
# Shear Modulus (GPa) = 34.84831 45.13253 39.99042
#
# Velocity S-wave (km/s) = 3.66625 4.17230 3.92743
# Velocity P-wave (km/s) = 5.51256 6.58831 6.07430
#
# Compressibility (1/GPa) = 0.03093970
#
# Stress axis : x y z
#
# Youngs Moduli (GPa) = 171.96046 40.98016 126.19551
#
# Poissons Ratio (x) = 0.06048 0.17818
# Poissons Ratio (y) = 0.25377 0.09001
# Poissons Ratio (z) = 0.24280 0.02923
#
# Static dielectric constant tensor:
#      x y z
#    x 2.176490 0.000000 0.058600 
#    y 0.000000 2.127360 0.000000 
#    z 0.058600 0.000000 2.179520 
# 
# From -- ./inp_files/13046.got.cif
#   From: 2010.05.17/outbox.cif.g08.bks.cpg/sg13_7_cif.got.tgz:13046.got - 2010.06.03 16:44:36.
