data_PCOD9231357
_publ_section_title
;
Structure prediction by ZEFSAII (Michael W. Deem and Ramdas Pophale) SiO2 
 PCOD9231357
Probable space group: P 2/C
;
_chemical_formula_sum "Si O2"
_cell_formula_units_Z 26
_cell_length_a 14.290533
_cell_length_b 14.361099
_cell_length_c 8.945806
_cell_angle_alpha 90.000000
_cell_angle_beta 35.452294
_cell_angle_gamma 90.000000
_cell_volume 1064.883792
_symmetry_space_group_name_H-M "P 2/C"
_symmetry_group_IT_number 13
_symmetry_cell_setting 'monoclinic'
loop_
_space_group_symop_operation_xyz
x,y,z
-x,y,1/2-z
-x,-y,-z
x,-y,1/2+z
loop_
_atom_site_type_symbol
_atom_site_label
_atom_site_fract_x
_atom_site_fract_y
_atom_site_fract_z
Si Si1 0.293196 0.940826 0.763402
Si Si2 0.175235 0.144378 0.943826
Si Si3 0.700442 0.418765 0.269731
Si Si4 0.500000 0.445153 0.250000
Si Si5 0.500000 0.969023 0.750000
Si Si6 0.000818 0.199544 0.586625
Si Si7 0.000000 0.483228 0.250000
Si Si8 0.200887 0.687662 0.608679
O O1 0.412341 0.906691 0.738015
O O2 0.137676 0.879001 0.932764
O O3 0.249413 0.044423 0.875083
O O4 0.386466 0.961915 0.491259
O O5 0.251954 0.235964 0.920828
O O6 0.000000 0.136154 0.250000
O O7 0.152683 0.153529 0.793609
O O8 0.623814 0.398690 0.206738
O O9 0.607637 0.496458 0.490261
O O10 0.682343 0.331120 0.404336
O O11 0.886414 0.452580 0.003222
O O12 0.048490 0.270928 0.395834
O O13 0.000000 0.245106 0.750000
O O14 0.138709 0.410778 0.126694
#
# Coordination Sequence:
#
# PCOD9231357 Si02
#       8
#     4   4   4   2   2   4   2   4
#     4  11  21  39  62  89 121 177 215 267 336 386
#     4  10  20  39  64  91 129 158 211 279 336 393
#     4  11  24  44  72 102 138 189 223 278 346 418
#     4  10  24  44  68 100 146 182 226 278 336 432
#     4  10  22  36  60  82 122 168 234 254 292 422
#     4  11  22  36  62  97 132 156 215 284 336 389
#     4  12  22  44  76 102 132 180 228 274 350 406
#     4  11  23  41  64 104 131 169 221 281 332 397
#
# _framework density 24.415807999999998
#
# number of rings (size 3 to 8) (size 9 to 14) (size 15 to 20)
#    0.000    1.231    3.846    4.154    1.077    0.000 
#    0.000    5.385    0.000    0.000    0.000    0.000 
#    0.000    0.000    0.000    0.000    0.000    0.000 
#
# Total GULP energy -144941.796257 kJ/mol
# GULP energy per Si atom -5574.684471 kJ/mol
# Density = 2.436024 g / cm^3
# Si number density = 24.415808 Si / 1000 Ang^3
#
#
#
# Elastic Constant Matrix: (Units=GPa)
#
#
# Indices 1 2 3 4 5 6 
#
# 1 144.7369 32.8652 3.5494 0.0000 28.7456 0.0000
# 2 32.8652 76.1670 19.4921 0.0000 1.0951 0.0000
# 3 3.5494 19.4921 92.2946 0.0000 22.1816 0.0000
# 4 0.0000 0.0000 0.0000 -1.7780 0.0000 -264.5605
# 5 28.7456 1.0951 22.1816 0.0000 29.5370 0.0000
# 6 0.0000 0.0000 0.0000 -264.5605 0.0000**********
#
#
#
# Elastic Compliance Matrix: (Units=1/GPa)
#
#
# Indices 1 2 3 4 5 6 
#
# 1 0.010629 -0.005388 0.003865 0.000000 -0.013046 0.000000
# 2 -0.005388 0.016713 -0.005410 0.000000 0.008687 0.000000
# 3 0.003865 -0.005410 0.015478 0.000000 -0.015184 0.000000
# 4 0.000000 0.000000 0.000000 0.452422 0.000000 -0.006820
# 5 -0.013046 0.008687 -0.015184 0.000000 0.057634 0.000000
# 6 0.000000 0.000000 0.000000 -0.006820 0.000000 0.000046
#
#
# Mechanical properties :
#
#
# Convention : Reuss Voigt Hill
#
# Bulk Modulus (GPa) = 34.53781 47.22353 40.88067
# Shear Modulus (GPa) = 8.67394 -3487.15455 -1739.24031
#
# Velocity S-wave (km/s) = 1.88688 -37.83301 -26.71869
# Velocity P-wave (km/s) = 4.35011 43.46339 30.57893
#
# Compressibility (1/GPa) = 0.02895377
#
# Stress axis : x y z
#
# Youngs Moduli (GPa) = 94.08415 59.83231 64.60731
#
# Poissons Ratio (x) = 0.32235 -0.24968
# Poissons Ratio (y) = 0.50689 0.34954
# Poissons Ratio (z) = -0.36360 0.32371
#
# Static dielectric constant tensor:
#      x y z
#    x 2.238070 0.000000 -0.084030 
#    y 0.000000 2.048040 0.000000 
#    z -0.084030 0.000000 1.987450 
# 
# From -- ./inp_files/19881.got.cif
#   From: 2010.05.17/outbox.cif.g08.bks.cpg/sg13_10_cif.got.tgz:19881.got - 2010.06.03 16:44:36.
