data_PCOD9231614
_publ_section_title
;
Structure prediction by ZEFSAII (Michael W. Deem and Ramdas Pophale) SiO2 
 PCOD9231614
Probable space group: P 2/C
;
_chemical_formula_sum "Si O2"
_cell_formula_units_Z 26
_cell_length_a 11.776925
_cell_length_b 13.548384
_cell_length_c 15.250728
_cell_angle_alpha 90.000000
_cell_angle_beta 33.250177
_cell_angle_gamma 90.000000
_cell_volume 1334.212212
_symmetry_space_group_name_H-M "P 2/C"
_symmetry_group_IT_number 13
_symmetry_cell_setting 'monoclinic'
loop_
_space_group_symop_operation_xyz
x,y,z
-x,y,1/2-z
-x,-y,-z
x,-y,1/2+z
loop_
_atom_site_type_symbol
_atom_site_label
_atom_site_fract_x
_atom_site_fract_y
_atom_site_fract_z
Si Si1 0.855133 0.218532 0.206707
Si Si2 0.065477 0.753276 0.305833
Si Si3 0.500000 0.316348 0.750000
Si Si4 0.075267 0.610976 0.460457
Si Si5 0.741004 0.106909 0.111749
Si Si6 0.489045 0.186649 0.933732
Si Si7 0.839442 0.061711 0.424185
O O1 0.782382 0.135092 0.184938
O O2 0.672352 0.234576 0.393726
O O3 0.055909 0.166907 0.120069
O O4 0.920563 0.317204 0.114201
O O5 0.094223 0.660184 0.351915
O O6 0.282230 0.812989 0.173275
O O7 0.000000 0.727008 0.250000
O O8 0.882553 0.818846 0.464457
O O9 0.705980 0.380539 0.630435
O O10 0.496113 0.247126 0.838385
O O11 0.000000 0.500000 0.500000
O O12 0.500000 0.121529 0.250000
O O13 0.805476 0.000109 0.033793
O O14 0.380947 0.082677 0.979097
O O15 0.000000 0.015368 0.250000
#
# Coordination Sequence:
#
# PCOD9231614 Si02
#       7
#     4   4   2   4   4   4   4
#     4  10  21  40  61  89 124 160 206 257 307 364
#     4  10  22  43  61  88 127 163 203 254 315 367
#     4  10  20  40  66  90 118 162 202 262 306 362
#     4  10  22  42  63  92 123 159 204 254 310 370
#     4  11  23  36  58  86 126 166 206 247 310 365
#     4  10  21  39  68  88 121 164 209 255 310 358
#     4  10  21  36  59  91 120 162 210 252 299 365
#
# _framework density 19.487155000000001
#
# number of rings (size 3 to 8) (size 9 to 14) (size 15 to 20)
#    0.000    1.846    1.538    1.846    1.077    1.231 
#   11.077    5.385    0.000    0.000    0.000    0.000 
#    0.000    0.000    0.000    0.000    0.000    0.000 
#
# Total GULP energy -145158.532368 kJ/mol
# GULP energy per Si atom -5583.020476 kJ/mol
# Density = 1.944280 g / cm^3
# Si number density = 19.487155 Si / 1000 Ang^3
#
#
#
# Elastic Constant Matrix: (Units=GPa)
#
#
# Indices 1 2 3 4 5 6 
#
# 1 118.8733 29.5965 53.9368 0.0000 -0.9828 0.0000
# 2 29.5965 69.5547 37.2726 0.0000 -7.2901 0.0000
# 3 53.9368 37.2726 117.6306 0.0000 -9.3501 0.0000
# 4 0.0000 0.0000 0.0000 17.4429 0.0000 -4.9060
# 5 -0.9828 -7.2901 -9.3501 0.0000 41.3333 0.0000
# 6 0.0000 0.0000 0.0000 -4.9060 0.0000 18.6608
#
#
#
# Elastic Compliance Matrix: (Units=1/GPa)
#
#
# Indices 1 2 3 4 5 6 
#
# 1 0.010991 -0.002467 -0.004350 0.000000 -0.001158 0.000000
# 2 -0.002467 0.018011 -0.004407 0.000000 0.002121 0.000000
# 3 -0.004350 -0.004407 0.012039 0.000000 0.001843 0.000000
# 4 0.000000 0.000000 0.000000 0.061908 0.000000 0.016276
# 5 -0.001158 0.002121 0.001843 0.000000 0.024957 0.000000
# 6 0.000000 0.000000 0.000000 0.016276 0.000000 0.057867
#
#
# Mechanical properties :
#
#
# Convention : Reuss Voigt Hill
#
# Bulk Modulus (GPa) = 53.78626 60.85227 57.31926
# Shear Modulus (GPa) = 23.31901 27.83759 25.57830
#
# Velocity S-wave (km/s) = 3.46299 3.78366 3.62687
# Velocity P-wave (km/s) = 6.60686 7.09808 6.85687
#
# Compressibility (1/GPa) = 0.01859211
#
# Stress axis : x y z
#
# Youngs Moduli (GPa) = 90.98647 55.52186 83.06605
#
# Poissons Ratio (x) = 0.13698 0.36132
# Poissons Ratio (y) = 0.22447 0.36609
# Poissons Ratio (z) = 0.39577 0.24469
#
# Static dielectric constant tensor:
#      x y z
#    x 1.728460 0.000000 0.000490 
#    y 0.000000 1.658970 0.000000 
#    z 0.000490 0.000000 1.705210 
# 
# From -- ./inp_files/51404.got.cif
#   From: 2010.05.17/outbox.cif.g08.bks.cpg/sg13_26_cif.got.tgz:51404.got - 2010.06.03 16:44:36.
