data_PCOD9231888
_publ_section_title
;
Structure prediction by ZEFSAII (Michael W. Deem and Ramdas Pophale) SiO2 
 PCOD9231888
Probable space group: P 2/C
;
_chemical_formula_sum "Si O2"
_cell_formula_units_Z 28
_cell_length_a 14.919173
_cell_length_b 7.052300
_cell_length_c 19.022447
_cell_angle_alpha 90.000000
_cell_angle_beta 144.301475
_cell_angle_gamma 90.000000
_cell_volume 1167.879094
_symmetry_space_group_name_H-M "P 2/C"
_symmetry_group_IT_number 13
_symmetry_cell_setting 'monoclinic'
loop_
_space_group_symop_operation_xyz
x,y,z
-x,y,1/2-z
-x,-y,-z
x,-y,1/2+z
loop_
_atom_site_type_symbol
_atom_site_label
_atom_site_fract_x
_atom_site_fract_y
_atom_site_fract_z
Si Si1 0.528753 0.756681 0.551614
Si Si2 0.783497 0.223428 0.557976
Si Si3 0.500000 0.707196 0.250000
Si Si4 0.828435 0.092908 0.195444
Si Si5 0.333743 0.926536 0.650737
Si Si6 0.000000 0.449453 0.250000
Si Si7 0.641807 0.596531 0.195526
Si Si8 0.133739 0.070115 0.637581
O O1 0.386222 0.759208 0.515020
O O2 0.648827 0.915712 0.603512
O O3 0.353563 0.387877 0.333395
O O4 0.542478 0.309091 0.568997
O O5 0.773944 0.186889 0.469270
O O6 0.885739 0.407438 0.637411
O O7 0.843141 0.037572 0.636528
O O8 0.554649 0.601962 0.215049
O O9 0.634720 0.857908 0.357285
O O10 0.909218 0.001680 0.313590
O O11 0.891394 0.302395 0.222076
O O12 0.500000 0.834018 0.750000
O O13 0.278545 0.961333 0.694065
O O14 0.799234 0.715875 0.309097
O O15 0.000000 0.000000 0.500000
#
# Coordination Sequence:
#
# PCOD9231888 Si02
#       8
#     4   4   2   4   4   2   4   4
#     4  11  23  42  79 111 138 183 261 309 370 429
#     4  12  25  48  81 103 154 194 247 317 367 446
#     4   8  18  38  64 102 148 180 232 288 378 430
#     4  12  27  48  76 104 146 196 252 309 370 449
#     4   9  21  41  72 106 139 188 243 294 373 437
#     4  12  30  46  70 114 146 194 258 294 382 450
#     4  10  20  42  67 109 142 184 237 311 356 445
#     4  11  25  44  71 101 147 200 240 295 384 448
#
# _framework density 23.975083000000001
#
# number of rings (size 3 to 8) (size 9 to 14) (size 15 to 20)
#    0.429    0.857    1.429    4.286    4.000    0.000 
#    6.429    1.429    0.000    0.000    0.000    0.000 
#    0.000    0.000    0.000    0.000    0.000    0.000 
#
# Total GULP energy -156242.740692 kJ/mol
# GULP energy per Si atom -5580.097882 kJ/mol
# Density = 2.392051 g / cm^3
# Si number density = 23.975083 Si / 1000 Ang^3
#
#
#
# Elastic Constant Matrix: (Units=GPa)
#
#
# Indices 1 2 3 4 5 6 
#
# 1 113.8590 21.8544 9.7962 0.0000 1.4327 0.0000
# 2 21.8544 90.9377 18.8657 0.0000 5.6412 0.0000
# 3 9.7962 18.8657 76.2584 0.0000 12.0612 0.0000
# 4 0.0000 0.0000 0.0000 27.9249 0.0000 0.9693
# 5 1.4327 5.6412 12.0612 0.0000 41.1324 0.0000
# 6 0.0000 0.0000 0.0000 0.9693 0.0000 33.1633
#
#
#
# Elastic Compliance Matrix: (Units=1/GPa)
#
#
# Indices 1 2 3 4 5 6 
#
# 1 0.009241 -0.002087 -0.000698 0.000000 0.000169 0.000000
# 2 -0.002087 0.012087 -0.002592 0.000000 -0.000825 0.000000
# 3 -0.000698 -0.002592 0.014454 0.000000 -0.003859 0.000000
# 4 0.000000 0.000000 0.000000 0.035847 0.000000 -0.001048
# 5 0.000169 -0.000825 -0.003859 0.000000 0.025550 0.000000
# 6 0.000000 0.000000 0.000000 -0.001048 0.000000 0.030184
#
#
# Mechanical properties :
#
#
# Convention : Reuss Voigt Hill
#
# Bulk Modulus (GPa) = 39.95101 42.45417 41.20259
# Shear Modulus (GPa) = 34.13918 35.81338 34.97628
#
# Velocity S-wave (km/s) = 3.77761 3.86913 3.82365
# Velocity P-wave (km/s) = 5.97720 6.14055 6.05942
#
# Compressibility (1/GPa) = 0.02503066
#
# Stress axis : x y z
#
# Youngs Moduli (GPa) = 108.21102 82.73461 69.18318
#
# Poissons Ratio (x) = 0.17264 0.04826
# Poissons Ratio (y) = 0.22579 0.17930
# Poissons Ratio (z) = 0.07549 0.21442
#
# Static dielectric constant tensor:
#      x y z
#    x 1.935030 0.000000 0.082730 
#    y 0.000000 1.970570 0.000000 
#    z 0.082730 0.000000 1.960420 
# 
# From -- ./inp_files/80910.got.cif
#   From: 2010.05.17/outbox.cif.g08.bks.cpg/sg13_41_cif.got.tgz:80910.got - 2010.06.03 16:44:36.
