data_PCOD9231810
_publ_section_title
;
Structure prediction by ZEFSAII (Michael W. Deem and Ramdas Pophale) SiO2 
 PCOD9231810
Probable space group: P 2/C
;
_chemical_formula_sum "Si O2"
_cell_formula_units_Z 28
_cell_length_a 8.764481
_cell_length_b 15.290538
_cell_length_c 11.692641
_cell_angle_alpha 90.000000
_cell_angle_beta 116.731787
_cell_angle_gamma 90.000000
_cell_volume 1399.498253
_symmetry_space_group_name_H-M "P 2/C"
_symmetry_group_IT_number 13
_symmetry_cell_setting 'monoclinic'
loop_
_space_group_symop_operation_xyz
x,y,z
-x,y,1/2-z
-x,-y,-z
x,-y,1/2+z
loop_
_atom_site_type_symbol
_atom_site_label
_atom_site_fract_x
_atom_site_fract_y
_atom_site_fract_z
Si Si1 0.581270 0.578404 0.653284
Si Si2 0.090101 0.895893 0.152445
Si Si3 0.991065 0.396523 0.977099
Si Si4 0.256495 0.412981 0.880918
Si Si5 0.699343 0.719164 0.297609
Si Si6 0.106158 0.909966 0.662700
Si Si7 0.166895 0.720660 0.726229
O O1 0.500000 0.570131 0.750000
O O2 0.724181 0.502849 0.683964
O O3 0.415247 0.573805 0.519012
O O4 0.676055 0.669876 0.665860
O O5 0.208088 0.811938 0.174293
O O6 0.000000 0.886568 0.250000
O O7 0.179442 0.991641 0.186106
O O8 0.983212 0.899660 0.994545
O O9 0.806500 0.349179 0.913880
O O10 0.082017 0.394064 0.886050
O O11 0.000000 0.500000 0.000000
O O12 0.109059 0.339310 0.100377
O O13 0.290281 0.328464 0.819089
O O14 0.500000 0.728561 0.250000
O O15 0.211086 0.820095 0.708811
O O16 0.000000 0.910262 0.750000
O O17 0.000000 0.721851 0.750000
#
# Coordination Sequence:
#
# PCOD9231810 Si02
#       7
#     4   4   4   4   4   4   4
#     4  11  23  41  60  92 127 170 215 267 322 383
#     4  10  20  41  70  97 129 169 223 273 328 395
#     4  12  24  41  65  92 123 172 220 262 322 391
#     4  11  25  41  63  87 130 169 216 267 324 388
#     4  12  27  41  65  96 132 168 218 271 334 392
#     4   9  20  38  68  99 128 171 220 271 326 400
#     4  11  22  38  64  93 129 168 218 264 324 391
#
# _framework density 20.007171
#
# number of rings (size 3 to 8) (size 9 to 14) (size 15 to 20)
#    0.000    1.143    2.857    3.429    6.000    0.000 
#    0.000    0.714    0.000    8.571    0.000    0.000 
#    0.000    0.000    0.000    0.000    0.000    0.000 
#
# Total GULP energy -155907.258199 kJ/mol
# GULP energy per Si atom -5568.116364 kJ/mol
# Density = 1.996163 g / cm^3
# Si number density = 20.007171 Si / 1000 Ang^3
#
#
#
# Elastic Constant Matrix: (Units=GPa)
#
#
# Indices 1 2 3 4 5 6 
#
# 1 48.8920 42.6492 24.6359 0.0000 -0.2413 0.0000
# 2 42.6492 196.2881 22.2376 0.0000 4.3502 0.0000
# 3 24.6359 22.2376 69.3856 0.0000 -10.4279 0.0000
# 4 0.0000 0.0000 0.0000 -0.3538 0.0000 -4.2390
# 5 -0.2413 4.3502 -10.4279 0.0000 27.9108 0.0000
# 6 0.0000 0.0000 0.0000 -4.2390 0.0000 19.9206
#
#
#
# Elastic Compliance Matrix: (Units=1/GPa)
#
#
# Indices 1 2 3 4 5 6 
#
# 1 0.029763 -0.005373 -0.009198 0.000000 -0.002342 0.000000
# 2 -0.005373 0.006320 -0.000289 0.000000 -0.001139 0.000000
# 3 -0.009198 -0.000289 0.018822 0.000000 0.006998 0.000000
# 4 0.000000 0.000000 0.000000 -0.796264 0.000000 -0.169441
# 5 -0.002342 -0.001139 0.006998 0.000000 0.038600 0.000000
# 6 0.000000 0.000000 0.000000 -0.169441 0.000000 0.014143
#
#
# Mechanical properties :
#
#
# Convention : Reuss Voigt Hill
#
# Bulk Modulus (GPa) = 39.70432 54.84566 47.27499
# Shear Modulus (GPa) = -7.68639 24.49838 8.40600
#
# Velocity S-wave (km/s) = -1.96218 3.50305 2.05198
# Velocity P-wave (km/s) = 3.84117 6.62075 5.41244
#
# Compressibility (1/GPa) = 0.02518618
#
# Stress axis : x y z
#
# Youngs Moduli (GPa) = 33.59859 158.22813 53.12879
#
# Poissons Ratio (x) = 0.85016 0.48865
# Poissons Ratio (y) = 0.18053 0.01536
# Poissons Ratio (z) = 0.30902 0.04573
#
# Static dielectric constant tensor:
#      x y z
#    x 1.615740 0.000000 -0.021680 
#    y 0.000000 1.744760 0.000000 
#    z -0.021680 0.000000 1.811510 
# 
# From -- ./inp_files/30480.got.cif
#   From: 2010.05.17/outbox.cif.g08.bks.cpg/sg13_16_cif.got.tgz:30480.got - 2010.06.03 16:44:36.
