data_PCOD9231109
_publ_section_title
;
Structure prediction by ZEFSAII (Michael W. Deem and Ramdas Pophale) SiO2 
 PCOD9231109
Probable space group: P 2/C
;
_chemical_formula_sum "Si O2"
_cell_formula_units_Z 24
_cell_length_a 15.063154
_cell_length_b 7.983967
_cell_length_c 10.085744
_cell_angle_alpha 90.000000
_cell_angle_beta 108.802982
_cell_angle_gamma 90.000000
_cell_volume 1148.217058
_symmetry_space_group_name_H-M "P 2/C"
_symmetry_group_IT_number 13
_symmetry_cell_setting 'monoclinic'
loop_
_space_group_symop_operation_xyz
x,y,z
-x,y,1/2-z
-x,-y,-z
x,-y,1/2+z
loop_
_atom_site_type_symbol
_atom_site_label
_atom_site_fract_x
_atom_site_fract_y
_atom_site_fract_z
Si Si1 0.795866 0.439269 0.889823
Si Si2 0.249226 0.328094 0.899660
Si Si3 0.974887 0.740188 0.590343
Si Si4 0.301766 0.909835 0.102169
Si Si5 0.395935 0.050701 0.908002
Si Si6 0.877333 0.901134 0.028944
O O1 0.779086 0.461859 0.725667
O O2 0.757226 0.586801 0.961139
O O3 0.733258 0.275418 0.888432
O O4 0.899871 0.381688 0.983797
O O5 0.163901 0.192641 0.861931
O O6 0.347413 0.230823 0.923460
O O7 0.000000 0.677950 0.750000
O O8 0.061053 0.779631 0.533033
O O9 0.930594 0.926944 0.588201
O O10 0.382102 0.958683 0.244264
O O11 0.215694 0.034153 0.089640
O O12 0.331597 0.928666 0.965129
O O13 0.500000 0.000000 0.000000
#
# Coordination Sequence:
#
# PCOD9231109 Si02
#       6
#     4   4   4   4   4   4
#     4  10  23  39  56  84 124 162 200 237 308 358
#     4  10  23  40  60  84 123 162 197 249 303 369
#     4  10  22  34  58  86 118 160 215 260 291 350
#     4   9  20  36  62  87 118 154 192 252 296 364
#     4  10  20  38  64  93 114 146 198 251 305 363
#     4   9  21  36  57  83 117 160 213 251 302 337
#
# _framework density 20.901971
#
# number of rings (size 3 to 8) (size 9 to 14) (size 15 to 20)
#    0.000    2.333    0.000    0.500   16.333    2.000 
#    0.000    0.833    0.000    6.000    0.000    0.000 
#    0.000    0.000    0.000    0.000    0.000    0.000 
#
# Total GULP energy -133848.233538 kJ/mol
# GULP energy per Si atom -5577.009731 kJ/mol
# Density = 2.085440 g / cm^3
# Si number density = 20.901971 Si / 1000 Ang^3
#
#
#
# Elastic Constant Matrix: (Units=GPa)
#
#
# Indices 1 2 3 4 5 6 
#
# 1 92.4418 17.2928 18.4575 0.0000 8.4866 0.0000
# 2 17.2928 49.8436 11.4659 0.0000 0.1563 0.0000
# 3 18.4575 11.4659 55.9684 0.0000 1.5326 0.0000
# 4 0.0000 0.0000 0.0000 26.7936 0.0000 -6.5200
# 5 8.4866 0.1563 1.5326 0.0000 28.0649 0.0000
# 6 0.0000 0.0000 0.0000 -6.5200 0.0000 19.0166
#
#
#
# Elastic Compliance Matrix: (Units=1/GPa)
#
#
# Indices 1 2 3 4 5 6 
#
# 1 0.012467 -0.003559 -0.003285 0.000000 -0.003571 0.000000
# 2 -0.003559 0.022071 -0.003379 0.000000 0.001138 0.000000
# 3 -0.003285 -0.003379 0.019644 0.000000 -0.000061 0.000000
# 4 0.000000 0.000000 0.000000 0.040720 0.000000 0.013961
# 5 -0.003571 0.001138 -0.000061 0.000000 0.036708 0.000000
# 6 0.000000 0.000000 0.000000 0.013961 0.000000 0.057372
#
#
# Mechanical properties :
#
#
# Convention : Reuss Voigt Hill
#
# Bulk Modulus (GPa) = 29.64033 32.52069 31.08051
# Shear Modulus (GPa) = 22.65793 24.84418 23.75105
#
# Velocity S-wave (km/s) = 3.29600 3.45135 3.37457
# Velocity P-wave (km/s) = 5.35689 5.61025 5.48503
#
# Compressibility (1/GPa) = 0.03373781
#
# Stress axis : x y z
#
# Youngs Moduli (GPa) = 80.21216 45.30801 50.90513
#
# Poissons Ratio (x) = 0.16123 0.16720
# Poissons Ratio (y) = 0.28544 0.17202
# Poissons Ratio (z) = 0.26347 0.15310
#
# Static dielectric constant tensor:
#      x y z
#    x 1.764350 0.000000 -0.007890 
#    y 0.000000 1.790660 0.000000 
#    z -0.007890 0.000000 1.799630 
# 
# From -- ./inp_files/18180.got.cif
#   From: 2010.05.17/outbox.cif.g08.bks.cpg/sg13_10_cif.got.tgz:18180.got - 2010.06.03 16:44:36.
