data_PCOD9231746
_publ_section_title
;
Structure prediction by ZEFSAII (Michael W. Deem and Ramdas Pophale) SiO2 
 PCOD9231746
Probable space group: P 2/C
;
_chemical_formula_sum "Si O2"
_cell_formula_units_Z 24
_cell_length_a 18.311792
_cell_length_b 12.137434
_cell_length_c 11.981034
_cell_angle_alpha 90.000000
_cell_angle_beta 24.605871
_cell_angle_gamma 90.000000
_cell_volume 1108.754990
_symmetry_space_group_name_H-M "P 2/C"
_symmetry_group_IT_number 13
_symmetry_cell_setting 'monoclinic'
loop_
_space_group_symop_operation_xyz
x,y,z
-x,y,1/2-z
-x,-y,-z
x,-y,1/2+z
loop_
_atom_site_type_symbol
_atom_site_label
_atom_site_fract_x
_atom_site_fract_y
_atom_site_fract_z
Si Si1 0.188696 0.723884 0.772045
Si Si2 0.208279 0.668639 0.490601
Si Si3 0.199895 0.229207 0.625143
Si Si4 0.653562 0.141337 0.854595
Si Si5 0.785873 0.582521 0.556424
Si Si6 0.257288 0.086247 0.345652
O O1 0.240023 0.704130 0.574123
O O2 0.241484 0.838444 0.757220
O O3 0.256263 0.629615 0.762722
O O4 0.977037 0.725093 0.072586
O O5 0.308695 0.751959 0.271430
O O6 0.265257 0.542549 0.392669
O O7 0.000000 0.674760 0.750000
O O8 0.308431 0.172805 0.571339
O O9 0.282159 0.331089 0.441700
O O10 0.154877 0.139128 0.592670
O O11 0.773053 0.039995 0.644462
O O12 0.455946 0.101767 0.113103
O O13 0.000000 0.588188 0.250000
#
# Coordination Sequence:
#
# PCOD9231746 Si02
#       6
#     4   4   4   4   4   4
#     4  10  21  40  62  88 122 153 196 251 295 350
#     4  11  22  36  62  97 121 151 201 247 295 354
#     4  10  20  41  64  87 115 157 201 245 294 354
#     4  11  24  39  62  86 119 161 202 243 296 358
#     4   8  19  35  62  90 119 157 190 243 302 350
#     4  10  24  42  59  85 119 163 199 244 303 348
#
# _framework density 21.645899
#
# number of rings (size 3 to 8) (size 9 to 14) (size 15 to 20)
#    0.000    2.000    1.667    2.000    4.667    4.667 
#    0.000    3.333    7.333    0.000    0.000    0.000 
#    0.000    0.000    0.000    0.000    0.000    0.000 
#
# Total GULP energy -134113.724393 kJ/mol
# GULP energy per Si atom -5588.071850 kJ/mol
# Density = 2.159663 g / cm^3
# Si number density = 21.645899 Si / 1000 Ang^3
#
#
#
# Elastic Constant Matrix: (Units=GPa)
#
#
# Indices 1 2 3 4 5 6 
#
# 1 164.7583 72.7882 25.8270 0.0000 29.8324 0.0000
# 2 72.7882 141.8503 12.4131 0.0000 27.7035 0.0000
# 3 25.8270 12.4131 28.4443 0.0000 15.2231 0.0000
# 4 0.0000 0.0000 0.0000 20.3829 0.0000 19.7063
# 5 29.8324 27.7035 15.2231 0.0000 29.6940 0.0000
# 6 0.0000 0.0000 0.0000 19.7063 0.0000 68.2387
#
#
#
# Elastic Compliance Matrix: (Units=1/GPa)
#
#
# Indices 1 2 3 4 5 6 
#
# 1 0.008989 -0.003559 -0.004896 0.000000 -0.003200 0.000000
# 2 -0.003559 0.010041 0.002687 0.000000 -0.007170 0.000000
# 3 -0.004896 0.002687 0.051181 0.000000 -0.023827 0.000000
# 4 0.000000 0.000000 0.000000 0.068064 0.000000 -0.019656
# 5 -0.003200 -0.007170 -0.023827 0.000000 0.055797 0.000000
# 6 0.000000 0.000000 0.000000 -0.019656 0.000000 0.020331
#
#
# Mechanical properties :
#
#
# Convention : Reuss Voigt Hill
#
# Bulk Modulus (GPa) = 17.04298 61.90103 39.47201
# Shear Modulus (GPa) = 20.36690 38.59810 29.48250
#
# Velocity S-wave (km/s) = 3.07076 4.22733 3.69458
# Velocity P-wave (km/s) = 4.52365 7.24474 6.03944
#
# Compressibility (1/GPa) = 0.05867519
#
# Stress axis : x y z
#
# Youngs Moduli (GPa) = 111.25050 99.59095 19.53846
#
# Poissons Ratio (x) = 0.35444 0.09565
# Poissons Ratio (y) = 0.39594 -0.05250
# Poissons Ratio (z) = 0.54465 -0.26758
#
# Static dielectric constant tensor:
#      x y z
#    x 1.759820 0.000000 -0.050920 
#    y 0.000000 1.764670 0.000000 
#    z -0.050920 0.000000 1.873980 
# 
# From -- ./inp_files/33066.got.cif
#   From: 2010.05.17/outbox.cif.g08.bks.cpg/sg13_17_cif.got.tgz:33066.got - 2010.06.03 16:44:36.
