data_PCOD9231676
_publ_section_title
;
Structure prediction by ZEFSAII (Michael W. Deem and Ramdas Pophale) SiO2 
 PCOD9231676
Probable space group: P 2/C
;
_chemical_formula_sum "Si O2"
_cell_formula_units_Z 30
_cell_length_a 10.663582
_cell_length_b 12.526245
_cell_length_c 19.226786
_cell_angle_alpha 90.000000
_cell_angle_beta 150.839025
_cell_angle_gamma 90.000000
_cell_volume 1251.399312
_symmetry_space_group_name_H-M "P 2/C"
_symmetry_group_IT_number 13
_symmetry_cell_setting 'monoclinic'
loop_
_space_group_symop_operation_xyz
x,y,z
-x,y,1/2-z
-x,-y,-z
x,-y,1/2+z
loop_
_atom_site_type_symbol
_atom_site_label
_atom_site_fract_x
_atom_site_fract_y
_atom_site_fract_z
Si Si1 0.260814 0.943914 0.923515
Si Si2 0.784504 0.418744 0.228100
Si Si3 0.093941 0.885388 0.569326
Si Si4 0.517556 0.264190 0.012475
Si Si5 0.000000 0.395086 0.750000
Si Si6 0.434467 0.883730 0.606027
Si Si7 0.673165 0.451698 0.397753
Si Si8 0.927412 0.336964 0.997726
O O1 0.000000 0.950409 0.750000
O O2 0.353705 0.822183 0.976230
O O3 0.500000 0.000000 0.000000
O O4 0.276032 0.013349 0.000861
O O5 0.949150 0.523283 0.289684
O O6 0.492501 0.439240 0.113408
O O7 0.906849 0.354643 0.351195
O O8 0.729133 0.352416 0.131981
O O9 0.275826 0.842627 0.594824
O O10 0.277677 0.902570 0.725353
O O11 0.889480 0.789618 0.476139
O O12 0.000000 0.000000 0.500000
O O13 0.249214 0.319661 0.865515
O O14 0.462291 0.199361 0.057163
O O15 0.500000 0.412172 0.250000
O O16 0.934265 0.388056 0.504444
O O17 0.705196 0.578414 0.403563
#
# Coordination Sequence:
#
# PCOD9231676 Si02
#       8
#     4   4   4   4   2   4   4   4
#     4  10  25  45  75 102 136 187 247 297 362 450
#     4  11  22  42  64  98 146 178 242 289 360 434
#     4  11  24  42  68 100 137 179 229 303 372 428
#     4  11  24  44  72  96 141 192 237 294 370 428
#     4  12  28  42  64 112 142 196 244 310 352 434
#     4  10  24  44  69 100 133 178 241 295 366 439
#     4   9  20  38  67  96 128 178 229 285 353 431
#     4  10  20  40  69  95 131 182 230 289 363 434
#
# _framework density 23.973163
#
# number of rings (size 3 to 8) (size 9 to 14) (size 15 to 20)
#    0.000    1.600    1.333    2.000   12.133    2.133 
#    4.800    0.000    0.000    0.000    0.000    0.000 
#    0.000    0.000    0.000    0.000    0.000    0.000 
#
# Total GULP energy -167402.582420 kJ/mol
# GULP energy per Si atom -5580.086081 kJ/mol
# Density = 2.391860 g / cm^3
# Si number density = 23.973163 Si / 1000 Ang^3
#
#
#
# Elastic Constant Matrix: (Units=GPa)
#
#
# Indices 1 2 3 4 5 6 
#
# 1 62.4991 21.2119 4.7151 0.0000 -0.2603 0.0000
# 2 21.2119 162.3287 52.2110 0.0000 -3.1839 0.0000
# 3 4.7151 52.2110 69.6475 0.0000 6.5926 0.0000
# 4 0.0000 0.0000 0.0000 41.7437 0.0000 3.5971
# 5 -0.2603 -3.1839 6.5926 0.0000 27.2787 0.0000
# 6 0.0000 0.0000 0.0000 3.5971 0.0000 22.4940
#
#
#
# Elastic Compliance Matrix: (Units=1/GPa)
#
#
# Indices 1 2 3 4 5 6 
#
# 1 0.016769 -0.002426 0.000711 0.000000 -0.000295 0.000000
# 2 -0.002426 0.008635 -0.006552 0.000000 0.002568 0.000000
# 3 0.000711 -0.006552 0.019745 0.000000 -0.005530 0.000000
# 4 0.000000 0.000000 0.000000 0.024290 0.000000 -0.003884
# 5 -0.000295 0.002568 -0.005530 0.000000 0.038292 0.000000
# 6 0.000000 0.000000 0.000000 -0.003884 0.000000 0.045077
#
#
# Mechanical properties :
#
#
# Convention : Reuss Voigt Hill
#
# Bulk Modulus (GPa) = 34.94628 50.08349 42.51489
# Shear Modulus (GPa) = 27.95158 32.72575 30.33867
#
# Velocity S-wave (km/s) = 3.41831 3.69873 3.56128
# Velocity P-wave (km/s) = 5.49442 6.25921 5.88924
#
# Compressibility (1/GPa) = 0.02861535
#
# Stress axis : x y z
#
# Youngs Moduli (GPa) = 59.63514 115.80631 50.64541
#
# Poissons Ratio (x) = 0.28091 -0.03601
# Poissons Ratio (y) = 0.14466 0.33184
# Poissons Ratio (z) = -0.04241 0.75878
#
# Static dielectric constant tensor:
#      x y z
#    x 2.168190 0.000000 0.033540 
#    y 0.000000 1.943840 0.000000 
#    z 0.033540 0.000000 1.979980 
# 
# From -- ./inp_files/78644.got.cif
#   From: 2010.05.17/outbox.cif.g08.bks.cpg/sg13_40_cif.got.tgz:78644.got - 2010.06.03 16:44:36.
