data_PCOD9231034
_publ_section_title
;
Structure prediction by ZEFSAII (Michael W. Deem and Ramdas Pophale) SiO2 
 PCOD9231034
Probable space group: P 2/C
;
_chemical_formula_sum "Si O2"
_cell_formula_units_Z 28
_cell_length_a 9.299757
_cell_length_b 10.903775
_cell_length_c 13.341281
_cell_angle_alpha 90.000000
_cell_angle_beta 111.654755
_cell_angle_gamma 90.000000
_cell_volume 1257.361095
_symmetry_space_group_name_H-M "P 2/C"
_symmetry_group_IT_number 13
_symmetry_cell_setting 'monoclinic'
loop_
_space_group_symop_operation_xyz
x,y,z
-x,y,1/2-z
-x,-y,-z
x,-y,1/2+z
loop_
_atom_site_type_symbol
_atom_site_label
_atom_site_fract_x
_atom_site_fract_y
_atom_site_fract_z
Si Si1 0.159687 0.546332 0.656379
Si Si2 0.500000 0.421241 0.250000
Si Si3 0.038496 0.679650 0.430940
Si Si4 0.461759 0.636977 0.963252
Si Si5 0.314748 0.160865 0.943577
Si Si6 0.542938 0.016613 0.876122
Si Si7 0.000000 0.248407 0.250000
Si Si8 0.798763 0.207436 0.021193
O O1 0.338160 0.507097 0.708243
O O2 0.137071 0.602858 0.539020
O O3 0.050479 0.429718 0.648647
O O4 0.110839 0.659008 0.715604
O O5 0.515017 0.347669 0.149917
O O6 0.144169 0.782008 0.404233
O O7 0.910204 0.751444 0.461513
O O8 0.294315 0.676550 0.958567
O O9 0.500000 0.500000 0.000000
O O10 0.581427 0.721589 0.052864
O O11 0.380857 0.053311 0.889190
O O12 0.377456 0.108742 0.066013
O O13 0.500000 0.016709 0.750000
O O14 0.672787 0.114175 0.945396
O O15 0.095457 0.169739 0.356230
#
# Coordination Sequence:
#
# PCOD9231034 Si02
#       8
#     4   2   4   4   4   4   2   4
#     4  10  21  35  60  97 140 176 231 286 349 434
#     4  12  20  36  64  98 124 200 232 278 350 434
#     4  10  21  40  63  97 136 180 226 289 364 426
#     4  11  23  39  63 103 137 177 233 289 356 441
#     4  10  23  44  75  98 137 186 235 300 359 428
#     4  10  24  49  73 102 139 185 247 307 359 421
#     4  10  20  38  62  96 138 192 230 290 348 420
#     4  10  22  42  64  98 145 183 234 302 354 423
#
# _framework density 22.26886
#
# number of rings (size 3 to 8) (size 9 to 14) (size 15 to 20)
#    0.000    1.714    2.857    0.857    5.000    0.571 
#   21.857    0.000    0.000    0.000    0.000    0.000 
#    0.000    0.000    0.000    0.000    0.000    0.000 
#
# Total GULP energy -156171.864394 kJ/mol
# GULP energy per Si atom -5577.566585 kJ/mol
# Density = 2.221817 g / cm^3
# Si number density = 22.268860 Si / 1000 Ang^3
#
#
#
# Elastic Constant Matrix: (Units=GPa)
#
#
# Indices 1 2 3 4 5 6 
#
# 1 132.8083 19.8730 22.2610 0.0000 13.9309 0.0000
# 2 19.8730 78.9394 12.8666 0.0000 19.5569 0.0000
# 3 22.2610 12.8666 79.3218 0.0000 9.6157 0.0000
# 4 0.0000 0.0000 0.0000 2.1989 0.0000 -11.6830
# 5 13.9309 19.5569 9.6157 0.0000 21.7123 0.0000
# 6 0.0000 0.0000 0.0000 -11.6830 0.0000 5.7131
#
#
#
# Elastic Compliance Matrix: (Units=1/GPa)
#
#
# Indices 1 2 3 4 5 6 
#
# 1 0.008351 -0.000878 -0.001741 0.000000 -0.003796 0.000000
# 2 -0.000878 0.016462 -0.000734 0.000000 -0.013939 0.000000
# 3 -0.001741 -0.000734 0.013736 0.000000 -0.004305 0.000000
# 4 0.000000 0.000000 0.000000 -0.046099 0.000000 -0.094271
# 5 -0.003796 -0.013939 -0.004305 0.000000 0.062955 0.000000
# 6 0.000000 0.000000 0.000000 -0.094271 0.000000 -0.017743
#
#
# Mechanical properties :
#
#
# Convention : Reuss Voigt Hill
#
# Bulk Modulus (GPa) = 31.40385 44.56343 37.98364
# Shear Modulus (GPa) = 90.93727 21.66276 56.30002
#
# Velocity S-wave (km/s) = 6.39724 3.12233 5.03357
# Velocity P-wave (km/s) = 8.28849 5.74922 7.13276
#
# Compressibility (1/GPa) = 0.03184322
#
# Stress axis : x y z
#
# Youngs Moduli (GPa) = 119.74506 60.74555 72.79903
#
# Poissons Ratio (x) = 0.05334 0.12675
# Poissons Ratio (y) = 0.10515 0.05344
# Poissons Ratio (z) = 0.20848 0.04459
#
# Static dielectric constant tensor:
#      x y z
#    x 1.799640 0.000000 0.005310 
#    y 0.000000 1.828160 0.000000 
#    z 0.005310 0.000000 1.882130 
# 
# From -- ./inp_files/47019.got.cif
#   From: 2010.05.17/outbox.cif.g08.bks.cpg/sg13_24_cif.got.tgz:47019.got - 2010.06.03 16:44:36.
