data_PCOD9231721
_publ_section_title
;
Structure prediction by ZEFSAII (Michael W. Deem and Ramdas Pophale) SiO2 
 PCOD9231721
Probable space group: P 2/C
;
_chemical_formula_sum "Si O2"
_cell_formula_units_Z 26
_cell_length_a 8.092263
_cell_length_b 16.646135
_cell_length_c 12.554000
_cell_angle_alpha 90.000000
_cell_angle_beta 133.948089
_cell_angle_gamma 90.000000
_cell_volume 1217.528818
_symmetry_space_group_name_H-M "P 2/C"
_symmetry_group_IT_number 13
_symmetry_cell_setting 'monoclinic'
loop_
_space_group_symop_operation_xyz
x,y,z
-x,y,1/2-z
-x,-y,-z
x,-y,1/2+z
loop_
_atom_site_type_symbol
_atom_site_label
_atom_site_fract_x
_atom_site_fract_y
_atom_site_fract_z
Si Si1 0.171438 0.201523 0.479278
Si Si2 0.691382 0.754441 0.699231
Si Si3 0.902579 0.414849 0.822394
Si Si4 0.250644 0.417228 0.174224
Si Si5 0.779046 0.039358 0.081243
Si Si6 0.500000 0.679878 0.250000
Si Si7 0.418438 0.900851 0.597099
O O1 0.237788 0.232925 0.390936
O O2 0.243386 0.108705 0.517611
O O3 0.309697 0.261183 0.615198
O O4 0.895786 0.206247 0.361146
O O5 0.694636 0.662318 0.733800
O O6 0.457490 0.805188 0.608588
O O7 0.867450 0.511283 0.813192
O O8 0.656721 0.373822 0.740391
O O9 0.000000 0.391809 0.750000
O O10 0.086055 0.397388 0.999683
O O11 0.500000 0.447871 0.250000
O O12 0.000000 0.055591 0.250000
O O13 0.411942 0.061972 0.415894
O O14 0.800821 0.951697 0.037121
O O15 0.500000 0.925777 0.750000
#
# Coordination Sequence:
#
# PCOD9231721 Si02
#       7
#     4   4   4   4   4   2   4
#     4  10  21  39  68  91 131 175 223 267 339 408
#     4  10  20  41  64  95 123 177 225 271 323 414
#     4  11  27  45  66 108 139 175 232 286 341 404
#     4  11  24  43  70  96 138 181 226 275 344 407
#     4  10  20  41  61  91 125 169 217 267 330 401
#     4  12  24  46  66 102 140 180 220 292 346 400
#     4  10  21  37  62  91 126 160 217 272 322 394
#
# _framework density 21.354731999999998
#
# number of rings (size 3 to 8) (size 9 to 14) (size 15 to 20)
#    0.000    1.538    5.385    0.462    5.385    1.231 
#    0.000    0.000    0.000    0.000    0.000    0.000 
#    0.000    0.000    0.000    0.000    0.000    0.000 
#
# Total GULP energy -144855.096457 kJ/mol
# GULP energy per Si atom -5571.349864 kJ/mol
# Density = 2.130613 g / cm^3
# Si number density = 21.354732 Si / 1000 Ang^3
#
#
#
# Elastic Constant Matrix: (Units=GPa)
#
#
# Indices 1 2 3 4 5 6 
#
# 1 68.7473 25.6586 0.1796 0.0000 4.4027 0.0000
# 2 25.6586 134.6318 37.0532 0.0000 -15.4374 0.0000
# 3 0.1796 37.0532 34.5317 0.0000 1.2247 0.0000
# 4 0.0000 0.0000 0.0000 37.0354 0.0000 8.7430
# 5 4.4027 -15.4374 1.2247 0.0000 15.2704 0.0000
# 6 0.0000 0.0000 0.0000 8.7430 0.0000 25.2921
#
#
#
# Elastic Compliance Matrix: (Units=1/GPa)
#
#
# Indices 1 2 3 4 5 6 
#
# 1 0.018029 -0.007147 0.008038 0.000000 -0.013068 0.000000
# 2 -0.007147 0.015914 -0.017733 0.000000 0.019571 0.000000
# 3 0.008038 -0.017733 0.048802 0.000000 -0.024159 0.000000
# 4 0.000000 0.000000 0.000000 0.029400 0.000000 -0.010163
# 5 -0.013068 0.019571 -0.024159 0.000000 0.090977 0.000000
# 6 0.000000 0.000000 0.000000 -0.010163 0.000000 0.043051
#
#
# Mechanical properties :
#
#
# Convention : Reuss Voigt Hill
#
# Bulk Modulus (GPa) = 20.38226 40.41040 30.39633
# Shear Modulus (GPa) = 16.87976 27.18754 22.03365
#
# Velocity S-wave (km/s) = 2.81454 3.57198 3.21564
# Velocity P-wave (km/s) = 4.48637 5.99804 5.29641
#
# Compressibility (1/GPa) = 0.04906226
#
# Stress axis : x y z
#
# Youngs Moduli (GPa) = 55.46510 62.83602 20.49086
#
# Poissons Ratio (x) = 0.44908 -0.16471
# Poissons Ratio (y) = 0.39640 0.36337
# Poissons Ratio (z) = -0.44585 1.11430
#
# Static dielectric constant tensor:
#      x y z
#    x 1.866090 0.000000 0.084480 
#    y 0.000000 1.858910 0.000000 
#    z 0.084480 0.000000 1.807720 
# 
# From -- ./inp_files/47940.got.cif
#   From: 2010.05.17/outbox.cif.g08.bks.cpg/sg13_24_cif.got.tgz:47940.got - 2010.06.03 16:44:36.
