data_PCOD9231619
_publ_section_title
;
Structure prediction by ZEFSAII (Michael W. Deem and Ramdas Pophale) SiO2 
 PCOD9231619
Probable space group: P 2/C
;
_chemical_formula_sum "Si O2"
_cell_formula_units_Z 24
_cell_length_a 12.312336
_cell_length_b 11.180153
_cell_length_c 10.200917
_cell_angle_alpha 90.000000
_cell_angle_beta 71.039076
_cell_angle_gamma 90.000000
_cell_volume 1328.003925
_symmetry_space_group_name_H-M "P 2/C"
_symmetry_group_IT_number 13
_symmetry_cell_setting 'monoclinic'
loop_
_space_group_symop_operation_xyz
x,y,z
-x,y,1/2-z
-x,-y,-z
x,-y,1/2+z
loop_
_atom_site_type_symbol
_atom_site_label
_atom_site_fract_x
_atom_site_fract_y
_atom_site_fract_z
Si Si1 0.945193 0.671312 0.412435
Si Si2 0.418683 0.971322 0.409075
Si Si3 0.906068 0.394071 0.403935
Si Si4 0.308509 0.757598 0.599071
Si Si5 0.524756 0.396188 0.094739
Si Si6 0.722540 0.210769 0.088536
O O1 0.894101 0.535900 0.434106
O O2 0.846236 0.766131 0.478647
O O3 0.000000 0.690517 0.250000
O O4 0.039982 0.667810 0.489400
O O5 0.500000 0.949271 0.250000
O O6 0.337504 0.861407 0.484330
O O7 0.500000 0.000000 0.500000
O O8 0.341986 0.088760 0.418955
O O9 0.783971 0.336546 0.418342
O O10 0.000000 0.380963 0.250000
O O11 0.430381 0.700975 0.590412
O O12 0.262145 0.793898 0.760309
O O13 0.500000 0.445403 0.250000
O O14 0.642736 0.321612 0.068182
O O15 0.500000 0.500000 0.000000
#
# Coordination Sequence:
#
# PCOD9231619 Si02
#       6
#     4   4   4   4   4   4
#     4  10  22  39  64  95 126 159 207 254 304 372
#     4  12  23  42  64  91 123 167 210 255 312 370
#     4  10  20  40  66  91 124 169 201 244 316 377
#     4  11  22  40  64  89 122 166 209 248 313 373
#     4  10  21  37  58  89 123 155 197 258 315 368
#     4  11  21  41  64  86 125 163 205 259 311 362
#
# _framework density 18.072234999999999
#
# number of rings (size 3 to 8) (size 9 to 14) (size 15 to 20)
#    0.000    1.333    5.000    1.500    0.000    2.000 
#    3.000    1.667    0.000    0.000    0.000    0.000 
#    0.000    0.000    0.000    0.000    0.000    0.000 
#
# Total GULP energy -133832.557004 kJ/mol
# GULP energy per Si atom -5576.356542 kJ/mol
# Density = 1.803110 g / cm^3
# Si number density = 18.072235 Si / 1000 Ang^3
#
#
#
# Elastic Constant Matrix: (Units=GPa)
#
#
# Indices 1 2 3 4 5 6 
#
# 1 83.5006 12.4994 36.8692 0.0000 5.6296 0.0000
# 2 12.4994 47.5904 31.4762 0.0000 0.6545 0.0000
# 3 36.8692 31.4762 105.7981 0.0000 12.8895 0.0000
# 4 0.0000 0.0000 0.0000 11.2041 0.0000 -6.7936
# 5 5.6296 0.6545 12.8895 0.0000 30.8237 0.0000
# 6 0.0000 0.0000 0.0000 -6.7936 0.0000 19.6116
#
#
#
# Elastic Compliance Matrix: (Units=1/GPa)
#
#
# Indices 1 2 3 4 5 6 
#
# 1 0.014177 -0.000619 -0.004681 0.000000 -0.000619 0.000000
# 2 -0.000619 0.026426 -0.007999 0.000000 0.002897 0.000000
# 3 -0.004681 -0.007999 0.014054 0.000000 -0.004852 0.000000
# 4 0.000000 0.000000 0.000000 0.112986 0.000000 0.039139
# 5 -0.000619 0.002897 -0.004852 0.000000 0.034523 0.000000
# 6 0.000000 0.000000 0.000000 0.039139 0.000000 0.064548
#
#
# Mechanical properties :
#
#
# Convention : Reuss Voigt Hill
#
# Bulk Modulus (GPa) = 35.63936 44.28652 39.96294
# Shear Modulus (GPa) = 16.51985 22.73085 19.62535
#
# Velocity S-wave (km/s) = 3.02669 3.55036 3.29893
# Velocity P-wave (km/s) = 5.65489 6.43158 6.05570
#
# Compressibility (1/GPa) = 0.02805886
#
# Stress axis : x y z
#
# Youngs Moduli (GPa) = 70.53577 37.84138 71.15279
#
# Poissons Ratio (x) = 0.02343 0.33307
# Poissons Ratio (y) = 0.04367 0.56917
# Poissons Ratio (z) = 0.33018 0.30270
#
# Static dielectric constant tensor:
#      x y z
#    x 1.606600 0.000000 -0.005740 
#    y 0.000000 1.640990 0.000000 
#    z -0.005740 0.000000 1.619440 
# 
# From -- ./inp_files/15789.got.cif
#   From: 2010.05.17/outbox.cif.g08.bks.cpg/sg13_8_cif.got.tgz:15789.got - 2010.06.03 16:44:36.
