data_PCOD9231205
_publ_section_title
;
Structure prediction by ZEFSAII (Michael W. Deem and Ramdas Pophale) SiO2 
 PCOD9231205
Probable space group: P 2/C
;
_chemical_formula_sum "Si O2"
_cell_formula_units_Z 26
_cell_length_a 8.708601
_cell_length_b 20.512420
_cell_length_c 8.580606
_cell_angle_alpha 90.000000
_cell_angle_beta 54.061586
_cell_angle_gamma 90.000000
_cell_volume 1241.022558
_symmetry_space_group_name_H-M "P 2/C"
_symmetry_group_IT_number 13
_symmetry_cell_setting 'monoclinic'
loop_
_space_group_symop_operation_xyz
x,y,z
-x,y,1/2-z
-x,-y,-z
x,-y,1/2+z
loop_
_atom_site_type_symbol
_atom_site_label
_atom_site_fract_x
_atom_site_fract_y
_atom_site_fract_z
Si Si1 0.367726 0.027422 0.447189
Si Si2 0.000000 0.501123 0.750000
Si Si3 0.294233 0.317520 0.794191
Si Si4 0.703854 0.720535 0.574524
Si Si5 0.963045 0.202032 0.457337
Si Si6 0.861589 0.059381 0.630308
Si Si7 0.907329 0.597357 0.558211
O O1 0.500000 0.068759 0.250000
O O2 0.204364 0.060056 0.649526
O O3 0.500000 0.000000 0.500000
O O4 0.302032 0.964884 0.388710
O O5 0.112241 0.452352 0.572766
O O6 0.877880 0.550913 0.721962
O O7 0.500000 0.333714 0.750000
O O8 0.299792 0.300709 0.605245
O O9 0.121650 0.370472 0.924683
O O10 0.214894 0.250465 0.915094
O O11 0.500000 0.744987 0.750000
O O12 0.759406 0.655106 0.635210
O O13 0.869174 0.769110 0.533025
O O14 0.929138 0.129240 0.535977
O O15 0.000000 0.201600 0.250000
O O16 0.000000 0.000000 0.500000
#
# Coordination Sequence:
#
# PCOD9231205 Si02
#       7
#     4   2   4   4   4   4   4
#     4   9  20  38  60  90 129 167 204 262 328 395
#     4  10  20  38  68  98 134 178 208 272 330 396
#     4  11  24  42  65  94 130 175 224 272 328 398
#     4  11  24  44  67  94 129 176 228 279 331 395
#     4  11  24  43  66  93 128 173 225 281 335 401
#     4  11  22  40  65  95 128 169 215 269 339 406
#     4  10  21  41  65  95 137 172 219 266 332 386
#
# _framework density 20.950467
#
# number of rings (size 3 to 8) (size 9 to 14) (size 15 to 20)
#    0.000    1.538    1.538    3.692    6.462    4.308 
#    0.000   13.846    0.000    0.000    0.000    0.000 
#    0.000    0.000    0.000    0.000    0.000    0.000 
#
# Total GULP energy -144855.846613 kJ/mol
# GULP energy per Si atom -5571.378716 kJ/mol
# Density = 2.090278 g / cm^3
# Si number density = 20.950467 Si / 1000 Ang^3
#
#
#
# Elastic Constant Matrix: (Units=GPa)
#
#
# Indices 1 2 3 4 5 6 
#
# 1 102.8354 23.8455 26.8389 0.0000 -10.2509 0.0000
# 2 23.8455 120.4753 24.9268 0.0000 1.0486 0.0000
# 3 26.8389 24.9268 78.1381 0.0000 7.6224 0.0000
# 4 0.0000 0.0000 0.0000 37.1478 0.0000 24.0396
# 5 -10.2509 1.0486 7.6224 0.0000 35.7232 0.0000
# 6 0.0000 0.0000 0.0000 24.0396 0.0000 23.3656
#
#
#
# Elastic Compliance Matrix: (Units=1/GPa)
#
#
# Indices 1 2 3 4 5 6 
#
# 1 0.011502 -0.001511 -0.003876 0.000000 0.004172 0.000000
# 2 -0.001511 0.009090 -0.002362 0.000000 -0.000197 0.000000
# 3 -0.003876 -0.002362 0.015303 0.000000 -0.004308 0.000000
# 4 0.000000 0.000000 0.000000 0.080550 0.000000 -0.082873
# 5 0.004172 -0.000197 -0.004308 0.000000 0.030115 0.000000
# 6 0.000000 0.000000 0.000000 -0.082873 0.000000 0.128062
#
#
# Mechanical properties :
#
#
# Convention : Reuss Voigt Hill
#
# Bulk Modulus (GPa) = 49.02423 50.29678 49.66050
# Shear Modulus (GPa) = 16.83974 34.30315 25.57144
#
# Velocity S-wave (km/s) = 2.83819 4.05080 3.49745
# Velocity P-wave (km/s) = 5.84733 6.77778 6.32967
#
# Compressibility (1/GPa) = 0.02039808
#
# Stress axis : x y z
#
# Youngs Moduli (GPa) = 86.94127 110.01277 65.34803
#
# Poissons Ratio (x) = 0.16623 0.25327
# Poissons Ratio (y) = 0.13137 0.15432
# Poissons Ratio (z) = 0.33696 0.25980
#
# Static dielectric constant tensor:
#      x y z
#    x 1.833320 0.000000 -0.021160 
#    y 0.000000 1.696880 0.000000 
#    z -0.021160 0.000000 2.035980 
# 
# From -- ./inp_files/13623.got.cif
#   From: 2010.05.17/outbox.cif.g08.bks.cpg/sg13_7_cif.got.tgz:13623.got - 2010.06.03 16:44:36.
