data_PCOD9231499
_publ_section_title
;
Structure prediction by ZEFSAII (Michael W. Deem and Ramdas Pophale) SiO2 
 PCOD9231499
Probable space group: P 2/C
;
_chemical_formula_sum "Si O2"
_cell_formula_units_Z 30
_cell_length_a 23.337951
_cell_length_b 14.233311
_cell_length_c 8.940560
_cell_angle_alpha 90.000000
_cell_angle_beta 29.465029
_cell_angle_gamma 90.000000
_cell_volume 1460.842364
_symmetry_space_group_name_H-M "P 2/C"
_symmetry_group_IT_number 13
_symmetry_cell_setting 'monoclinic'
loop_
_space_group_symop_operation_xyz
x,y,z
-x,y,1/2-z
-x,-y,-z
x,-y,1/2+z
loop_
_atom_site_type_symbol
_atom_site_label
_atom_site_fract_x
_atom_site_fract_y
_atom_site_fract_z
Si Si1 0.394021 0.919020 0.599817
Si Si2 0.434220 0.872041 0.034600
Si Si3 0.544705 0.406759 0.318372
Si Si4 0.000000 0.283190 0.750000
Si Si5 0.652680 0.700687 0.115458
Si Si6 0.820927 0.393041 0.726687
Si Si7 0.143069 0.588635 0.698394
Si Si8 0.790578 0.761619 0.533410
O O1 0.455376 0.903256 0.618110
O O2 0.281375 0.855006 0.838572
O O3 0.374786 0.030163 0.620810
O O4 0.500000 0.889344 0.250000
O O5 0.344579 0.805885 0.324592
O O6 0.500000 0.820182 0.750000
O O7 0.500000 0.404406 0.250000
O O8 0.500000 0.500000 0.500000
O O9 0.481608 0.325973 0.558052
O O10 0.682755 0.403189 0.011527
O O11 0.055679 0.350312 0.497419
O O12 0.100445 0.224691 0.603519
O O13 0.731295 0.631750 0.037614
O O14 0.702424 0.698082 0.835347
O O15 0.860106 0.480688 0.740794
O O16 0.875691 0.398917 0.436212
O O17 0.831633 0.296736 0.795594
#
# Coordination Sequence:
#
# PCOD9231499 Si02
#       8
#     4   4   4   2   4   4   4   4
#     4  10  20  40  60  98 128 167 208 251 322 390
#     4  10  21  34  62  94 135 167 202 250 313 393
#     4  12  23  34  54  88 137 173 199 249 311 391
#     4  10  26  48  68  88 120 170 222 278 318 366
#     4  11  21  37  57  89 132 171 204 255 311 383
#     4  12  24  40  62  94 124 171 217 263 318 383
#     4  11  24  42  62  89 123 167 222 265 315 366
#     4  11  25  41  66  89 124 169 216 267 317 371
#
# _framework density 20.536097999999999
#
# number of rings (size 3 to 8) (size 9 to 14) (size 15 to 20)
#    0.000    1.067    4.000    2.800    3.733    2.667 
#    0.000    0.000    0.000    3.200    0.000    0.000 
#    0.000    0.000    0.000    0.000    0.000    0.000 
#
# Total GULP energy -167639.440082 kJ/mol
# GULP energy per Si atom -5587.981336 kJ/mol
# Density = 2.048936 g / cm^3
# Si number density = 20.536098 Si / 1000 Ang^3
#
#
#
# Elastic Constant Matrix: (Units=GPa)
#
#
# Indices 1 2 3 4 5 6 
#
# 1 99.2545 36.2587 38.0120 0.0000 7.9179 0.0000
# 2 36.2587 104.7923 26.2117 0.0000 -4.1919 0.0000
# 3 38.0120 26.2117 91.6445 0.0000 12.6978 0.0000
# 4 0.0000 0.0000 0.0000 24.4084 0.0000 -1.8447
# 5 7.9179 -4.1919 12.6978 0.0000 44.8321 0.0000
# 6 0.0000 0.0000 0.0000 -1.8447 0.0000 29.5198
#
#
#
# Elastic Compliance Matrix: (Units=1/GPa)
#
#
# Indices 1 2 3 4 5 6 
#
# 1 0.013098 -0.003534 -0.004221 0.000000 -0.001448 0.000000
# 2 -0.003534 0.011384 -0.002107 0.000000 0.002285 0.000000
# 3 -0.004221 -0.002107 0.013728 0.000000 -0.003340 0.000000
# 4 0.000000 0.000000 0.000000 0.041164 0.000000 0.002572
# 5 -0.001448 0.002285 -0.003340 0.000000 0.023721 0.000000
# 6 0.000000 0.000000 0.000000 0.002572 0.000000 0.034036
#
#
# Mechanical properties :
#
#
# Convention : Reuss Voigt Hill
#
# Bulk Modulus (GPa) = 54.09607 55.18401 54.64004
# Shear Modulus (GPa) = 30.67152 32.76600 31.71876
#
# Velocity S-wave (km/s) = 3.86883 3.99874 3.93432
# Velocity P-wave (km/s) = 6.80854 6.94622 6.87773
#
# Compressibility (1/GPa) = 0.01848563
#
# Stress axis : x y z
#
# Youngs Moduli (GPa) = 76.34521 87.84351 72.84405
#
# Poissons Ratio (x) = 0.31045 0.30751
# Poissons Ratio (y) = 0.26981 0.15346
# Poissons Ratio (z) = 0.32229 0.18506
#
# Static dielectric constant tensor:
#      x y z
#    x 1.805930 0.000000 0.027920 
#    y 0.000000 1.776610 0.000000 
#    z 0.027920 0.000000 1.769090 
# 
# From -- ./inp_files/24227.got.cif
#   From: 2010.05.17/outbox.cif.g08.bks.cpg/sg13_13_cif.got.tgz:24227.got - 2010.06.03 16:44:36.
