data_PCOD9231238
_publ_section_title
;
Structure prediction by ZEFSAII (Michael W. Deem and Ramdas Pophale) SiO2 
 PCOD9231238
Probable space group: P 2/C
;
_chemical_formula_sum "Si O2"
_cell_formula_units_Z 32
_cell_length_a 7.638109
_cell_length_b 15.147542
_cell_length_c 11.980006
_cell_angle_alpha 90.000000
_cell_angle_beta 89.318200
_cell_angle_gamma 90.000000
_cell_volume 1385.971511
_symmetry_space_group_name_H-M "P 2/C"
_symmetry_group_IT_number 13
_symmetry_cell_setting 'monoclinic'
loop_
_space_group_symop_operation_xyz
x,y,z
-x,y,1/2-z
-x,-y,-z
x,-y,1/2+z
loop_
_atom_site_type_symbol
_atom_site_label
_atom_site_fract_x
_atom_site_fract_y
_atom_site_fract_z
Si Si1 0.299609 0.885400 0.041443
Si Si2 0.907614 0.628855 0.909612
Si Si3 0.736641 0.438799 0.197235
Si Si4 0.759485 0.200038 0.343359
Si Si5 0.717470 0.068888 0.522374
Si Si6 0.384976 0.259873 0.389305
Si Si7 0.288328 0.181869 0.770758
Si Si8 0.167214 0.622632 0.326570
O O1 0.505897 0.915658 0.038987
O O2 0.225603 0.873974 0.164895
O O3 0.288964 0.786853 0.991861
O O4 0.225034 0.967168 0.971699
O O5 0.765388 0.585860 0.826789
O O6 0.912466 0.731200 0.869361
O O7 0.081966 0.578591 0.871024
O O8 0.878085 0.626597 0.041405
O O9 0.624807 0.362177 0.140627
O O10 0.697305 0.541382 0.186500
O O11 0.776312 0.105958 0.401057
O O12 0.588229 0.239656 0.406599
O O13 0.695840 0.207357 0.216665
O O14 0.781787 0.132286 0.619384
O O15 0.500000 0.181710 0.750000
O O16 0.233093 0.283256 0.782705
O O17 0.000000 0.599613 0.250000
#
# Coordination Sequence:
#
# PCOD9231238 Si02
#       8
#     4   4   4   4   4   4   4   4
#     4   9  19  31  58  86 117 149 188 237 285 349
#     4  10  20  39  57  80 112 151 196 238 286 342
#     4  10  22  38  59  83 111 154 203 241 281 349
#     4   9  17  34  56  80 115 147 184 241 291 336
#     4   9  17  34  55  85 115 152 187 229 294 347
#     4   9  19  33  55  85 114 144 192 244 284 332
#     4  10  22  39  57  87 122 150 193 238 295 350
#     4  12  24  39  60  83 115 161 194 243 292 348
#
# _framework density 23.088498999999999
#
# number of rings (size 3 to 8) (size 9 to 14) (size 15 to 20)
#    0.000    2.250    2.500    0.375    3.500    0.000 
#    4.500    0.625    0.000    3.000    0.000    0.000 
#    0.000    0.000    0.000    0.000    0.000    0.000 
#
# Total GULP energy -178398.307830 kJ/mol
# GULP energy per Si atom -5574.947120 kJ/mol
# Density = 2.303595 g / cm^3
# Si number density = 23.088499 Si / 1000 Ang^3
#
#
#
# Elastic Constant Matrix: (Units=GPa)
#
#
# Indices 1 2 3 4 5 6 
#
# 1 38.1232 20.7661 11.3047 0.0000 0.2149 0.0000
# 2 20.7661 133.6350 30.4891 0.0000 -3.7351 0.0000
# 3 11.3047 30.4891 92.5005 0.0000 -8.8850 0.0000
# 4 0.0000 0.0000 0.0000 -30.2393 0.0000 -143.8460
# 5 0.2149 -3.7351 -8.8850 0.0000 11.5228 0.0000
# 6 0.0000 0.0000 0.0000 -143.8460 0.0000 -407.6578
#
#
#
# Elastic Compliance Matrix: (Units=1/GPa)
#
#
# Indices 1 2 3 4 5 6 
#
# 1 0.029235 -0.004056 -0.002608 0.000000 -0.003871 0.000000
# 2 -0.004056 0.008658 -0.002248 0.000000 0.001149 0.000000
# 3 -0.002608 -0.002248 0.012749 0.000000 0.009151 0.000000
# 4 0.000000 0.000000 0.000000 0.048737 0.000000 -0.017197
# 5 -0.003871 0.001149 0.009151 0.000000 0.094285 0.000000
# 6 0.000000 0.000000 0.000000 -0.017197 0.000000 0.003615
#
#
# Mechanical properties :
#
#
# Convention : Reuss Voigt Hill
#
# Bulk Modulus (GPa) = 30.46976 43.26427 36.86702
# Shear Modulus (GPa) = 22.11963 -71.82827 -24.85432
#
# Velocity S-wave (km/s) = 3.09857 -5.58368 -3.28454
# Velocity P-wave (km/s) = 5.10168 4.77398 1.27206
#
# Compressibility (1/GPa) = 0.03281943
#
# Stress axis : x y z
#
# Youngs Moduli (GPa) = 34.20523 115.49563 78.43563
#
# Poissons Ratio (x) = 0.46848 0.20454
# Poissons Ratio (y) = 0.13874 0.17631
# Poissons Ratio (z) = 0.08920 0.25961
#
# Static dielectric constant tensor:
#      x y z
#    x 1.973920 0.000000 0.015370 
#    y 0.000000 1.877490 0.000000 
#    z 0.015370 0.000000 1.854580 
# 
# From -- ./inp_files/30401.got.cif
#   From: 2010.05.17/outbox.cif.g08.bks.cpg/sg13_16_cif.got.tgz:30401.got - 2010.06.03 16:44:36.
