data_PCOD9231726
_publ_section_title
;
Structure prediction by ZEFSAII (Michael W. Deem and Ramdas Pophale) SiO2 
 PCOD9231726
Probable space group: P 2/C
;
_chemical_formula_sum "Si O2"
_cell_formula_units_Z 28
_cell_length_a 7.014824
_cell_length_b 8.910829
_cell_length_c 27.669599
_cell_angle_alpha 90.000000
_cell_angle_beta 124.346394
_cell_angle_gamma 90.000000
_cell_volume 1428.003870
_symmetry_space_group_name_H-M "P 2/C"
_symmetry_group_IT_number 13
_symmetry_cell_setting 'monoclinic'
loop_
_space_group_symop_operation_xyz
x,y,z
-x,y,1/2-z
-x,-y,-z
x,-y,1/2+z
loop_
_atom_site_type_symbol
_atom_site_label
_atom_site_fract_x
_atom_site_fract_y
_atom_site_fract_z
Si Si1 0.408818 0.168856 0.607283
Si Si2 0.913359 0.344770 0.010135
Si Si3 0.873901 0.657105 0.183046
Si Si4 0.740598 0.136254 0.807885
Si Si5 0.191463 0.630416 0.892036
Si Si6 0.706098 0.211484 0.310478
Si Si7 0.610096 0.823473 0.909052
O O1 0.287243 0.273366 0.550726
O O2 0.646318 0.243508 0.658783
O O3 0.258267 0.155109 0.634297
O O4 0.433118 0.000570 0.589984
O O5 0.825785 0.374823 0.052179
O O6 0.132947 0.231468 0.039943
O O7 0.000000 0.500000 0.000000
O O8 0.000000 0.600149 0.250000
O O9 0.055551 0.769278 0.185040
O O10 0.805845 0.526371 0.136025
O O11 0.500000 0.188573 0.750000
O O12 0.752951 0.958478 0.799552
O O13 0.947373 0.704543 0.842402
O O14 0.411470 0.727827 0.906736
O O15 0.500000 0.281198 0.250000
O O16 0.611302 0.204174 0.351536
#
# Coordination Sequence:
#
# PCOD9231726 Si02
#       7
#     4   4   4   4   4   4   4
#     4  11  23  42  68  92 123 165 212 261 313 375
#     4  11  24  44  66  92 128 168 211 261 315 373
#     4  12  25  38  60  94 128 166 208 257 317 378
#     4  10  20  41  62  88 123 160 208 260 308 368
#     4  11  25  41  60  95 130 165 209 258 314 375
#     4   9  21  39  63  89 123 167 206 255 315 370
#     4  10  23  42  65  95 123 164 214 261 311 370
#
# _framework density 19.607792
#
# number of rings (size 3 to 8) (size 9 to 14) (size 15 to 20)
#    0.000    1.429    1.429    3.000    2.000    5.714 
#    0.000    0.000    0.000    0.000    0.000    0.000 
#    0.000    0.000    0.000    0.000    0.000    0.000 
#
# Total GULP energy -156419.185616 kJ/mol
# GULP energy per Si atom -5586.399486 kJ/mol
# Density = 1.956316 g / cm^3
# Si number density = 19.607792 Si / 1000 Ang^3
#
#
#
# Elastic Constant Matrix: (Units=GPa)
#
#
# Indices 1 2 3 4 5 6 
#
# 1 82.2450 24.0197 15.3309 0.0000 -1.3362 0.0000
# 2 24.0197 62.0683 20.8843 0.0000 -6.9019 0.0000
# 3 15.3309 20.8843 93.1891 0.0000 5.3638 0.0000
# 4 0.0000 0.0000 0.0000 26.4815 0.0000 -1.8487
# 5 -1.3362 -6.9019 5.3638 0.0000 18.9702 0.0000
# 6 0.0000 0.0000 0.0000 -1.8487 0.0000 31.3571
#
#
#
# Elastic Compliance Matrix: (Units=1/GPa)
#
#
# Indices 1 2 3 4 5 6 
#
# 1 0.013829 -0.005037 -0.001115 0.000000 -0.000543 0.000000
# 2 -0.005037 0.020398 -0.004218 0.000000 0.008259 0.000000
# 3 -0.001115 -0.004218 0.012150 0.000000 -0.005049 0.000000
# 4 0.000000 0.000000 0.000000 0.037918 0.000000 0.002235
# 5 -0.000543 0.008259 -0.005049 0.000000 0.057109 0.000000
# 6 0.000000 0.000000 0.000000 0.002235 0.000000 0.032023
#
#
# Mechanical properties :
#
#
# Convention : Reuss Voigt Hill
#
# Bulk Modulus (GPa) = 39.00562 39.77468 39.39015
# Shear Modulus (GPa) = 24.66548 27.17957 25.92252
#
# Velocity S-wave (km/s) = 3.55060 3.72716 3.63995
# Velocity P-wave (km/s) = 6.06177 6.23309 6.14803
#
# Compressibility (1/GPa) = 0.02563733
#
# Stress axis : x y z
#
# Youngs Moduli (GPa) = 72.31273 49.02389 82.30312
#
# Poissons Ratio (x) = 0.24693 0.09177
# Poissons Ratio (y) = 0.36423 0.34717
# Poissons Ratio (z) = 0.08063 0.20679
#
# Static dielectric constant tensor:
#      x y z
#    x 0.630950 0.000000 0.064600 
#    y 0.000000 1.680780 0.000000 
#    z 0.064600 0.000000 1.685590 
# 
# From -- ./inp_files/95120.got.cif
#   From: 2010.05.17/outbox.cif.g08.bks.cpg/sg13_48_cif.got.tgz:95120.got - 2010.06.03 16:44:36.
