data_PCOD9231759
_publ_section_title
;
Structure prediction by ZEFSAII (Michael W. Deem and Ramdas Pophale) SiO2 
 PCOD9231759
Probable space group: P 2/C
;
_chemical_formula_sum "Si O2"
_cell_formula_units_Z 20
_cell_length_a 21.369002
_cell_length_b 6.474889
_cell_length_c 14.979399
_cell_angle_alpha 90.000000
_cell_angle_beta 153.230554
_cell_angle_gamma 90.000000
_cell_volume 933.492374
_symmetry_space_group_name_H-M "P 2/C"
_symmetry_group_IT_number 13
_symmetry_cell_setting 'monoclinic'
loop_
_space_group_symop_operation_xyz
x,y,z
-x,y,1/2-z
-x,-y,-z
x,-y,1/2+z
loop_
_atom_site_type_symbol
_atom_site_label
_atom_site_fract_x
_atom_site_fract_y
_atom_site_fract_z
Si Si1 0.130071 0.795317 0.084142
Si Si2 0.186260 0.154295 0.294980
Si Si3 0.359507 0.505878 0.937838
Si Si4 0.845859 0.946574 0.056865
Si Si5 0.561966 0.791946 0.622590
O O1 0.222210 0.600173 0.223566
O O2 0.187804 0.991906 0.214734
O O3 0.970511 0.757619 0.906373
O O4 0.140261 0.861887 0.994199
O O5 0.301965 0.334067 0.438341
O O6 0.191067 0.023905 0.391838
O O7 0.428264 0.649630 0.951586
O O8 0.466887 0.313738 0.078588
O O9 0.000000 0.845864 0.250000
O O10 0.716620 0.817256 0.857149
O O11 0.500000 0.000000 0.500000
#
# Coordination Sequence:
#
# PCOD9231759 Si02
#       5
#     4   4   4   4   4
#     4  10  20  41  65  93 135 171 209 280 336 387
#     4  10  21  39  66  98 132 168 221 272 329 398
#     4  11  21  39  69  95 126 177 219 262 338 401
#     4  10  21  42  67  93 131 181 222 275 336 388
#     4  11  22  42  68  88 133 179 213 273 341 393
#
# _framework density 21.424921999999999
#
# number of rings (size 3 to 8) (size 9 to 14) (size 15 to 20)
#    0.000    1.600    4.000    0.600    0.000    0.000 
#    3.600    7.000    0.000    0.000    0.000    0.000 
#    0.000    0.000    0.000    0.000    0.000    0.000 
#
# Total GULP energy -111533.454557 kJ/mol
# GULP energy per Si atom -5576.672728 kJ/mol
# Density = 2.137616 g / cm^3
# Si number density = 21.424922 Si / 1000 Ang^3
#
#
#
# Elastic Constant Matrix: (Units=GPa)
#
#
# Indices 1 2 3 4 5 6 
#
# 1 73.3987 12.4220 20.3272 0.0000 7.1080 0.0000
# 2 12.4220 58.7284 20.9782 0.0000 18.8808 0.0000
# 3 20.3272 20.9782 69.1247 0.0000 14.0908 0.0000
# 4 0.0000 0.0000 0.0000 33.5005 0.0000 27.6150
# 5 7.1080 18.8808 14.0908 0.0000 36.1673 0.0000
# 6 0.0000 0.0000 0.0000 27.6150 0.0000 18.5361
#
#
#
# Elastic Compliance Matrix: (Units=1/GPa)
#
#
# Indices 1 2 3 4 5 6 
#
# 1 0.015010 -0.001618 -0.003795 0.000000 -0.000627 0.000000
# 2 -0.001618 0.021934 -0.004249 0.000000 -0.009477 0.000000
# 3 -0.003795 -0.004249 0.017671 0.000000 -0.003921 0.000000
# 4 0.000000 0.000000 0.000000 -0.130890 0.000000 0.194999
# 5 -0.000627 -0.009477 -0.003921 0.000000 0.034248 0.000000
# 6 0.000000 0.000000 0.000000 0.194999 0.000000 -0.236559
#
#
# Mechanical properties :
#
#
# Convention : Reuss Voigt Hill
#
# Bulk Modulus (GPa) = 28.33525 34.30072 31.31799
# Shear Modulus (GPa) = -20.20212 27.47576 3.63682
#
# Velocity S-wave (km/s) = -3.07404 3.58498 1.30428
# Velocity P-wave (km/s) = 0.80897 5.76026 4.11309
#
# Compressibility (1/GPa) = 0.03529173
#
# Stress axis : x y z
#
# Youngs Moduli (GPa) = 66.62354 45.59053 56.58872
#
# Poissons Ratio (x) = 0.07375 0.21476
# Poissons Ratio (y) = 0.10777 0.24045
# Poissons Ratio (z) = 0.25284 0.19372
#
# Static dielectric constant tensor:
#      x y z
#    x 1.789500 0.000000 0.032200 
#    y 0.000000 1.803210 0.000000 
#    z 0.032200 0.000000 1.856770 
# 
# From -- ./inp_files/56708.got.cif
#   From: 2010.05.17/outbox.cif.g08.bks.cpg/sg13_29_cif.got.tgz:56708.got - 2010.06.03 16:44:36.
