data_PCOD9231206
_publ_section_title
;
Structure prediction by ZEFSAII (Michael W. Deem and Ramdas Pophale) SiO2 
 PCOD9231206
Probable space group: P 2/C
;
_chemical_formula_sum "Si O2"
_cell_formula_units_Z 28
_cell_length_a 14.393007
_cell_length_b 7.027999
_cell_length_c 19.788856
_cell_angle_alpha 90.000000
_cell_angle_beta 33.170434
_cell_angle_gamma 90.000000
_cell_volume 1095.205268
_symmetry_space_group_name_H-M "P 2/C"
_symmetry_group_IT_number 13
_symmetry_cell_setting 'monoclinic'
loop_
_space_group_symop_operation_xyz
x,y,z
-x,y,1/2-z
-x,-y,-z
x,-y,1/2+z
loop_
_atom_site_type_symbol
_atom_site_label
_atom_site_fract_x
_atom_site_fract_y
_atom_site_fract_z
Si Si1 0.038766 0.187858 0.300507
Si Si2 0.438844 0.362856 0.359952
Si Si3 0.076486 0.807938 0.077915
Si Si4 0.306693 0.710339 0.160799
Si Si5 0.972153 0.284184 0.495839
Si Si6 0.583236 0.216251 0.763913
Si Si7 0.395169 0.742124 0.615344
O O1 0.240145 0.144978 0.177271
O O2 0.000000 0.276874 0.250000
O O3 0.025506 0.272606 0.384923
O O4 0.917619 0.005470 0.384734
O O5 0.500000 0.308419 0.250000
O O6 0.242241 0.315860 0.491038
O O7 0.473873 0.589138 0.341593
O O8 0.565852 0.246175 0.329939
O O9 0.896294 0.724995 0.212750
O O10 0.057963 0.831671 0.006896
O O11 0.379725 0.828770 0.180518
O O12 0.344610 0.482849 0.139378
O O13 0.422996 0.775044 0.028733
O O14 0.772318 0.253700 0.622372
O O15 0.000000 0.500000 0.500000
O O16 0.500000 0.113052 0.750000
#
# Coordination Sequence:
#
# PCOD9231206 Si02
#       7
#     4   4   4   4   4   4   4
#     4  12  28  45  67 107 152 192 231 290 367 441
#     4  10  20  38  68  99 127 177 235 288 343 419
#     4  11  24  44  70 102 144 190 237 281 365 440
#     4   9  21  41  66  99 128 185 238 296 350 407
#     4  11  22  45  75 100 133 184 243 304 351 407
#     4   9  18  33  63  97 126 159 229 298 341 395
#     4  10  22  43  65  94 143 179 241 296 351 408
#
# _framework density 25.565982999999999
#
# number of rings (size 3 to 8) (size 9 to 14) (size 15 to 20)
#    0.000    1.714    0.000    5.571    4.000    0.571 
#    7.714    1.429    0.000    0.000    0.000    0.000 
#    0.000    0.000    0.000    0.000    0.000    0.000 
#
# Total GULP energy -156314.039702 kJ/mol
# GULP energy per Si atom -5582.644275 kJ/mol
# Density = 2.550779 g / cm^3
# Si number density = 25.565983 Si / 1000 Ang^3
#
#
#
# Elastic Constant Matrix: (Units=GPa)
#
#
# Indices 1 2 3 4 5 6 
#
# 1 141.0029 -9.9995 40.3175 0.0000 3.8254 0.0000
# 2 -9.9995 47.0448 0.8704 0.0000 3.5918 0.0000
# 3 40.3175 0.8704 117.5759 0.0000 6.6830 0.0000
# 4 0.0000 0.0000 0.0000 25.4420 0.0000 -3.0513
# 5 3.8254 3.5918 6.6830 0.0000 50.1744 0.0000
# 6 0.0000 0.0000 0.0000 -3.0513 0.0000 25.0219
#
#
#
# Elastic Compliance Matrix: (Units=1/GPa)
#
#
# Indices 1 2 3 4 5 6 
#
# 1 0.008012 0.001782 -0.002739 0.000000 -0.000374 0.000000
# 2 0.001782 0.021770 -0.000681 0.000000 -0.001604 0.000000
# 3 -0.002739 -0.000681 0.009507 0.000000 -0.001009 0.000000
# 4 0.000000 0.000000 0.000000 0.039888 0.000000 0.004864
# 5 -0.000374 -0.001604 -0.001009 0.000000 0.020208 0.000000
# 6 0.000000 0.000000 0.000000 0.004864 0.000000 0.040558
#
#
# Mechanical properties :
#
#
# Convention : Reuss Voigt Hill
#
# Bulk Modulus (GPa) = 27.76829 40.88894 34.32862
# Shear Modulus (GPa) = 32.21150 38.42334 35.31742
#
# Velocity S-wave (km/s) = 3.55341 3.88094 3.72078
# Velocity P-wave (km/s) = 5.26504 6.00920 5.64939
#
# Compressibility (1/GPa) = 0.03601230
#
# Stress axis : x y z
#
# Youngs Moduli (GPa) = 124.81563 45.93446 105.18756
#
# Poissons Ratio (x) = -0.08186 0.28814
# Poissons Ratio (y) = -0.22244 0.07164
# Poissons Ratio (z) = 0.34190 0.03129
#
# Static dielectric constant tensor:
#      x y z
#    x 2.073150 0.000000 0.024770 
#    y 0.000000 2.160920 0.000000 
#    z 0.024770 0.000000 1.967060 
# 
# From -- ./inp_files/79950.got.cif
#   From: 2010.05.17/outbox.cif.g08.bks.cpg/sg13_40_cif.got.tgz:79950.got - 2010.06.03 16:44:36.
