data_PCOD9231780
_publ_section_title
;
Structure prediction by ZEFSAII (Michael W. Deem and Ramdas Pophale) SiO2 
 PCOD9231780
Probable space group: P 2/C
;
_chemical_formula_sum "Si O2"
_cell_formula_units_Z 28
_cell_length_a 12.696085
_cell_length_b 6.471883
_cell_length_c 17.379496
_cell_angle_alpha 90.000000
_cell_angle_beta 126.033325
_cell_angle_gamma 90.000000
_cell_volume 1154.813002
_symmetry_space_group_name_H-M "P 2/C"
_symmetry_group_IT_number 13
_symmetry_cell_setting 'monoclinic'
loop_
_space_group_symop_operation_xyz
x,y,z
-x,y,1/2-z
-x,-y,-z
x,-y,1/2+z
loop_
_atom_site_type_symbol
_atom_site_label
_atom_site_fract_x
_atom_site_fract_y
_atom_site_fract_z
Si Si1 0.934616 0.316808 0.036973
Si Si2 0.568341 0.573900 0.356049
Si Si3 0.787202 0.280431 0.478636
Si Si4 0.881023 0.391256 0.248983
Si Si5 0.672727 0.240342 0.661766
Si Si6 0.797874 0.959233 0.604138
Si Si7 0.234694 0.098309 0.637237
O O1 0.827427 0.216822 0.051974
O O2 0.064220 0.340387 0.142844
O O3 0.885488 0.543619 0.996242
O O4 0.907119 0.179023 0.950401
O O5 0.500000 0.479503 0.250000
O O6 0.653438 0.403756 0.436638
O O7 0.467388 0.681539 0.370218
O O8 0.659764 0.748135 0.356496
O O9 0.847540 0.155136 0.575991
O O10 0.752941 0.122996 0.396143
O O11 0.762455 0.552582 0.191669
O O12 0.854101 0.168736 0.199350
O O13 0.000000 0.483604 0.250000
O O14 0.737584 0.120344 0.761686
O O15 0.676091 0.079988 0.591842
#
# Coordination Sequence:
#
# PCOD9231780 Si02
#       7
#     4   4   4   4   4   4   4
#     4   9  20  39  60  85 122 165 207 258 316 369
#     4   9  21  40  63  93 127 161 204 259 315 370
#     4  10  20  41  67  88 123 167 206 256 315 375
#     4  10  22  39  59  86 126 167 209 262 311 365
#     4  11  23  39  63  94 124 162 211 257 312 376
#     4  10  21  36  58  89 121 159 205 248 301 364
#     4   9  21  40  62  90 121 158 205 258 318 378
#
# _framework density 24.246352000000002
#
# number of rings (size 3 to 8) (size 9 to 14) (size 15 to 20)
#    0.000    2.286    0.000    1.714    0.000   13.714 
#    0.000    8.571    0.000    0.000    0.000    0.000 
#    0.000    0.000    0.000    0.000    0.000    0.000 
#
# Total GULP energy -156050.284401 kJ/mol
# GULP energy per Si atom -5573.224443 kJ/mol
# Density = 2.419117 g / cm^3
# Si number density = 24.246352 Si / 1000 Ang^3
#
#
#
# Elastic Constant Matrix: (Units=GPa)
#
#
# Indices 1 2 3 4 5 6 
#
# 1 92.7200 33.1281 -0.3309 0.0000 -8.4603 0.0000
# 2 33.1281 121.2130 27.3176 0.0000 5.3710 0.0000
# 3 -0.3309 27.3176 54.3632 0.0000 2.5648 0.0000
# 4 0.0000 0.0000 0.0000 41.8222 0.0000 -10.0995
# 5 -8.4603 5.3710 2.5648 0.0000 29.1994 0.0000
# 6 0.0000 0.0000 0.0000 -10.0995 0.0000 21.4500
#
#
#
# Elastic Compliance Matrix: (Units=1/GPa)
#
#
# Indices 1 2 3 4 5 6 
#
# 1 0.012635 -0.004075 0.001924 0.000000 0.004241 0.000000
# 2 -0.004075 0.010668 -0.005259 0.000000 -0.002681 0.000000
# 3 0.001924 -0.005259 0.021064 0.000000 -0.000325 0.000000
# 4 0.000000 0.000000 0.000000 0.026978 0.000000 0.012702
# 5 0.004241 -0.002681 -0.000325 0.000000 0.035998 0.000000
# 6 0.000000 0.000000 0.000000 0.012702 0.000000 0.052601
#
#
# Mechanical properties :
#
#
# Convention : Reuss Voigt Hill
#
# Bulk Modulus (GPa) = 33.84267 43.16953 38.50610
# Shear Modulus (GPa) = 27.08387 32.37308 29.72847
#
# Velocity S-wave (km/s) = 3.34582 3.65797 3.50537
# Velocity P-wave (km/s) = 5.37719 5.97362 5.68324
#
# Compressibility (1/GPa) = 0.02954850
#
# Stress axis : x y z
#
# Youngs Moduli (GPa) = 79.14567 93.74209 47.47346
#
# Poissons Ratio (x) = 0.38198 -0.09136
# Poissons Ratio (y) = 0.32250 0.24965
# Poissons Ratio (z) = -0.15231 0.49297
#
# Static dielectric constant tensor:
#      x y z
#    x 2.052860 0.000000 -0.002280 
#    y 0.000000 1.901750 0.000000 
#    z -0.002280 0.000000 1.983010 
# 
# From -- ./inp_files/67612.got.cif
#   From: 2010.05.17/outbox.cif.g08.bks.cpg/sg13_34_cif.got.tgz:67612.got - 2010.06.03 16:44:36.
