data_PCOD9231718
_publ_section_title
;
Structure prediction by ZEFSAII (Michael W. Deem and Ramdas Pophale) SiO2 
 PCOD9231718
Probable space group: P 2/C
;
_chemical_formula_sum "Si O2"
_cell_formula_units_Z 22
_cell_length_a 7.613612
_cell_length_b 11.599065
_cell_length_c 11.843776
_cell_angle_alpha 90.000000
_cell_angle_beta 109.413532
_cell_angle_gamma 90.000000
_cell_volume 986.465721
_symmetry_space_group_name_H-M "P 2/C"
_symmetry_group_IT_number 13
_symmetry_cell_setting 'monoclinic'
loop_
_space_group_symop_operation_xyz
x,y,z
-x,y,1/2-z
-x,-y,-z
x,-y,1/2+z
loop_
_atom_site_type_symbol
_atom_site_label
_atom_site_fract_x
_atom_site_fract_y
_atom_site_fract_z
Si Si1 0.073128 0.232212 0.380647
Si Si2 0.000000 0.989178 0.750000
Si Si3 0.959301 0.366086 0.892308
Si Si4 0.302548 0.524373 0.553504
Si Si5 0.691927 0.819521 0.215261
Si Si6 0.480376 0.700723 0.978723
O O1 0.023631 0.298743 0.483796
O O2 0.295054 0.230489 0.416914
O O3 0.000000 0.290156 0.250000
O O4 0.007709 0.100129 0.356887
O O5 0.183176 0.066737 0.772597
O O6 0.824556 0.475609 0.875577
O O7 0.841081 0.275140 0.793609
O O8 0.161181 0.427609 0.925232
O O9 0.426971 0.634609 0.605203
O O10 0.416415 0.410729 0.540387
O O11 0.500000 0.826608 0.250000
O O12 0.620676 0.778604 0.078487
#
# Coordination Sequence:
#
# PCOD9231718 Si02
#       6
#     4   2   4   4   4   4
#     4   9  21  44  53  85 124 150 202 249 292 363
#     4  10  26  42  60  90 118 168 194 254 336 304
#     4  10  20  41  59  91 124 150 204 243 296 368
#     4   9  19  37  60  90 118 161 187 235 317 351
#     4  12  22  42  64  90 118 154 212 256 284 366
#     4  10  20  41  59  91 124 150 204 243 296 368
#
# _framework density 22.301841
#
# number of rings (size 3 to 8) (size 9 to 14) (size 15 to 20)
#    0.545    1.455    3.636    1.091    0.000    1.455 
#   36.000    0.000    0.000    0.000    0.000    0.000 
#    0.000    0.000    0.000    0.000    0.000    0.000 
#
# Total GULP energy -122484.485242 kJ/mol
# GULP energy per Si atom -5567.476602 kJ/mol
# Density = 2.225108 g / cm^3
# Si number density = 22.301841 Si / 1000 Ang^3
#
#
#
# Elastic Constant Matrix: (Units=GPa)
#
#
# Indices 1 2 3 4 5 6 
#
# 1 84.8720 46.8830 14.2527 0.0000 15.9722 0.0000
# 2 46.8830 125.6635 39.8684 0.0000 15.6286 0.0000
# 3 14.2527 39.8684 106.9024 0.0000 18.1432 0.0000
# 4 0.0000 0.0000 0.0000 30.0910 0.0000 13.5354
# 5 15.9722 15.6286 18.1432 0.0000 26.3655 0.0000
# 6 0.0000 0.0000 0.0000 13.5354 0.0000 42.6732
#
#
#
# Elastic Compliance Matrix: (Units=1/GPa)
#
#
# Indices 1 2 3 4 5 6 
#
# 1 0.015938 -0.005402 0.001115 0.000000 -0.007221 0.000000
# 2 -0.005402 0.011140 -0.003248 0.000000 -0.001096 0.000000
# 3 0.001115 -0.003248 0.011554 0.000000 -0.006701 0.000000
# 4 0.000000 0.000000 0.000000 0.038763 0.000000 -0.012295
# 5 -0.007221 -0.001096 -0.006701 0.000000 0.047563 0.000000
# 6 0.000000 0.000000 0.000000 -0.012295 0.000000 0.027334
#
#
# Mechanical properties :
#
#
# Convention : Reuss Voigt Hill
#
# Bulk Modulus (GPa) = 42.44141 57.71624 50.07883
# Shear Modulus (GPa) = 28.53604 34.25488 31.39546
#
# Velocity S-wave (km/s) = 3.58094 3.92339 3.75607
# Velocity P-wave (km/s) = 6.01409 6.81614 6.42764
#
# Compressibility (1/GPa) = 0.02356189
#
# Stress axis : x y z
#
# Youngs Moduli (GPa) = 62.74284 89.76650 86.54705
#
# Poissons Ratio (x) = 0.48492 -0.09651
# Poissons Ratio (y) = 0.33894 0.28114
# Poissons Ratio (z) = -0.06997 0.29160
#
# Static dielectric constant tensor:
#      x y z
#    x 1.996560 0.000000 -0.026750 
#    y 0.000000 1.794920 0.000000 
#    z -0.026750 0.000000 1.903660 
# 
# From -- ./inp_files/46428.got.cif
#   From: 2010.05.17/outbox.cif.g08.bks.cpg/sg13_24_cif.got.tgz:46428.got - 2010.06.03 16:44:36.
