data_PCOD9231568
_publ_section_title
;
Structure prediction by ZEFSAII (Michael W. Deem and Ramdas Pophale) SiO2 
 PCOD9231568
Probable space group: P 2/C
;
_chemical_formula_sum "Si O2"
_cell_formula_units_Z 24
_cell_length_a 5.386146
_cell_length_b 15.076177
_cell_length_c 15.346350
_cell_angle_alpha 90.000000
_cell_angle_beta 124.482315
_cell_angle_gamma 90.000000
_cell_volume 1027.212422
_symmetry_space_group_name_H-M "P 2/C"
_symmetry_group_IT_number 13
_symmetry_cell_setting 'monoclinic'
loop_
_space_group_symop_operation_xyz
x,y,z
-x,y,1/2-z
-x,-y,-z
x,-y,1/2+z
loop_
_atom_site_type_symbol
_atom_site_label
_atom_site_fract_x
_atom_site_fract_y
_atom_site_fract_z
Si Si1 0.000000 0.456609 0.750000
Si Si2 0.540420 0.729577 0.581694
Si Si3 0.500000 0.360552 0.250000
Si Si4 0.343122 0.095298 0.975706
Si Si5 0.887500 0.348276 0.895190
Si Si6 0.889880 0.418997 0.076212
Si Si7 0.662274 0.149731 0.867350
O O1 0.852159 0.391332 0.792737
O O2 0.798707 0.517353 0.640699
O O3 0.597049 0.700538 0.690576
O O4 0.512288 0.834322 0.570715
O O5 0.236967 0.681827 0.483360
O O6 0.801191 0.682625 0.579696
O O7 0.242339 0.421663 0.161685
O O8 0.425667 0.136071 0.897953
O O9 0.992739 0.102541 0.934837
O O10 0.500000 0.000000 0.000000
O O11 0.719558 0.254979 0.870487
O O12 0.816160 0.418483 0.958854
O O13 0.500000 0.114595 0.750000
#
# Coordination Sequence:
#
# PCOD9231568 Si02
#       7
#     2   4   2   4   4   4   4
#     4  12  24  40  64  98 134 180 246 294 352 432
#     4  10  21  42  67  89 133 180 225 285 372 416
#     4  10  20  40  64  86 126 178 226 280 358 430
#     4  11  24  46  75 107 143 182 236 298 358 438
#     4  10  25  40  65  96 133 186 237 290 359 424
#     4  11  21  44  60  93 131 181 229 299 352 422
#     4  11  24  46  74 103 147 189 234 288 364 430
#
# _framework density 23.364203
#
# number of rings (size 3 to 8) (size 9 to 14) (size 15 to 20)
#    0.000    1.333    3.333    1.500    4.667    0.667 
#    6.000    1.667    0.000    0.000    0.000    0.000 
#    0.000    0.000    0.000    0.000    0.000    0.000 
#
# Total GULP energy -133809.772982 kJ/mol
# GULP energy per Si atom -5575.407208 kJ/mol
# Density = 2.331102 g / cm^3
# Si number density = 23.364203 Si / 1000 Ang^3
#
#
#
# Elastic Constant Matrix: (Units=GPa)
#
#
# Indices 1 2 3 4 5 6 
#
# 1 58.9049 1.7359 27.2252 0.0000 -11.4994 0.0000
# 2 1.7359 122.8672 24.1406 0.0000 -1.8278 0.0000
# 3 27.2252 24.1406 108.3107 0.0000 -35.7566 0.0000
# 4 0.0000 0.0000 0.0000 13.9939 0.0000 -13.0431
# 5 -11.4994 -1.8278 -35.7566 0.0000 48.0021 0.0000
# 6 0.0000 0.0000 0.0000 -13.0431 0.0000 25.9585
#
#
#
# Elastic Compliance Matrix: (Units=1/GPa)
#
#
# Indices 1 2 3 4 5 6 
#
# 1 0.019321 0.000648 -0.004595 0.000000 0.001231 0.000000
# 2 0.000648 0.008610 -0.002549 0.000000 -0.001416 0.000000
# 3 -0.004595 -0.002549 0.014004 0.000000 0.009234 0.000000
# 4 0.000000 0.000000 0.000000 0.134404 0.000000 0.067533
# 5 0.001231 -0.001416 0.009234 0.000000 0.027952 0.000000
# 6 0.000000 0.000000 0.000000 0.067533 0.000000 0.072456
#
#
# Mechanical properties :
#
#
# Convention : Reuss Voigt Hill
#
# Bulk Modulus (GPa) = 34.55045 44.03179 39.29112
# Shear Modulus (GPa) = 16.70084 33.38963 25.04524
#
# Velocity S-wave (km/s) = 2.67648 3.78444 3.27762
# Velocity P-wave (km/s) = 4.93673 6.16301 5.58364
#
# Compressibility (1/GPa) = 0.02894318
#
# Stress axis : x y z
#
# Youngs Moduli (GPa) = 51.75630 116.15060 71.40701
#
# Poissons Ratio (x) = -0.07528 0.32810
# Poissons Ratio (y) = -0.03354 0.18203
# Poissons Ratio (z) = 0.23781 0.29609
#
# Static dielectric constant tensor:
#      x y z
#    x 1.998830 0.000000 -0.048300 
#    y 0.000000 1.915490 0.000000 
#    z -0.048300 0.000000 1.907160 
# 
# From -- ./inp_files/44147.got.cif
#   From: 2010.05.17/outbox.cif.g08.bks.cpg/sg13_23_cif.got.tgz:44147.got - 2010.06.03 16:44:36.
