data_PCOD9231928
_publ_section_title
;
Structure prediction by ZEFSAII (Michael W. Deem and Ramdas Pophale) SiO2 
 PCOD9231928
Probable space group: P 2/C
;
_chemical_formula_sum "Si O2"
_cell_formula_units_Z 24
_cell_length_a 19.555231
_cell_length_b 11.516086
_cell_length_c 13.915846
_cell_angle_alpha 90.000000
_cell_angle_beta 20.782156
_cell_angle_gamma 90.000000
_cell_volume 1111.937616
_symmetry_space_group_name_H-M "P 2/C"
_symmetry_group_IT_number 13
_symmetry_cell_setting 'monoclinic'
loop_
_space_group_symop_operation_xyz
x,y,z
-x,y,1/2-z
-x,-y,-z
x,-y,1/2+z
loop_
_atom_site_type_symbol
_atom_site_label
_atom_site_fract_x
_atom_site_fract_y
_atom_site_fract_z
Si Si1 0.798985 0.379546 0.866852
Si Si2 0.698201 0.826865 0.634746
Si Si3 0.786386 0.685517 0.708764
Si Si4 0.112625 0.099112 0.295740
Si Si5 0.500000 0.038089 0.250000
Si Si6 0.000000 0.032255 0.250000
Si Si7 0.522401 0.489950 0.085646
O O1 0.028225 0.396902 0.556569
O O2 0.785967 0.252603 0.933997
O O3 0.673955 0.396289 0.933148
O O4 0.679857 0.461542 0.097403
O O5 0.700565 0.746271 0.725464
O O6 0.825562 0.940202 0.488941
O O7 0.511105 0.880563 0.830028
O O8 0.866512 0.786570 0.670285
O O9 0.623129 0.612167 0.976454
O O10 0.009292 0.112258 0.330214
O O11 0.318311 0.044156 0.000335
O O12 0.000000 0.000000 0.500000
O O13 0.500000 0.500000 0.000000
#
# Coordination Sequence:
#
# PCOD9231928 Si02
#       7
#     4   4   4   4   2   2   4
#     4  11  23  44  68  97 137 178 241 288 337 426
#     4  11  19  39  70  98 132 183 228 279 340 418
#     4  12  23  43  70  98 136 191 233 287 359 413
#     4  11  23  44  69 104 144 186 232 285 354 418
#     4  10  24  38  66 108 142 176 230 290 340 422
#     4  10  20  42  70 106 140 176 234 286 332 428
#     4  11  25  41  67 101 133 176 235 293 346 408
#
# _framework density 21.583943999999999
#
# number of rings (size 3 to 8) (size 9 to 14) (size 15 to 20)
#    0.000    1.000    5.000    2.500    0.000    2.000 
#    0.000    3.333    0.000    0.000    0.000    0.000 
#    0.000    0.000    0.000    0.000    0.000    0.000 
#
# Total GULP energy -133896.791215 kJ/mol
# GULP energy per Si atom -5579.032967 kJ/mol
# Density = 2.153482 g / cm^3
# Si number density = 21.583944 Si / 1000 Ang^3
#
#
#
# Elastic Constant Matrix: (Units=GPa)
#
#
# Indices 1 2 3 4 5 6 
#
# 1 162.7999 41.1549 20.0615 0.0000 6.1847 0.0000
# 2 41.1549 82.5475 31.9217 0.0000 0.9072 0.0000
# 3 20.0615 31.9217 89.6032 0.0000 7.4977 0.0000
# 4 0.0000 0.0000 0.0000 7.5611 0.0000 -4.4073
# 5 6.1847 0.9072 7.4977 0.0000 18.9054 0.0000
# 6 0.0000 0.0000 0.0000 -4.4073 0.0000 43.3374
#
#
#
# Elastic Compliance Matrix: (Units=1/GPa)
#
#
# Indices 1 2 3 4 5 6 
#
# 1 0.007118 -0.003453 -0.000189 0.000000 -0.002088 0.000000
# 2 -0.003453 0.015758 -0.005039 0.000000 0.002372 0.000000
# 3 -0.000189 -0.005039 0.013418 0.000000 -0.005018 0.000000
# 4 0.000000 0.000000 0.000000 0.140590 0.000000 0.014298
# 5 -0.002088 0.002372 -0.005018 0.000000 0.055454 0.000000
# 6 0.000000 0.000000 0.000000 0.014298 0.000000 0.024529
#
#
# Mechanical properties :
#
#
# Convention : Reuss Voigt Hill
#
# Bulk Modulus (GPa) = 52.82067 57.91408 55.36738
# Shear Modulus (GPa) = 17.82275 30.08161 23.95218
#
# Velocity S-wave (km/s) = 2.87669 3.73728 3.33486
# Velocity P-wave (km/s) = 5.96315 6.74636 6.36681
#
# Compressibility (1/GPa) = 0.01893198
#
# Stress axis : x y z
#
# Youngs Moduli (GPa) = 140.49006 63.45846 74.52786
#
# Poissons Ratio (x) = 0.21911 0.01408
# Poissons Ratio (y) = 0.48507 0.37558
# Poissons Ratio (z) = 0.02654 0.31979
#
# Static dielectric constant tensor:
#      x y z
#    x 1.853970 0.000000 -0.022150 
#    y 0.000000 1.801570 0.000000 
#    z -0.022150 0.000000 1.822120 
# 
# From -- ./inp_files/57697.got.cif
#   From: 2010.05.17/outbox.cif.g08.bks.cpg/sg13_29_cif.got.tgz:57697.got - 2010.06.03 16:44:36.
