data_PCOD9231255
_publ_section_title
;
Structure prediction by ZEFSAII (Michael W. Deem and Ramdas Pophale) SiO2 
 PCOD9231255
Probable space group: P 2/C
;
_chemical_formula_sum "Si O2"
_cell_formula_units_Z 30
_cell_length_a 28.253574
_cell_length_b 8.231839
_cell_length_c 14.468263
_cell_angle_alpha 90.000000
_cell_angle_beta 158.105973
_cell_angle_gamma 90.000000
_cell_volume 1254.782984
_symmetry_space_group_name_H-M "P 2/C"
_symmetry_group_IT_number 13
_symmetry_cell_setting 'monoclinic'
loop_
_space_group_symop_operation_xyz
x,y,z
-x,y,1/2-z
-x,-y,-z
x,-y,1/2+z
loop_
_atom_site_type_symbol
_atom_site_label
_atom_site_fract_x
_atom_site_fract_y
_atom_site_fract_z
Si Si1 0.934054 0.692268 0.731709
Si Si2 0.860566 0.364994 0.679161
Si Si3 0.714965 0.880426 0.277395
Si Si4 0.941099 0.947045 0.243669
Si Si5 0.500000 0.427674 0.250000
Si Si6 0.282559 0.805641 0.426558
Si Si7 0.581621 0.389168 0.077426
Si Si8 0.470468 0.053695 0.807374
O O1 0.932271 0.533290 0.790148
O O2 0.782117 0.726078 0.442927
O O3 0.000000 0.666117 0.750000
O O4 0.977467 0.872536 0.845244
O O5 0.955429 0.219869 0.821548
O O6 0.814596 0.308342 0.696497
O O7 0.725550 0.369319 0.376854
O O8 0.790536 0.031197 0.455974
O O9 0.753835 0.866282 0.240722
O O10 0.569231 0.917288 0.020630
O O11 0.000000 0.931306 0.250000
O O12 0.598660 0.311908 0.377103
O O13 0.574781 0.529541 0.462933
O O14 0.333006 0.969668 0.568217
O O15 0.500000 0.500000 0.000000
O O16 0.506569 0.218900 0.924020
O O17 0.500000 0.074062 0.750000
#
# Coordination Sequence:
#
# PCOD9231255 Si02
#       8
#     4   4   4   4   2   4   4   4
#     4   9  20  39  66  85 115 157 207 252 311 363
#     4  12  23  36  60  93 120 156 205 253 304 362
#     4   9  17  40  65  79 114 165 198 240 311 354
#     4   9  20  40  66  84 113 153 209 253 301 365
#     4  12  22  40  54  86 132 158 202 252 286 360
#     4  11  23  38  58  88 126 160 198 248 300 364
#     4  12  24  37  59  91 122 162 206 246 298 370
#     4  10  20  39  60  83 124 163 195 240 300 372
#
# _framework density 23.908515999999999
#
# number of rings (size 3 to 8) (size 9 to 14) (size 15 to 20)
#    0.800    0.800    5.333    1.200    0.000    1.600 
#    0.000    1.333    0.000    0.000    0.000    0.000 
#    0.000    0.000    0.000    0.000    0.000    0.000 
#
# Total GULP energy -167356.228771 kJ/mol
# GULP energy per Si atom -5578.540959 kJ/mol
# Density = 2.385410 g / cm^3
# Si number density = 23.908516 Si / 1000 Ang^3
#
#
#
# Elastic Constant Matrix: (Units=GPa)
#
#
# Indices 1 2 3 4 5 6 
#
# 1 75.6197 68.1296 2.7700 0.0000 10.6554 0.0000
# 2 68.1296 192.4536 21.9865 0.0000 15.5729 0.0000
# 3 2.7700 21.9865 44.0720 0.0000 -5.5471 0.0000
# 4 0.0000 0.0000 0.0000 8.3387 0.0000 21.4609
# 5 10.6554 15.5729 -5.5471 0.0000 26.0876 0.0000
# 6 0.0000 0.0000 0.0000 21.4609 0.0000 25.7393
#
#
#
# Elastic Compliance Matrix: (Units=1/GPa)
#
#
# Indices 1 2 3 4 5 6 
#
# 1 0.019950 -0.006972 0.001770 0.000000 -0.003610 0.000000
# 2 -0.006972 0.008381 -0.004124 0.000000 -0.003032 0.000000
# 3 0.001770 -0.004124 0.025539 0.000000 0.007169 0.000000
# 4 0.000000 0.000000 0.000000 -0.104658 0.000000 0.087262
# 5 -0.003610 -0.003032 0.007169 0.000000 0.043141 0.000000
# 6 0.000000 0.000000 0.000000 0.087262 0.000000 -0.033906
#
#
# Mechanical properties :
#
#
# Convention : Reuss Voigt Hill
#
# Bulk Modulus (GPa) = 28.39616 55.32417 41.86017
# Shear Modulus (GPa) = -447.96190 26.65041 -210.65574
#
# Velocity S-wave (km/s) = -13.70298 3.34231 -9.39683
# Velocity P-wave (km/s) = 15.44214 6.17130 10.00936
#
# Compressibility (1/GPa) = 0.03521602
#
# Stress axis : x y z
#
# Youngs Moduli (GPa) = 50.12613 119.31951 39.15607
#
# Poissons Ratio (x) = 0.83195 -0.06931
# Poissons Ratio (y) = 0.34950 0.16150
# Poissons Ratio (z) = -0.08873 0.49212
#
# Static dielectric constant tensor:
#      x y z
#    x 1.920350 0.000000 -0.032930 
#    y 0.000000 1.909120 0.000000 
#    z -0.032930 0.000000 1.957880 
# 
# From -- ./inp_files/59433.got.cif
#   From: 2010.05.17/outbox.cif.g08.bks.cpg/sg13_30_cif.got.tgz:59433.got - 2010.06.03 16:44:36.
