data_PCOD9231299
_publ_section_title
;
Structure prediction by ZEFSAII (Michael W. Deem and Ramdas Pophale) SiO2 
 PCOD9231299
Probable space group: P 2/C
;
_chemical_formula_sum "Si O2"
_cell_formula_units_Z 30
_cell_length_a 10.816851
_cell_length_b 5.606584
_cell_length_c 28.043597
_cell_angle_alpha 90.000000
_cell_angle_beta 128.886517
_cell_angle_gamma 90.000000
_cell_volume 1323.825215
_symmetry_space_group_name_H-M "P 2/C"
_symmetry_group_IT_number 13
_symmetry_cell_setting 'monoclinic'
loop_
_space_group_symop_operation_xyz
x,y,z
-x,y,1/2-z
-x,-y,-z
x,-y,1/2+z
loop_
_atom_site_type_symbol
_atom_site_label
_atom_site_fract_x
_atom_site_fract_y
_atom_site_fract_z
Si Si1 0.415218 0.209152 0.569121
Si Si2 0.436232 0.292972 0.093688
Si Si3 0.671008 0.232729 0.059279
Si Si4 0.681511 0.819790 0.730071
Si Si5 0.858457 0.728030 0.116265
Si Si6 0.500000 0.186207 0.750000
Si Si7 0.773494 0.219735 0.697880
Si Si8 0.806027 0.432521 0.810650
O O1 0.340356 0.462753 0.565226
O O2 0.417788 0.205293 0.512503
O O3 0.595051 0.221418 0.632740
O O4 0.346159 0.960315 0.571835
O O5 0.552363 0.261964 0.075458
O O6 0.551083 0.316540 0.167017
O O7 0.761601 0.488333 0.079079
O O8 0.779516 0.990393 0.089404
O O9 0.781883 0.713851 0.798230
O O10 0.570346 0.021853 0.726286
O O11 0.798530 0.948753 0.721404
O O12 0.878147 0.709057 0.178508
O O13 0.031357 0.687651 0.135020
O O14 0.651122 0.343590 0.800771
O O15 0.786159 0.372170 0.748919
#
# Coordination Sequence:
#
# PCOD9231299 Si02
#       8
#     4   4   4   4   4   2   4   4
#     4  11  20  34  58  87 130 167 209 247 282 363
#     4  11  19  35  59  89 123 159 205 253 298 349
#     4  12  22  37  55  92 132 171 205 236 301 365
#     4  10  20  39  62  86 121 153 208 256 311 365
#     4  12  25  37  58  90 133 171 190 246 304 384
#     4  10  24  40  64  86 112 158 214 270 308 370
#     4  10  21  37  57  93 122 164 200 245 303 359
#     4  11  23  42  60  87 122 158 209 252 322 369
#
# _framework density 22.661601000000001
#
# number of rings (size 3 to 8) (size 9 to 14) (size 15 to 20)
#    0.000    1.067    5.333    2.400    3.733    0.000 
#    0.000    0.000    0.000    0.000    0.000   24.267 
#    0.000    0.000    0.000    0.000    0.000    0.000 
#
# Total GULP energy -167221.048553 kJ/mol
# GULP energy per Si atom -5574.034952 kJ/mol
# Density = 2.261002 g / cm^3
# Si number density = 22.661601 Si / 1000 Ang^3
#
#
#
# Elastic Constant Matrix: (Units=GPa)
#
#
# Indices 1 2 3 4 5 6 
#
# 1 52.3977 18.0334 4.2072 0.0000 18.1024 0.0000
# 2 18.0334 160.2439 21.3612 0.0000 11.3186 0.0000
# 3 4.2072 21.3612 49.2475 0.0000 -0.4436 0.0000
# 4 0.0000 0.0000 0.0000 15.2118 0.0000 -14.3809
# 5 18.1024 11.3186 -0.4436 0.0000 14.8798 0.0000
# 6 0.0000 0.0000 0.0000 -14.3809 0.0000 17.5226
#
#
#
# Elastic Compliance Matrix: (Units=1/GPa)
#
#
# Indices 1 2 3 4 5 6 
#
# 1 0.033463 -0.000511 -0.003001 0.000000 -0.040411 0.000000
# 2 -0.000511 0.007047 -0.003056 0.000000 -0.004829 0.000000
# 3 -0.003001 -0.003056 0.021947 0.000000 0.006630 0.000000
# 4 0.000000 0.000000 0.000000 0.293315 0.000000 0.240725
# 5 -0.040411 -0.004829 0.006630 0.000000 0.120239 0.000000
# 6 0.000000 0.000000 0.000000 0.240725 0.000000 0.254634
#
#
# Mechanical properties :
#
#
# Convention : Reuss Voigt Hill
#
# Bulk Modulus (GPa) = 20.27587 38.78808 29.53198
# Shear Modulus (GPa) = 6.57703 24.07532 15.32617
#
# Velocity S-wave (km/s) = 1.70546 3.26296 2.60341
# Velocity P-wave (km/s) = 3.58396 5.59904 4.70075
#
# Compressibility (1/GPa) = 0.04931971
#
# Stress axis : x y z
#
# Youngs Moduli (GPa) = 29.88381 141.91358 45.56361
#
# Poissons Ratio (x) = 0.07258 0.13673
# Poissons Ratio (y) = 0.01528 0.13925
# Poissons Ratio (z) = 0.08968 0.43372
#
# Static dielectric constant tensor:
#      x y z
#    x 1.863230 0.000000 0.013140 
#    y 0.000000 2.146000 0.000000 
#    z 0.013140 0.000000 1.881570 
# 
# From -- ./inp_files/96450.got.cif
#   From: 2010.05.17/outbox.cif.g08.bks.cpg/sg13_49_cif.got.tgz:96450.got - 2010.06.03 16:44:36.
