data_PCOD9231324
_publ_section_title
;
Structure prediction by ZEFSAII (Michael W. Deem and Ramdas Pophale) SiO2 
 PCOD9231324
Probable space group: P 2/C
;
_chemical_formula_sum "Si O2"
_cell_formula_units_Z 30
_cell_length_a 18.107021
_cell_length_b 7.327874
_cell_length_c 21.600574
_cell_angle_alpha 90.000000
_cell_angle_beta 31.414774
_cell_angle_gamma 90.000000
_cell_volume 1493.892855
_symmetry_space_group_name_H-M "P 2/C"
_symmetry_group_IT_number 13
_symmetry_cell_setting 'monoclinic'
loop_
_space_group_symop_operation_xyz
x,y,z
-x,y,1/2-z
-x,-y,-z
x,-y,1/2+z
loop_
_atom_site_type_symbol
_atom_site_label
_atom_site_fract_x
_atom_site_fract_y
_atom_site_fract_z
Si Si1 0.626833 0.926074 0.758819
Si Si2 0.500000 0.646057 0.750000
Si Si3 0.114838 0.805432 0.460358
Si Si4 0.065897 0.125699 0.863180
Si Si5 0.764021 0.589142 0.017409
Si Si6 0.673632 0.080423 0.500052
Si Si7 0.337500 0.943383 0.629314
Si Si8 0.878516 0.240089 0.885309
O O1 0.577174 0.774838 0.745435
O O2 0.661943 0.850272 0.802997
O O3 0.754817 0.049621 0.641249
O O4 0.492487 0.057914 0.867150
O O5 0.380877 0.516928 0.864394
O O6 0.076647 0.755091 0.417401
O O7 0.158291 0.643362 0.474492
O O8 0.985155 0.922904 0.580368
O O9 0.945133 0.191443 0.903773
O O10 0.221381 0.104395 0.721848
O O11 0.737944 0.777656 0.001518
O O12 0.845512 0.452583 0.913781
O O13 0.702791 0.142121 0.408350
O O14 0.745041 0.884383 0.462919
O O15 0.500000 0.000000 0.500000
O O16 0.000000 0.196509 0.750000
#
# Coordination Sequence:
#
# PCOD9231324 Si02
#       8
#     4   2   4   4   4   4   4   4
#     4  10  20  40  68  93 122 172 206 258 321 374
#     4  12  22  38  62  96 138 156 214 270 310 380
#     4  10  21  38  63  92 126 161 213 248 317 380
#     4  10  20  39  63  89 123 166 203 262 311 369
#     4  12  25  38  62 100 123 171 211 254 319 377
#     4  11  21  43  65  88 128 166 212 261 307 379
#     4   9  20  37  69  90 114 168 215 251 320 371
#     4  12  24  40  64  91 128 166 211 262 313 368
#
# _framework density 20.081761
#
# number of rings (size 3 to 8) (size 9 to 14) (size 15 to 20)
#    0.000    1.333    4.000    2.400    0.000    2.133 
#    0.000    2.000    0.000    0.000    0.000    0.000 
#    0.000    0.000    0.000    0.000    0.000    0.000 
#
# Total GULP energy -167335.770145 kJ/mol
# GULP energy per Si atom -5577.859005 kJ/mol
# Density = 2.003605 g / cm^3
# Si number density = 20.081761 Si / 1000 Ang^3
#
#
#
# Elastic Constant Matrix: (Units=GPa)
#
#
# Indices 1 2 3 4 5 6 
#
# 1 111.5331 11.7396 5.9158 0.0000 13.7651 0.0000
# 2 11.7396 36.1315 11.8485 0.0000 8.0943 0.0000
# 3 5.9158 11.8485 59.5221 0.0000 -10.8862 0.0000
# 4 0.0000 0.0000 0.0000 15.6794 0.0000 -2.4403
# 5 13.7651 8.0943 -10.8862 0.0000 32.1768 0.0000
# 6 0.0000 0.0000 0.0000 -2.4403 0.0000 18.9253
#
#
#
# Elastic Compliance Matrix: (Units=1/GPa)
#
#
# Indices 1 2 3 4 5 6 
#
# 1 0.009743 -0.001774 -0.001381 0.000000 -0.004189 0.000000
# 2 -0.001774 0.033343 -0.008374 0.000000 -0.010462 0.000000
# 3 -0.001381 -0.008374 0.020358 0.000000 0.009585 0.000000
# 4 0.000000 0.000000 0.000000 0.065084 0.000000 0.008392
# 5 -0.004189 -0.010462 0.009585 0.000000 0.038745 0.000000
# 6 0.000000 0.000000 0.000000 0.008392 0.000000 0.053921
#
#
# Mechanical properties :
#
#
# Convention : Reuss Voigt Hill
#
# Bulk Modulus (GPa) = 24.76221 29.57714 27.16967
# Shear Modulus (GPa) = 19.40124 25.20182 22.30153
#
# Velocity S-wave (km/s) = 3.11161 3.54639 3.33609
# Velocity P-wave (km/s) = 5.02662 5.61511 5.32900
#
# Compressibility (1/GPa) = 0.04038412
#
# Stress axis : x y z
#
# Youngs Moduli (GPa) = 102.63824 29.99126 49.12119
#
# Poissons Ratio (x) = 0.05321 0.06785
# Poissons Ratio (y) = 0.18210 0.41136
# Poissons Ratio (z) = 0.14177 0.25116
#
# Static dielectric constant tensor:
#      x y z
#    x 1.778680 0.000000 0.004610 
#    y 0.000000 1.674050 0.000000 
#    z 0.004610 0.000000 1.724560 
# 
# From -- ./inp_files/88338.got.cif
#   From: 2010.05.17/outbox.cif.g08.bks.cpg/sg13_45_cif.got.tgz:88338.got - 2010.06.03 16:44:36.
