data_PCOD9231640
_publ_section_title
;
Structure prediction by ZEFSAII (Michael W. Deem and Ramdas Pophale) SiO2 
 PCOD9231640
Probable space group: P 2/C
;
_chemical_formula_sum "Si O2"
_cell_formula_units_Z 16
_cell_length_a 4.918297
_cell_length_b 18.677937
_cell_length_c 8.198244
_cell_angle_alpha 90.000000
_cell_angle_beta 58.311901
_cell_angle_gamma 90.000000
_cell_volume 640.845516
_symmetry_space_group_name_H-M "P 2/C"
_symmetry_group_IT_number 13
_symmetry_cell_setting 'monoclinic'
loop_
_space_group_symop_operation_xyz
x,y,z
-x,y,1/2-z
-x,-y,-z
x,-y,1/2+z
loop_
_atom_site_type_symbol
_atom_site_label
_atom_site_fract_x
_atom_site_fract_y
_atom_site_fract_z
Si Si1 0.094668 0.830319 0.542429
Si Si2 0.713450 0.390328 0.449644
Si Si3 0.500000 0.722492 0.250000
Si Si4 0.500000 0.495779 0.750000
Si Si5 0.682668 0.075106 0.954986
O O1 0.181789 0.769694 0.383336
O O2 0.431421 0.869735 0.461040
O O3 0.000000 0.802365 0.750000
O O4 0.830556 0.888773 0.571116
O O5 0.494081 0.327350 0.590228
O O6 0.766617 0.439932 0.595326
O O7 0.582177 0.449206 0.366476
O O8 0.000000 0.359909 0.250000
O O9 0.000000 0.066491 0.750000
O O10 0.500000 0.000000 0.000000
#
# Coordination Sequence:
#
# PCOD9231640 Si02
#       5
#     4   4   2   2   4
#     4  12  26  49  73 108 150 196 247 314 376 455
#     4  10  20  40  67 102 143 195 249 302 379 431
#     4  11  24  46  64 100 149 198 250 306 377 468
#     4   9  20  38  66 106 143 184 252 318 353 440
#     4  12  25  49  79 112 148 186 247 313 384 453
#
# _framework density 24.967015
#
# number of rings (size 3 to 8) (size 9 to 14) (size 15 to 20)
#    0.000    1.000    2.500    3.750    0.000    2.000 
#   13.500    0.000    0.000    0.000    0.000    0.000 
#    0.000    0.000    0.000    0.000    0.000    0.000 
#
# Total GULP energy -89233.253367 kJ/mol
# GULP energy per Si atom -5577.078335 kJ/mol
# Density = 2.491019 g / cm^3
# Si number density = 24.967015 Si / 1000 Ang^3
#
#
#
# Elastic Constant Matrix: (Units=GPa)
#
#
# Indices 1 2 3 4 5 6 
#
# 1 95.7219 40.5727 45.5156 0.0000 -8.9441 0.0000
# 2 40.5727 142.3817 102.0790 0.0000 -3.9565 0.0000
# 3 45.5156 102.0790 221.8131 0.0000 -13.4205 0.0000
# 4 0.0000 0.0000 0.0000 -4.3918 0.0000 13.1678
# 5 -8.9441 -3.9565 -13.4205 0.0000 38.1939 0.0000
# 6 0.0000 0.0000 0.0000 13.1678 0.0000 32.6123
#
#
#
# Elastic Compliance Matrix: (Units=1/GPa)
#
#
# Indices 1 2 3 4 5 6 
#
# 1 0.012321 -0.002586 -0.001206 0.000000 0.002194 0.000000
# 2 -0.002586 0.011039 -0.004615 0.000000 -0.001084 0.000000
# 3 -0.001206 -0.004615 0.006982 0.000000 0.001693 0.000000
# 4 0.000000 0.000000 0.000000 -0.103002 0.000000 0.041589
# 5 0.002194 -0.001084 0.001693 0.000000 0.027179 0.000000
# 6 0.000000 0.000000 0.000000 0.041589 0.000000 0.013871
#
#
# Mechanical properties :
#
#
# Convention : Reuss Voigt Hill
#
# Bulk Modulus (GPa) = 73.91418 92.91683 83.41551
# Shear Modulus (GPa) = -485.99371 31.39949 -227.29711
#
# Velocity S-wave (km/s) = -13.96699 3.55017 -9.55179
# Velocity P-wave (km/s) = 15.18004 7.35538 9.38967
#
# Compressibility (1/GPa) = 0.01352920
#
# Stress axis : x y z
#
# Youngs Moduli (GPa) = 81.16117 90.58950 143.22573
#
# Poissons Ratio (x) = 0.23424 0.17267
# Poissons Ratio (y) = 0.20986 0.66100
# Poissons Ratio (z) = 0.09785 0.41808
#
# Static dielectric constant tensor:
#      x y z
#    x 1.985090 0.000000 0.013820 
#    y 0.000000 2.042570 0.000000 
#    z 0.013820 0.000000 2.122630 
# 
# From -- ./inp_files/9254.got.cif
#   From: 2010.05.17/outbox.cif.g08.bks.cpg/sg13_5_cif.got.tgz:9254.got - 2010.06.03 16:44:36.
