data_PCOD9231560
_publ_section_title
;
Structure prediction by ZEFSAII (Michael W. Deem and Ramdas Pophale) SiO2 
 PCOD9231560
Probable space group: P 2/C
;
_chemical_formula_sum "Si O2"
_cell_formula_units_Z 28
_cell_length_a 19.960677
_cell_length_b 8.021503
_cell_length_c 14.712449
_cell_angle_alpha 90.000000
_cell_angle_beta 153.194826
_cell_angle_gamma 90.000000
_cell_volume 1062.312326
_symmetry_space_group_name_H-M "P 2/C"
_symmetry_group_IT_number 13
_symmetry_cell_setting 'monoclinic'
loop_
_space_group_symop_operation_xyz
x,y,z
-x,y,1/2-z
-x,-y,-z
x,-y,1/2+z
loop_
_atom_site_type_symbol
_atom_site_label
_atom_site_fract_x
_atom_site_fract_y
_atom_site_fract_z
Si Si1 0.800419 0.865255 0.776705
Si Si2 0.740670 0.553879 0.051625
Si Si3 0.487124 0.463382 0.377620
Si Si4 0.000000 0.896663 0.750000
Si Si5 0.904433 0.766694 0.459124
Si Si6 0.000000 0.500000 0.000000
Si Si7 0.589682 0.113260 0.176489
Si Si8 0.737337 0.954562 0.032410
O O1 0.705472 0.911202 0.572386
O O2 0.940029 0.747607 0.916450
O O3 0.721098 0.812083 0.772488
O O4 0.849889 0.056382 0.857839
O O5 0.908573 0.511542 0.284258
O O6 0.730524 0.757592 0.041761
O O7 0.668382 0.506209 0.865232
O O8 0.620150 0.472210 0.975076
O O9 0.500000 0.500000 0.500000
O O10 0.503955 0.263004 0.398322
O O11 0.093250 0.786287 0.931395
O O12 0.905840 0.005525 0.705881
O O13 0.850045 0.588714 0.364149
O O14 0.646361 0.012803 0.331131
O O15 0.500000 0.000000 0.000000
#
# Coordination Sequence:
#
# PCOD9231560 Si02
#       8
#     4   4   4   2   4   2   4   4
#     4  10  20  40  63  95 131 172 223 270 348 404
#     4  10  23  45  69 100 135 188 231 288 355 416
#     4  10  24  48  69  92 145 186 230 285 354 430
#     4  10  20  40  66  94 134 170 222 280 348 404
#     4  10  22  39  64  94 137 173 208 292 341 410
#     4  12  24  42  68 100 138 176 234 284 350 420
#     4  11  23  38  67  99 123 175 228 278 340 411
#     4  10  20  40  67  95 133 173 223 286 343 410
#
# _framework density 26.357596999999998
#
# number of rings (size 3 to 8) (size 9 to 14) (size 15 to 20)
#    0.000    1.714    2.857    0.857    2.000    1.714 
#   10.286    0.000    0.000    0.000    0.000    0.000 
#    0.000    0.000    0.000    0.000    0.000    0.000 
#
# Total GULP energy -155889.468520 kJ/mol
# GULP energy per Si atom -5567.481019 kJ/mol
# Density = 2.629761 g / cm^3
# Si number density = 26.357597 Si / 1000 Ang^3
#
#
#
# Elastic Constant Matrix: (Units=GPa)
#
#
# Indices 1 2 3 4 5 6 
#
# 1 128.6929 17.9841 35.0920 0.0000 -20.0570 0.0000
# 2 17.9841 68.1380 23.8133 0.0000 -2.6598 0.0000
# 3 35.0920 23.8133 160.6205 0.0000 -43.8796 0.0000
# 4 0.0000 0.0000 0.0000 34.6225 0.0000 -6.1116
# 5 -20.0570 -2.6598 -43.8796 0.0000 55.3105 0.0000
# 6 0.0000 0.0000 0.0000 -6.1116 0.0000 38.7231
#
#
#
# Elastic Compliance Matrix: (Units=1/GPa)
#
#
# Indices 1 2 3 4 5 6 
#
# 1 0.008653 -0.001846 -0.001001 0.000000 0.002255 0.000000
# 2 -0.001846 0.015954 -0.002471 0.000000 -0.001862 0.000000
# 3 -0.001001 -0.002471 0.008527 0.000000 0.006283 0.000000
# 4 0.000000 0.000000 0.000000 0.029711 0.000000 0.004689
# 5 0.002255 -0.001862 0.006283 0.000000 0.023793 0.000000
# 6 0.000000 0.000000 0.000000 0.004689 0.000000 0.026564
#
#
# Mechanical properties :
#
#
# Convention : Reuss Voigt Hill
#
# Bulk Modulus (GPa) = 44.44602 56.80335 50.62469
# Shear Modulus (GPa) = 38.07008 44.43536 41.25272
#
# Velocity S-wave (km/s) = 3.80461 4.11038 3.96045
# Velocity P-wave (km/s) = 6.01659 6.64265 6.33736
#
# Compressibility (1/GPa) = 0.02249920
#
# Stress axis : x y z
#
# Youngs Moduli (GPa) = 115.57054 62.67965 117.27010
#
# Poissons Ratio (x) = 0.11571 0.11735
# Poissons Ratio (y) = 0.21334 0.28975
# Poissons Ratio (z) = 0.11565 0.15487
#
# Static dielectric constant tensor:
#      x y z
#    x 2.198390 0.000000 -0.039360 
#    y 0.000000 0.801910 0.000000 
#    z -0.039360 0.000000 2.237880 
# 
# From -- ./inp_files/57553.got.cif
#   From: 2010.05.17/outbox.cif.g08.bks.cpg/sg13_29_cif.got.tgz:57553.got - 2010.06.03 16:44:36.
