data_PCOD9231383
_publ_section_title
;
Structure prediction by ZEFSAII (Michael W. Deem and Ramdas Pophale) SiO2 
 PCOD9231383
Probable space group: P 2/C
;
_chemical_formula_sum "Si O2"
_cell_formula_units_Z 24
_cell_length_a 26.062003
_cell_length_b 8.890022
_cell_length_c 8.287039
_cell_angle_alpha 90.000000
_cell_angle_beta 32.035124
_cell_angle_gamma 90.000000
_cell_volume 1018.463553
_symmetry_space_group_name_H-M "P 2/C"
_symmetry_group_IT_number 13
_symmetry_cell_setting 'monoclinic'
loop_
_space_group_symop_operation_xyz
x,y,z
-x,y,1/2-z
-x,-y,-z
x,-y,1/2+z
loop_
_atom_site_type_symbol
_atom_site_label
_atom_site_fract_x
_atom_site_fract_y
_atom_site_fract_z
Si Si1 0.221432 0.674102 0.128386
Si Si2 0.500000 0.078670 0.250000
Si Si3 0.706030 0.053779 0.271573
Si Si4 0.670266 0.529131 0.374701
Si Si5 0.118534 0.153988 0.134765
Si Si6 0.000000 0.906927 0.250000
Si Si7 0.603170 0.272825 0.755880
O O1 0.302420 0.620683 0.039432
O O2 0.128540 0.706145 0.486490
O O3 0.244208 0.833140 0.985661
O O4 0.233421 0.551381 0.955348
O O5 0.489122 0.178481 0.441658
O O6 0.401683 0.987191 0.497079
O O7 0.686536 0.154584 0.483112
O O8 0.774595 0.911219 0.111947
O O9 0.600011 0.393367 0.619580
O O10 0.629776 0.634954 0.344769
O O11 0.062429 0.182124 0.451054
O O12 0.067606 0.017374 0.175026
#
# Coordination Sequence:
#
# PCOD9231383 Si02
#       7
#     4   2   4   4   4   2   4
#     4  10  20  39  65  90 129 167 213 258 306 382
#     4  12  24  38  60 100 130 170 206 262 316 382
#     4  11  23  39  65  94 131 165 204 263 326 367
#     4   9  21  40  62  89 119 183 215 253 305 361
#     4  11  21  42  64 103 125 165 200 270 324 383
#     4  10  24  38  68 102 128 158 210 254 346 374
#     4  10  22  39  59  89 125 168 218 258 298 383
#
# _framework density 23.564910999999999
#
# number of rings (size 3 to 8) (size 9 to 14) (size 15 to 20)
#    0.000    1.667    1.667    2.500    2.333    2.000 
#    0.000    5.833    0.000    3.000    0.000    0.000 
#    0.000    0.000    0.000    0.000    0.000    0.000 
#
# Total GULP energy -134101.689549 kJ/mol
# GULP energy per Si atom -5587.570398 kJ/mol
# Density = 2.351128 g / cm^3
# Si number density = 23.564911 Si / 1000 Ang^3
#
#
#
# Elastic Constant Matrix: (Units=GPa)
#
#
# Indices 1 2 3 4 5 6 
#
# 1 52.0879 -1.6202 10.9831 0.0000 12.4799 0.0000
# 2 -1.6202 36.7844 0.7491 0.0000 9.7723 0.0000
# 3 10.9831 0.7491 100.0280 0.0000 32.3773 0.0000
# 4 0.0000 0.0000 0.0000 18.0832 0.0000 22.4075
# 5 12.4799 9.7723 32.3773 0.0000 45.6428 0.0000
# 6 0.0000 0.0000 0.0000 22.4075 0.0000 21.8616
#
#
#
# Elastic Compliance Matrix: (Units=1/GPa)
#
#
# Indices 1 2 3 4 5 6 
#
# 1 0.020781 0.002505 -0.000374 0.000000 -0.005953 0.000000
# 2 0.002505 0.029545 0.002301 0.000000 -0.008643 0.000000
# 3 -0.000374 0.002301 0.013172 0.000000 -0.009734 0.000000
# 4 0.000000 0.000000 0.000000 -0.204764 0.000000 0.209876
# 5 -0.005953 -0.008643 -0.009734 0.000000 0.032293 0.000000
# 6 0.000000 0.000000 0.000000 0.209876 0.000000 -0.169374
#
#
# Mechanical properties :
#
#
# Convention : Reuss Voigt Hill
#
# Bulk Modulus (GPa) = 13.81926 23.23604 18.52765
# Shear Modulus (GPa) = -19.00486 29.03675 5.01595
#
# Velocity S-wave (km/s) = -2.84296 3.51408 1.46054
# Velocity P-wave (km/s) = 2.21347 5.13292 3.27471
#
# Compressibility (1/GPa) = 0.07236276
#
# Stress axis : x y z
#
# Youngs Moduli (GPa) = 48.12002 33.84662 75.92011
#
# Poissons Ratio (x) = -0.08477 0.02836
# Poissons Ratio (y) = -0.12052 -0.17472
# Poissons Ratio (z) = 0.01798 -0.07789
#
# Static dielectric constant tensor:
#      x y z
#    x 1.904550 0.000000 0.036560 
#    y 0.000000 1.934910 0.000000 
#    z 0.036560 0.000000 1.938920 
# 
# From -- ./inp_files/24850.got.cif
#   From: 2010.05.17/outbox.cif.g08.bks.cpg/sg13_13_cif.got.tgz:24850.got - 2010.06.03 16:44:36.
