data_PCOD9231624
_publ_section_title
;
Structure prediction by ZEFSAII (Michael W. Deem and Ramdas Pophale) SiO2 
 PCOD9231624
Probable space group: P 2/C
;
_chemical_formula_sum "Si O2"
_cell_formula_units_Z 20
_cell_length_a 6.554239
_cell_length_b 16.746442
_cell_length_c 9.324718
_cell_angle_alpha 90.000000
_cell_angle_beta 75.085985
_cell_angle_gamma 90.000000
_cell_volume 989.004850
_symmetry_space_group_name_H-M "P 2/C"
_symmetry_group_IT_number 13
_symmetry_cell_setting 'monoclinic'
loop_
_space_group_symop_operation_xyz
x,y,z
-x,y,1/2-z
-x,-y,-z
x,-y,1/2+z
loop_
_atom_site_type_symbol
_atom_site_label
_atom_site_fract_x
_atom_site_fract_y
_atom_site_fract_z
Si Si1 0.667303 0.251754 0.097334
Si Si2 0.000000 0.708742 0.750000
Si Si3 0.382016 0.394161 0.058540
Si Si4 0.846863 0.969378 0.901941
Si Si5 0.549211 0.119875 0.901050
Si Si6 0.500000 0.468204 0.750000
O O1 0.500000 0.227426 0.250000
O O2 0.889132 0.247808 0.137617
O O3 0.589015 0.339869 0.059196
O O4 0.650774 0.190666 0.971952
O O5 0.184496 0.656988 0.645223
O O6 0.380540 0.472283 0.161061
O O7 0.376815 0.415580 0.890726
O O8 0.000000 0.938487 0.750000
O O9 0.707999 0.044474 0.870990
O O10 0.671208 0.907500 0.987317
O O11 0.000000 0.000000 0.000000
O O12 0.500000 0.145546 0.750000
#
# Coordination Sequence:
#
# PCOD9231624 Si02
#       6
#     4   2   4   4   4   2
#     4  10  23  42  63  92 132 172 209 264 320 378
#     4  10  20  44  64  92 126 170 220 254 318 390
#     4  10  21  41  62  93 129 167 212 262 319 381
#     4  11  24  44  66  97 128 166 213 262 322 381
#     4  11  25  43  67  96 131 167 216 269 313 377
#     4  10  20  40  66  92 130 164 206 272 322 372
#
# _framework density 20.222348
#
# number of rings (size 3 to 8) (size 9 to 14) (size 15 to 20)
#    0.000    1.600    5.000    0.000    4.200    4.000 
#    1.800    0.000    0.000    0.000    0.000    0.000 
#    0.000    0.000    0.000    0.000    0.000    0.000 
#
# Total GULP energy -111647.217111 kJ/mol
# GULP energy per Si atom -5582.360856 kJ/mol
# Density = 2.017632 g / cm^3
# Si number density = 20.222348 Si / 1000 Ang^3
#
#
#
# Elastic Constant Matrix: (Units=GPa)
#
#
# Indices 1 2 3 4 5 6 
#
# 1 112.5703 30.1972 44.3275 0.0000 17.9462 0.0000
# 2 30.1972 67.7005 48.2545 0.0000 14.8576 0.0000
# 3 44.3275 48.2545 163.8128 0.0000 23.6344 0.0000
# 4 0.0000 0.0000 0.0000 -22.0448 0.0000 -9.2309
# 5 17.9462 14.8576 23.6344 0.0000 34.2778 0.0000
# 6 0.0000 0.0000 0.0000 -9.2309 0.0000 2.0748
#
#
#
# Elastic Compliance Matrix: (Units=1/GPa)
#
#
# Indices 1 2 3 4 5 6 
#
# 1 0.010829 -0.002985 -0.001577 0.000000 -0.003289 0.000000
# 2 -0.002985 0.020253 -0.004572 0.000000 -0.004064 0.000000
# 3 -0.001577 -0.004572 0.008298 0.000000 -0.002915 0.000000
# 4 0.000000 0.000000 0.000000 -0.015844 0.000000 -0.070493
# 5 -0.003289 -0.004064 -0.002915 0.000000 0.034666 0.000000
# 6 0.000000 0.000000 0.000000 -0.070493 0.000000 0.168347
#
#
# Mechanical properties :
#
#
# Convention : Reuss Voigt Hill
#
# Bulk Modulus (GPa) = 47.36252 65.51579 56.43915
# Shear Modulus (GPa) = 19.85278 17.61518 18.73398
#
# Velocity S-wave (km/s) = 3.13665 2.95460 3.04698
# Velocity P-wave (km/s) = 6.04895 6.64135 6.35206
#
# Compressibility (1/GPa) = 0.02111374
#
# Stress axis : x y z
#
# Youngs Moduli (GPa) = 92.34335 49.37602 120.50472
#
# Poissons Ratio (x) = 0.14737 0.18999
# Poissons Ratio (y) = 0.27562 0.55094
# Poissons Ratio (z) = 0.14559 0.22574
#
# Static dielectric constant tensor:
#      x y z
#    x 1.717120 0.000000 0.011420 
#    y 0.000000 1.752370 0.000000 
#    z 0.011420 0.000000 1.704370 
# 
# From -- ./inp_files/9466.got.cif
#   From: 2010.05.17/outbox.cif.g08.bks.cpg/sg13_5_cif.got.tgz:9466.got - 2010.06.03 16:44:36.
