data_PCOD9231935
_publ_section_title
;
Structure prediction by ZEFSAII (Michael W. Deem and Ramdas Pophale) SiO2 
 PCOD9231935
Probable space group: P 2/C
;
_chemical_formula_sum "Si O2"
_cell_formula_units_Z 22
_cell_length_a 11.756346
_cell_length_b 7.073843
_cell_length_c 18.146674
_cell_angle_alpha 90.000000
_cell_angle_beta 39.809337
_cell_angle_gamma 90.000000
_cell_volume 966.193590
_symmetry_space_group_name_H-M "P 2/C"
_symmetry_group_IT_number 13
_symmetry_cell_setting 'monoclinic'
loop_
_space_group_symop_operation_xyz
x,y,z
-x,y,1/2-z
-x,-y,-z
x,-y,1/2+z
loop_
_atom_site_type_symbol
_atom_site_label
_atom_site_fract_x
_atom_site_fract_y
_atom_site_fract_z
Si Si1 0.610093 0.487541 0.621011
Si Si2 0.834292 0.978559 0.686567
Si Si3 0.630698 0.256103 0.481814
Si Si4 0.927895 0.289382 0.531141
Si Si5 0.000000 0.192624 0.250000
Si Si6 0.446294 0.142062 0.423573
O O1 0.500000 0.508362 0.750000
O O2 0.527357 0.390978 0.589772
O O3 0.755529 0.330010 0.567901
O O4 0.657563 0.699626 0.571095
O O5 0.871839 0.185108 0.634229
O O6 0.917498 0.934134 0.725191
O O7 0.626052 0.926611 0.793033
O O8 0.931153 0.837264 0.581954
O O9 0.515642 0.230420 0.465696
O O10 0.832042 0.316394 0.361572
O O11 0.655317 0.046762 0.503930
O O12 0.000000 0.500000 0.500000
#
# Coordination Sequence:
#
# PCOD9231935 Si02
#       6
#     4   4   4   4   2   4
#     4  12  24  39  65  99 133 174 221 275 340 398
#     4  10  22  43  64  95 139 178 224 287 334 410
#     4  10  22  43  66  97 130 177 220 281 332 403
#     4  11  24  40  64  97 137 178 223 276 342 406
#     4  10  20  42  70  92 134 184 230 268 350 398
#     4  10  23  41  68  95 131 172 229 275 335 401
#
# _framework density 22.769766000000001
#
# number of rings (size 3 to 8) (size 9 to 14) (size 15 to 20)
#    0.000    1.455    1.818    2.727    2.545    2.182 
#    0.000    7.273    0.000    0.000    0.000    0.000 
#    0.000    0.000    0.000    0.000    0.000    0.000 
#
# Total GULP energy -122871.871642 kJ/mol
# GULP energy per Si atom -5585.085075 kJ/mol
# Density = 2.271794 g / cm^3
# Si number density = 22.769766 Si / 1000 Ang^3
#
#
#
# Elastic Constant Matrix: (Units=GPa)
#
#
# Indices 1 2 3 4 5 6 
#
# 1 46.7721 14.2546 14.6284 0.0000 13.2860 0.0000
# 2 14.2546 88.3530 16.0249 0.0000 28.4420 0.0000
# 3 14.6284 16.0249 77.7565 0.0000 26.7582 0.0000
# 4 0.0000 0.0000 0.0000 -19.5704 0.0000 31.3145
# 5 13.2860 28.4420 26.7582 0.0000 33.4792 0.0000
# 6 0.0000 0.0000 0.0000 31.3145 0.0000 24.0045
#
#
#
# Elastic Compliance Matrix: (Units=1/GPa)
#
#
# Indices 1 2 3 4 5 6 
#
# 1 0.024374 -0.001324 -0.001891 0.000000 -0.007036 0.000000
# 2 -0.001324 0.015847 0.001980 0.000000 -0.014519 0.000000
# 3 -0.001891 0.001980 0.018110 0.000000 -0.015406 0.000000
# 4 0.000000 0.000000 0.000000 -0.016551 0.000000 0.021591
# 5 -0.007036 -0.014519 -0.015406 0.000000 0.057309 0.000000
# 6 0.000000 0.000000 0.000000 0.021591 0.000000 0.013493
#
#
# Mechanical properties :
#
#
# Convention : Reuss Voigt Hill
#
# Bulk Modulus (GPa) = 17.90231 33.63306 25.76768
# Shear Modulus (GPa) = 37.40437 18.78091 28.09264
#
# Velocity S-wave (km/s) = 4.05745 2.87508 3.51632
# Velocity P-wave (km/s) = 5.46167 5.08178 5.27515
#
# Compressibility (1/GPa) = 0.05585873
#
# Stress axis : x y z
#
# Youngs Moduli (GPa) = 41.02723 63.10445 55.21815
#
# Poissons Ratio (x) = 0.08358 0.10444
# Poissons Ratio (y) = 0.05434 -0.10932
# Poissons Ratio (z) = 0.07760 -0.12493
#
# Static dielectric constant tensor:
#      x y z
#    x 1.727410 0.000000 0.072670 
#    y 0.000000 1.829410 0.000000 
#    z 0.072670 0.000000 1.896210 
# 
# From -- ./inp_files/78969.got.cif
#   From: 2010.05.17/outbox.cif.g08.bks.cpg/sg13_40_cif.got.tgz:78969.got - 2010.06.03 16:44:36.
