data_PCOD9231714
_publ_section_title
;
Structure prediction by ZEFSAII (Michael W. Deem and Ramdas Pophale) SiO2 
 PCOD9231714
Probable space group: P 2/C
;
_chemical_formula_sum "Si O2"
_cell_formula_units_Z 16
_cell_length_a 7.730443
_cell_length_b 8.797218
_cell_length_c 11.689578
_cell_angle_alpha 90.000000
_cell_angle_beta 48.411391
_cell_angle_gamma 90.000000
_cell_volume 594.578997
_symmetry_space_group_name_H-M "P 2/C"
_symmetry_group_IT_number 13
_symmetry_cell_setting 'monoclinic'
loop_
_space_group_symop_operation_xyz
x,y,z
-x,y,1/2-z
-x,-y,-z
x,-y,1/2+z
loop_
_atom_site_type_symbol
_atom_site_label
_atom_site_fract_x
_atom_site_fract_y
_atom_site_fract_z
Si Si1 0.000000 0.000000 0.000000
Si Si2 0.000000 0.517798 0.250000
Si Si3 0.000000 0.030491 0.250000
Si Si4 0.801708 0.306462 0.029542
Si Si5 0.609135 0.271678 0.465812
Si Si6 0.500000 0.424979 0.750000
O O1 0.939064 0.946895 0.159209
O O2 0.879919 0.168549 0.074442
O O3 0.992485 0.624607 0.362612
O O4 0.775040 0.411920 0.358278
O O5 0.776867 0.126753 0.390779
O O6 0.595028 0.253011 0.035499
O O7 0.703762 0.451249 0.140620
O O8 0.517491 0.316283 0.631452
#
# Coordination Sequence:
#
# PCOD9231714 Si02
#       6
#     2   2   2   4   4   2
#     4  12  28  46  68 100 150 208 252 288 350 450
#     4   9  19  40  74 112 145 185 246 314 382 439
#     4  11  27  50  74 108 149 201 256 302 366 451
#     4  11  23  43  69 105 151 195 242 304 370 450
#     4  10  23  44  76 114 147 186 246 322 386 432
#     4  10  20  40  78 114 142 182 244 322 386 428
#
# _framework density 26.909797999999999
#
# number of rings (size 3 to 8) (size 9 to 14) (size 15 to 20)
#    0.000    1.500    0.000    5.250    0.000    9.000 
#    0.000   21.250    0.000    4.500    0.000    0.000 
#    0.000    0.000    0.000    0.000    0.000    0.000 
#
# Total GULP energy -89247.732428 kJ/mol
# GULP energy per Si atom -5577.983277 kJ/mol
# Density = 2.684855 g / cm^3
# Si number density = 26.909798 Si / 1000 Ang^3
#
#
#
# Elastic Constant Matrix: (Units=GPa)
#
#
# Indices 1 2 3 4 5 6 
#
# 1 115.7539 23.5820 36.7101 0.0000 2.6727 0.0000
# 2 23.5820 93.6287 23.9575 0.0000 -7.2113 0.0000
# 3 36.7101 23.9575 196.4709 0.0000 19.4519 0.0000
# 4 0.0000 0.0000 0.0000 55.0098 0.0000 15.1707
# 5 2.6727 -7.2113 19.4519 0.0000 45.7044 0.0000
# 6 0.0000 0.0000 0.0000 15.1707 0.0000 12.6532
#
#
#
# Elastic Compliance Matrix: (Units=1/GPa)
#
#
# Indices 1 2 3 4 5 6 
#
# 1 0.009538 -0.002034 -0.001511 0.000000 -0.000236 0.000000
# 2 -0.002034 0.011719 -0.001299 0.000000 0.002521 0.000000
# 3 -0.001511 -0.001299 0.005786 0.000000 -0.002579 0.000000
# 4 0.000000 0.000000 0.000000 0.027159 0.000000 -0.032562
# 5 -0.000236 0.002521 -0.002579 0.000000 0.023389 0.000000
# 6 0.000000 0.000000 0.000000 -0.032562 0.000000 0.118072
#
#
# Mechanical properties :
#
#
# Convention : Reuss Voigt Hill
#
# Bulk Modulus (GPa) = 57.61555 63.81699 60.71627
# Shear Modulus (GPa) = 23.68166 44.11376 33.89771
#
# Velocity S-wave (km/s) = 2.96976 4.05324 3.55305
# Velocity P-wave (km/s) = 5.76337 6.75808 6.28045
#
# Compressibility (1/GPa) = 0.01735642
#
# Stress axis : x y z
#
# Youngs Moduli (GPa) = 104.84440 85.33023 172.83742
#
# Poissons Ratio (x) = 0.17355 0.26112
# Poissons Ratio (y) = 0.21324 0.22444
# Poissons Ratio (z) = 0.15840 0.11081
#
# Static dielectric constant tensor:
#      x y z
#    x 2.014780 0.000000 -1.006980 
#    y 0.000000 2.068510 0.000000 
#    z -1.006980 0.000000 -0.525980 
# 
# From -- ./inp_files/27994.got.cif
#   From: 2010.05.17/outbox.cif.g08.bks.cpg/sg13_14_cif.got.tgz:27994.got - 2010.06.03 16:44:36.
