data_PCOD9231008
_publ_section_title
;
Structure prediction by ZEFSAII (Michael W. Deem and Ramdas Pophale) SiO2 
 PCOD9231008
Probable space group: P 2/C
;
_chemical_formula_sum "Si O2"
_cell_formula_units_Z 32
_cell_length_a 19.837329
_cell_length_b 8.457976
_cell_length_c 24.283662
_cell_angle_alpha 90.000000
_cell_angle_beta 22.007164
_cell_angle_gamma 90.000000
_cell_volume 1526.770006
_symmetry_space_group_name_H-M "P 2/C"
_symmetry_group_IT_number 13
_symmetry_cell_setting 'monoclinic'
loop_
_space_group_symop_operation_xyz
x,y,z
-x,y,1/2-z
-x,-y,-z
x,-y,1/2+z
loop_
_atom_site_type_symbol
_atom_site_label
_atom_site_fract_x
_atom_site_fract_y
_atom_site_fract_z
Si Si1 0.050020 0.747346 0.562430
Si Si2 0.512987 0.354547 0.422661
Si Si3 0.794683 0.433014 0.386623
Si Si4 0.113693 0.542433 0.359402
Si Si5 0.293884 0.169265 0.132728
Si Si6 0.478471 0.025268 0.407521
Si Si7 0.362084 0.779282 0.404873
Si Si8 0.145352 0.132679 0.875559
O O1 0.170497 0.800488 0.521190
O O2 0.159290 0.776127 0.423789
O O3 0.983158 0.565252 0.613271
O O4 0.866598 0.848170 0.702213
O O5 0.321349 0.437442 0.558915
O O6 0.681866 0.475886 0.289133
O O7 0.552279 0.267733 0.451479
O O8 0.514992 0.211221 0.377027
O O9 0.791673 0.280705 0.349388
O O10 0.668554 0.373702 0.533029
O O11 0.000000 0.470470 0.250000
O O12 0.101845 0.730940 0.364418
O O13 0.000000 0.500000 0.500000
O O14 0.354691 0.015712 0.053937
O O15 0.409087 0.931812 0.406466
O O16 0.664251 0.940763 0.280955
O O17 0.500000 0.756002 0.250000
O O18 0.000000 0.000000 0.000000
#
# Coordination Sequence:
#
# PCOD9231008 Si02
#       8
#     4   4   4   4   4   4   4   4
#     4  10  20  38  62  90 124 164 211 262 312 390
#     4  11  23  41  63  96 129 163 219 270 318 383
#     4  11  23  41  63  92 125 168 216 263 319 382
#     4   9  19  35  61  90 120 160 209 264 317 363
#     4  10  21  41  67  91 123 167 215 263 325 379
#     4  11  23  39  65  92 126 170 209 258 326 383
#     4  11  22  42  65  87 127 171 211 249 326 388
#     4  11  21  38  61  93 124 160 210 270 320 376
#
# _framework density 20.95928
#
# number of rings (size 3 to 8) (size 9 to 14) (size 15 to 20)
#    0.000    1.500    2.500    4.500    1.750    1.000 
#    2.250    1.875    0.000    0.000    0.000    0.000 
#    0.000    0.000    0.000    0.000    0.000    0.000 
#
# Total GULP energy -178418.221012 kJ/mol
# GULP energy per Si atom -5575.569407 kJ/mol
# Density = 2.091158 g / cm^3
# Si number density = 20.959280 Si / 1000 Ang^3
#
#
#
# Elastic Constant Matrix: (Units=GPa)
#
#
# Indices 1 2 3 4 5 6 
#
# 1 81.8422 7.7632 22.2380 0.0000 -19.4733 0.0000
# 2 7.7632 81.6737 28.4612 0.0000 -17.3691 0.0000
# 3 22.2380 28.4612 83.2425 0.0000 -5.2715 0.0000
# 4 0.0000 0.0000 0.0000 27.8540 0.0000 0.4725
# 5 -19.4733 -17.3691 -5.2715 0.0000 47.2339 0.0000
# 6 0.0000 0.0000 0.0000 0.4725 0.0000 25.9526
#
#
#
# Elastic Compliance Matrix: (Units=1/GPa)
#
#
# Indices 1 2 3 4 5 6 
#
# 1 0.014613 0.001277 -0.003957 0.000000 0.006052 0.000000
# 2 0.001277 0.015087 -0.005151 0.000000 0.005500 0.000000
# 3 -0.003957 -0.005151 0.014712 0.000000 -0.001884 0.000000
# 4 0.000000 0.000000 0.000000 0.035913 0.000000 -0.000654
# 5 0.006052 0.005500 -0.001884 0.000000 0.025479 0.000000
# 6 0.000000 0.000000 0.000000 -0.000654 0.000000 0.038544
#
#
# Mechanical properties :
#
#
# Convention : Reuss Voigt Hill
#
# Bulk Modulus (GPa) = 34.78322 40.40927 37.59625
# Shear Modulus (GPa) = 29.48239 32.76117 31.12178
#
# Velocity S-wave (km/s) = 3.75460 3.95788 3.85758
# Velocity P-wave (km/s) = 5.95212 6.34099 6.14963
#
# Compressibility (1/GPa) = 0.02874949
#
# Stress axis : x y z
#
# Youngs Moduli (GPa) = 68.43304 66.28171 67.97072
#
# Poissons Ratio (x) = -0.08465 0.26897
# Poissons Ratio (y) = -0.08740 0.35014
# Poissons Ratio (z) = 0.27080 0.34144
#
# Static dielectric constant tensor:
#      x y z
#    x 1.793410 0.000000 0.032790 
#    y 0.000000 1.810520 0.000000 
#    z 0.032790 0.000000 1.794050 
# 
# From -- ./inp_files/93549.got.cif
#   From: 2010.05.17/outbox.cif.g08.bks.cpg/sg13_47_cif.got.tgz:93549.got - 2010.06.03 16:44:36.
