data_PCOD9231645
_publ_section_title
;
Structure prediction by ZEFSAII (Michael W. Deem and Ramdas Pophale) SiO2 
 PCOD9231645
Probable space group: P 2/C
;
_chemical_formula_sum "Si O2"
_cell_formula_units_Z 14
_cell_length_a 10.656506
_cell_length_b 5.170272
_cell_length_c 13.475689
_cell_angle_alpha 90.000000
_cell_angle_beta 46.471752
_cell_angle_gamma 90.000000
_cell_volume 538.317034
_symmetry_space_group_name_H-M "P 2/C"
_symmetry_group_IT_number 13
_symmetry_cell_setting 'monoclinic'
loop_
_space_group_symop_operation_xyz
x,y,z
-x,y,1/2-z
-x,-y,-z
x,-y,1/2+z
loop_
_atom_site_type_symbol
_atom_site_label
_atom_site_fract_x
_atom_site_fract_y
_atom_site_fract_z
Si Si1 0.469278 0.178464 0.149474
Si Si2 0.000000 0.500017 0.250000
Si Si3 0.677794 0.686399 0.036584
Si Si4 0.171749 0.544245 0.342552
O O1 0.500000 0.160862 0.250000
O O2 0.588661 0.419045 0.054028
O O3 0.273360 0.285350 0.251509
O O4 0.554254 0.913751 0.066200
O O5 0.864848 0.323934 0.384209
O O6 0.895973 0.663888 0.223497
O O7 0.706945 0.683879 0.141297
O O8 0.000000 0.500000 0.500000
#
# Coordination Sequence:
#
# PCOD9231645 Si02
#       4
#     4   2   4   4
#     4  10  20  40  67  93 126 171 219 268 325 387
#     4  10  22  42  64 100 138 174 220 274 334 398
#     4  10  22  41  66  93 128 173 219 270 325 386
#     4   9  20  41  68  98 134 175 220 273 333 395
#
# _framework density 26.006981
#
# number of rings (size 3 to 8) (size 9 to 14) (size 15 to 20)
#    0.000    2.286    0.000    2.571    0.000    3.429 
#    0.000   60.000    0.000   13.714    0.000    0.000 
#    0.000    0.000    0.000    0.000    0.000    0.000 
#
# Total GULP energy -78167.599828 kJ/mol
# GULP energy per Si atom -5583.399988 kJ/mol
# Density = 2.594779 g / cm^3
# Si number density = 26.006981 Si / 1000 Ang^3
#
#
#
# Elastic Constant Matrix: (Units=GPa)
#
#
# Indices 1 2 3 4 5 6 
#
# 1 192.3935 40.8150 34.3041 0.0000 34.0092 0.0000
# 2 40.8150 164.0724 63.2728 0.0000 -23.7471 0.0000
# 3 34.3041 63.2728 162.5609 0.0000 -32.5704 0.0000
# 4 0.0000 0.0000 0.0000 -2.2108 0.0000 0.8475
# 5 34.0092 -23.7471 -32.5704 0.0000 62.3681 0.0000
# 6 0.0000 0.0000 0.0000 0.8475 0.0000 20.9676
#
#
#
# Elastic Compliance Matrix: (Units=1/GPa)
#
#
# Indices 1 2 3 4 5 6 
#
# 1 0.006849 -0.001775 -0.001830 0.000000 -0.005366 0.000000
# 2 -0.001775 0.007746 -0.002072 0.000000 0.002835 0.000000
# 3 -0.001830 -0.002072 0.008249 0.000000 0.004517 0.000000
# 4 0.000000 0.000000 0.000000 -0.445431 0.000000 0.018005
# 5 -0.005366 0.002835 0.004517 0.000000 0.022398 0.000000
# 6 0.000000 0.000000 0.000000 0.018005 0.000000 0.046965
#
#
# Mechanical properties :
#
#
# Convention : Reuss Voigt Hill
#
# Bulk Modulus (GPa) = 87.02916 88.42339 87.72628
# Shear Modulus (GPa) = -14.79112 41.60066 13.40477
#
# Velocity S-wave (km/s) = -2.38741 4.00383 2.27277
# Velocity P-wave (km/s) = 5.09282 7.44634 6.37906
#
# Compressibility (1/GPa) = 0.01149040
#
# Stress axis : x y z
#
# Youngs Moduli (GPa) = 146.00758 129.10096 121.22427
#
# Poissons Ratio (x) = 0.22913 0.22179
# Poissons Ratio (y) = 0.25914 0.25122
# Poissons Ratio (z) = 0.26713 0.26755
#
# Static dielectric constant tensor:
#      x y z
#    x 2.163190 0.000000 -0.023170 
#    y 0.000000 2.023960 0.000000 
#    z -0.023170 0.000000 2.082820 
# 
# From -- ./inp_files/48383.got.cif
#   From: 2010.05.17/outbox.cif.g08.bks.cpg/sg13_25_cif.got.tgz:48383.got - 2010.06.03 16:44:36.
