data_PCOD9231362
_publ_section_title
;
Structure prediction by ZEFSAII (Michael W. Deem and Ramdas Pophale) SiO2 
 PCOD9231362
Probable space group: P 2/C
;
_chemical_formula_sum "Si O2"
_cell_formula_units_Z 22
_cell_length_a 7.647073
_cell_length_b 7.938056
_cell_length_c 22.424747
_cell_angle_alpha 90.000000
_cell_angle_beta 134.070113
_cell_angle_gamma 90.000000
_cell_volume 978.041301
_symmetry_space_group_name_H-M "P 2/C"
_symmetry_group_IT_number 13
_symmetry_cell_setting 'monoclinic'
loop_
_space_group_symop_operation_xyz
x,y,z
-x,y,1/2-z
-x,-y,-z
x,-y,1/2+z
loop_
_atom_site_type_symbol
_atom_site_label
_atom_site_fract_x
_atom_site_fract_y
_atom_site_fract_z
Si Si1 0.358831 0.123146 0.053600
Si Si2 0.800609 0.254989 0.103785
Si Si3 0.158565 0.477767 0.978211
Si Si4 0.862277 0.022283 0.376516
Si Si5 0.000000 0.498169 0.750000
Si Si6 0.238549 0.326907 0.704754
O O1 0.621546 0.105605 0.084568
O O2 0.321680 0.071546 0.113755
O O3 0.330697 0.323381 0.035602
O O4 0.123526 0.035528 0.967342
O O5 0.720199 0.359479 0.024721
O O6 0.060283 0.178197 0.145502
O O7 0.855475 0.381848 0.170568
O O8 0.969485 0.411629 0.884295
O O9 0.000000 0.500000 0.000000
O O10 0.771486 0.868237 0.315407
O O11 0.817611 0.375935 0.741523
O O12 0.500000 0.396674 0.750000
#
# Coordination Sequence:
#
# PCOD9231362 Si02
#       6
#     4   4   4   4   2   4
#     4  10  21  38  61  93 122 158 201 252 318 354
#     4  11  22  39  64  90 125 161 199 259 307 361
#     4  10  20  39  64  94 122 154 213 260 293 369
#     4  10  22  39  59  92 123 156 206 254 300 380
#     4  10  26  40  58  90 118 160 212 246 300 386
#     4  10  24  43  61  84 127 168 198 252 316 363
#
# _framework density 22.493936999999999
#
# number of rings (size 3 to 8) (size 9 to 14) (size 15 to 20)
#    0.000    1.818    1.818    1.091    2.545    3.636 
#    0.000    0.909    0.000    0.000    0.000    0.000 
#    0.000    0.000    0.000    0.000    0.000    0.000 
#
# Total GULP energy -122764.329290 kJ/mol
# GULP energy per Si atom -5580.196786 kJ/mol
# Density = 2.244274 g / cm^3
# Si number density = 22.493937 Si / 1000 Ang^3
#
#
#
# Elastic Constant Matrix: (Units=GPa)
#
#
# Indices 1 2 3 4 5 6 
#
# 1 151.3182 40.3171 27.6963 0.0000 -38.2906 0.0000
# 2 40.3171 72.8497 28.7387 0.0000 -19.5764 0.0000
# 3 27.6963 28.7387 48.1686 0.0000 -21.3720 0.0000
# 4 0.0000 0.0000 0.0000 17.6971 0.0000 -12.1124
# 5 -38.2906 -19.5764 -21.3720 0.0000 36.9961 0.0000
# 6 0.0000 0.0000 0.0000 -12.1124 0.0000 44.4153
#
#
#
# Elastic Compliance Matrix: (Units=1/GPa)
#
#
# Indices 1 2 3 4 5 6 
#
# 1 0.009501 -0.003051 0.000005 0.000000 0.008222 0.000000
# 2 -0.003051 0.019495 -0.009010 0.000000 0.001953 0.000000
# 3 0.000005 -0.009010 0.032299 0.000000 0.013896 0.000000
# 4 0.000000 0.000000 0.000000 0.069474 0.000000 0.018946
# 5 0.008222 0.001953 0.013896 0.000000 0.044601 0.000000
# 6 0.000000 0.000000 0.000000 0.018946 0.000000 0.027681
#
#
# Mechanical properties :
#
#
# Convention : Reuss Voigt Hill
#
# Bulk Modulus (GPa) = 26.89409 51.76008 39.32709
# Shear Modulus (GPa) = 20.87191 31.52733 26.19962
#
# Velocity S-wave (km/s) = 3.04943 3.74785 3.41653
# Velocity P-wave (km/s) = 4.93770 6.46445 5.75195
#
# Compressibility (1/GPa) = 0.03718289
#
# Stress axis : x y z
#
# Youngs Moduli (GPa) = 105.25116 51.29624 30.96084
#
# Poissons Ratio (x) = 0.15649 -0.00017
# Poissons Ratio (y) = 0.32110 0.27897
# Poissons Ratio (z) = -0.00056 0.46220
#
# Static dielectric constant tensor:
#      x y z
#    x 2.051030 0.000000 0.043170 
#    y 0.000000 1.890830 0.000000 
#    z 0.043170 0.000000 1.834780 
# 
# From -- ./inp_files/73059.got.cif
#   From: 2010.05.17/outbox.cif.g08.bks.cpg/sg13_37_cif.got.tgz:73059.got - 2010.06.03 16:44:36.
