data_PCOD9231936
_publ_section_title
;
Structure prediction by ZEFSAII (Michael W. Deem and Ramdas Pophale) SiO2 
 PCOD9231936
Probable space group: P 2/C
;
_chemical_formula_sum "Si O2"
_cell_formula_units_Z 20
_cell_length_a 4.724180
_cell_length_b 12.779865
_cell_length_c 15.270473
_cell_angle_alpha 90.000000
_cell_angle_beta 97.924840
_cell_angle_gamma 90.000000
_cell_volume 913.140601
_symmetry_space_group_name_H-M "P 2/C"
_symmetry_group_IT_number 13
_symmetry_cell_setting 'monoclinic'
loop_
_space_group_symop_operation_xyz
x,y,z
-x,y,1/2-z
-x,-y,-z
x,-y,1/2+z
loop_
_atom_site_type_symbol
_atom_site_label
_atom_site_fract_x
_atom_site_fract_y
_atom_site_fract_z
Si Si1 0.790824 0.652961 0.868450
Si Si2 0.000000 0.485357 0.750000
Si Si3 0.000000 0.874322 0.250000
Si Si4 0.000000 0.830423 0.750000
Si Si5 0.652634 0.304650 0.662259
Si Si6 0.500000 0.022603 0.250000
Si Si7 0.647026 0.385993 0.015006
O O1 0.888099 0.757303 0.823427
O O2 0.017619 0.619255 0.952778
O O3 0.799512 0.560562 0.797684
O O4 0.489878 0.661662 0.902563
O O5 0.845011 0.408718 0.675755
O O6 0.845929 0.798685 0.173291
O O7 0.753289 0.941572 0.288524
O O8 0.278382 0.899291 0.790325
O O9 0.500000 0.303810 0.750000
O O10 0.441968 0.318697 0.572853
O O11 0.500000 0.500000 0.000000
#
# Coordination Sequence:
#
# PCOD9231936 Si02
#       7
#     4   2   2   2   4   2   4
#     4  11  24  40  60  95 127 170 204 254 302 364
#     4  10  22  36  60  88 132 162 216 238 294 376
#     4  10  22  38  66  94 116 156 212 266 312 372
#     4  10  22  42  72  90 120 162 212 264 316 372
#     4  11  23  38  62  93 126 169 206 247 307 368
#     4  10  20  42  70  94 110 152 224 266 320 368
#     4  12  24  38  60  91 139 173 204 242 298 365
#
# _framework density 21.902434
#
# number of rings (size 3 to 8) (size 9 to 14) (size 15 to 20)
#    0.000    1.200    3.000    3.000    5.600    1.600 
#    0.000    0.000    0.000   24.000    0.000    0.000 
#    0.000    0.000    0.000    0.000    0.000    0.000 
#
# Total GULP energy -111638.287599 kJ/mol
# GULP energy per Si atom -5581.914380 kJ/mol
# Density = 2.185258 g / cm^3
# Si number density = 21.902434 Si / 1000 Ang^3
#
#
#
# Elastic Constant Matrix: (Units=GPa)
#
#
# Indices 1 2 3 4 5 6 
#
# 1 115.3432 37.2927 15.3763 0.0000 -3.7189 0.0000
# 2 37.2927 112.3852 20.6371 0.0000 -1.9651 0.0000
# 3 15.3763 20.6371 72.9171 0.0000 -0.0215 0.0000
# 4 0.0000 0.0000 0.0000 -0.4966 0.0000 1.9614
# 5 -3.7189 -1.9651 -0.0215 0.0000 43.4841 0.0000
# 6 0.0000 0.0000 0.0000 1.9614 0.0000 11.3796
#
#
#
# Elastic Compliance Matrix: (Units=1/GPa)
#
#
# Indices 1 2 3 4 5 6 
#
# 1 0.009833 -0.003027 -0.001217 0.000000 0.000704 0.000000
# 2 -0.003027 0.010326 -0.002284 0.000000 0.000207 0.000000
# 3 -0.001217 -0.002284 0.014617 0.000000 -0.000200 0.000000
# 4 0.000000 0.000000 0.000000 -1.198140 0.000000 0.206515
# 5 0.000704 0.000207 -0.000200 0.000000 0.023066 0.000000
# 6 0.000000 0.000000 0.000000 0.206515 0.000000 0.052281
#
#
# Mechanical properties :
#
#
# Convention : Reuss Voigt Hill
#
# Bulk Modulus (GPa) = 46.03968 49.69530 47.86749
# Shear Modulus (GPa) = -4.68287 26.02940 10.67326
#
# Velocity S-wave (km/s) = -1.46380 3.45109 2.20990
# Velocity P-wave (km/s) = 4.26721 6.21440 5.33047
#
# Compressibility (1/GPa) = 0.02172039
#
# Stress axis : x y z
#
# Youngs Moduli (GPa) = 101.69388 96.84738 68.41310
#
# Poissons Ratio (x) = 0.29319 0.08323
# Poissons Ratio (y) = 0.30786 0.15625
# Poissons Ratio (z) = 0.12372 0.22119
#
# Static dielectric constant tensor:
#      x y z
#    x 1.845800 0.000000 0.003590 
#    y 0.000000 1.866140 0.000000 
#    z 0.003590 0.000000 1.782850 
# 
# From -- ./inp_files/43714.got.cif
#   From: 2010.05.17/outbox.cif.g08.bks.cpg/sg13_22_cif.got.tgz:43714.got - 2010.06.03 16:44:36.
