data_PCOD9231271
_publ_section_title
;
Structure prediction by ZEFSAII (Michael W. Deem and Ramdas Pophale) SiO2 
 PCOD9231271
Probable space group: P 2/C
;
_chemical_formula_sum "Si O2"
_cell_formula_units_Z 30
_cell_length_a 11.531717
_cell_length_b 8.501423
_cell_length_c 23.118312
_cell_angle_alpha 90.000000
_cell_angle_beta 37.476888
_cell_angle_gamma 90.000000
_cell_volume 1378.987876
_symmetry_space_group_name_H-M "P 2/C"
_symmetry_group_IT_number 13
_symmetry_cell_setting 'monoclinic'
loop_
_space_group_symop_operation_xyz
x,y,z
-x,y,1/2-z
-x,-y,-z
x,-y,1/2+z
loop_
_atom_site_type_symbol
_atom_site_label
_atom_site_fract_x
_atom_site_fract_y
_atom_site_fract_z
Si Si1 0.777609 0.856367 0.547416
Si Si2 0.500000 0.704253 0.750000
Si Si3 0.208048 0.821345 0.399620
Si Si4 0.251865 0.858914 0.252989
Si Si5 0.839673 0.747782 0.398034
Si Si6 0.490951 0.563464 0.173955
Si Si7 0.345781 0.447709 0.012894
Si Si8 0.467482 0.127050 0.561709
O O1 0.636001 0.796486 0.652998
O O2 0.737072 0.812596 0.497092
O O3 0.986475 0.779342 0.477453
O O4 0.791940 0.044104 0.551662
O O5 0.596360 0.577874 0.754894
O O6 0.268164 0.900487 0.314259
O O7 0.347639 0.675975 0.359197
O O8 0.324989 0.680560 0.222780
O O9 0.396043 0.941313 0.151513
O O10 0.033880 0.846753 0.320859
O O11 0.839788 0.556583 0.402742
O O12 0.718755 0.783022 0.389021
O O13 0.585331 0.503504 0.078105
O O14 0.500000 0.500000 0.000000
O O15 0.362750 0.256950 0.003629
O O16 0.500000 0.000000 0.500000
#
# Coordination Sequence:
#
# PCOD9231271 Si02
#       8
#     4   2   4   4   4   4   4   4
#     4  10  24  37  59  89 125 163 203 260 311 368
#     4  12  22  34  58  92 122 154 204 256 308 362
#     4  10  22  41  58  86 125 167 206 249 317 376
#     4  10  21  37  62  85 117 162 208 250 307 376
#     4  10  20  39  61  84 120 161 208 249 308 371
#     4  11  21  37  61  89 121 161 208 249 307 377
#     4   9  20  39  59  86 119 161 202 251 305 365
#     4  10  22  37  63  90 118 159 209 256 312 372
#
# _framework density 21.755085999999999
#
# number of rings (size 3 to 8) (size 9 to 14) (size 15 to 20)
#    0.000    1.867    2.667    0.400    5.600    1.600 
#    0.000    0.000    0.000    8.000    0.000    0.000 
#    0.000    0.000    0.000    0.000    0.000    0.000 
#
# Total GULP energy -167102.995519 kJ/mol
# GULP energy per Si atom -5570.099851 kJ/mol
# Density = 2.170557 g / cm^3
# Si number density = 21.755086 Si / 1000 Ang^3
#
#
#
# Elastic Constant Matrix: (Units=GPa)
#
#
# Indices 1 2 3 4 5 6 
#
# 1 78.7929 -0.7623 18.9270 0.0000 12.1199 0.0000
# 2 -0.7623 42.3524 17.9306 0.0000 8.1523 0.0000
# 3 18.9270 17.9306 93.4603 0.0000 22.0480 0.0000
# 4 0.0000 0.0000 0.0000 29.6317 0.0000 13.4968
# 5 12.1199 8.1523 22.0480 0.0000 34.4417 0.0000
# 6 0.0000 0.0000 0.0000 13.4968 0.0000 28.6727
#
#
#
# Elastic Compliance Matrix: (Units=1/GPa)
#
#
# Indices 1 2 3 4 5 6 
#
# 1 0.013852 0.001956 -0.002263 0.000000 -0.003889 0.000000
# 2 0.001956 0.026327 -0.004493 0.000000 -0.004044 0.000000
# 3 -0.002263 -0.004493 0.013641 0.000000 -0.006873 0.000000
# 4 0.000000 0.000000 0.000000 0.042958 0.000000 -0.020221
# 5 -0.003889 -0.004044 -0.006873 0.000000 0.035760 0.000000
# 6 0.000000 0.000000 0.000000 -0.020221 0.000000 0.044395
#
#
# Mechanical properties :
#
#
# Convention : Reuss Voigt Hill
#
# Bulk Modulus (GPa) = 22.61408 31.86624 27.24016
# Shear Modulus (GPa) = 24.84176 30.44992 27.64584
#
# Velocity S-wave (km/s) = 3.38284 3.74527 3.56866
# Velocity P-wave (km/s) = 5.06711 5.77774 5.43405
#
# Compressibility (1/GPa) = 0.04422025
#
# Stress axis : x y z
#
# Youngs Moduli (GPa) = 72.19059 37.98350 73.30625
#
# Poissons Ratio (x) = -0.07430 0.16590
# Poissons Ratio (y) = -0.14120 0.32938
# Poissons Ratio (z) = 0.16338 0.17067
#
# Static dielectric constant tensor:
#      x y z
#    x 1.841990 0.000000 0.079830 
#    y 0.000000 1.868770 0.000000 
#    z 0.079830 0.000000 2.300390 
# 
# From -- ./inp_files/86362.got.cif
#   From: 2010.05.17/outbox.cif.g08.bks.cpg/sg13_44_cif.got.tgz:86362.got - 2010.06.03 16:44:36.
