data_PCOD9231878
_publ_section_title
;
Structure prediction by ZEFSAII (Michael W. Deem and Ramdas Pophale) SiO2 
 PCOD9231878
Probable space group: P 2/C
;
_chemical_formula_sum "Si O2"
_cell_formula_units_Z 26
_cell_length_a 11.986025
_cell_length_b 14.043829
_cell_length_c 15.454663
_cell_angle_alpha 90.000000
_cell_angle_beta 31.872499
_cell_angle_gamma 90.000000
_cell_volume 1373.660759
_symmetry_space_group_name_H-M "P 2/C"
_symmetry_group_IT_number 13
_symmetry_cell_setting 'monoclinic'
loop_
_space_group_symop_operation_xyz
x,y,z
-x,y,1/2-z
-x,-y,-z
x,-y,1/2+z
loop_
_atom_site_type_symbol
_atom_site_label
_atom_site_fract_x
_atom_site_fract_y
_atom_site_fract_z
Si Si1 0.892065 0.212975 0.171169
Si Si2 0.086640 0.733949 0.286770
Si Si3 0.500000 0.323476 0.750000
Si Si4 0.081442 0.606430 0.451904
Si Si5 0.747505 0.126062 0.096370
Si Si6 0.459624 0.205144 0.958952
Si Si7 0.706549 0.081099 0.554807
O O1 0.792942 0.138847 0.167966
O O2 0.732196 0.236063 0.353650
O O3 0.938990 0.312265 0.091603
O O4 0.109556 0.159718 0.054397
O O5 0.111031 0.645008 0.335002
O O6 0.316107 0.785039 0.140870
O O7 0.000000 0.707618 0.250000
O O8 0.909229 0.803323 0.443228
O O9 0.703953 0.386639 0.634530
O O10 0.476985 0.263778 0.855987
O O11 0.000000 0.500000 0.500000
O O12 0.500000 0.149206 0.250000
O O13 0.786493 0.022281 0.029641
O O14 0.390516 0.098643 0.975967
O O15 0.500000 0.094527 0.750000
#
# Coordination Sequence:
#
# PCOD9231878 Si02
#       7
#     4   4   2   4   4   4   4
#     4  11  22  38  63  92 123 163 214 258 311 374
#     4  10  22  43  62  88 129 166 203 259 321 369
#     4  10  20  42  66  88 124 164 204 266 314 364
#     4  10  22  43  64  91 123 162 205 258 320 372
#     4  10  22  38  59  87 128 167 210 251 315 372
#     4  11  21  39  67  90 124 167 212 260 312 368
#     4  11  20  37  60  90 125 165 206 260 307 361
#
# _framework density 18.927524999999999
#
# number of rings (size 3 to 8) (size 9 to 14) (size 15 to 20)
#    0.000    1.538    2.308    3.692    0.000    2.462 
#   11.077    6.154    0.000    0.000    0.000    0.000 
#    0.000    0.000    0.000    0.000    0.000    0.000 
#
# Total GULP energy -144836.440575 kJ/mol
# GULP energy per Si atom -5570.632330 kJ/mol
# Density = 1.888445 g / cm^3
# Si number density = 18.927525 Si / 1000 Ang^3
#
#
#
# Elastic Constant Matrix: (Units=GPa)
#
#
# Indices 1 2 3 4 5 6 
#
# 1 129.0542 34.1990 33.2174 0.0000 -12.5408 0.0000
# 2 34.1990 106.2728 25.1349 0.0000 -10.1796 0.0000
# 3 33.2174 25.1349 93.1079 0.0000 -9.1053 0.0000
# 4 0.0000 0.0000 0.0000 11.0934 0.0000 -5.2941
# 5 -12.5408 -10.1796 -9.1053 0.0000 37.4107 0.0000
# 6 0.0000 0.0000 0.0000 -5.2941 0.0000 21.9988
#
#
#
# Elastic Compliance Matrix: (Units=1/GPa)
#
#
# Indices 1 2 3 4 5 6 
#
# 1 0.009149 -0.002175 -0.002494 0.000000 0.001868 0.000000
# 2 -0.002175 0.010736 -0.001954 0.000000 0.001717 0.000000
# 3 -0.002494 -0.001954 0.012317 0.000000 0.001630 0.000000
# 4 0.000000 0.000000 0.000000 0.101839 0.000000 0.024508
# 5 0.001868 0.001717 0.001630 0.000000 0.028220 0.000000
# 6 0.000000 0.000000 0.000000 0.024508 0.000000 0.051355
#
#
# Mechanical properties :
#
#
# Convention : Reuss Voigt Hill
#
# Bulk Modulus (GPa) = 52.75750 57.05972 54.90861
# Shear Modulus (GPa) = 21.44252 29.82617 25.63434
#
# Velocity S-wave (km/s) = 3.36947 3.97395 3.68413
# Velocity P-wave (km/s) = 6.56291 7.16019 6.86804
#
# Compressibility (1/GPa) = 0.01895465
#
# Stress axis : x y z
#
# Youngs Moduli (GPa) = 109.30682 93.14092 81.18869
#
# Poissons Ratio (x) = 0.20261 0.20248
# Poissons Ratio (y) = 0.23777 0.15868
# Poissons Ratio (z) = 0.27261 0.18204
#
# Static dielectric constant tensor:
#      x y z
#    x 1.711520 0.000000 0.015100 
#    y 0.000000 1.677130 0.000000 
#    z 0.015100 0.000000 1.721090 
# 
# From -- ./inp_files/51405.got.cif
#   From: 2010.05.17/outbox.cif.g08.bks.cpg/sg13_26_cif.got.tgz:51405.got - 2010.06.03 16:44:36.
