data_PCOD9231121
_publ_section_title
;
Structure prediction by ZEFSAII (Michael W. Deem and Ramdas Pophale) SiO2 
 PCOD9231121
Probable space group: P 2/C
;
_chemical_formula_sum "Si O2"
_cell_formula_units_Z 20
_cell_length_a 8.825678
_cell_length_b 10.344338
_cell_length_c 11.280216
_cell_angle_alpha 90.000000
_cell_angle_beta 129.124980
_cell_angle_gamma 90.000000
_cell_volume 798.917518
_symmetry_space_group_name_H-M "P 2/C"
_symmetry_group_IT_number 13
_symmetry_cell_setting 'monoclinic'
loop_
_space_group_symop_operation_xyz
x,y,z
-x,y,1/2-z
-x,-y,-z
x,-y,1/2+z
loop_
_atom_site_type_symbol
_atom_site_label
_atom_site_fract_x
_atom_site_fract_y
_atom_site_fract_z
Si Si1 0.209271 0.545854 0.831407
Si Si2 0.770617 0.874425 0.959255
Si Si3 0.593161 0.808772 0.545891
Si Si4 0.270682 0.590460 0.610850
Si Si5 0.500000 0.082218 0.750000
Si Si6 0.000000 0.968799 0.750000
O O1 0.367848 0.657550 0.920144
O O2 0.201199 0.502658 0.688767
O O3 0.000000 0.609129 0.750000
O O4 0.233501 0.453400 0.957270
O O5 0.949906 0.934066 0.117924
O O6 0.585380 0.850375 0.957229
O O7 0.810361 0.736979 0.918315
O O8 0.684950 0.986900 0.835467
O O9 0.522986 0.835224 0.378451
O O10 0.800421 0.884438 0.662135
O O11 0.500000 0.597358 0.750000
#
# Coordination Sequence:
#
# PCOD9231121 Si02
#       6
#     4   4   4   4   2   2
#     4  12  27  49  71 109 144 189 244 299 358 429
#     4  11  23  45  68 104 143 184 239 290 367 417
#     4  11  23  44  68 102 146 182 242 291 362 423
#     4  12  26  48  76 102 146 190 242 300 359 430
#     4  10  20  38  64  96 136 182 226 288 338 430
#     4  10  22  42  70 102 142 192 232 298 352 436
#
# _framework density 25.033873
#
# number of rings (size 3 to 8) (size 9 to 14) (size 15 to 20)
#    0.000    0.800    4.000    3.600    2.800    0.000 
#    7.200    9.000    0.000    0.000    0.000    0.000 
#    0.000    0.000    0.000    0.000    0.000    0.000 
#
# Total GULP energy -111842.672398 kJ/mol
# GULP energy per Si atom -5592.133620 kJ/mol
# Density = 2.497689 g / cm^3
# Si number density = 25.033873 Si / 1000 Ang^3
#
#
#
# Elastic Constant Matrix: (Units=GPa)
#
#
# Indices 1 2 3 4 5 6 
#
# 1 109.0168 29.9160 52.8455 0.0000 -21.2819 0.0000
# 2 29.9160 51.5064 22.0470 0.0000 -5.5965 0.0000
# 3 52.8455 22.0470 156.1296 0.0000 -22.6906 0.0000
# 4 0.0000 0.0000 0.0000 30.5042 0.0000 -17.3004
# 5 -21.2819 -5.5965 -22.6906 0.0000 47.6299 0.0000
# 6 0.0000 0.0000 0.0000 -17.3004 0.0000 20.3278
#
#
#
# Elastic Compliance Matrix: (Units=1/GPa)
#
#
# Indices 1 2 3 4 5 6 
#
# 1 0.012956 -0.005831 -0.003030 0.000000 0.003661 0.000000
# 2 -0.005831 0.023343 -0.001400 0.000000 -0.000529 0.000000
# 3 -0.003030 -0.001400 0.007959 0.000000 0.002273 0.000000
# 4 0.000000 0.000000 0.000000 0.063370 0.000000 0.053933
# 5 0.003661 -0.000529 0.002273 0.000000 0.023651 0.000000
# 6 0.000000 0.000000 0.000000 0.053933 0.000000 0.095095
#
#
# Mechanical properties :
#
#
# Convention : Reuss Voigt Hill
#
# Bulk Modulus (GPa) = 42.12755 58.47442 50.30098
# Shear Modulus (GPa) = 19.62266 33.81533 26.71900
#
# Velocity S-wave (km/s) = 2.80276 3.67929 3.27052
# Velocity P-wave (km/s) = 5.22864 6.43882 5.86503
#
# Compressibility (1/GPa) = 0.02373743
#
# Stress axis : x y z
#
# Youngs Moduli (GPa) = 77.18265 42.83898 125.65162
#
# Poissons Ratio (x) = 0.24978 0.38073
# Poissons Ratio (y) = 0.45002 0.17588
# Poissons Ratio (z) = 0.23386 0.05996
#
# Static dielectric constant tensor:
#      x y z
#    x 2.057980 0.000000 -0.076240 
#    y 0.000000 1.960920 0.000000 
#    z -0.076240 0.000000 2.009090 
# 
# From -- ./inp_files/28982.got.cif
#   From: 2010.05.17/outbox.cif.g08.bks.cpg/sg13_15_cif.got.tgz:28982.got - 2010.06.03 16:44:36.
