data_PCOD9231877
_publ_section_title
;
Structure prediction by ZEFSAII (Michael W. Deem and Ramdas Pophale) SiO2 
 PCOD9231877
Probable space group: P 2/C
;
_chemical_formula_sum "Si O2"
_cell_formula_units_Z 16
_cell_length_a 18.431932
_cell_length_b 4.969758
_cell_length_c 27.609752
_cell_angle_alpha 90.000000
_cell_angle_beta 19.561816
_cell_angle_gamma 90.000000
_cell_volume 846.807633
_symmetry_space_group_name_H-M "P 2/C"
_symmetry_group_IT_number 13
_symmetry_cell_setting 'monoclinic'
loop_
_space_group_symop_operation_xyz
x,y,z
-x,y,1/2-z
-x,-y,-z
x,-y,1/2+z
loop_
_atom_site_type_symbol
_atom_site_label
_atom_site_fract_x
_atom_site_fract_y
_atom_site_fract_z
Si Si1 0.029931 0.095871 0.087374
Si Si2 0.872581 0.160222 0.879196
Si Si3 0.377304 0.694337 0.430172
Si Si4 0.118826 0.592607 0.376848
O O1 0.901321 0.354987 0.150092
O O2 0.974335 0.966796 0.174897
O O3 0.275673 0.194219 0.943761
O O4 0.997548 0.859342 0.069762
O O5 0.000000 0.210873 0.750000
O O6 0.754891 0.425743 0.973155
O O7 0.690947 0.926947 0.988831
O O8 0.630555 0.649474 0.270326
O O9 0.000000 0.500000 0.500000
#
# Coordination Sequence:
#
# PCOD9231877 Si02
#       4
#     4   4   4   4
#     4  10  22  43  60  92 130 156 213 255 302 375
#     4  10  20  42  66  87 126 169 201 258 316 360
#     4  10  22  41  64  91 129 159 210 253 308 373
#     4  12  24  42  64  94 125 164 210 256 306 371
#
# _framework density 18.894492
#
# number of rings (size 3 to 8) (size 9 to 14) (size 15 to 20)
#    1.500    0.000    2.500    3.000    0.000    1.000 
#    4.500    7.500    0.000    0.000    0.000    0.000 
#    0.000    0.000    0.000    0.000    0.000    0.000 
#
# Total GULP energy -89113.847846 kJ/mol
# GULP energy per Si atom -5569.615490 kJ/mol
# Density = 1.885149 g / cm^3
# Si number density = 18.894492 Si / 1000 Ang^3
#
#
#
# Elastic Constant Matrix: (Units=GPa)
#
#
# Indices 1 2 3 4 5 6 
#
# 1 122.9089 52.8916 86.4321 0.0000 -13.1726 0.0000
# 2 52.8916 156.9479 65.1083 0.0000 -16.0085 0.0000
# 3 86.4321 65.1083 133.4682 0.0000 -8.5405 0.0000
# 4 0.0000 0.0000 0.0000 11.1378 0.0000 -0.4262
# 5 -13.1726 -16.0085 -8.5405 0.0000 28.6742 0.0000
# 6 0.0000 0.0000 0.0000 -0.4262 0.0000 18.2793
#
#
#
# Elastic Compliance Matrix: (Units=1/GPa)
#
#
# Indices 1 2 3 4 5 6 
#
# 1 0.015530 -0.000970 -0.009340 0.000000 0.003811 0.000000
# 2 -0.000970 0.008380 -0.003251 0.000000 0.003264 0.000000
# 3 -0.009340 -0.003251 0.015022 0.000000 -0.001631 0.000000
# 4 0.000000 0.000000 0.000000 0.089864 0.000000 0.002095
# 5 0.003811 0.003264 -0.001631 0.000000 0.037962 0.000000
# 6 0.000000 0.000000 0.000000 0.002095 0.000000 0.054756
#
#
# Mechanical properties :
#
#
# Convention : Reuss Voigt Hill
#
# Bulk Modulus (GPa) = 84.67052 91.35432 88.01242
# Shear Modulus (GPa) = 19.79629 25.54446 22.67037
#
# Velocity S-wave (km/s) = 3.24037 3.68088 3.46763
# Velocity P-wave (km/s) = 7.67526 8.15597 7.91926
#
# Compressibility (1/GPa) = 0.01181049
#
# Stress axis : x y z
#
# Youngs Moduli (GPa) = 64.39115 119.33124 66.56861
#
# Poissons Ratio (x) = 0.11580 0.62174
# Poissons Ratio (y) = 0.06249 0.21639
# Poissons Ratio (z) = 0.60140 0.38790
#
# Static dielectric constant tensor:
#      x y z
#    x 1.671600 0.000000 -0.015680 
#    y 0.000000 1.683330 0.000000 
#    z -0.015680 0.000000 1.631410 
# 
# From -- ./inp_files/31264.got.cif
#   From: 2010.05.17/outbox.cif.g08.bks.cpg/sg13_16_cif.got.tgz:31264.got - 2010.06.03 16:44:36.
