data_PCOD9231583
_publ_section_title
;
Structure prediction by ZEFSAII (Michael W. Deem and Ramdas Pophale) SiO2 
 PCOD9231583
Probable space group: P 2/C
;
_chemical_formula_sum "Si O2"
_cell_formula_units_Z 14
_cell_length_a 12.415021
_cell_length_b 8.950188
_cell_length_c 8.111981
_cell_angle_alpha 90.000000
_cell_angle_beta 33.988315
_cell_angle_gamma 90.000000
_cell_volume 503.891291
_symmetry_space_group_name_H-M "P 2/C"
_symmetry_group_IT_number 13
_symmetry_cell_setting 'monoclinic'
loop_
_space_group_symop_operation_xyz
x,y,z
-x,y,1/2-z
-x,-y,-z
x,-y,1/2+z
loop_
_atom_site_type_symbol
_atom_site_label
_atom_site_fract_x
_atom_site_fract_y
_atom_site_fract_z
Si Si1 0.512595 0.261387 0.406867
Si Si2 0.748618 0.163861 0.369115
Si Si3 0.221331 0.471028 0.249493
Si Si4 0.000000 0.053446 0.750000
O O1 0.500000 0.177401 0.250000
O O2 0.551596 0.154593 0.512158
O O3 0.692965 0.377926 0.201933
O O4 0.335610 0.374908 0.614690
O O5 0.738975 0.338162 0.434383
O O6 0.915721 0.143194 0.012899
O O7 0.828853 0.053038 0.402957
O O8 0.000000 0.500000 0.500000
#
# Coordination Sequence:
#
# PCOD9231583 Si02
#       4
#     4   4   4   2
#     4   9  20  37  60  96 125 155 214 277 326 372
#     4   9  21  38  64  91 132 169 223 258 316 392
#     4   9  20  37  62  93 119 165 207 276 330 367
#     4  10  20  40  64  94 130 190 212 250 320 392
#
# _framework density 27.783771000000002
#
# number of rings (size 3 to 8) (size 9 to 14) (size 15 to 20)
#    1.714    1.143    0.000    0.000    4.000    3.429 
#    0.000    1.429    0.000    0.000    0.000    0.000 
#    0.000    0.000    0.000    0.000    0.000    0.000 
#
# Total GULP energy -77999.371550 kJ/mol
# GULP energy per Si atom -5571.383682 kJ/mol
# Density = 2.772053 g / cm^3
# Si number density = 27.783771 Si / 1000 Ang^3
#
#
#
# Elastic Constant Matrix: (Units=GPa)
#
#
# Indices 1 2 3 4 5 6 
#
# 1 217.4943 61.8449 67.5773 0.0000 -33.4968 0.0000
# 2 61.8449 122.7806 41.9445 0.0000 -19.9633 0.0000
# 3 67.5773 41.9445 78.7027 0.0000 -49.2068 0.0000
# 4 0.0000 0.0000 0.0000 49.7233 0.0000 -27.4484
# 5 -33.4968 -19.9633 -49.2068 0.0000 74.3424 0.0000
# 6 0.0000 0.0000 0.0000 -27.4484 0.0000 67.4975
#
#
#
# Elastic Compliance Matrix: (Units=1/GPa)
#
#
# Indices 1 2 3 4 5 6 
#
# 1 0.006594 -0.001628 -0.005477 0.000000 -0.001091 0.000000
# 2 -0.001628 0.010450 -0.004905 0.000000 -0.001174 0.000000
# 3 -0.005477 -0.004905 0.030122 0.000000 0.016153 0.000000
# 4 0.000000 0.000000 0.000000 0.025933 0.000000 0.010546
# 5 -0.001091 -0.001174 0.016153 0.000000 0.023336 0.000000
# 6 0.000000 0.000000 0.000000 0.010546 0.000000 0.019104
#
#
# Mechanical properties :
#
#
# Convention : Reuss Voigt Hill
#
# Bulk Modulus (GPa) = 43.20476 84.63456 63.91966
# Shear Modulus (GPa) = 33.95055 54.82004 44.38530
#
# Velocity S-wave (km/s) = 3.49944 4.44677 4.00124
# Velocity P-wave (km/s) = 5.64909 7.54275 6.66353
#
# Compressibility (1/GPa) = 0.02314560
#
# Stress axis : x y z
#
# Youngs Moduli (GPa) = 151.64459 95.69826 33.19871
#
# Poissons Ratio (x) = 0.15580 0.18181
# Poissons Ratio (y) = 0.24689 0.16285
# Poissons Ratio (z) = 0.83048 0.46944
#
# Static dielectric constant tensor:
#      x y z
#    x 2.154180 0.000000 0.163100 
#    y 0.000000 2.248910 0.000000 
#    z 0.163100 0.000000 2.438420 
# 
# From -- ./inp_files/14677.got.cif
#   From: 2010.05.17/outbox.cif.g08.bks.cpg/sg13_8_cif.got.tgz:14677.got - 2010.06.03 16:44:36.
