data_PCOD9231289
_publ_section_title
;
Structure prediction by ZEFSAII (Michael W. Deem and Ramdas Pophale) SiO2 
 PCOD9231289
Probable space group: P 2/C
;
_chemical_formula_sum "Si O2"
_cell_formula_units_Z 20
_cell_length_a 12.600865
_cell_length_b 10.612133
_cell_length_c 16.845434
_cell_angle_alpha 90.000000
_cell_angle_beta 156.869565
_cell_angle_gamma 90.000000
_cell_volume 884.881466
_symmetry_space_group_name_H-M "P 2/C"
_symmetry_group_IT_number 13
_symmetry_cell_setting 'monoclinic'
loop_
_space_group_symop_operation_xyz
x,y,z
-x,y,1/2-z
-x,-y,-z
x,-y,1/2+z
loop_
_atom_site_type_symbol
_atom_site_label
_atom_site_fract_x
_atom_site_fract_y
_atom_site_fract_z
Si Si1 0.500000 0.027856 0.750000
Si Si2 0.292491 0.234635 0.488601
Si Si3 0.303961 0.593682 0.756875
Si Si4 0.500000 0.571702 0.250000
Si Si5 0.271445 0.649340 0.332454
Si Si6 0.798526 0.786533 0.929212
O O1 0.410240 0.112394 0.614022
O O2 0.747318 0.935811 0.894344
O O3 0.300264 0.340964 0.561875
O O4 0.493910 0.288034 0.560208
O O5 0.000000 0.214639 0.250000
O O6 0.336237 0.508126 0.701243
O O7 0.213234 0.492660 0.761024
O O8 0.147112 0.717308 0.617624
O O9 0.596813 0.638049 0.990707
O O10 0.016417 0.737030 0.141154
O O11 0.500000 0.742031 0.750000
#
# Coordination Sequence:
#
# PCOD9231289 Si02
#       6
#     2   4   4   2   4   4
#     4   9  23  42  62  86 121 169 212 254 308 353
#     4  10  22  41  62  89 123 165 212 259 305 359
#     4  10  20  39  61  93 125 156 197 253 311 373
#     4   9  19  38  62  90 123 165 198 246 316 373
#     4  10  23  38  63  96 123 156 207 251 310 372
#     4  10  22  41  62  87 122 165 202 254 304 365
#
# _framework density 22.601897999999998
#
# number of rings (size 3 to 8) (size 9 to 14) (size 15 to 20)
#    0.600    1.600    1.000    0.600    0.000   12.800 
#    0.000    2.000    0.000    0.000    0.000    0.000 
#    0.000    0.000    0.000    0.000    0.000    0.000 
#
# Total GULP energy -111679.218916 kJ/mol
# GULP energy per Si atom -5583.960946 kJ/mol
# Density = 2.255045 g / cm^3
# Si number density = 22.601898 Si / 1000 Ang^3
#
#
#
# Elastic Constant Matrix: (Units=GPa)
#
#
# Indices 1 2 3 4 5 6 
#
# 1 63.1464 18.8110 22.4100 0.0000 -5.3753 0.0000
# 2 18.8110 129.1451 51.8539 0.0000 -9.8334 0.0000
# 3 22.4100 51.8539 174.5158 0.0000 -13.4961 0.0000
# 4 0.0000 0.0000 0.0000 26.7446 0.0000 10.5418
# 5 -5.3753 -9.8334 -13.4961 0.0000 39.7267 0.0000
# 6 0.0000 0.0000 0.0000 10.5418 0.0000 13.5037
#
#
#
# Elastic Compliance Matrix: (Units=1/GPa)
#
#
# Indices 1 2 3 4 5 6 
#
# 1 0.017026 -0.001751 -0.001563 0.000000 0.001340 0.000000
# 2 -0.001751 0.009040 -0.002369 0.000000 0.001196 0.000000
# 3 -0.001563 -0.002369 0.006750 0.000000 0.001495 0.000000
# 4 0.000000 0.000000 0.000000 0.054010 0.000000 -0.042163
# 5 0.001340 0.001196 0.001495 0.000000 0.026157 0.000000
# 6 0.000000 0.000000 0.000000 -0.042163 0.000000 0.106969
#
#
# Mechanical properties :
#
#
# Convention : Reuss Voigt Hill
#
# Bulk Modulus (GPa) = 46.61391 61.43969 54.02680
# Shear Modulus (GPa) = 20.96716 34.24384 27.60550
#
# Velocity S-wave (km/s) = 3.04908 3.89663 3.49862
# Velocity P-wave (km/s) = 5.75017 6.89111 6.34633
#
# Compressibility (1/GPa) = 0.02145282
#
# Stress axis : x y z
#
# Youngs Moduli (GPa) = 58.73263 110.61404 148.14105
#
# Poissons Ratio (x) = 0.19364 0.23149
# Poissons Ratio (y) = 0.10282 0.35093
# Poissons Ratio (z) = 0.09178 0.26203
#
# Static dielectric constant tensor:
#      x y z
#    x 1.902810 0.000000 0.037760 
#    y 0.000000 1.854570 0.000000 
#    z 0.037760 0.000000 1.830480 
# 
# From -- ./inp_files/68482.got.cif
#   From: 2010.05.17/outbox.cif.g08.bks.cpg/sg13_35_cif.got.tgz:68482.got - 2010.06.03 16:44:36.
