data_PCOD9231831
_publ_section_title
;
Structure prediction by ZEFSAII (Michael W. Deem and Ramdas Pophale) SiO2 
 PCOD9231831
Probable space group: P 2/C
;
_chemical_formula_sum "Si O2"
_cell_formula_units_Z 30
_cell_length_a 23.338555
_cell_length_b 11.706063
_cell_length_c 12.753567
_cell_angle_alpha 90.000000
_cell_angle_beta 23.945549
_cell_angle_gamma 90.000000
_cell_volume 1414.169907
_symmetry_space_group_name_H-M "P 2/C"
_symmetry_group_IT_number 13
_symmetry_cell_setting 'monoclinic'
loop_
_space_group_symop_operation_xyz
x,y,z
-x,y,1/2-z
-x,-y,-z
x,-y,1/2+z
loop_
_atom_site_type_symbol
_atom_site_label
_atom_site_fract_x
_atom_site_fract_y
_atom_site_fract_z
Si Si1 0.592064 0.322544 0.799235
Si Si2 0.877251 0.591633 0.182301
Si Si3 0.823705 0.834126 0.375589
Si Si4 0.438004 0.448224 0.245376
Si Si5 0.741340 0.068339 0.794635
Si Si6 0.000000 0.045868 0.750000
Si Si7 0.835146 0.292649 0.540284
Si Si8 0.568277 0.099955 0.454623
O O1 0.537471 0.417328 0.809623
O O2 0.755596 0.324000 0.565144
O O3 0.508379 0.368870 0.041122
O O4 0.546486 0.198327 0.836861
O O5 0.885743 0.719005 0.218407
O O6 0.729567 0.555134 0.478668
O O7 0.850714 0.608333 0.101849
O O8 0.000000 0.500000 0.000000
O O9 0.774088 0.914329 0.362002
O O10 0.948022 0.882565 0.238297
O O11 0.692358 0.837644 0.678078
O O12 0.500000 0.406737 0.250000
O O13 0.729910 0.196932 0.767047
O O14 0.874096 0.027588 0.505422
O O15 0.628634 0.971219 0.952743
O O16 0.000000 0.257133 0.250000
O O17 0.500000 0.000000 0.500000
#
# Coordination Sequence:
#
# PCOD9231831 Si02
#       8
#     4   4   4   4   4   2   4   4
#     4  11  23  42  68  93 133 174 222 284 339 402
#     4  11  23  43  65  97 130 174 231 281 335 403
#     4  10  23  41  64  93 132 175 220 278 337 402
#     4  11  23  45  66  92 130 176 224 277 342 401
#     4  10  21  38  64  92 130 169 213 268 334 404
#     4  10  20  42  60  88 132 172 210 262 332 402
#     4  11  21  39  66  96 128 172 221 275 335 407
#     4  11  22  41  66  99 130 173 226 275 342 417
#
# _framework density 21.21386
#
# number of rings (size 3 to 8) (size 9 to 14) (size 15 to 20)
#    0.000    1.333    4.667    1.200    0.000    0.533 
#   10.800    0.000    0.000    0.000    0.000    0.000 
#    0.000    0.000    0.000    0.000    0.000    0.000 
#
# Total GULP energy -167125.624651 kJ/mol
# GULP energy per Si atom -5570.854155 kJ/mol
# Density = 2.116558 g / cm^3
# Si number density = 21.213860 Si / 1000 Ang^3
#
#
#
# Elastic Constant Matrix: (Units=GPa)
#
#
# Indices 1 2 3 4 5 6 
#
# 1 109.9958 45.6068 8.0457 0.0000 -6.7560 0.0000
# 2 45.6068 107.4252 17.7336 0.0000 -18.1903 0.0000
# 3 8.0457 17.7336 61.6696 0.0000 -18.6195 0.0000
# 4 0.0000 0.0000 0.0000 31.3572 0.0000 -17.4062
# 5 -6.7560 -18.1903 -18.6195 0.0000 29.0347 0.0000
# 6 0.0000 0.0000 0.0000 -17.4062 0.0000 44.6848
#
#
#
# Elastic Compliance Matrix: (Units=1/GPa)
#
#
# Indices 1 2 3 4 5 6 
#
# 1 0.011041 -0.004741 -0.000246 0.000000 -0.000559 0.000000
# 2 -0.004741 0.012531 -0.001175 0.000000 0.005994 0.000000
# 3 -0.000246 -0.001175 0.020271 0.000000 0.012206 0.000000
# 4 0.000000 0.000000 0.000000 0.040689 0.000000 0.015850
# 5 -0.000559 0.005994 0.012206 0.000000 0.045894 0.000000
# 6 0.000000 0.000000 0.000000 0.015850 0.000000 0.028553
#
#
# Mechanical properties :
#
#
# Convention : Reuss Voigt Hill
#
# Bulk Modulus (GPa) = 31.72842 46.87367 39.30104
# Shear Modulus (GPa) = 27.50156 34.86232 31.18194
#
# Velocity S-wave (km/s) = 3.60446 4.05825 3.83807
# Velocity P-wave (km/s) = 5.68434 6.64101 6.18121
#
# Compressibility (1/GPa) = 0.03151749
#
# Stress axis : x y z
#
# Youngs Moduli (GPa) = 90.57326 79.80452 49.33238
#
# Poissons Ratio (x) = 0.37839 0.01213
# Poissons Ratio (y) = 0.42944 0.05797
# Poissons Ratio (z) = 0.02226 0.09378
#
# Static dielectric constant tensor:
#      x y z
#    x 1.786200 0.000000 0.013120 
#    y 0.000000 1.914650 0.000000 
#    z 0.013120 0.000000 1.771490 
# 
# From -- ./inp_files/40882.got.cif
#   From: 2010.05.17/outbox.cif.g08.bks.cpg/sg13_21_cif.got.tgz:40882.got - 2010.06.03 16:44:36.
