data_PCOD9231215
_publ_section_title
;
Structure prediction by ZEFSAII (Michael W. Deem and Ramdas Pophale) SiO2 
 PCOD9231215
Probable space group: P 2/C
;
_chemical_formula_sum "Si O2"
_cell_formula_units_Z 24
_cell_length_a 9.227375
_cell_length_b 10.840283
_cell_length_c 22.972109
_cell_angle_alpha 90.000000
_cell_angle_beta 25.467186
_cell_angle_gamma 90.000000
_cell_volume 988.057366
_symmetry_space_group_name_H-M "P 2/C"
_symmetry_group_IT_number 13
_symmetry_cell_setting 'monoclinic'
loop_
_space_group_symop_operation_xyz
x,y,z
-x,y,1/2-z
-x,-y,-z
x,-y,1/2+z
loop_
_atom_site_type_symbol
_atom_site_label
_atom_site_fract_x
_atom_site_fract_y
_atom_site_fract_z
Si Si1 0.905782 0.352583 0.910081
Si Si2 0.500000 0.808200 0.250000
Si Si3 0.503790 0.964254 0.431077
Si Si4 0.404847 0.199691 0.170275
Si Si5 0.039828 0.851405 0.517019
Si Si6 0.117611 0.622328 0.864022
Si Si7 0.000000 0.740745 0.250000
O O1 0.224177 0.276865 0.819020
O O2 0.942796 0.493806 0.915106
O O3 0.913094 0.337616 0.838202
O O4 0.594031 0.284891 0.054129
O O5 0.301914 0.882564 0.371092
O O6 0.694934 0.836532 0.351157
O O7 0.134736 0.938226 0.536872
O O8 0.500000 0.000000 0.500000
O O9 0.682137 0.074363 0.331162
O O10 0.669616 0.155429 0.123897
O O11 0.148062 0.289030 0.296506
O O12 0.084325 0.706853 0.517454
O O13 0.500000 0.601342 0.750000
#
# Coordination Sequence:
#
# PCOD9231215 Si02
#       7
#     4   2   4   4   4   4   2
#     4  11  22  42  66  96 132 175 219 267 334 400
#     4  10  20  38  70  92 124 172 218 270 330 380
#     4  12  25  45  65  93 140 173 225 274 332 399
#     4  10  24  42  68 100 126 177 224 276 336 382
#     4  10  23  43  68 100 128 172 226 276 332 394
#     4  10  23  42  69 102 133 166 222 282 330 388
#     4  12  26  44  64  98 136 184 218 268 338 406
#
# _framework density 24.290087
#
# number of rings (size 3 to 8) (size 9 to 14) (size 15 to 20)
#    0.000    1.333    4.167    0.500    4.667    2.000 
#    7.500    1.667    0.000    0.000    0.000    0.000 
#    0.000    0.000    0.000    0.000    0.000    0.000 
#
# Total GULP energy -134374.792857 kJ/mol
# GULP energy per Si atom -5598.949702 kJ/mol
# Density = 2.423480 g / cm^3
# Si number density = 24.290087 Si / 1000 Ang^3
#
#
#
# Elastic Constant Matrix: (Units=GPa)
#
#
# Indices 1 2 3 4 5 6 
#
# 1 132.7011 47.6548 18.5458 0.0000 20.4989 0.0000
# 2 47.6548 141.0244 -3.1673 0.0000 1.8644 0.0000
# 3 18.5458 -3.1673 48.6112 0.0000 12.1847 0.0000
# 4 0.0000 0.0000 0.0000 -11.6841 0.0000 28.6324
# 5 20.4989 1.8644 12.1847 0.0000 32.5956 0.0000
# 6 0.0000 0.0000 0.0000 28.6324 0.0000 39.6725
#
#
#
# Elastic Compliance Matrix: (Units=1/GPa)
#
#
# Indices 1 2 3 4 5 6 
#
# 1 0.009890 -0.003337 -0.002736 0.000000 -0.005006 0.000000
# 2 -0.003337 0.008240 0.001547 0.000000 0.001049 0.000000
# 3 -0.002736 0.001547 0.023510 0.000000 -0.007156 0.000000
# 4 0.000000 0.000000 0.000000 -0.030913 0.000000 0.022311
# 5 -0.005006 0.001049 -0.007156 0.000000 0.036442 0.000000
# 6 0.000000 0.000000 0.000000 0.022311 0.000000 0.009104
#
#
# Mechanical properties :
#
#
# Convention : Reuss Voigt Hill
#
# Bulk Modulus (GPa) = 30.68682 49.82259 40.25471
# Shear Modulus (GPa) = 65.62820 29.40368 47.51594
#
# Velocity S-wave (km/s) = 5.20357 3.48303 4.42768
# Velocity P-wave (km/s) = 6.98311 6.06064 6.53816
#
# Compressibility (1/GPa) = 0.03258728
#
# Stress axis : x y z
#
# Youngs Moduli (GPa) = 101.11428 121.36579 42.53571
#
# Poissons Ratio (x) = 0.40502 0.11637
# Poissons Ratio (y) = 0.33744 -0.06581
# Poissons Ratio (z) = 0.27662 -0.18776
#
# Static dielectric constant tensor:
#      x y z
#    x 1.999940 0.000000 -0.049970 
#    y 0.000000 1.881880 0.000000 
#    z -0.049970 0.000000 1.977110 
# 
# From -- ./inp_files/85193.got.cif
#   From: 2010.05.17/outbox.cif.g08.bks.cpg/sg13_43_cif.got.tgz:85193.got - 2010.06.03 16:44:36.
