data_PCOD9231980
_publ_section_title
;
Structure prediction by ZEFSAII (Michael W. Deem and Ramdas Pophale) SiO2 
 PCOD9231980
Probable space group: P 2/C
;
_chemical_formula_sum "Si O2"
_cell_formula_units_Z 26
_cell_length_a 12.891598
_cell_length_b 8.605792
_cell_length_c 14.531483
_cell_angle_alpha 90.000000
_cell_angle_beta 37.322517
_cell_angle_gamma 90.000000
_cell_volume 977.452815
_symmetry_space_group_name_H-M "P 2/C"
_symmetry_group_IT_number 13
_symmetry_cell_setting 'monoclinic'
loop_
_space_group_symop_operation_xyz
x,y,z
-x,y,1/2-z
-x,-y,-z
x,-y,1/2+z
loop_
_atom_site_type_symbol
_atom_site_label
_atom_site_fract_x
_atom_site_fract_y
_atom_site_fract_z
Si Si1 0.000000 0.402597 0.750000
Si Si2 0.958351 0.663730 0.650882
Si Si3 0.418340 0.370893 0.989680
Si Si4 0.000000 0.094643 0.250000
Si Si5 0.557834 0.051098 0.815897
Si Si6 0.795709 0.203932 0.100099
Si Si7 0.245390 0.851178 0.078829
Si Si8 0.500000 0.442499 0.250000
O O1 0.961588 0.507421 0.866111
O O2 0.168392 0.309825 0.665290
O O3 0.070018 0.796449 0.620591
O O4 0.934854 0.707420 0.562551
O O5 0.767124 0.666876 0.833244
O O6 0.524544 0.209133 0.896480
O O7 0.422719 0.452837 0.886178
O O8 0.500000 0.500000 0.000000
O O9 0.144860 0.992349 0.193217
O O10 0.500000 0.078439 0.750000
O O11 0.736809 0.959314 0.687273
O O12 0.434928 0.911605 0.938750
O O13 0.640320 0.327385 0.196017
O O14 0.832509 0.157242 0.969934
#
# Coordination Sequence:
#
# PCOD9231980 Si02
#       8
#     2   4   4   2   4   4   4   2
#     4  10  24  42  66  92 130 182 224 270 330 398
#     4  11  24  41  61  97 132 174 222 270 333 403
#     4  12  24  41  68 101 135 175 218 277 342 398
#     4  10  22  42  64  88 128 178 220 266 320 390
#     4  10  21  42  69  99 130 171 216 282 344 391
#     4  11  23  42  67  98 131 169 222 283 338 393
#     4  10  20  43  69  90 128 175 223 273 324 395
#     4  12  22  40  64 102 136 166 212 278 346 394
#
# _framework density 26.59975
#
# number of rings (size 3 to 8) (size 9 to 14) (size 15 to 20)
#    0.000    1.231    6.154    0.923    0.000    1.846 
#    8.308    0.000    0.000    0.000    0.000    0.000 
#    0.000    0.000    0.000    0.000    0.000    0.000 
#
# Total GULP energy -145268.911793 kJ/mol
# GULP energy per Si atom -5587.265838 kJ/mol
# Density = 2.653921 g / cm^3
# Si number density = 26.599750 Si / 1000 Ang^3
#
#
#
# Elastic Constant Matrix: (Units=GPa)
#
#
# Indices 1 2 3 4 5 6 
#
# 1 97.0777 25.8155 -3.8886 0.0000 36.8756 0.0000
# 2 25.8155 157.0327 21.3945 0.0000 14.2691 0.0000
# 3 -3.8886 21.3945 69.0952 0.0000 11.5613 0.0000
# 4 0.0000 0.0000 0.0000 23.7897 0.0000 27.3919
# 5 36.8756 14.2691 11.5613 0.0000 35.8537 0.0000
# 6 0.0000 0.0000 0.0000 27.3919 0.0000 12.4508
#
#
#
# Elastic Compliance Matrix: (Units=1/GPa)
#
#
# Indices 1 2 3 4 5 6 
#
# 1 0.018597 -0.001922 0.004983 0.000000 -0.019969 0.000000
# 2 -0.001922 0.006999 -0.002262 0.000000 -0.000080 0.000000
# 3 0.004983 -0.002262 0.017082 0.000000 -0.009733 0.000000
# 4 0.000000 0.000000 0.000000 -0.027418 0.000000 0.060319
# 5 -0.019969 -0.000080 -0.009733 0.000000 0.051600 0.000000
# 6 0.000000 0.000000 0.000000 0.060319 0.000000 -0.052387
#
#
# Mechanical properties :
#
#
# Convention : Reuss Voigt Hill
#
# Bulk Modulus (GPa) = 22.58502 45.53872 34.06187
# Shear Modulus (GPa) = 180.93323 33.07777 107.00550
#
# Velocity S-wave (km/s) = 8.25641 3.53021 6.34944
# Velocity P-wave (km/s) = 9.96997 5.81151 8.16008
#
# Compressibility (1/GPa) = 0.04427713
#
# Stress axis : x y z
#
# Youngs Moduli (GPa) = 53.77208 142.86834 58.54042
#
# Poissons Ratio (x) = 0.27454 -0.29170
# Poissons Ratio (y) = 0.10333 0.13242
# Poissons Ratio (z) = -0.26794 0.32318
#
# Static dielectric constant tensor:
#      x y z
#    x 2.108630 0.000000 0.030710 
#    y 0.000000 2.195640 0.000000 
#    z 0.030710 0.000000 2.164400 
# 
# From -- ./inp_files/53339.got.cif
#   From: 2010.05.17/outbox.cif.g08.bks.cpg/sg13_27_cif.got.tgz:53339.got - 2010.06.03 16:44:36.
