data_PCOD9231833
_publ_section_title
;
Structure prediction by ZEFSAII (Michael W. Deem and Ramdas Pophale) SiO2 
 PCOD9231833
Probable space group: P 2/C
;
_chemical_formula_sum "Si O2"
_cell_formula_units_Z 26
_cell_length_a 17.804500
_cell_length_b 6.662614
_cell_length_c 12.530649
_cell_angle_alpha 90.000000
_cell_angle_beta 130.320145
_cell_angle_gamma 90.000000
_cell_volume 1133.324220
_symmetry_space_group_name_H-M "P 2/C"
_symmetry_group_IT_number 13
_symmetry_cell_setting 'monoclinic'
loop_
_space_group_symop_operation_xyz
x,y,z
-x,y,1/2-z
-x,-y,-z
x,-y,1/2+z
loop_
_atom_site_type_symbol
_atom_site_label
_atom_site_fract_x
_atom_site_fract_y
_atom_site_fract_z
Si Si1 0.164525 0.642269 0.938507
Si Si2 0.335971 0.081322 0.564494
Si Si3 0.736427 0.261155 0.368316
Si Si4 0.000000 0.356119 0.750000
Si Si5 0.083146 0.026778 0.989306
Si Si6 0.514606 0.686663 0.641652
Si Si7 0.523480 0.775741 0.122348
O O1 0.088452 0.508038 0.800594
O O2 0.107038 0.817690 0.950676
O O3 0.250505 0.761503 0.957435
O O4 0.217732 0.477652 0.063242
O O5 0.384651 0.148635 0.723356
O O6 0.427076 0.102252 0.569276
O O7 0.286017 0.865986 0.542636
O O8 0.629773 0.286972 0.219668
O O9 0.812959 0.120087 0.376271
O O10 0.042540 0.203705 0.876005
O O11 0.000000 0.000000 0.000000
O O12 0.500000 0.760597 0.750000
O O13 0.496378 0.450462 0.629049
O O14 0.458405 0.767782 0.486676
#
# Coordination Sequence:
#
# PCOD9231833 Si02
#       7
#     4   4   4   2   4   4   4
#     4  10  20  43  67  95 141 169 229 291 339 429
#     4  10  20  42  61  95 137 176 229 286 346 418
#     4  10  22  39  64  94 131 178 232 286 350 416
#     4  10  22  40  70 102 126 186 226 282 368 404
#     4  10  23  45  67  98 138 180 230 293 356 423
#     4  11  21  40  63  93 134 180 235 280 352 420
#     4  10  21  39  66  92 135 187 225 290 346 405
#
# _framework density 22.941362999999999
#
# number of rings (size 3 to 8) (size 9 to 14) (size 15 to 20)
#    0.000    1.846    3.077    0.462    2.154    3.077 
#   13.846    3.077    0.000    0.000    0.000    0.000 
#    0.000    0.000    0.000    0.000    0.000    0.000 
#
# Total GULP energy -145140.923022 kJ/mol
# GULP energy per Si atom -5582.343193 kJ/mol
# Density = 2.288915 g / cm^3
# Si number density = 22.941363 Si / 1000 Ang^3
#
#
#
# Elastic Constant Matrix: (Units=GPa)
#
#
# Indices 1 2 3 4 5 6 
#
# 1 75.3289 32.4620 20.2529 0.0000 -4.0618 0.0000
# 2 32.4620 160.3452 23.3497 0.0000 -5.8749 0.0000
# 3 20.2529 23.3497 73.6435 0.0000 -2.4701 0.0000
# 4 0.0000 0.0000 0.0000 30.7101 0.0000 6.0772
# 5 -4.0618 -5.8749 -2.4701 0.0000 34.6799 0.0000
# 6 0.0000 0.0000 0.0000 6.0772 0.0000 24.0179
#
#
#
# Elastic Compliance Matrix: (Units=1/GPa)
#
#
# Indices 1 2 3 4 5 6 
#
# 1 0.015351 -0.002576 -0.003367 0.000000 0.001122 0.000000
# 2 -0.002576 0.007003 -0.001486 0.000000 0.000779 0.000000
# 3 -0.003367 -0.001486 0.014990 0.000000 0.000422 0.000000
# 4 0.000000 0.000000 0.000000 0.034279 0.000000 -0.008673
# 5 0.001122 0.000779 0.000422 0.000000 0.029128 0.000000
# 6 0.000000 0.000000 0.000000 -0.008673 0.000000 0.043830
#
#
# Mechanical properties :
#
#
# Convention : Reuss Voigt Hill
#
# Bulk Modulus (GPa) = 44.47299 51.27189 47.87244
# Shear Modulus (GPa) = 29.95159 33.43178 31.69168
#
# Velocity S-wave (km/s) = 3.61719 3.82156 3.72078
# Velocity P-wave (km/s) = 6.07231 6.47071 6.27467
#
# Compressibility (1/GPa) = 0.02248556
#
# Stress axis : x y z
#
# Youngs Moduli (GPa) = 65.14154 142.79528 66.71034
#
# Poissons Ratio (x) = 0.36790 0.22463
# Poissons Ratio (y) = 0.16783 0.09911
# Poissons Ratio (z) = 0.21935 0.21216
#
# Static dielectric constant tensor:
#      x y z
#    x 1.892260 0.000000 0.010080 
#    y 0.000000 1.910960 0.000000 
#    z 0.010080 0.000000 1.893000 
# 
# From -- ./inp_files/70325.got.cif
#   From: 2010.05.17/outbox.cif.g08.bks.cpg/sg13_36_cif.got.tgz:70325.got - 2010.06.03 16:44:36.
