data_PCOD9231836
_publ_section_title
;
Structure prediction by ZEFSAII (Michael W. Deem and Ramdas Pophale) SiO2 
 PCOD9231836
Probable space group: P 2/C
;
_chemical_formula_sum "Si O2"
_cell_formula_units_Z 28
_cell_length_a 6.486150
_cell_length_b 16.509508
_cell_length_c 16.839496
_cell_angle_alpha 90.000000
_cell_angle_beta 130.707284
_cell_angle_gamma 90.000000
_cell_volume 1366.938195
_symmetry_space_group_name_H-M "P 2/C"
_symmetry_group_IT_number 13
_symmetry_cell_setting 'monoclinic'
loop_
_space_group_symop_operation_xyz
x,y,z
-x,y,1/2-z
-x,-y,-z
x,-y,1/2+z
loop_
_atom_site_type_symbol
_atom_site_label
_atom_site_fract_x
_atom_site_fract_y
_atom_site_fract_z
Si Si1 0.677623 0.584326 0.373056
Si Si2 0.430526 0.025797 0.572129
Si Si3 0.201174 0.837462 0.362472
Si Si4 0.783275 0.722708 0.861138
Si Si5 0.301418 0.419018 0.041123
Si Si6 0.372395 0.301636 0.492372
Si Si7 0.104846 0.880224 0.513902
O O1 0.500000 0.593218 0.250000
O O2 0.592889 0.505790 0.403641
O O3 0.657513 0.660608 0.426938
O O4 0.995113 0.571332 0.430749
O O5 0.670576 0.087031 0.654130
O O6 0.156870 0.078667 0.512051
O O7 0.500000 0.000000 0.500000
O O8 0.356779 0.940963 0.594755
O O9 0.438223 0.777192 0.451682
O O10 0.067240 0.871452 0.409515
O O11 0.000000 0.794796 0.250000
O O12 0.500000 0.745169 0.750000
O O13 0.733699 0.636458 0.889810
O O14 0.843330 0.791579 0.940648
O O15 0.067427 0.717195 0.884967
O O16 0.486820 0.368453 0.027830
#
# Coordination Sequence:
#
# PCOD9231836 Si02
#       7
#     4   4   4   4   4   4   4
#     4  10  23  40  65  93 127 168 212 263 323 386
#     4   9  20  41  63  86 127 167 208 268 319 370
#     4  11  23  38  63  96 130 170 212 256 327 391
#     4  11  23  41  65  92 123 172 218 268 329 377
#     4  10  22  43  61  92 131 162 214 269 318 384
#     4  11  23  40  64  92 131 167 213 271 316 388
#     4  10  20  42  62  88 131 164 214 276 310 379
#
# _framework density 20.483733999999998
#
# number of rings (size 3 to 8) (size 9 to 14) (size 15 to 20)
#    0.000    1.714    2.857    0.857    2.000    1.143 
#    7.714    1.429    0.000    0.000    0.000    0.000 
#    0.000    0.000    0.000    0.000    0.000    0.000 
#
# Total GULP energy -156167.436731 kJ/mol
# GULP energy per Si atom -5577.408455 kJ/mol
# Density = 2.043711 g / cm^3
# Si number density = 20.483734 Si / 1000 Ang^3
#
#
#
# Elastic Constant Matrix: (Units=GPa)
#
#
# Indices 1 2 3 4 5 6 
#
# 1 111.1375 20.1462 38.2723 0.0000 7.9825 0.0000
# 2 20.1462 72.2225 -3.0852 0.0000 -0.9346 0.0000
# 3 38.2723 -3.0852 63.3741 0.0000 10.4719 0.0000
# 4 0.0000 0.0000 0.0000 10.4395 0.0000 -1.3405
# 5 7.9825 -0.9346 10.4719 0.0000 14.2832 0.0000
# 6 0.0000 0.0000 0.0000 -1.3405 0.0000 48.8104
#
#
#
# Elastic Compliance Matrix: (Units=1/GPa)
#
#
# Indices 1 2 3 4 5 6 
#
# 1 0.012338 -0.003778 -0.007345 0.000000 -0.001758 0.000000
# 2 -0.003778 0.015035 0.002847 0.000000 0.001008 0.000000
# 3 -0.007345 0.002847 0.022352 0.000000 -0.012097 0.000000
# 4 0.000000 0.000000 0.000000 0.096129 0.000000 0.002640
# 5 -0.001758 0.001008 -0.012097 0.000000 0.079930 0.000000
# 6 0.000000 0.000000 0.000000 0.002640 0.000000 0.020560
#
#
# Mechanical properties :
#
#
# Convention : Reuss Voigt Hill
#
# Bulk Modulus (GPa) = 30.14441 39.71119 34.92780
# Shear Modulus (GPa) = 18.25129 27.46667 22.85898
#
# Velocity S-wave (km/s) = 2.98822 3.66580 3.34422
# Velocity P-wave (km/s) = 5.16277 6.11116 5.65688
#
# Compressibility (1/GPa) = 0.03317365
#
# Stress axis : x y z
#
# Youngs Moduli (GPa) = 81.04839 66.51287 44.73809
#
# Poissons Ratio (x) = 0.25130 0.32859
# Poissons Ratio (y) = 0.30622 -0.12737
# Poissons Ratio (z) = 0.59528 -0.18937
#
# Static dielectric constant tensor:
#      x y z
#    x 1.775000 0.000000 0.024260 
#    y 0.000000 1.742180 0.000000 
#    z 0.024260 0.000000 1.727880 
# 
# From -- ./inp_files/44523.got.cif
#   From: 2010.05.17/outbox.cif.g08.bks.cpg/sg13_23_cif.got.tgz:44523.got - 2010.06.03 16:44:36.
