data_PCOD9231650
_publ_section_title
;
Structure prediction by ZEFSAII (Michael W. Deem and Ramdas Pophale) SiO2 
 PCOD9231650
Probable space group: P 2/C
;
_chemical_formula_sum "Si O2"
_cell_formula_units_Z 30
_cell_length_a 25.889814
_cell_length_b 9.423988
_cell_length_c 9.308913
_cell_angle_alpha 90.000000
_cell_angle_beta 137.461197
_cell_angle_gamma 90.000000
_cell_volume 1535.559791
_symmetry_space_group_name_H-M "P 2/C"
_symmetry_group_IT_number 13
_symmetry_cell_setting 'monoclinic'
loop_
_space_group_symop_operation_xyz
x,y,z
-x,y,1/2-z
-x,-y,-z
x,-y,1/2+z
loop_
_atom_site_type_symbol
_atom_site_label
_atom_site_fract_x
_atom_site_fract_y
_atom_site_fract_z
Si Si1 0.075384 0.129610 0.994033
Si Si2 0.735425 0.247831 0.851195
Si Si3 0.157216 0.015363 0.895709
Si Si4 0.711222 0.803666 0.973654
Si Si5 0.804276 0.447884 0.565154
Si Si6 0.394560 0.072009 0.781266
Si Si7 0.500000 0.991557 0.250000
Si Si8 0.085114 0.448977 0.974277
O O1 0.074379 0.296645 0.030775
O O2 0.000000 0.100067 0.750000
O O3 0.140800 0.096175 0.009778
O O4 0.086484 0.028525 0.151892
O O5 0.703979 0.242636 0.624275
O O6 0.767731 0.397737 0.966356
O O7 0.671939 0.184585 0.828083
O O8 0.802879 0.133237 0.988219
O O9 0.214107 0.103134 0.910975
O O10 0.733895 0.661127 0.934907
O O11 0.642571 0.912543 0.795697
O O12 0.862064 0.417653 0.554214
O O13 0.861972 0.449760 0.820102
O O14 0.439360 0.092288 0.724153
O O15 0.452485 0.078337 0.033964
O O16 0.000000 0.497683 0.750000
#
# Coordination Sequence:
#
# PCOD9231650 Si02
#       8
#     4   4   4   4   4   4   2   4
#     4  11  22  36  53  79 112 150 199 255 315 361
#     4  11  22  38  61  90 121 151 203 245 296 343
#     4  11  21  37  57  81 111 148 198 258 303 351
#     4  11  22  38  61  90 121 151 203 245 296 343
#     4  12  23  40  62  83 120 166 202 260 302 349
#     4  10  22  39  69  98 122 160 186 244 278 364
#     4  10  20  40  68 100 128 152 192 220 300 350
#     4  11  24  39  55  83 118 162 213 257 313 365
#
# _framework density 19.536849
#
# number of rings (size 3 to 8) (size 9 to 14) (size 15 to 20)
#    0.000    1.067    6.667    0.800    0.000    1.067 
#    0.000    1.333    0.000    4.800    0.000    0.000 
#    0.000    0.000    0.000    0.000    0.000    0.000 
#
# Total GULP energy -167289.830219 kJ/mol
# GULP energy per Si atom -5576.327674 kJ/mol
# Density = 1.949238 g / cm^3
# Si number density = 19.536849 Si / 1000 Ang^3
#
#
#
# Elastic Constant Matrix: (Units=GPa)
#
#
# Indices 1 2 3 4 5 6 
#
# 1 99.2056 16.3225 4.8563 0.0000 0.2631 0.0000
# 2 16.3225 83.7544 13.5182 0.0000 14.0103 0.0000
# 3 4.8563 13.5182 55.9091 0.0000 3.9625 0.0000
# 4 0.0000 0.0000 0.0000 8.5860 0.0000 -4.6200
# 5 0.2631 14.0103 3.9625 0.0000 28.0840 0.0000
# 6 0.0000 0.0000 0.0000 -4.6200 0.0000 16.6466
#
#
#
# Elastic Compliance Matrix: (Units=1/GPa)
#
#
# Indices 1 2 3 4 5 6 
#
# 1 0.010451 -0.002134 -0.000465 0.000000 0.001033 0.000000
# 2 -0.002134 0.013884 -0.002709 0.000000 -0.006524 0.000000
# 3 -0.000465 -0.002709 0.018672 0.000000 -0.001279 0.000000
# 4 0.000000 0.000000 0.000000 0.136916 0.000000 0.037999
# 5 0.001033 -0.006524 -0.001279 0.000000 0.039033 0.000000
# 6 0.000000 0.000000 0.000000 0.037999 0.000000 0.070618
#
#
# Mechanical properties :
#
#
# Convention : Reuss Voigt Hill
#
# Bulk Modulus (GPa) = 30.87321 34.25147 32.56234
# Shear Modulus (GPa) = 16.07775 24.27479 20.17627
#
# Velocity S-wave (km/s) = 2.87181 3.52875 3.21710
# Velocity P-wave (km/s) = 5.18008 5.84573 5.52295
#
# Compressibility (1/GPa) = 0.03239054
#
# Stress axis : x y z
#
# Youngs Moduli (GPa) = 95.68205 72.02382 53.55540
#
# Poissons Ratio (x) = 0.15373 0.02490
# Poissons Ratio (y) = 0.20423 0.14510
# Poissons Ratio (z) = 0.04448 0.19513
#
# Static dielectric constant tensor:
#      x y z
#    x 1.717450 0.000000 -0.006690 
#    y 0.000000 1.681620 0.000000 
#    z -0.006690 0.000000 1.713790 
# 
# From -- ./inp_files/24634.got.cif
#   From: 2010.05.17/outbox.cif.g08.bks.cpg/sg13_13_cif.got.tgz:24634.got - 2010.06.03 16:44:36.
