data_PCOD9231198
_publ_section_title
;
Structure prediction by ZEFSAII (Michael W. Deem and Ramdas Pophale) SiO2 
 PCOD9231198
Probable space group: P 2/C
;
_chemical_formula_sum "Si O2"
_cell_formula_units_Z 30
_cell_length_a 14.981461
_cell_length_b 7.855602
_cell_length_c 12.571298
_cell_angle_alpha 90.000000
_cell_angle_beta 73.526336
_cell_angle_gamma 90.000000
_cell_volume 1418.762847
_symmetry_space_group_name_H-M "P 2/C"
_symmetry_group_IT_number 13
_symmetry_cell_setting 'monoclinic'
loop_
_space_group_symop_operation_xyz
x,y,z
-x,y,1/2-z
-x,-y,-z
x,-y,1/2+z
loop_
_atom_site_type_symbol
_atom_site_label
_atom_site_fract_x
_atom_site_fract_y
_atom_site_fract_z
Si Si1 0.397309 0.438649 0.029675
Si Si2 0.468731 0.111326 0.110286
Si Si3 0.000000 0.306576 0.250000
Si Si4 0.238926 0.618181 0.199415
Si Si5 0.121804 0.529448 0.058937
Si Si6 0.275613 0.274727 0.915523
Si Si7 0.654386 0.927631 0.657805
Si Si8 0.838311 0.721426 0.664550
O O1 0.402291 0.264695 0.095772
O O2 0.333607 0.577952 0.107040
O O3 0.500000 0.500000 0.000000
O O4 0.360927 0.393417 0.924342
O O5 0.404969 0.012550 0.218128
O O6 0.568832 0.168995 0.126984
O O7 0.500000 0.000000 0.000000
O O8 0.961329 0.433233 0.354500
O O9 0.916429 0.205179 0.219293
O O10 0.166288 0.656796 0.131350
O O11 0.251032 0.729594 0.299372
O O12 0.202844 0.438847 0.258010
O O13 0.192088 0.372189 0.004605
O O14 0.112595 0.642099 0.956795
O O15 0.308608 0.083467 0.926736
O O16 0.747825 0.828183 0.659569
#
# Coordination Sequence:
#
# PCOD9231198 Si02
#       8
#     4   4   2   4   4   4   4   4
#     4  11  23  35  57  83 119 158 207 257 291 335
#     4  11  24  39  55  85 122 168 208 238 294 349
#     4  10  20  38  68  92 118 146 196 254 310 364
#     4   9  20  37  56  84 115 150 203 247 296 342
#     4   9  20  38  64  91 116 148 196 248 311 361
#     4  10  22  39  57  87 120 161 199 247 295 354
#     4  11  24  38  60  83 125 165 203 242 293 359
#     4  10  20  39  62  88 115 157 194 248 302 364
#
# _framework density 21.145181999999998
#
# number of rings (size 3 to 8) (size 9 to 14) (size 15 to 20)
#    0.000    1.867    2.667    0.400    7.467    0.533 
#    0.000    0.667    0.000    8.000    0.000    0.000 
#    0.000    0.000    0.000    0.000    0.000    0.000 
#
# Total GULP energy -167015.434822 kJ/mol
# GULP energy per Si atom -5567.181161 kJ/mol
# Density = 2.109705 g / cm^3
# Si number density = 21.145182 Si / 1000 Ang^3
#
#
#
# Elastic Constant Matrix: (Units=GPa)
#
#
# Indices 1 2 3 4 5 6 
#
# 1 130.6374 7.5002 35.8832 0.0000 17.7760 0.0000
# 2 7.5002 17.4625 0.4557 0.0000 -2.0604 0.0000
# 3 35.8832 0.4557 92.7951 0.0000 10.3061 0.0000
# 4 0.0000 0.0000 0.0000 20.4087 0.0000 3.4002
# 5 17.7760 -2.0604 10.3061 0.0000 26.6191 0.0000
# 6 0.0000 0.0000 0.0000 3.4002 0.0000 20.6790
#
#
#
# Elastic Compliance Matrix: (Units=1/GPa)
#
#
# Indices 1 2 3 4 5 6 
#
# 1 0.009510 -0.004658 -0.003040 0.000000 -0.005534 0.000000
# 2 -0.004658 0.060134 0.000673 0.000000 0.007505 0.000000
# 3 -0.003040 0.000673 0.012244 0.000000 -0.002658 0.000000
# 4 0.000000 0.000000 0.000000 0.050379 0.000000 -0.008284
# 5 -0.005534 0.007505 -0.002658 0.000000 0.042873 0.000000
# 6 0.000000 0.000000 0.000000 -0.008284 0.000000 0.049720
#
#
# Mechanical properties :
#
#
# Convention : Reuss Voigt Hill
#
# Bulk Modulus (GPa) = 14.74129 36.50814 25.62471
# Shear Modulus (GPa) = 19.11866 26.67842 22.89854
#
# Velocity S-wave (km/s) = 3.01019 3.55586 3.29435
# Velocity P-wave (km/s) = 4.36672 5.84481 5.15898
#
# Compressibility (1/GPa) = 0.06783669
#
# Stress axis : x y z
#
# Youngs Moduli (GPa) = 105.14872 16.62948 81.67314
#
# Poissons Ratio (x) = 0.07747 0.24829
# Poissons Ratio (y) = 0.48982 -0.05493
# Poissons Ratio (z) = 0.31966 -0.01118
#
# Static dielectric constant tensor:
#      x y z
#    x 1.838610 0.000000 0.065090 
#    y 0.000000 1.783620 0.000000 
#    z 0.065090 0.000000 1.828850 
# 
# From -- ./inp_files/36409.got.cif
#   From: 2010.05.17/outbox.cif.g08.bks.cpg/sg13_19_cif.got.tgz:36409.got - 2010.06.03 16:44:36.
