data_PCOD9231551
_publ_section_title
;
Structure prediction by ZEFSAII (Michael W. Deem and Ramdas Pophale) SiO2 
 PCOD9231551
Probable space group: P 2/C
;
_chemical_formula_sum "Si O2"
_cell_formula_units_Z 28
_cell_length_a 29.497623
_cell_length_b 8.531663
_cell_length_c 9.928513
_cell_angle_alpha 90.000000
_cell_angle_beta 147.394623
_cell_angle_gamma 90.000000
_cell_volume 1346.395599
_symmetry_space_group_name_H-M "P 2/C"
_symmetry_group_IT_number 13
_symmetry_cell_setting 'monoclinic'
loop_
_space_group_symop_operation_xyz
x,y,z
-x,y,1/2-z
-x,-y,-z
x,-y,1/2+z
loop_
_atom_site_type_symbol
_atom_site_label
_atom_site_fract_x
_atom_site_fract_y
_atom_site_fract_z
Si Si1 0.861737 0.148041 0.695769
Si Si2 0.433537 0.318401 0.395355
Si Si3 0.605003 0.584336 0.406443
Si Si4 0.178200 0.210579 0.449969
Si Si5 0.015627 0.365467 0.144155
Si Si6 0.284366 0.888569 0.456266
Si Si7 0.234705 0.751707 0.802593
O O1 0.786027 0.172213 0.613561
O O2 0.835648 0.223196 0.487607
O O3 0.862920 0.960076 0.682434
O O4 0.948707 0.223937 0.959853
O O5 0.420888 0.423197 0.230565
O O6 0.400554 0.412013 0.445819
O O7 0.532138 0.296208 0.671725
O O8 0.374889 0.168258 0.231417
O O9 0.695403 0.635614 0.579546
O O10 0.258550 0.179435 0.745691
O O11 0.200011 0.290657 0.362792
O O12 0.109698 0.305720 0.360708
O O13 0.000000 0.435599 0.250000
O O14 0.000000 0.500000 0.000000
O O15 0.275533 0.075476 0.424870
#
# Coordination Sequence:
#
# PCOD9231551 Si02
#       7
#     4   4   4   4   4   4   4
#     4  10  21  43  65  85 119 156 198 244 298 352
#     4  10  22  39  61  84 123 160 201 239 295 349
#     4  10  22  40  58  88 120 162 198 243 291 354
#     4  10  23  41  64  89 116 156 197 246 298 352
#     4  12  27  43  60  89 124 157 199 244 292 349
#     4  10  20  40  63  90 116 156 197 249 294 350
#     4  10  22  38  65  91 117 149 203 245 298 351
#
# _framework density 20.796264000000001
#
# number of rings (size 3 to 8) (size 9 to 14) (size 15 to 20)
#    0.000    1.714    2.857    0.429    4.000    2.857 
#    0.000    0.000    0.000    0.000    0.000    0.000 
#    0.000    0.000    0.000    0.000    0.000    0.000 
#
# Total GULP energy -156429.954058 kJ/mol
# GULP energy per Si atom -5586.784074 kJ/mol
# Density = 2.074893 g / cm^3
# Si number density = 20.796264 Si / 1000 Ang^3
#
#
#
# Elastic Constant Matrix: (Units=GPa)
#
#
# Indices 1 2 3 4 5 6 
#
# 1 87.1439 -8.0556 -0.5148 0.0000 -20.5891 0.0000
# 2 -8.0556 6.1201 2.9268 0.0000 -1.9210 0.0000
# 3 -0.5148 2.9268 30.2281 0.0000 -10.6608 0.0000
# 4 0.0000 0.0000 0.0000 25.5699 0.0000 -0.7633
# 5 -20.5891 -1.9210 -10.6608 0.0000 40.4053 0.0000
# 6 0.0000 0.0000 0.0000 -0.7633 0.0000 15.2437
#
#
#
# Elastic Compliance Matrix: (Units=1/GPa)
#
#
# Indices 1 2 3 4 5 6 
#
# 1 0.015896 0.023261 0.001395 0.000000 0.009574 0.000000
# 2 0.023261 0.206004 -0.013138 0.000000 0.018181 0.000000
# 3 0.001395 -0.013138 0.037938 0.000000 0.010096 0.000000
# 4 0.000000 0.000000 0.000000 0.039167 0.000000 0.001961
# 5 0.009574 0.018181 0.010096 0.000000 0.033156 0.000000
# 6 0.000000 0.000000 0.000000 0.001961 0.000000 0.065699
#
#
# Mechanical properties :
#
#
# Convention : Reuss Voigt Hill
#
# Bulk Modulus (GPa) = 3.53515 12.46722 8.00119
# Shear Modulus (GPa) = 10.65834 24.85281 17.75558
#
# Velocity S-wave (km/s) = 2.26633 3.46072 2.92513
# Velocity P-wave (km/s) = 2.92437 4.68793 3.90696
#
# Compressibility (1/GPa) = 0.28287329
#
# Stress axis : x y z
#
# Youngs Moduli (GPa) = 62.90997 4.85428 26.35853
#
# Poissons Ratio (x) = -0.11291 -0.03677
# Poissons Ratio (y) = -1.46334 0.34630
# Poissons Ratio (z) = -0.08776 0.06378
#
# Static dielectric constant tensor:
#      x y z
#    x 1.740280 0.000000 -0.002970 
#    y 0.000000 1.728640 0.000000 
#    z -0.002970 0.000000 1.716940 
# 
# From -- ./inp_files/23000.got.cif
#   From: 2010.05.17/outbox.cif.g08.bks.cpg/sg13_12_cif.got.tgz:23000.got - 2010.06.03 16:44:36.
