data_PCOD9231440
_publ_section_title
;
Structure prediction by ZEFSAII (Michael W. Deem and Ramdas Pophale) SiO2 
 PCOD9231440
Probable space group: P 2/C
;
_chemical_formula_sum "Si O2"
_cell_formula_units_Z 30
_cell_length_a 12.935623
_cell_length_b 11.489528
_cell_length_c 14.966761
_cell_angle_alpha 90.000000
_cell_angle_beta 39.166163
_cell_angle_gamma 90.000000
_cell_volume 1404.882200
_symmetry_space_group_name_H-M "P 2/C"
_symmetry_group_IT_number 13
_symmetry_cell_setting 'monoclinic'
loop_
_space_group_symop_operation_xyz
x,y,z
-x,y,1/2-z
-x,-y,-z
x,-y,1/2+z
loop_
_atom_site_type_symbol
_atom_site_label
_atom_site_fract_x
_atom_site_fract_y
_atom_site_fract_z
Si Si1 0.244421 0.769975 0.728558
Si Si2 0.737080 0.510646 0.034419
Si Si3 0.818538 0.941528 0.898307
Si Si4 0.739303 0.283659 0.794204
Si Si5 0.000000 0.635964 0.250000
Si Si6 0.541457 0.896818 0.539901
Si Si7 0.620186 0.469418 0.308659
Si Si8 0.136323 0.241925 0.983510
O O1 0.225100 0.843977 0.649284
O O2 0.375888 0.848404 0.695605
O O3 0.326822 0.642644 0.670144
O O4 0.061359 0.751352 0.887991
O O5 0.712342 0.461127 0.151149
O O6 0.568443 0.488405 0.093795
O O7 0.878535 0.445085 0.887543
O O8 0.788312 0.644935 0.016504
O O9 0.824114 0.870894 0.985728
O O10 0.000000 0.983607 0.750000
O O11 0.690513 0.046372 0.993349
O O12 0.898321 0.288368 0.748964
O O13 0.609009 0.207352 0.933836
O O14 0.678669 0.414800 0.818917
O O15 0.783925 0.235782 0.667084
O O16 0.500000 0.000000 0.500000
#
# Coordination Sequence:
#
# PCOD9231440 Si02
#       8
#     4   4   4   4   2   4   4   4
#     4  10  20  39  68  95 131 171 213 263 326 383
#     4  10  23  37  62  99 137 169 212 252 321 393
#     4   9  21  40  68  92 121 170 224 274 313 380
#     4  11  25  41  66  95 134 169 212 265 329 384
#     4  12  24  36  64 102 132 172 200 264 328 394
#     4  10  23  42  64  90 123 166 220 273 315 372
#     4  10  22  41  61  96 139 170 206 264 320 397
#     4  10  22  42  68  96 125 173 220 261 312 391
#
# _framework density 21.354104
#
# number of rings (size 3 to 8) (size 9 to 14) (size 15 to 20)
#    0.000    1.867    0.000    2.400    9.333    3.200 
#    0.000    6.000   23.467    0.000    0.000    0.000 
#    0.000    0.000    0.000    0.000    0.000    0.000 
#
# Total GULP energy -167599.795967 kJ/mol
# GULP energy per Si atom -5586.659866 kJ/mol
# Density = 2.130550 g / cm^3
# Si number density = 21.354104 Si / 1000 Ang^3
#
#
#
# Elastic Constant Matrix: (Units=GPa)
#
#
# Indices 1 2 3 4 5 6 
#
# 1 73.4391 30.2417 29.6805 0.0000 -17.5464 0.0000
# 2 30.2417 74.0850 36.2308 0.0000 -16.3363 0.0000
# 3 29.6805 36.2308 102.0638 0.0000 -14.3777 0.0000
# 4 0.0000 0.0000 0.0000 29.4357 0.0000 -22.0351
# 5 -17.5464 -16.3363 -14.3777 0.0000 33.9615 0.0000
# 6 0.0000 0.0000 0.0000 -22.0351 0.0000 37.9384
#
#
#
# Elastic Compliance Matrix: (Units=1/GPa)
#
#
# Indices 1 2 3 4 5 6 
#
# 1 0.018089 -0.004739 -0.002746 0.000000 0.005903 0.000000
# 2 -0.004739 0.018702 -0.004613 0.000000 0.004594 0.000000
# 3 -0.002746 -0.004613 0.012465 0.000000 0.001639 0.000000
# 4 0.000000 0.000000 0.000000 0.060106 0.000000 0.034910
# 5 0.005903 0.004594 0.001639 0.000000 0.035399 0.000000
# 6 0.000000 0.000000 0.000000 0.034910 0.000000 0.046635
#
#
# Mechanical properties :
#
#
# Convention : Reuss Voigt Hill
#
# Bulk Modulus (GPa) = 39.90781 49.09932 44.50356
# Shear Modulus (GPa) = 22.32691 30.49610 26.41151
#
# Velocity S-wave (km/s) = 3.23701 3.78314 3.52068
# Velocity P-wave (km/s) = 5.71841 6.49043 6.11661
#
# Compressibility (1/GPa) = 0.02505775
#
# Stress axis : x y z
#
# Youngs Moduli (GPa) = 55.28344 53.47086 80.22446
#
# Poissons Ratio (x) = 0.25340 0.22033
# Poissons Ratio (y) = 0.26199 0.37011
# Poissons Ratio (z) = 0.15183 0.24669
#
# Static dielectric constant tensor:
#      x y z
#    x 1.803350 0.000000 -0.036200 
#    y 0.000000 1.819800 0.000000 
#    z -0.036200 0.000000 1.782960 
# 
# From -- ./inp_files/68547.got.cif
#   From: 2010.05.17/outbox.cif.g08.bks.cpg/sg13_35_cif.got.tgz:68547.got - 2010.06.03 16:44:36.
