data_PCOD9231521
_publ_section_title
;
Structure prediction by ZEFSAII (Michael W. Deem and Ramdas Pophale) SiO2 
 PCOD9231521
Probable space group: P 2/C
;
_chemical_formula_sum "Si O2"
_cell_formula_units_Z 26
_cell_length_a 15.800996
_cell_length_b 8.029036
_cell_length_c 12.473808
_cell_angle_alpha 90.000000
_cell_angle_beta 55.756623
_cell_angle_gamma 90.000000
_cell_volume 1308.190874
_symmetry_space_group_name_H-M "P 2/C"
_symmetry_group_IT_number 13
_symmetry_cell_setting 'monoclinic'
loop_
_space_group_symop_operation_xyz
x,y,z
-x,y,1/2-z
-x,-y,-z
x,-y,1/2+z
loop_
_atom_site_type_symbol
_atom_site_label
_atom_site_fract_x
_atom_site_fract_y
_atom_site_fract_z
Si Si1 0.605312 0.770261 0.202913
Si Si2 0.582275 0.848652 0.460613
Si Si3 0.185743 0.339318 0.222709
Si Si4 0.351168 0.538465 0.975696
Si Si5 0.160940 0.283160 0.492845
Si Si6 0.000000 0.460336 0.750000
Si Si7 0.236097 0.032821 0.044978
O O1 0.500000 0.865185 0.250000
O O2 0.607621 0.766744 0.328155
O O3 0.602972 0.601099 0.135453
O O4 0.701330 0.868834 0.089931
O O5 0.568860 0.681764 0.543717
O O6 0.680903 0.936171 0.441738
O O7 0.500000 0.000000 0.500000
O O8 0.173821 0.307007 0.357103
O O9 0.089037 0.438539 0.245903
O O10 0.185888 0.166397 0.158308
O O11 0.290583 0.438755 0.114409
O O12 0.259150 0.626704 0.976571
O O13 0.058592 0.359692 0.615588
O O14 0.165273 0.095497 0.533338
#
# Coordination Sequence:
#
# PCOD9231521 Si02
#       7
#     4   4   4   4   4   2   4
#     4  11  21  38  56  86 121 161 211 251 298 361
#     4  11  21  39  60  87 122 162 209 261 302 356
#     4  10  20  40  63  88 125 160 198 251 312 372
#     4   9  22  38  59  89 121 163 205 249 305 369
#     4  10  20  40  62  88 120 157 196 250 312 363
#     4  10  22  38  64  94 118 150 208 248 304 390
#     4  10  22  39  59  89 123 161 203 252 311 364
#
# _framework density 19.874777999999999
#
# number of rings (size 3 to 8) (size 9 to 14) (size 15 to 20)
#    0.000    1.846    1.538    2.308    0.000    1.231 
#    8.308    6.154    0.000    0.000    0.000    0.000 
#    0.000    0.000    0.000    0.000    0.000    0.000 
#
# Total GULP energy -144977.310916 kJ/mol
# GULP energy per Si atom -5576.050420 kJ/mol
# Density = 1.982954 g / cm^3
# Si number density = 19.874778 Si / 1000 Ang^3
#
#
#
# Elastic Constant Matrix: (Units=GPa)
#
#
# Indices 1 2 3 4 5 6 
#
# 1 54.8162 47.4764 42.9067 0.0000 6.1139 0.0000
# 2 47.4764 135.4738 73.0071 0.0000 8.4822 0.0000
# 3 42.9067 73.0071 143.1668 0.0000 17.6038 0.0000
# 4 0.0000 0.0000 0.0000 -14.9090 0.0000 -21.9948
# 5 6.1139 8.4822 17.6038 0.0000 29.9221 0.0000
# 6 0.0000 0.0000 0.0000 -21.9948 0.0000 19.3772
#
#
#
# Elastic Compliance Matrix: (Units=1/GPa)
#
#
# Indices 1 2 3 4 5 6 
#
# 1 0.028365 -0.007395 -0.004608 0.000000 -0.000988 0.000000
# 2 -0.007395 0.012108 -0.004012 0.000000 0.000439 0.000000
# 3 -0.004608 -0.004012 0.010948 0.000000 -0.004362 0.000000
# 4 0.000000 0.000000 0.000000 -0.025078 0.000000 -0.028466
# 5 -0.000988 0.000439 -0.004362 0.000000 0.036064 0.000000
# 6 0.000000 0.000000 0.000000 -0.028466 0.000000 0.019296
#
#
# Mechanical properties :
#
#
# Convention : Reuss Voigt Hill
#
# Bulk Modulus (GPa) = 51.57261 73.35969 62.46615
# Shear Modulus (GPa) = 41.59878 18.21585 29.90731
#
# Velocity S-wave (km/s) = 4.57994 3.03071 3.88337
# Velocity P-wave (km/s) = 7.34663 7.01698 7.18370
#
# Compressibility (1/GPa) = 0.01939014
#
# Stress axis : x y z
#
# Youngs Moduli (GPa) = 35.25471 82.59244 91.33941
#
# Poissons Ratio (x) = 0.61078 0.42092
# Poissons Ratio (y) = 0.26071 0.36645
# Poissons Ratio (z) = 0.16246 0.33135
#
# Static dielectric constant tensor:
#      x y z
#    x 1.679170 0.000000 -0.000230 
#    y 0.000000 1.749930 0.000000 
#    z -0.000230 0.000000 1.688400 
# 
# From -- ./inp_files/36096.got.cif
#   From: 2010.05.17/outbox.cif.g08.bks.cpg/sg13_19_cif.got.tgz:36096.got - 2010.06.03 16:44:36.
