data_PCOD9231061
_publ_section_title
;
Structure prediction by ZEFSAII (Michael W. Deem and Ramdas Pophale) SiO2 
 PCOD9231061
Probable space group: P 2/C
;
_chemical_formula_sum "Si O2"
_cell_formula_units_Z 16
_cell_length_a 14.056590
_cell_length_b 4.676265
_cell_length_c 12.957852
_cell_angle_alpha 90.000000
_cell_angle_beta 43.214130
_cell_angle_gamma 90.000000
_cell_volume 583.216056
_symmetry_space_group_name_H-M "P 2/C"
_symmetry_group_IT_number 13
_symmetry_cell_setting 'monoclinic'
loop_
_space_group_symop_operation_xyz
x,y,z
-x,y,1/2-z
-x,-y,-z
x,-y,1/2+z
loop_
_atom_site_type_symbol
_atom_site_label
_atom_site_fract_x
_atom_site_fract_y
_atom_site_fract_z
Si Si1 0.546920 0.176846 0.864763
Si Si2 0.204120 0.661378 0.210701
Si Si3 0.993756 0.118755 0.141809
Si Si4 0.705218 0.935332 0.050354
O O1 0.664422 0.384316 0.817974
O O2 0.404638 0.272604 0.921357
O O3 0.622930 0.980120 0.718861
O O4 0.500000 0.000000 0.000000
O O5 0.112988 0.379999 0.267443
O O6 0.089943 0.877329 0.354194
O O7 0.260473 0.823269 0.062616
O O8 0.000000 0.970139 0.250000
O O9 0.154715 0.203969 0.014217
#
# Coordination Sequence:
#
# PCOD9231061 Si02
#       4
#     4   4   4   4
#     4   9  19  39  65  95 131 171 215 262 316 382
#     4  10  21  39  64  93 126 163 210 262 315 378
#     4  10  20  38  63  92 126 163 207 261 317 375
#     4   9  19  38  65  95 130 170 211 263 323 377
#
# _framework density 27.434086000000001
#
# number of rings (size 3 to 8) (size 9 to 14) (size 15 to 20)
#    0.000    2.500    0.000    2.250    0.000    2.000 
#    0.000   27.500    0.000   75.000    0.000    0.000 
#    0.000    0.000    0.000    0.000    0.000    0.000 
#
# Total GULP energy -89176.972228 kJ/mol
# GULP energy per Si atom -5573.560764 kJ/mol
# Density = 2.737165 g / cm^3
# Si number density = 27.434086 Si / 1000 Ang^3
#
#
#
# Elastic Constant Matrix: (Units=GPa)
#
#
# Indices 1 2 3 4 5 6 
#
# 1 283.6169 69.5722 83.8992 0.0000 -57.9762 0.0000
# 2 69.5722 96.5461 10.6916 0.0000 -33.5940 0.0000
# 3 83.8992 10.6916 108.0307 0.0000 -35.8034 0.0000
# 4 0.0000 0.0000 0.0000 11.9587 0.0000 -9.6148
# 5 -57.9762 -33.5940 -35.8034 0.0000 60.7157 0.0000
# 6 0.0000 0.0000 0.0000 -9.6148 0.0000 32.2026
#
#
#
# Elastic Compliance Matrix: (Units=1/GPa)
#
#
# Indices 1 2 3 4 5 6 
#
# 1 0.005677 -0.003149 -0.003577 0.000000 0.001569 0.000000
# 2 -0.003149 0.014733 0.003347 0.000000 0.007118 0.000000
# 3 -0.003577 0.003347 0.013902 0.000000 0.006634 0.000000
# 4 0.000000 0.000000 0.000000 0.110036 0.000000 0.032854
# 5 0.001569 0.007118 0.006634 0.000000 0.025819 0.000000
# 6 0.000000 0.000000 0.000000 0.032854 0.000000 0.040863
#
#
# Mechanical properties :
#
#
# Convention : Reuss Voigt Hill
#
# Bulk Modulus (GPa) = 36.29318 90.72442 63.50880
# Shear Modulus (GPa) = 22.02889 42.57745 32.30317
#
# Velocity S-wave (km/s) = 2.83676 3.94381 3.43517
# Velocity P-wave (km/s) = 4.89771 7.34029 6.23969
#
# Compressibility (1/GPa) = 0.02755339
#
# Stress axis : x y z
#
# Youngs Moduli (GPa) = 176.13648 67.87362 71.93060
#
# Poissons Ratio (x) = 0.21373 0.25733
# Poissons Ratio (y) = 0.55465 -0.24073
# Poissons Ratio (z) = 0.63012 -0.22715
#
# Static dielectric constant tensor:
#      x y z
#    x 2.208200 0.000000 0.025280 
#    y 0.000000 2.052490 0.000000 
#    z 0.025280 0.000000 2.360620 
# 
# From -- ./inp_files/51974.got.cif
#   From: 2010.05.17/outbox.cif.g08.bks.cpg/sg13_26_cif.got.tgz:51974.got - 2010.06.03 16:44:36.
