data_PCOD9231470
_publ_section_title
;
Structure prediction by ZEFSAII (Michael W. Deem and Ramdas Pophale) SiO2 
 PCOD9231470
Probable space group: P 2/C
;
_chemical_formula_sum "Si O2"
_cell_formula_units_Z 20
_cell_length_a 7.525701
_cell_length_b 5.849722
_cell_length_c 17.422269
_cell_angle_alpha 90.000000
_cell_angle_beta 90.388687
_cell_angle_gamma 90.000000
_cell_volume 766.967407
_symmetry_space_group_name_H-M "P 2/C"
_symmetry_group_IT_number 13
_symmetry_cell_setting 'monoclinic'
loop_
_space_group_symop_operation_xyz
x,y,z
-x,y,1/2-z
-x,-y,-z
x,-y,1/2+z
loop_
_atom_site_type_symbol
_atom_site_label
_atom_site_fract_x
_atom_site_fract_y
_atom_site_fract_z
Si Si1 0.500000 0.555200 0.750000
Si Si2 0.533677 0.878124 0.603383
Si Si3 0.759445 0.363672 0.479038
Si Si4 0.735824 0.737957 0.346611
Si Si5 0.000000 0.584640 0.250000
Si Si6 0.893104 0.706627 0.601709
O O1 0.529851 0.699781 0.674227
O O2 0.332210 0.400891 0.728827
O O3 0.424102 0.773066 0.531279
O O4 0.743274 0.902785 0.592374
O O5 0.410766 0.078116 0.634792
O O6 0.745538 0.573198 0.418821
O O7 0.804331 0.487131 0.557828
O O8 0.927950 0.229381 0.444294
O O9 0.929109 0.775940 0.313573
O O10 0.059664 0.391513 0.314899
#
# Coordination Sequence:
#
# PCOD9231470 Si02
#       6
#     2   4   4   4   2   4
#     4  10  20  40  58  90 132 164 216 268 326 400
#     4  11  21  39  66  94 128 172 217 272 341 393
#     4   9  22  41  64  97 130 169 223 272 332 405
#     4  10  21  39  63  97 126 169 228 275 326 401
#     4  10  20  42  66  94 136 182 220 276 342 400
#     4  10  20  42  68  90 135 178 211 273 343 394
#
# _framework density 26.076729
#
# number of rings (size 3 to 8) (size 9 to 14) (size 15 to 20)
#    0.000    2.000    2.000    1.200    0.000    0.800 
#    7.200    9.000    0.000    0.000    0.000    0.000 
#    0.000    0.000    0.000    0.000    0.000    0.000 
#
# Total GULP energy -111621.160962 kJ/mol
# GULP energy per Si atom -5581.058048 kJ/mol
# Density = 2.601738 g / cm^3
# Si number density = 26.076729 Si / 1000 Ang^3
#
#
#
# Elastic Constant Matrix: (Units=GPa)
#
#
# Indices 1 2 3 4 5 6 
#
# 1 84.0266 16.3821 29.8272 0.0000 -5.3337 0.0000
# 2 16.3821 37.3104 24.7472 0.0000 -6.3494 0.0000
# 3 29.8272 24.7472 141.8939 0.0000 30.5820 0.0000
# 4 0.0000 0.0000 0.0000 25.3149 0.0000 2.8735
# 5 -5.3337 -6.3494 30.5820 0.0000 51.5936 0.0000
# 6 0.0000 0.0000 0.0000 2.8735 0.0000 49.0236
#
#
#
# Elastic Compliance Matrix: (Units=1/GPa)
#
#
# Indices 1 2 3 4 5 6 
#
# 1 0.013797 -0.003742 -0.002815 0.000000 0.002635 0.000000
# 2 -0.003742 0.034391 -0.006925 0.000000 0.007950 0.000000
# 3 -0.002815 -0.006925 0.010425 0.000000 -0.007323 0.000000
# 4 0.000000 0.000000 0.000000 0.039767 0.000000 -0.002331
# 5 0.002635 0.007950 -0.007323 0.000000 0.024974 0.000000
# 6 0.000000 0.000000 0.000000 -0.002331 0.000000 0.020535
#
#
# Mechanical properties :
#
#
# Convention : Reuss Voigt Hill
#
# Bulk Modulus (GPa) = 31.59680 45.01601 38.30641
# Shear Modulus (GPa) = 27.56270 38.00471 32.78370
#
# Velocity S-wave (km/s) = 3.25466 3.82176 3.54955
# Velocity P-wave (km/s) = 5.12512 6.06422 5.61434
#
# Compressibility (1/GPa) = 0.03164877
#
# Stress axis : x y z
#
# Youngs Moduli (GPa) = 72.47814 29.07702 95.91969
#
# Poissons Ratio (x) = 0.10881 0.27006
# Poissons Ratio (y) = 0.27123 0.66424
# Poissons Ratio (z) = 0.20406 0.20136
#
# Static dielectric constant tensor:
#      x y z
#    x 1.439400 0.000000 0.111790 
#    y 0.000000 2.137600 0.000000 
#    z 0.111790 0.000000 1.925070 
# 
# From -- ./inp_files/62430.got.cif
#   From: 2010.05.17/outbox.cif.g08.bks.cpg/sg13_32_cif.got.tgz:62430.got - 2010.06.03 16:44:36.
