data_PCOD9231627
_publ_section_title
;
Structure prediction by ZEFSAII (Michael W. Deem and Ramdas Pophale) SiO2 
 PCOD9231627
Probable space group: P 2/C
;
_chemical_formula_sum "Si O2"
_cell_formula_units_Z 22
_cell_length_a 23.066552
_cell_length_b 10.051302
_cell_length_c 13.881840
_cell_angle_alpha 90.000000
_cell_angle_beta 161.263451
_cell_angle_gamma 90.000000
_cell_volume 1033.833887
_symmetry_space_group_name_H-M "P 2/C"
_symmetry_group_IT_number 13
_symmetry_cell_setting 'monoclinic'
loop_
_space_group_symop_operation_xyz
x,y,z
-x,y,1/2-z
-x,-y,-z
x,-y,1/2+z
loop_
_atom_site_type_symbol
_atom_site_label
_atom_site_fract_x
_atom_site_fract_y
_atom_site_fract_z
Si Si1 0.500000 0.269510 0.750000
Si Si2 0.754104 0.422010 0.479851
Si Si3 0.015559 0.659576 0.889889
Si Si4 0.357743 0.494789 0.912684
Si Si5 0.051163 0.137219 0.718674
Si Si6 0.195818 0.108925 0.346815
O O1 0.365357 0.370468 0.485427
O O2 0.388954 0.179608 0.649062
O O3 0.882769 0.542091 0.714950
O O4 0.710440 0.457203 0.299399
O O5 0.862111 0.283952 0.657061
O O6 0.558137 0.433543 0.220680
O O7 0.949240 0.795516 0.830517
O O8 0.000000 0.671137 0.750000
O O9 0.216838 0.612642 0.229519
O O10 0.000000 0.118930 0.750000
O O11 0.876105 0.107028 0.376360
O O12 0.191107 0.029503 0.895493
#
# Coordination Sequence:
#
# PCOD9231627 Si02
#       6
#     2   4   4   4   4   4
#     4  12  22  40  60  98 130 162 210 278 302 394
#     4  10  20  41  63  95 128 165 212 261 319 379
#     4  10  20  40  66  93 130 164 208 268 315 374
#     4  10  22  35  66  98 127 166 212 262 323 376
#     4  11  24  46  64  90 128 172 212 264 316 385
#     4  11  25  42  66  91 127 170 216 255 329 375
#
# _framework density 21.280014999999999
#
# number of rings (size 3 to 8) (size 9 to 14) (size 15 to 20)
#    0.000    1.455    1.818    4.364    2.545    1.455 
#    6.545    1.818    0.000    0.000    0.000    0.000 
#    0.000    0.000    0.000    0.000    0.000    0.000 
#
# Total GULP energy -123005.051018 kJ/mol
# GULP energy per Si atom -5591.138683 kJ/mol
# Density = 2.123158 g / cm^3
# Si number density = 21.280015 Si / 1000 Ang^3
#
#
#
# Elastic Constant Matrix: (Units=GPa)
#
#
# Indices 1 2 3 4 5 6 
#
# 1 76.4127 24.2770 15.3994 0.0000 -0.4169 0.0000
# 2 24.2770 94.7422 1.1007 0.0000 -0.9675 0.0000
# 3 15.3994 1.1007 49.4883 0.0000 5.8168 0.0000
# 4 0.0000 0.0000 0.0000 26.4763 0.0000 7.4965
# 5 -0.4169 -0.9675 5.8168 0.0000 30.4073 0.0000
# 6 0.0000 0.0000 0.0000 7.4965 0.0000 30.7562
#
#
#
# Elastic Compliance Matrix: (Units=1/GPa)
#
#
# Indices 1 2 3 4 5 6 
#
# 1 0.015280 -0.003850 -0.004787 0.000000 0.001003 0.000000
# 2 -0.003850 0.011532 0.000925 0.000000 0.000137 0.000000
# 3 -0.004787 0.000925 0.022179 0.000000 -0.004279 0.000000
# 4 0.000000 0.000000 0.000000 0.040569 0.000000 -0.009888
# 5 0.001003 0.000137 -0.004279 0.000000 0.033724 0.000000
# 6 0.000000 0.000000 0.000000 -0.009888 0.000000 0.034924
#
#
# Mechanical properties :
#
#
# Convention : Reuss Voigt Hill
#
# Bulk Modulus (GPa) = 29.79000 33.57747 31.68374
# Shear Modulus (GPa) = 27.05338 29.51902 28.28620
#
# Velocity S-wave (km/s) = 3.56940 3.72852 3.64983
# Velocity P-wave (km/s) = 5.56929 5.86079 5.71690
#
# Compressibility (1/GPa) = 0.03356831
#
# Stress axis : x y z
#
# Youngs Moduli (GPa) = 65.44477 86.71499 45.08825
#
# Poissons Ratio (x) = 0.33381 0.21584
# Poissons Ratio (y) = 0.25193 -0.04172
# Poissons Ratio (z) = 0.31328 -0.08023
#
# Static dielectric constant tensor:
#      x y z
#    x 1.821870 0.000000 -0.023310 
#    y 0.000000 1.725200 0.000000 
#    z -0.023310 0.000000 1.793670 
# 
# From -- ./inp_files/58743.got.cif
#   From: 2010.05.17/outbox.cif.g08.bks.cpg/sg13_30_cif.got.tgz:58743.got - 2010.06.03 16:44:36.
