data_PCOD9231769
_publ_section_title
;
Structure prediction by ZEFSAII (Michael W. Deem and Ramdas Pophale) SiO2 
 PCOD9231769
Probable space group: P 2/C
;
_chemical_formula_sum "Si O2"
_cell_formula_units_Z 32
_cell_length_a 10.610551
_cell_length_b 8.676851
_cell_length_c 30.094283
_cell_angle_alpha 90.000000
_cell_angle_beta 153.133750
_cell_angle_gamma 90.000000
_cell_volume 1252.089503
_symmetry_space_group_name_H-M "P 2/C"
_symmetry_group_IT_number 13
_symmetry_cell_setting 'monoclinic'
loop_
_space_group_symop_operation_xyz
x,y,z
-x,y,1/2-z
-x,-y,-z
x,-y,1/2+z
loop_
_atom_site_type_symbol
_atom_site_label
_atom_site_fract_x
_atom_site_fract_y
_atom_site_fract_z
Si Si1 0.646309 0.769373 0.557312
Si Si2 0.469323 0.200588 0.191195
Si Si3 0.551340 0.146997 0.923183
Si Si4 0.005027 0.226341 0.879849
Si Si5 0.198160 0.816279 0.527016
Si Si6 0.099464 0.010492 0.227016
Si Si7 0.101613 0.543038 0.667830
Si Si8 0.204166 0.525548 0.022846
O O1 0.596263 0.828961 0.490619
O O2 0.338162 0.742687 0.478732
O O3 0.855098 0.624135 0.618448
O O4 0.817748 0.888162 0.642627
O O5 0.500000 0.131304 0.250000
O O6 0.176563 0.181635 0.074002
O O7 0.612397 0.365742 0.240788
O O8 0.661226 0.127562 0.213303
O O9 0.245387 0.100978 0.808403
O O10 0.623350 0.314505 0.924096
O O11 0.711974 0.987334 0.961298
O O12 0.950097 0.078366 0.834247
O O13 0.853632 0.366160 0.808270
O O14 0.941376 0.210783 0.912055
O O15 0.350189 0.645494 0.567843
O O16 0.980521 0.543514 0.579815
O O17 0.000000 0.500000 0.000000
#
# Coordination Sequence:
#
# PCOD9231769 Si02
#       8
#     4   4   4   4   4   4   4   4
#     4  10  20  41  66  85 130 169 207 260 331 387
#     4  10  21  42  61  85 124 169 204 263 325 378
#     4  10  22  40  61  95 129 165 215 268 308 393
#     4  11  21  39  62  93 124 164 208 270 323 383
#     4  10  22  39  61  89 125 162 212 261 311 382
#     4  10  22  38  60  94 122 160 218 260 308 391
#     4   9  21  38  61  90 122 159 212 261 317 389
#     4  10  21  39  62  92 122 167 210 258 324 375
#
# _framework density 25.557281
#
# number of rings (size 3 to 8) (size 9 to 14) (size 15 to 20)
#    0.000    2.000    1.250    1.500    1.750    1.000 
#   11.250    1.875    2.750    0.000    0.000    0.000 
#    0.000    0.000    0.000    0.000    0.000    0.000 
#
# Total GULP energy -178259.950673 kJ/mol
# GULP energy per Si atom -5570.623459 kJ/mol
# Density = 2.549911 g / cm^3
# Si number density = 25.557281 Si / 1000 Ang^3
#
#
#
# Elastic Constant Matrix: (Units=GPa)
#
#
# Indices 1 2 3 4 5 6 
#
# 1 70.8010 57.9318 38.9012 0.0000 -8.2587 0.0000
# 2 57.9318 140.2741 13.5582 0.0000 -1.8802 0.0000
# 3 38.9012 13.5582 75.1794 0.0000 -21.0440 0.0000
# 4 0.0000 0.0000 0.0000 36.2559 0.0000 -4.8901
# 5 -8.2587 -1.8802 -21.0440 0.0000 38.6867 0.0000
# 6 0.0000 0.0000 0.0000 -4.8901 0.0000 29.8717
#
#
#
# Elastic Compliance Matrix: (Units=1/GPa)
#
#
# Indices 1 2 3 4 5 6 
#
# 1 0.031496 -0.011610 -0.014721 0.000000 -0.001848 0.000000
# 2 -0.011610 0.011541 0.003998 0.000000 0.000257 0.000000
# 3 -0.014721 0.003998 0.022852 0.000000 0.009482 0.000000
# 4 0.000000 0.000000 0.000000 0.028204 0.000000 0.004617
# 5 -0.001848 0.000257 0.009482 0.000000 0.030625 0.000000
# 6 0.000000 0.000000 0.000000 0.004617 0.000000 0.034232
#
#
# Mechanical properties :
#
#
# Convention : Reuss Voigt Hill
#
# Bulk Modulus (GPa) = 47.11746 56.33743 51.72744
# Shear Modulus (GPa) = 23.73147 32.68708 28.20928
#
# Velocity S-wave (km/s) = 3.05053 3.58015 3.32590
# Velocity P-wave (km/s) = 5.55731 6.25951 5.91883
#
# Compressibility (1/GPa) = 0.02122356
#
# Stress axis : x y z
#
# Youngs Moduli (GPa) = 31.74971 86.65100 43.75941
#
# Poissons Ratio (x) = 1.00598 0.64419
# Poissons Ratio (y) = 0.36860 -0.17495
# Poissons Ratio (z) = 0.46740 -0.34644
#
# Static dielectric constant tensor:
#      x y z
#    x 2.202290 0.000000 0.073690 
#    y 0.000000 2.090210 0.000000 
#    z 0.073690 0.000000 2.204970 
# 
# From -- ./inp_files/86399.got.cif
#   From: 2010.05.17/outbox.cif.g08.bks.cpg/sg13_44_cif.got.tgz:86399.got - 2010.06.03 16:44:36.
