data_PCOD9231360
_publ_section_title
;
Structure prediction by ZEFSAII (Michael W. Deem and Ramdas Pophale) SiO2 
 PCOD9231360
Probable space group: P 2/C
;
_chemical_formula_sum "Si O2"
_cell_formula_units_Z 30
_cell_length_a 8.113144
_cell_length_b 15.971539
_cell_length_c 11.064614
_cell_angle_alpha 90.000000
_cell_angle_beta 74.861387
_cell_angle_gamma 90.000000
_cell_volume 1383.990497
_symmetry_space_group_name_H-M "P 2/C"
_symmetry_group_IT_number 13
_symmetry_cell_setting 'monoclinic'
loop_
_space_group_symop_operation_xyz
x,y,z
-x,y,1/2-z
-x,-y,-z
x,-y,1/2+z
loop_
_atom_site_type_symbol
_atom_site_label
_atom_site_fract_x
_atom_site_fract_y
_atom_site_fract_z
Si Si1 0.304910 0.057100 0.149453
Si Si2 0.500000 0.928796 0.250000
Si Si3 0.124181 0.103413 0.612035
Si Si4 0.110127 0.838930 0.855636
Si Si5 0.352594 0.483004 0.381288
Si Si6 0.179236 0.342521 0.281271
Si Si7 0.510038 0.179427 0.557994
Si Si8 0.422367 0.634809 0.509208
O O1 0.240316 0.088777 0.291773
O O2 0.448068 0.990037 0.153687
O O3 0.167362 0.997121 0.109009
O O4 0.384147 0.137499 0.070884
O O5 0.391822 0.861504 0.345635
O O6 0.045483 0.134179 0.499840
O O7 0.309985 0.150544 0.589308
O O8 0.000000 0.119099 0.750000
O O9 0.186819 0.745402 0.851180
O O10 0.000000 0.836427 0.750000
O O11 0.500000 0.492296 0.250000
O O12 0.206044 0.426683 0.351636
O O13 0.314673 0.574187 0.442046
O O14 0.423655 0.424006 0.475419
O O15 0.321348 0.341811 0.149922
O O16 0.000000 0.345732 0.250000
O O17 0.521271 0.278562 0.558943
#
# Coordination Sequence:
#
# PCOD9231360 Si02
#       8
#     4   2   4   4   4   4   4   4
#     4  11  21  40  63  89 122 172 224 276 317 385
#     4  10  22  34  56  90 122 160 210 266 322 380
#     4  11  25  42  60  93 138 176 217 275 338 388
#     4  11  23  39  64  93 128 175 225 267 323 392
#     4   9  20  37  64  93 124 161 212 264 334 398
#     4  10  21  40  62  97 130 165 216 270 328 394
#     4  11  22  39  64  91 127 169 221 271 327 389
#     4  10  20  39  64  93 122 164 215 274 321 392
#
# _framework density 21.676448000000001
#
# number of rings (size 3 to 8) (size 9 to 14) (size 15 to 20)
#    0.000    1.600    1.333    4.400    0.933    4.800 
#    0.000    0.000    0.000    9.600    0.000    0.933 
#    0.000    0.000    0.000    0.000    0.000    0.000 
#
# Total GULP energy -167080.975886 kJ/mol
# GULP energy per Si atom -5569.365863 kJ/mol
# Density = 2.162711 g / cm^3
# Si number density = 21.676448 Si / 1000 Ang^3
#
#
#
# Elastic Constant Matrix: (Units=GPa)
#
#
# Indices 1 2 3 4 5 6 
#
# 1 44.7110 31.9642 13.8006 0.0000 0.1076 0.0000
# 2 31.9642 180.7738 52.1460 0.0000 7.8539 0.0000
# 3 13.8006 52.1460 110.2090 0.0000 2.5574 0.0000
# 4 0.0000 0.0000 0.0000 33.8593 0.0000 9.8107
# 5 0.1076 7.8539 2.5574 0.0000 26.3988 0.0000
# 6 0.0000 0.0000 0.0000 9.8107 0.0000 20.0946
#
#
#
# Elastic Compliance Matrix: (Units=1/GPa)
#
#
# Indices 1 2 3 4 5 6 
#
# 1 0.025790 -0.004257 -0.001245 0.000000 0.001282 0.000000
# 2 -0.004257 0.007178 -0.002821 0.000000 -0.001845 0.000000
# 3 -0.001245 -0.002821 0.010568 0.000000 -0.000180 0.000000
# 4 0.000000 0.000000 0.000000 0.034400 0.000000 -0.016795
# 5 0.001282 -0.001845 -0.000180 0.000000 0.038442 0.000000
# 6 0.000000 0.000000 0.000000 -0.016795 0.000000 0.057964
#
#
# Mechanical properties :
#
#
# Convention : Reuss Voigt Hill
#
# Bulk Modulus (GPa) = 37.18594 59.05727 48.12161
# Shear Modulus (GPa) = 25.00599 31.92274 28.46436
#
# Velocity S-wave (km/s) = 3.40016 3.84173 3.62767
# Velocity P-wave (km/s) = 5.71025 6.85438 6.30831
#
# Compressibility (1/GPa) = 0.02689188
#
# Stress axis : x y z
#
# Youngs Moduli (GPa) = 38.77434 139.31035 94.62240
#
# Poissons Ratio (x) = 0.59300 0.11782
# Poissons Ratio (y) = 0.16505 0.26689
# Poissons Ratio (z) = 0.04828 0.39293
#
# Static dielectric constant tensor:
#      x y z
#    x 1.867440 0.000000 0.137800 
#    y 0.000000 1.790540 0.000000 
#    z 0.137800 0.000000 1.784740 
# 
# From -- ./inp_files/30358.got.cif
#   From: 2010.05.17/outbox.cif.g08.bks.cpg/sg13_16_cif.got.tgz:30358.got - 2010.06.03 16:44:36.
