data_PCOD9231509
_publ_section_title
;
Structure prediction by ZEFSAII (Michael W. Deem and Ramdas Pophale) SiO2 
 PCOD9231509
Probable space group: P 2/C
;
_chemical_formula_sum "Si O2"
_cell_formula_units_Z 24
_cell_length_a 11.032837
_cell_length_b 9.752140
_cell_length_c 25.537278
_cell_angle_alpha 90.000000
_cell_angle_beta 158.190393
_cell_angle_gamma 90.000000
_cell_volume 1020.817339
_symmetry_space_group_name_H-M "P 2/C"
_symmetry_group_IT_number 13
_symmetry_cell_setting 'monoclinic'
loop_
_space_group_symop_operation_xyz
x,y,z
-x,y,1/2-z
-x,-y,-z
x,-y,1/2+z
loop_
_atom_site_type_symbol
_atom_site_label
_atom_site_fract_x
_atom_site_fract_y
_atom_site_fract_z
Si Si1 0.226661 0.519497 0.475577
Si Si2 0.414254 0.795365 0.034460
Si Si3 0.519620 0.540366 0.316466
Si Si4 0.607392 0.777799 0.590798
Si Si5 0.830787 0.038479 0.512241
Si Si6 0.540337 0.155656 0.695752
O O1 0.314298 0.363080 0.497440
O O2 0.268145 0.536163 0.555180
O O3 0.466218 0.626026 0.544281
O O4 0.851407 0.543444 0.311239
O O5 0.653450 0.824467 0.179678
O O6 0.124865 0.899717 0.934933
O O7 0.510282 0.824711 0.013932
O O8 0.500000 0.482878 0.250000
O O9 0.625090 0.699813 0.357436
O O10 0.447258 0.873583 0.570382
O O11 0.000000 0.779070 0.750000
O O12 0.157443 0.124939 0.646280
O O13 0.690326 0.975959 0.402579
#
# Coordination Sequence:
#
# PCOD9231509 Si02
#       6
#     4   4   4   4   4   4
#     4  11  23  43  65  95 128 162 212 270 310 373
#     4   9  22  36  60  90 132 168 205 240 313 373
#     4  11  23  45  68  92 122 166 213 271 331 371
#     4  12  22  36  62  98 131 171 210 248 308 380
#     4  10  20  40  61  89 133 167 212 247 307 369
#     4   9  21  39  62  91 124 164 209 261 302 370
#
# _framework density 23.510573000000001
#
# number of rings (size 3 to 8) (size 9 to 14) (size 15 to 20)
#    1.000    0.667    1.667    3.500    0.000    0.667 
#    0.000    0.833    0.000    0.000    0.000    0.000 
#    0.000    0.000    0.000    0.000    0.000    0.000 
#
# Total GULP energy -133993.945659 kJ/mol
# GULP energy per Si atom -5583.081069 kJ/mol
# Density = 2.345706 g / cm^3
# Si number density = 23.510573 Si / 1000 Ang^3
#
#
#
# Elastic Constant Matrix: (Units=GPa)
#
#
# Indices 1 2 3 4 5 6 
#
# 1 56.6769 6.9907 13.5497 0.0000 1.0112 0.0000
# 2 6.9907 84.9679 15.0621 0.0000 4.7879 0.0000
# 3 13.5497 15.0621 90.2283 0.0000 12.7218 0.0000
# 4 0.0000 0.0000 0.0000 28.3420 0.0000 -3.2348
# 5 1.0112 4.7879 12.7218 0.0000 21.5620 0.0000
# 6 0.0000 0.0000 0.0000 -3.2348 0.0000 37.5560
#
#
#
# Elastic Compliance Matrix: (Units=1/GPa)
#
#
# Indices 1 2 3 4 5 6 
#
# 1 0.018411 -0.001088 -0.002722 0.000000 0.000984 0.000000
# 2 -0.001088 0.012245 -0.001641 0.000000 -0.001700 0.000000
# 3 -0.002722 -0.001641 0.012758 0.000000 -0.007035 0.000000
# 4 0.000000 0.000000 0.000000 0.035634 0.000000 0.003069
# 5 0.000984 -0.001700 -0.007035 0.000000 0.050860 0.000000
# 6 0.000000 0.000000 0.000000 0.003069 0.000000 0.026891
#
#
# Mechanical properties :
#
#
# Convention : Reuss Voigt Hill
#
# Bulk Modulus (GPa) = 30.75741 33.67533 32.21637
# Shear Modulus (GPa) = 28.00521 30.57672 29.29096
#
# Velocity S-wave (km/s) = 3.45508 3.61023 3.53351
# Velocity P-wave (km/s) = 5.38773 5.63320 5.51183
#
# Compressibility (1/GPa) = 0.03251249
#
# Stress axis : x y z
#
# Youngs Moduli (GPa) = 54.31467 81.66371 78.38440
#
# Poissons Ratio (x) = 0.08883 0.21336
# Poissons Ratio (y) = 0.05908 0.12864
# Poissons Ratio (z) = 0.14785 0.13402
#
# Static dielectric constant tensor:
#      x y z
#    x 1.939760 0.000000 -0.010640 
#    y 0.000000 1.874170 0.000000 
#    z -0.010640 0.000000 1.874960 
# 
# From -- ./inp_files/92406.got.cif
#   From: 2010.05.17/outbox.cif.g08.bks.cpg/sg13_47_cif.got.tgz:92406.got - 2010.06.03 16:44:36.
