data_PCOD9231397
_publ_section_title
;
Structure prediction by ZEFSAII (Michael W. Deem and Ramdas Pophale) SiO2 
 PCOD9231397
Probable space group: P 2/C
;
_chemical_formula_sum "Si O2"
_cell_formula_units_Z 24
_cell_length_a 22.516722
_cell_length_b 5.478610
_cell_length_c 23.456779
_cell_angle_alpha 90.000000
_cell_angle_beta 158.580626
_cell_angle_gamma 90.000000
_cell_volume 1056.731605
_symmetry_space_group_name_H-M "P 2/C"
_symmetry_group_IT_number 13
_symmetry_cell_setting 'monoclinic'
loop_
_space_group_symop_operation_xyz
x,y,z
-x,y,1/2-z
-x,-y,-z
x,-y,1/2+z
loop_
_atom_site_type_symbol
_atom_site_label
_atom_site_fract_x
_atom_site_fract_y
_atom_site_fract_z
Si Si1 0.059104 0.577147 0.420737
Si Si2 0.622197 0.158441 0.487686
Si Si3 0.441988 0.513515 0.258763
Si Si4 0.948888 0.922112 0.767413
Si Si5 0.247002 0.483785 0.794877
Si Si6 0.468196 0.224655 0.904341
O O1 0.252730 0.552776 0.592334
O O2 0.022404 0.860862 0.372349
O O3 0.948412 0.504303 0.377280
O O4 0.002043 0.353550 0.328464
O O5 0.556366 0.278323 0.371884
O O6 0.754735 0.950566 0.595656
O O7 0.713948 0.344662 0.610933
O O8 0.474798 0.058799 0.394443
O O9 0.500000 0.623235 0.250000
O O10 0.466679 0.661433 0.339539
O O11 0.000000 0.989141 0.750000
O O12 0.319606 0.329984 0.807670
O O13 0.368132 0.713316 0.912638
#
# Coordination Sequence:
#
# PCOD9231397 Si02
#       6
#     4   4   4   4   4   4
#     4  11  24  42  62  99 129 172 214 282 325 384
#     4  10  21  39  63  92 122 173 214 269 328 389
#     4  11  26  40  60  93 138 168 215 266 338 398
#     4  11  23  40  68  91 129 173 229 267 319 390
#     4   9  20  40  64  93 123 159 229 271 314 391
#     4  10  20  39  66  90 122 173 213 267 332 386
#
# _framework density 22.711538999999998
#
# number of rings (size 3 to 8) (size 9 to 14) (size 15 to 20)
#    0.000    1.667    1.667    2.000    4.667    1.333 
#    0.000    0.833    0.000    0.000    0.000    0.000 
#    0.000    0.000    0.000    0.000    0.000    0.000 
#
# Total GULP energy -133666.549093 kJ/mol
# GULP energy per Si atom -5569.439546 kJ/mol
# Density = 2.265985 g / cm^3
# Si number density = 22.711539 Si / 1000 Ang^3
#
#
#
# Elastic Constant Matrix: (Units=GPa)
#
#
# Indices 1 2 3 4 5 6 
#
# 1 111.5322 -6.9373 43.2077 0.0000 15.3601 0.0000
# 2 -6.9373 39.5848 14.9314 0.0000 -4.7348 0.0000
# 3 43.2077 14.9314 88.7111 0.0000 19.4388 0.0000
# 4 0.0000 0.0000 0.0000 3.3453 0.0000 8.7722
# 5 15.3601 -4.7348 19.4388 0.0000 28.1845 0.0000
# 6 0.0000 0.0000 0.0000 8.7722 0.0000 25.0556
#
#
#
# Elastic Compliance Matrix: (Units=1/GPa)
#
#
# Indices 1 2 3 4 5 6 
#
# 1 0.011809 0.004202 -0.006130 0.000000 -0.001502 0.000000
# 2 0.004202 0.030572 -0.009207 0.000000 0.009196 0.000000
# 3 -0.006130 -0.009207 0.018159 0.000000 -0.010731 0.000000
# 4 0.000000 0.000000 0.000000 3.648323 0.000000 -1.277307
# 5 -0.001502 0.009196 -0.010731 0.000000 0.045245 0.000000
# 6 0.000000 0.000000 0.000000 -1.277307 0.000000 0.487106
#
#
# Mechanical properties :
#
#
# Convention : Reuss Voigt Hill
#
# Bulk Modulus (GPa) = 26.13052 38.02574 32.07813
# Shear Modulus (GPa) = 1.16925 23.89218 12.53072
#
# Velocity S-wave (km/s) = 0.71829 3.24695 2.35145
# Velocity P-wave (km/s) = 3.49547 5.55303 4.63975
#
# Compressibility (1/GPa) = 0.03826942
#
# Stress axis : x y z
#
# Youngs Moduli (GPa) = 84.68156 32.71009 55.06847
#
# Poissons Ratio (x) = -0.13745 0.33756
# Poissons Ratio (y) = -0.35584 0.50704
# Poissons Ratio (z) = 0.51908 0.30118
#
# Static dielectric constant tensor:
#      x y z
#    x 1.924300 0.000000 0.083520 
#    y 0.000000 1.974740 0.000000 
#    z 0.083520 0.000000 1.957900 
# 
# From -- ./inp_files/84397.got.cif
#   From: 2010.05.17/outbox.cif.g08.bks.cpg/sg13_43_cif.got.tgz:84397.got - 2010.06.03 16:44:36.
