data_PCOD9231479
_publ_section_title
;
Structure prediction by ZEFSAII (Michael W. Deem and Ramdas Pophale) SiO2 
 PCOD9231479
Probable space group: P 2/C
;
_chemical_formula_sum "Si O2"
_cell_formula_units_Z 26
_cell_length_a 22.361099
_cell_length_b 11.442591
_cell_length_c 8.885680
_cell_angle_alpha 90.000000
_cell_angle_beta 37.584482
_cell_angle_gamma 90.000000
_cell_volume 1386.719365
_symmetry_space_group_name_H-M "P 2/C"
_symmetry_group_IT_number 13
_symmetry_cell_setting 'monoclinic'
loop_
_space_group_symop_operation_xyz
x,y,z
-x,y,1/2-z
-x,-y,-z
x,-y,1/2+z
loop_
_atom_site_type_symbol
_atom_site_label
_atom_site_fract_x
_atom_site_fract_y
_atom_site_fract_z
Si Si1 0.758256 0.797834 0.457225
Si Si2 0.500000 0.011719 0.750000
Si Si3 0.136013 0.401517 0.610826
Si Si4 0.182293 0.841503 0.488146
Si Si5 0.934008 0.939384 0.256863
Si Si6 0.913815 0.360891 0.139352
Si Si7 0.639393 0.965699 0.216122
O O1 0.770888 0.671232 0.511009
O O2 0.851792 0.861230 0.346226
O O3 0.671723 0.896105 0.647056
O O4 0.773889 0.782859 0.247836
O O5 0.411213 0.072585 0.838198
O O6 0.557670 0.943793 0.505952
O O7 0.123883 0.380333 0.456288
O O8 0.133828 0.537547 0.661782
O O9 0.032176 0.364499 0.896137
O O10 0.116832 0.758338 0.719984
O O11 0.121613 0.953421 0.551196
O O12 0.266037 0.893304 0.428381
O O13 0.000000 0.876411 0.250000
O O14 0.000000 0.000000 0.000000
#
# Coordination Sequence:
#
# PCOD9231479 Si02
#       7
#     4   2   4   4   4   4   4
#     4  11  22  34  54  79 115 142 188 229 271 325
#     4  10  20  40  60  80 116 142 178 222 284 362
#     4  10  22  37  55  79 108 156 196 235 265 314
#     4  11  22  35  52  81 113 145 184 234 267 329
#     4  11  22  32  46  73 110 153 182 215 270 317
#     4  10  22  37  56  77 112 152 200 231 270 308
#     4  10  22  37  58  88 113 145 178 223 289 344
#
# _framework density 18.749288
#
# number of rings (size 3 to 8) (size 9 to 14) (size 15 to 20)
#    0.000    1.538    3.077    1.846    6.462    1.231 
#    0.000    0.000    0.000    0.000    0.000    6.462 
#    0.000    0.000    0.000    0.000    0.000    0.000 
#
# Total GULP energy -144949.096591 kJ/mol
# GULP energy per Si atom -5574.965254 kJ/mol
# Density = 1.870661 g / cm^3
# Si number density = 18.749288 Si / 1000 Ang^3
#
#
#
# Elastic Constant Matrix: (Units=GPa)
#
#
# Indices 1 2 3 4 5 6 
#
# 1 112.5687 14.8748 6.5525 0.0000 -0.1954 0.0000
# 2 14.8748 68.0950 6.0309 0.0000 -1.2083 0.0000
# 3 6.5525 6.0309 35.8118 0.0000 4.5401 0.0000
# 4 0.0000 0.0000 0.0000 11.5631 0.0000 8.8044
# 5 -0.1954 -1.2083 4.5401 0.0000 30.1774 0.0000
# 6 0.0000 0.0000 0.0000 8.8044 0.0000 18.4013
#
#
#
# Elastic Compliance Matrix: (Units=1/GPa)
#
#
# Indices 1 2 3 4 5 6 
#
# 1 0.009214 -0.001886 -0.001393 0.000000 0.000194 0.000000
# 2 -0.001886 0.015323 -0.002357 0.000000 0.000956 0.000000
# 3 -0.001393 -0.002357 0.029144 0.000000 -0.004488 0.000000
# 4 0.000000 0.000000 0.000000 0.136045 0.000000 -0.065093
# 5 0.000194 0.000956 -0.004488 0.000000 0.033852 0.000000
# 6 0.000000 0.000000 0.000000 -0.065093 0.000000 0.085489
#
#
# Mechanical properties :
#
#
# Convention : Reuss Voigt Hill
#
# Bulk Modulus (GPa) = 23.57889 30.15465 26.86677
# Shear Modulus (GPa) = 14.94881 24.62952 19.78917
#
# Velocity S-wave (km/s) = 2.82671 3.62833 3.25231
# Velocity P-wave (km/s) = 4.82254 5.80267 5.33516
#
# Compressibility (1/GPa) = 0.04241082
#
# Stress axis : x y z
#
# Youngs Moduli (GPa) = 108.52952 65.26136 34.31182
#
# Poissons Ratio (x) = 0.12308 0.04779
# Poissons Ratio (y) = 0.20468 0.08086
# Poissons Ratio (z) = 0.15117 0.15379
#
# Static dielectric constant tensor:
#      x y z
#    x 1.709210 0.000000 -0.002990 
#    y 0.000000 1.711720 0.000000 
#    z -0.002990 0.000000 1.659180 
# 
# From -- ./inp_files/18558.got.cif
#   From: 2010.05.17/outbox.cif.g08.bks.cpg/sg13_10_cif.got.tgz:18558.got - 2010.06.03 16:44:36.
