data_PCOD9231460
_publ_section_title
;
Structure prediction by ZEFSAII (Michael W. Deem and Ramdas Pophale) SiO2 
 PCOD9231460
Probable space group: P 2/C
;
_chemical_formula_sum "Si O2"
_cell_formula_units_Z 22
_cell_length_a 8.682164
_cell_length_b 16.009693
_cell_length_c 7.751726
_cell_angle_alpha 90.000000
_cell_angle_beta 78.954354
_cell_angle_gamma 90.000000
_cell_volume 1057.519982
_symmetry_space_group_name_H-M "P 2/C"
_symmetry_group_IT_number 13
_symmetry_cell_setting 'monoclinic'
loop_
_space_group_symop_operation_xyz
x,y,z
-x,y,1/2-z
-x,-y,-z
x,-y,1/2+z
loop_
_atom_site_type_symbol
_atom_site_label
_atom_site_fract_x
_atom_site_fract_y
_atom_site_fract_z
Si Si1 0.500000 0.709031 0.750000
Si Si2 0.299895 0.756662 0.505611
Si Si3 0.000000 0.955564 0.750000
Si Si4 0.786282 0.403597 0.049828
Si Si5 0.000000 0.692491 0.750000
Si Si6 0.316599 0.581803 0.309714
Si Si7 0.880819 0.112888 0.637699
O O1 0.445188 0.765746 0.602558
O O2 0.358317 0.648182 0.835802
O O3 0.143706 0.747901 0.654960
O O4 0.318919 0.665131 0.420892
O O5 0.264974 0.828127 0.374379
O O6 0.039023 0.907916 0.565094
O O7 0.139230 0.021942 0.768597
O O8 0.939125 0.365037 0.106320
O O9 0.767494 0.501397 0.093521
O O10 0.767215 0.395525 0.850588
O O11 0.500000 0.557298 0.250000
O O12 0.000000 0.155929 0.750000
#
# Coordination Sequence:
#
# PCOD9231460 Si02
#       7
#     2   4   2   4   2   4   4
#     4  10  20  40  56  80 114 168 202 236 288 354
#     4  11  23  37  60  87 122 148 196 251 303 343
#     4   8  17  36  63  92 122 158 184 222 305 384
#     4  11  22  38  59  76 115 158 209 246 293 351
#     4  10  25  38  53  90 116 154 192 260 311 332
#     4  12  23  38  60  80 111 163 210 245 291 356
#     4   9  18  35  61  93 119 152 189 235 292 369
#
# _framework density 20.803388999999999
#
# number of rings (size 3 to 8) (size 9 to 14) (size 15 to 20)
#    0.545    1.091    2.727    3.273    2.545    2.909 
#    0.000    0.000    0.000    1.091    0.000    0.000 
#    0.000    0.000    0.000    0.000    0.000    0.000 
#
# Total GULP energy -122717.446192 kJ/mol
# GULP energy per Si atom -5578.065736 kJ/mol
# Density = 2.075604 g / cm^3
# Si number density = 20.803389 Si / 1000 Ang^3
#
#
#
# Elastic Constant Matrix: (Units=GPa)
#
#
# Indices 1 2 3 4 5 6 
#
# 1 63.5746 26.1786 22.8920 0.0000 39.8470 0.0000
# 2 26.1786 75.3264 9.3645 0.0000 25.5575 0.0000
# 3 22.8920 9.3645 86.5933 0.0000 43.0042 0.0000
# 4 0.0000 0.0000 0.0000 32.6702 0.0000 15.1577
# 5 39.8470 25.5575 43.0042 0.0000 49.0187 0.0000
# 6 0.0000 0.0000 0.0000 15.1577 0.0000 23.6235
#
#
#
# Elastic Compliance Matrix: (Units=1/GPa)
#
#
# Indices 1 2 3 4 5 6 
#
# 1 0.035559 -0.001324 0.008426 0.000000 -0.035607 0.000000
# 2 -0.001324 0.017140 0.004253 0.000000 -0.011591 0.000000
# 3 0.008426 0.004253 0.023681 0.000000 -0.029843 0.000000
# 4 0.000000 0.000000 0.000000 0.043584 0.000000 -0.027965
# 5 -0.035607 -0.011591 -0.029843 0.000000 0.081570 0.000000
# 6 0.000000 0.000000 0.000000 -0.027965 0.000000 0.060274
#
#
# Mechanical properties :
#
#
# Convention : Reuss Voigt Hill
#
# Bulk Modulus (GPa) = 10.09188 38.04050 24.06619
# Shear Modulus (GPa) = 18.37378 32.19975 25.28677
#
# Velocity S-wave (km/s) = 2.97511 3.93849 3.49020
# Velocity P-wave (km/s) = 4.08207 6.24562 5.27594
#
# Compressibility (1/GPa) = 0.09908954
#
# Stress axis : x y z
#
# Youngs Moduli (GPa) = 28.12266 58.34392 42.22740
#
# Poissons Ratio (x) = 0.07726 -0.35582
# Poissons Ratio (y) = 0.03724 -0.17959
# Poissons Ratio (z) = -0.23697 -0.24813
#
# Static dielectric constant tensor:
#      x y z
#    x 1.765480 0.000000 -0.005890 
#    y 0.000000 1.768330 0.000000 
#    z -0.005890 0.000000 1.794770 
# 
# From -- ./inp_files/12452.got.cif
#   From: 2010.05.17/outbox.cif.g08.bks.cpg/sg13_7_cif.got.tgz:12452.got - 2010.06.03 16:44:36.
