data_PCOD9231678
_publ_section_title
;
Structure prediction by ZEFSAII (Michael W. Deem and Ramdas Pophale) SiO2 
 PCOD9231678
Probable space group: P 2/C
;
_chemical_formula_sum "Si O2"
_cell_formula_units_Z 28
_cell_length_a 9.238566
_cell_length_b 19.933517
_cell_length_c 14.807916
_cell_angle_alpha 90.000000
_cell_angle_beta 151.340714
_cell_angle_gamma 90.000000
_cell_volume 1307.861295
_symmetry_space_group_name_H-M "P 2/C"
_symmetry_group_IT_number 13
_symmetry_cell_setting 'monoclinic'
loop_
_space_group_symop_operation_xyz
x,y,z
-x,y,1/2-z
-x,-y,-z
x,-y,1/2+z
loop_
_atom_site_type_symbol
_atom_site_label
_atom_site_fract_x
_atom_site_fract_y
_atom_site_fract_z
Si Si1 0.642901 0.359917 0.578110
Si Si2 0.713641 0.027073 0.539350
Si Si3 0.658240 0.793079 0.101488
Si Si4 0.744557 0.409185 0.304609
Si Si5 0.633760 0.846931 0.729482
Si Si6 0.271768 0.560551 0.204353
Si Si7 0.301936 0.885043 0.054043
O O1 0.630431 0.284595 0.610928
O O2 0.414688 0.373323 0.368808
O O3 0.576333 0.408525 0.624704
O O4 0.000000 0.371778 0.750000
O O5 0.538842 0.082006 0.384814
O O6 0.000000 0.055377 0.750000
O O7 0.500000 0.000000 0.500000
O O8 0.796963 0.958896 0.533813
O O9 0.503964 0.843489 0.090937
O O10 0.000000 0.804003 0.250000
O O11 0.459548 0.801216 0.903910
O O12 0.500000 0.408439 0.250000
O O13 0.837013 0.485671 0.327265
O O14 0.035704 0.389307 0.525123
O O15 0.500000 0.821784 0.750000
O O16 0.992093 0.851933 0.917913
O O17 0.500000 0.547147 0.250000
O O18 0.500000 0.895337 0.250000
#
# Coordination Sequence:
#
# PCOD9231678 Si02
#       7
#     4   4   4   4   4   4   4
#     4  11  23  42  68  95 130 179 225 270 334 396
#     4  12  23  41  73 100 133 167 212 272 334 390
#     4  11  25  46  66  91 130 176 226 279 327 388
#     4  10  20  40  69  96 134 175 211 275 331 398
#     4  12  26  44  69  99 132 174 219 270 333 398
#     4  10  22  40  64 102 135 166 220 271 333 390
#     4  12  26  45  68  98 132 174 219 274 332 391
#
# _framework density 21.408998
#
# number of rings (size 3 to 8) (size 9 to 14) (size 15 to 20)
#    0.000    0.857    4.286    2.571    2.000    2.857 
#    7.714    0.000    0.000    0.000    0.000    0.000 
#    0.000    0.000    0.000    0.000    0.000    0.000 
#
# Total GULP energy -156008.188381 kJ/mol
# GULP energy per Si atom -5571.721014 kJ/mol
# Density = 2.136027 g / cm^3
# Si number density = 21.408998 Si / 1000 Ang^3
#
#
#
# Elastic Constant Matrix: (Units=GPa)
#
#
# Indices 1 2 3 4 5 6 
#
# 1 76.5127 7.4603 4.2365 0.0000 -15.0559 0.0000
# 2 7.4603 70.7497 -3.1121 0.0000 -10.8676 0.0000
# 3 4.2365 -3.1121 103.9272 0.0000 -6.6850 0.0000
# 4 0.0000 0.0000 0.0000 -396.1842 0.0000 532.4834
# 5 -15.0559 -10.8676 -6.6850 0.0000 43.6055 0.0000
# 6 0.0000 0.0000 0.0000 532.4834 0.0000 -656.5604
#
#
#
# Elastic Compliance Matrix: (Units=1/GPa)
#
#
# Indices 1 2 3 4 5 6 
#
# 1 0.014072 -0.000788 -0.000300 0.000000 0.004616 0.000000
# 2 -0.000788 0.014789 0.000701 0.000000 0.003521 0.000000
# 3 -0.000300 0.000701 0.009756 0.000000 0.001567 0.000000
# 4 0.000000 0.000000 0.000000 0.028035 0.000000 0.022737
# 5 0.004616 0.003521 0.001567 0.000000 0.025645 0.000000
# 6 0.000000 0.000000 0.000000 0.022737 0.000000 0.016917
#
#
# Mechanical properties :
#
#
# Convention : Reuss Voigt Hill
#
# Bulk Modulus (GPa) = 26.42466 29.81766 28.12116
# Shear Modulus (GPa) = 40.78280 -185.65418 -72.43569
#
# Velocity S-wave (km/s) = 4.36929 -9.32234 -5.82303
# Velocity P-wave (km/s) = 6.15011 10.09539 5.66096
#
# Compressibility (1/GPa) = 0.03784344
#
# Stress axis : x y z
#
# Youngs Moduli (GPa) = 71.06543 67.61699 102.49943
#
# Poissons Ratio (x) = 0.05328 0.03078
# Poissons Ratio (y) = 0.05599 -0.07190
# Poissons Ratio (z) = 0.02134 -0.04743
#
# Static dielectric constant tensor:
#      x y z
#    x 1.731190 0.000000 0.005240 
#    y 0.000000 1.895480 0.000000 
#    z 0.005240 0.000000 1.730880 
# 
# From -- ./inp_files/48252.got.cif
#   From: 2010.05.17/outbox.cif.g08.bks.cpg/sg13_25_cif.got.tgz:48252.got - 2010.06.03 16:44:36.
