data_PCOD9231161
_publ_section_title
;
Structure prediction by ZEFSAII (Michael W. Deem and Ramdas Pophale) SiO2 
 PCOD9231161
Probable space group: P 2/C
;
_chemical_formula_sum "Si O2"
_cell_formula_units_Z 22
_cell_length_a 5.246072
_cell_length_b 14.989497
_cell_length_c 12.209423
_cell_angle_alpha 90.000000
_cell_angle_beta 98.434101
_cell_angle_gamma 90.000000
_cell_volume 949.716672
_symmetry_space_group_name_H-M "P 2/C"
_symmetry_group_IT_number 13
_symmetry_cell_setting 'monoclinic'
loop_
_space_group_symop_operation_xyz
x,y,z
-x,y,1/2-z
-x,-y,-z
x,-y,1/2+z
loop_
_atom_site_type_symbol
_atom_site_label
_atom_site_fract_x
_atom_site_fract_y
_atom_site_fract_z
Si Si1 0.761311 0.968306 0.320862
Si Si2 0.396319 0.167729 0.126085
Si Si3 0.500000 0.472766 0.750000
Si Si4 0.080358 0.371179 0.592318
Si Si5 0.175743 0.450433 0.369690
Si Si6 0.864059 0.189056 0.987674
O O1 0.500000 0.927298 0.250000
O O2 0.860668 0.904332 0.423090
O O3 0.000000 0.982942 0.250000
O O4 0.653457 0.061311 0.362900
O O5 0.500000 0.200269 0.250000
O O6 0.603259 0.190606 0.044303
O O7 0.111826 0.201067 0.080584
O O8 0.284255 0.408142 0.691273
O O9 0.536188 0.543125 0.654179
O O10 0.146353 0.387481 0.469198
O O11 0.086077 0.265531 0.600163
O O12 0.860594 0.445366 0.596714
O O13 0.000000 0.433298 0.250000
#
# Coordination Sequence:
#
# PCOD9231161 Si02
#       6
#     4   4   2   4   4   4
#     4  11  23  42  70  96 133 177 224 270 333 408
#     4  11  24  45  65  93 133 178 223 272 333 395
#     4  10  20  38  66  86 124 170 214 266 322 404
#     4  10  23  38  63  92 133 163 220 268 336 387
#     4   9  20  41  62  89 124 173 215 263 327 401
#     4  12  25  41  68 100 134 170 220 283 332 390
#
# _framework density 23.164804
#
# number of rings (size 3 to 8) (size 9 to 14) (size 15 to 20)
#    0.000    1.455    0.000    5.455    3.818    3.636 
#    1.636    0.000    0.000    0.000    0.000    0.000 
#    0.000    0.000    0.000    0.000    0.000    0.000 
#
# Total GULP energy -122566.681475 kJ/mol
# GULP energy per Si atom -5571.212794 kJ/mol
# Density = 2.311208 g / cm^3
# Si number density = 23.164804 Si / 1000 Ang^3
#
#
#
# Elastic Constant Matrix: (Units=GPa)
#
#
# Indices 1 2 3 4 5 6 
#
# 1 86.4587 9.3089 9.5969 0.0000 10.3361 0.0000
# 2 9.3089 37.3325 13.9073 0.0000 -8.1777 0.0000
# 3 9.5969 13.9073 64.7012 0.0000 11.1000 0.0000
# 4 0.0000 0.0000 0.0000 90.8011 0.0000 -30.8640
# 5 10.3361 -8.1777 11.1000 0.0000 31.7382 0.0000
# 6 0.0000 0.0000 0.0000 -30.8640 0.0000 12.2601
#
#
#
# Elastic Compliance Matrix: (Units=1/GPa)
#
#
# Indices 1 2 3 4 5 6 
#
# 1 0.012655 -0.004269 -0.000068 0.000000 -0.005197 0.000000
# 2 -0.004269 0.034117 -0.008986 0.000000 0.013323 0.000000
# 3 -0.000068 -0.008986 0.018926 0.000000 -0.008912 0.000000
# 4 0.000000 0.000000 0.000000 0.076319 0.000000 0.192128
# 5 -0.005197 0.013323 -0.008912 0.000000 0.039750 0.000000
# 6 0.000000 0.000000 0.000000 0.192128 0.000000 0.565234
#
#
# Mechanical properties :
#
#
# Convention : Reuss Voigt Hill
#
# Bulk Modulus (GPa) = 25.60634 28.23541 26.92087
# Shear Modulus (GPa) = 6.35596 37.33850 21.84723
#
# Velocity S-wave (km/s) = 1.65824 4.01916 3.07436
# Velocity P-wave (km/s) = 3.83983 5.80978 4.92432
#
# Compressibility (1/GPa) = 0.03905283
#
# Stress axis : x y z
#
# Youngs Moduli (GPa) = 79.02207 29.31118 52.83682
#
# Poissons Ratio (x) = 0.12512 0.00358
# Poissons Ratio (y) = 0.33732 0.47478
# Poissons Ratio (z) = 0.00536 0.26339
#
# Static dielectric constant tensor:
#      x y z
#    x 2.048360 0.000000 -0.095960 
#    y 0.000000 1.923980 0.000000 
#    z -0.095960 0.000000 1.956100 
# 
# From -- ./inp_files/26340.got.cif
#   From: 2010.05.17/outbox.cif.g08.bks.cpg/sg13_14_cif.got.tgz:26340.got - 2010.06.03 16:44:36.
