data_PCOD9231367
_publ_section_title
;
Structure prediction by ZEFSAII (Michael W. Deem and Ramdas Pophale) SiO2 
 PCOD9231367
Probable space group: P 2/C
;
_chemical_formula_sum "Si O2"
_cell_formula_units_Z 26
_cell_length_a 19.150130
_cell_length_b 8.713879
_cell_length_c 8.527007
_cell_angle_alpha 90.000000
_cell_angle_beta 128.868469
_cell_angle_gamma 90.000000
_cell_volume 1107.867744
_symmetry_space_group_name_H-M "P 2/C"
_symmetry_group_IT_number 13
_symmetry_cell_setting 'monoclinic'
loop_
_space_group_symop_operation_xyz
x,y,z
-x,y,1/2-z
-x,-y,-z
x,-y,1/2+z
loop_
_atom_site_type_symbol
_atom_site_label
_atom_site_fract_x
_atom_site_fract_y
_atom_site_fract_z
Si Si1 0.000000 0.771226 0.750000
Si Si2 0.955693 0.694894 0.018835
Si Si3 0.595858 0.070549 0.306354
Si Si4 0.759545 0.729319 0.141637
Si Si5 0.324833 0.164452 0.387716
Si Si6 0.771655 0.448539 0.339232
Si Si7 0.862163 0.988129 0.418396
O O1 0.911390 0.880052 0.615559
O O2 0.999436 0.673714 0.588475
O O3 0.000000 0.664138 0.250000
O O4 0.863865 0.601883 0.889735
O O5 0.931557 0.876485 0.984790
O O6 0.500000 0.080121 0.250000
O O7 0.664894 0.188464 0.485444
O O8 0.599628 0.116242 0.130718
O O9 0.642691 0.905963 0.403839
O O10 0.760286 0.628273 0.299113
O O11 0.835165 0.861449 0.249375
O O12 0.774001 0.612272 0.019695
O O13 0.304500 0.343806 0.350452
O O14 0.233301 0.077893 0.197559
#
# Coordination Sequence:
#
# PCOD9231367 Si02
#       7
#     2   4   4   4   4   4   4
#     4  12  24  34  68  92 122 168 222 260 338 356
#     4  11  24  42  61  93 127 163 222 284 316 374
#     4  10  20  39  64  96 126 154 204 262 317 383
#     4  10  23  42  61  89 123 171 208 256 323 385
#     4   9  21  36  64  91 124 161 201 259 319 373
#     4  10  23  41  62  83 127 167 212 255 318 385
#     4  10  22  38  63  90 122 162 214 265 316 378
#
# _framework density 23.468506000000001
#
# number of rings (size 3 to 8) (size 9 to 14) (size 15 to 20)
#    0.000    1.846    0.769    1.846   12.923    1.231 
#    1.385    5.385    0.000    0.000    0.000    0.000 
#    0.000    0.000    0.000    0.000    0.000    0.000 
#
# Total GULP energy -145313.423191 kJ/mol
# GULP energy per Si atom -5588.977815 kJ/mol
# Density = 2.341509 g / cm^3
# Si number density = 23.468506 Si / 1000 Ang^3
#
#
#
# Elastic Constant Matrix: (Units=GPa)
#
#
# Indices 1 2 3 4 5 6 
#
# 1 79.9404 11.7545 24.9721 0.0000 1.9594 0.0000
# 2 11.7545 85.1073 34.0205 0.0000 -2.4852 0.0000
# 3 24.9721 34.0205 69.8008 0.0000 -7.7306 0.0000
# 4 0.0000 0.0000 0.0000 31.1391 0.0000 -7.8640
# 5 1.9594 -2.4852 -7.7306 0.0000 27.8263 0.0000
# 6 0.0000 0.0000 0.0000 -7.8640 0.0000 24.4945
#
#
#
# Elastic Compliance Matrix: (Units=1/GPa)
#
#
# Indices 1 2 3 4 5 6 
#
# 1 0.014251 0.000134 -0.005441 0.000000 -0.002503 0.000000
# 2 0.000134 0.014607 -0.007247 0.000000 -0.000718 0.000000
# 3 -0.005441 -0.007247 0.020404 0.000000 0.005404 0.000000
# 4 0.000000 0.000000 0.000000 0.034947 0.000000 0.011220
# 5 -0.002503 -0.000718 0.005404 0.000000 0.037551 0.000000
# 6 0.000000 0.000000 0.000000 0.011220 0.000000 0.044428
#
#
# Mechanical properties :
#
#
# Convention : Reuss Voigt Hill
#
# Bulk Modulus (GPa) = 41.40171 41.81586 41.60879
# Shear Modulus (GPa) = 25.08197 27.63207 26.35702
#
# Velocity S-wave (km/s) = 3.27272 3.43506 3.35487
# Velocity P-wave (km/s) = 5.65337 5.79564 5.72495
#
# Compressibility (1/GPa) = 0.02415359
#
# Stress axis : x y z
#
# Youngs Moduli (GPa) = 70.17246 68.45903 49.01110
#
# Poissons Ratio (x) = -0.00914 0.26665
# Poissons Ratio (y) = -0.00937 0.35517
# Poissons Ratio (z) = 0.38178 0.49611
#
# Static dielectric constant tensor:
#      x y z
#    x 1.901740 0.000000 -0.052490 
#    y 0.000000 1.894210 0.000000 
#    z -0.052490 0.000000 1.928150 
# 
# From -- ./inp_files/23008.got.cif
#   From: 2010.05.17/outbox.cif.g08.bks.cpg/sg13_12_cif.got.tgz:23008.got - 2010.06.03 16:44:36.
