data_PCOD9231917
_publ_section_title
;
Structure prediction by ZEFSAII (Michael W. Deem and Ramdas Pophale) SiO2 
 PCOD9231917
Probable space group: P 2/C
;
_chemical_formula_sum "Si O2"
_cell_formula_units_Z 20
_cell_length_a 9.540231
_cell_length_b 12.003557
_cell_length_c 10.733360
_cell_angle_alpha 90.000000
_cell_angle_beta 44.283781
_cell_angle_gamma 90.000000
_cell_volume 858.207423
_symmetry_space_group_name_H-M "P 2/C"
_symmetry_group_IT_number 13
_symmetry_cell_setting 'monoclinic'
loop_
_space_group_symop_operation_xyz
x,y,z
-x,y,1/2-z
-x,-y,-z
x,-y,1/2+z
loop_
_atom_site_type_symbol
_atom_site_label
_atom_site_fract_x
_atom_site_fract_y
_atom_site_fract_z
Si Si1 0.815859 0.737310 0.794147
Si Si2 0.326116 0.070715 0.257937
Si Si3 0.028895 0.636686 0.063178
Si Si4 0.273362 0.501014 0.103326
Si Si5 0.078050 0.118357 0.831524
O O1 0.656669 0.831697 0.856617
O O2 0.884255 0.678372 0.622328
O O3 0.764410 0.628202 0.909042
O O4 0.000000 0.793668 0.750000
O O5 0.500000 0.075851 0.250000
O O6 0.108928 0.097518 0.457284
O O7 0.280655 0.947095 0.236300
O O8 0.208006 0.586803 0.036025
O O9 0.862283 0.542043 0.193153
O O10 0.911452 0.748535 0.182923
O O11 0.500000 0.500000 0.000000
O O12 0.000000 0.073655 0.750000
#
# Coordination Sequence:
#
# PCOD9231917 Si02
#       5
#     4   4   4   4   4
#     4  11  23  41  65  92 136 173 211 265 327 384
#     4  10  24  40  66  98 127 168 218 268 316 386
#     4  10  22  44  64  92 133 169 212 267 322 384
#     4  11  23  38  66  96 123 170 217 264 321 379
#     4  10  20  42  69  89 130 172 206 266 335 374
#
# _framework density 23.304390000000001
#
# number of rings (size 3 to 8) (size 9 to 14) (size 15 to 20)
#    0.000    1.600    4.000    1.200    5.600    0.800 
#    0.000    6.000    0.000    0.000    0.000    0.000 
#    0.000    0.000    0.000    0.000    0.000    0.000 
#
# Total GULP energy -111436.562207 kJ/mol
# GULP energy per Si atom -5571.828110 kJ/mol
# Density = 2.325135 g / cm^3
# Si number density = 23.304390 Si / 1000 Ang^3
#
#
#
# Elastic Constant Matrix: (Units=GPa)
#
#
# Indices 1 2 3 4 5 6 
#
# 1 174.3652 83.9042 5.7471 0.0000 -26.1294 0.0000
# 2 83.9042 190.2548 -2.3011 0.0000 -14.9704 0.0000
# 3 5.7471 -2.3011 33.2596 0.0000 -3.4028 0.0000
# 4 0.0000 0.0000 0.0000 7.5589 0.0000 5.3937
# 5 -26.1294 -14.9704 -3.4028 0.0000 38.6714 0.0000
# 6 0.0000 0.0000 0.0000 5.3937 0.0000 90.0541
#
#
#
# Elastic Compliance Matrix: (Units=1/GPa)
#
#
# Indices 1 2 3 4 5 6 
#
# 1 0.007907 -0.003186 -0.001177 0.000000 0.004006 0.000000
# 2 -0.003186 0.006717 0.001071 0.000000 0.000542 0.000000
# 3 -0.001177 0.001071 0.030580 0.000000 0.002310 0.000000
# 4 0.000000 0.000000 0.000000 0.138200 0.000000 -0.008277
# 5 0.004006 0.000542 0.002310 0.000000 0.028978 0.000000
# 6 0.000000 0.000000 0.000000 -0.008277 0.000000 0.011600
#
#
# Mechanical properties :
#
#
# Convention : Reuss Voigt Hill
#
# Bulk Modulus (GPa) = 25.89369 63.61998 44.75683
# Shear Modulus (GPa) = 20.53883 47.95886 34.24885
#
# Velocity S-wave (km/s) = 2.97194 4.54137 3.83774
# Velocity P-wave (km/s) = 4.78662 7.40659 6.23575
#
# Compressibility (1/GPa) = 0.03861945
#
# Stress axis : x y z
#
# Youngs Moduli (GPa) = 126.46391 148.87944 32.70081
#
# Poissons Ratio (x) = 0.47437 0.03849
# Poissons Ratio (y) = 0.40295 -0.03501
# Poissons Ratio (z) = 0.14884 -0.15940
#
# Static dielectric constant tensor:
#      x y z
#    x 1.888240 0.000000 0.066880 
#    y 0.000000 2.009070 0.000000 
#    z 0.066880 0.000000 1.997690 
# 
# From -- ./inp_files/29265.got.cif
#   From: 2010.05.17/outbox.cif.g08.bks.cpg/sg13_15_cif.got.tgz:29265.got - 2010.06.03 16:44:36.
