data_PCOD9231263
_publ_section_title
;
Structure prediction by ZEFSAII (Michael W. Deem and Ramdas Pophale) SiO2 
 PCOD9231263
Probable space group: P 2/C
;
_chemical_formula_sum "Si O2"
_cell_formula_units_Z 24
_cell_length_a 20.262073
_cell_length_b 8.682887
_cell_length_c 20.984507
_cell_angle_alpha 90.000000
_cell_angle_beta 20.161370
_cell_angle_gamma 90.000000
_cell_volume 1272.460895
_symmetry_space_group_name_H-M "P 2/C"
_symmetry_group_IT_number 13
_symmetry_cell_setting 'monoclinic'
loop_
_space_group_symop_operation_xyz
x,y,z
-x,y,1/2-z
-x,-y,-z
x,-y,1/2+z
loop_
_atom_site_type_symbol
_atom_site_label
_atom_site_fract_x
_atom_site_fract_y
_atom_site_fract_z
Si Si1 0.438576 0.822175 0.543665
Si Si2 0.822831 0.201255 0.632816
Si Si3 0.191130 0.166177 0.381805
Si Si4 0.726966 0.743529 0.548174
Si Si5 0.000000 0.516475 0.750000
Si Si6 0.000000 0.986933 0.250000
Si Si7 0.933655 0.239114 0.204523
O O1 0.622865 0.745689 0.343969
O O2 0.359083 0.767426 0.684084
O O3 0.257616 0.805186 0.660706
O O4 0.500000 0.000000 0.500000
O O5 0.987720 0.214698 0.536508
O O6 0.903670 0.276995 0.495269
O O7 0.804337 0.019770 0.630690
O O8 0.215055 0.215446 0.432238
O O9 0.500000 0.733906 0.750000
O O10 0.834155 0.590046 0.428980
O O11 0.814782 0.878427 0.424192
O O12 0.914631 0.622527 0.771438
O O13 0.010143 0.093551 0.302920
#
# Coordination Sequence:
#
# PCOD9231263 Si02
#       7
#     4   4   4   4   2   2   4
#     4   9  19  30  59  93 121 146 186 251 306 357
#     4   9  17  33  59  89 119 147 183 255 305 345
#     4   9  18  34  55  89 120 146 193 245 306 342
#     4  11  24  39  59  85 120 164 202 242 293 356
#     4  10  26  44  56  80 128 172 198 236 286 366
#     4  10  22  34  60  90 116 150 200 258 296 346
#     4  10  20  39  60  89 120 154 200 245 302 348
#
# _framework density 18.861090000000001
#
# number of rings (size 3 to 8) (size 9 to 14) (size 15 to 20)
#    0.000    2.333    1.667    1.000    4.667    2.667 
#    0.000    6.667    0.000    6.000    0.000    0.000 
#    0.000    0.000    0.000    0.000    0.000    0.000 
#
# Total GULP energy -133854.991988 kJ/mol
# GULP energy per Si atom -5577.291333 kJ/mol
# Density = 1.881816 g / cm^3
# Si number density = 18.861090 Si / 1000 Ang^3
#
#
#
# Elastic Constant Matrix: (Units=GPa)
#
#
# Indices 1 2 3 4 5 6 
#
# 1 89.3891 28.8742 39.4666 0.0000 14.0501 0.0000
# 2 28.8742 56.2886 28.4119 0.0000 -2.1633 0.0000
# 3 39.4666 28.4119 147.6556 0.0000 3.8481 0.0000
# 4 0.0000 0.0000 0.0000 9.5135 0.0000 9.1703
# 5 14.0501 -2.1633 3.8481 0.0000 22.6100 0.0000
# 6 0.0000 0.0000 0.0000 9.1703 0.0000 14.1538
#
#
#
# Elastic Compliance Matrix: (Units=1/GPa)
#
#
# Indices 1 2 3 4 5 6 
#
# 1 0.016432 -0.007479 -0.002680 0.000000 -0.010470 0.000000
# 2 -0.007479 0.023227 -0.002661 0.000000 0.007322 0.000000
# 3 -0.002680 -0.002661 0.008000 0.000000 0.000049 0.000000
# 4 0.000000 0.000000 0.000000 0.279944 0.000000 -0.181376
# 5 -0.010470 0.007322 0.000049 0.000000 0.051427 0.000000
# 6 0.000000 0.000000 0.000000 -0.181376 0.000000 0.188165
#
#
# Mechanical properties :
#
#
# Convention : Reuss Voigt Hill
#
# Bulk Modulus (GPa) = 45.41686 54.09321 49.75503
# Shear Modulus (GPa) = 8.33093 22.36084 15.34588
#
# Velocity S-wave (km/s) = 2.10394 3.44692 2.85551
# Velocity P-wave (km/s) = 5.48033 6.67711 6.10810
#
# Compressibility (1/GPa) = 0.02201826
#
# Stress axis : x y z
#
# Youngs Moduli (GPa) = 60.85768 43.05424 125.00536
#
# Poissons Ratio (x) = 0.32198 0.33503
# Poissons Ratio (y) = 0.45513 0.33266
# Poissons Ratio (z) = 0.16311 0.11457
#
# Static dielectric constant tensor:
#      x y z
#    x 1.624890 0.000000 0.028390 
#    y 0.000000 1.659250 0.000000 
#    z 0.028390 0.000000 1.673000 
# 
# From -- ./inp_files/81655.got.cif
#   From: 2010.05.17/outbox.cif.g08.bks.cpg/sg13_41_cif.got.tgz:81655.got - 2010.06.03 16:44:36.
