data_PCOD9231224
_publ_section_title
;
Structure prediction by ZEFSAII (Michael W. Deem and Ramdas Pophale) SiO2 
 PCOD9231224
Probable space group: P 2/C
;
_chemical_formula_sum "Si O2"
_cell_formula_units_Z 28
_cell_length_a 17.138050
_cell_length_b 9.449854
_cell_length_c 8.253234
_cell_angle_alpha 90.000000
_cell_angle_beta 90.399539
_cell_angle_gamma 90.000000
_cell_volume 1336.595836
_symmetry_space_group_name_H-M "P 2/C"
_symmetry_group_IT_number 13
_symmetry_cell_setting 'monoclinic'
loop_
_space_group_symop_operation_xyz
x,y,z
-x,y,1/2-z
-x,-y,-z
x,-y,1/2+z
loop_
_atom_site_type_symbol
_atom_site_label
_atom_site_fract_x
_atom_site_fract_y
_atom_site_fract_z
Si Si1 0.885173 0.399397 0.493141
Si Si2 0.468611 0.849321 0.063662
Si Si3 0.288362 0.090659 0.627556
Si Si4 0.000000 0.505671 0.750000
Si Si5 0.500000 0.649152 0.750000
Si Si6 0.736989 0.796304 0.015932
Si Si7 0.666312 0.441153 0.327431
Si Si8 0.763362 0.350825 0.019309
O O1 0.933660 0.398365 0.329506
O O2 0.821294 0.278510 0.512413
O O3 0.837809 0.548436 0.499203
O O4 0.952384 0.407135 0.627295
O O5 0.500000 0.820985 0.250000
O O6 0.375453 0.870572 0.071547
O O7 0.489497 0.740625 0.916627
O O8 0.500000 0.000000 0.000000
O O9 0.278951 0.136125 0.811708
O O10 0.229265 0.186717 0.520572
O O11 0.273430 0.924758 0.608040
O O12 0.421882 0.557621 0.730698
O O13 0.676481 0.671049 0.973515
O O14 0.701273 0.587721 0.387853
O O15 0.724003 0.380877 0.190920
#
# Coordination Sequence:
#
# PCOD9231224 Si02
#       8
#     4   4   4   2   2   4   4   4
#     4  10  21  41  68 100 126 166 199 264 305 407
#     4  12  24  39  61  89 128 178 233 291 349 390
#     4  12  23  41  63  92 121 175 222 275 323 394
#     4  10  20  38  72 102 130 156 206 240 334 388
#     4  12  24  42  60  88 136 174 232 298 338 390
#     4  11  24  40  65  93 129 163 223 265 326 386
#     4  11  23  41  61  90 125 173 221 276 331 385
#     4  11  22  41  65  91 129 167 222 259 324 389
#
# _framework density 20.948741999999999
#
# number of rings (size 3 to 8) (size 9 to 14) (size 15 to 20)
#    0.000    0.857    2.143    7.714    0.000    0.571 
#    1.286    0.000    0.000   14.571    0.000    0.000 
#    0.000    0.000    0.000    0.000    0.000    0.000 
#
# Total GULP energy -156570.675399 kJ/mol
# GULP energy per Si atom -5591.809836 kJ/mol
# Density = 2.090106 g / cm^3
# Si number density = 20.948742 Si / 1000 Ang^3
#
#
#
# Elastic Constant Matrix: (Units=GPa)
#
#
# Indices 1 2 3 4 5 6 
#
# 1 107.7149 21.8519 14.4110 0.0000 -12.7737 0.0000
# 2 21.8519 61.6964 -1.4243 0.0000 6.9253 0.0000
# 3 14.4110 -1.4243 96.1996 0.0000 -8.0551 0.0000
# 4 0.0000 0.0000 0.0000 23.2495 0.0000 -1.9816
# 5 -12.7737 6.9253 -8.0551 0.0000 35.2086 0.0000
# 6 0.0000 0.0000 0.0000 -1.9816 0.0000 15.4465
#
#
#
# Elastic Compliance Matrix: (Units=1/GPa)
#
#
# Indices 1 2 3 4 5 6 
#
# 1 0.010886 -0.004393 -0.001318 0.000000 0.004512 0.000000
# 2 -0.004393 0.018347 0.000504 0.000000 -0.005087 0.000000
# 3 -0.001318 0.000504 0.010758 0.000000 0.001884 0.000000
# 4 0.000000 0.000000 0.000000 0.043487 0.000000 0.005579
# 5 0.004512 -0.005087 0.001884 0.000000 0.031471 0.000000
# 6 0.000000 0.000000 0.000000 0.005579 0.000000 0.065455
#
#
# Mechanical properties :
#
#
# Convention : Reuss Voigt Hill
#
# Bulk Modulus (GPa) = 33.81016 37.25425 35.53221
# Shear Modulus (GPa) = 24.91565 30.16574 27.54069
#
# Velocity S-wave (km/s) = 3.45245 3.79882 3.62977
# Velocity P-wave (km/s) = 5.66278 6.08798 5.87923
#
# Compressibility (1/GPa) = 0.02957691
#
# Stress axis : x y z
#
# Youngs Moduli (GPa) = 91.85852 54.50526 92.95668
#
# Poissons Ratio (x) = 0.23942 0.12252
# Poissons Ratio (y) = 0.40350 -0.04682
# Poissons Ratio (z) = 0.12107 -0.02746
#
# Static dielectric constant tensor:
#      x y z
#    x 1.729830 0.000000 0.012460 
#    y 0.000000 1.797610 0.000000 
#    z 0.012460 0.000000 1.867770 
# 
# From -- ./inp_files/21142.got.cif
#   From: 2010.05.17/outbox.cif.g08.bks.cpg/sg13_11_cif.got.tgz:21142.got - 2010.06.03 16:44:36.
