data_PCOD9231872
_publ_section_title
;
Structure prediction by ZEFSAII (Michael W. Deem and Ramdas Pophale) SiO2 
 PCOD9231872
Probable space group: P 2/C
;
_chemical_formula_sum "Si O2"
_cell_formula_units_Z 32
_cell_length_a 9.035679
_cell_length_b 10.879853
_cell_length_c 31.717166
_cell_angle_alpha 90.000000
_cell_angle_beta 151.126672
_cell_angle_gamma 90.000000
_cell_volume 1505.610825
_symmetry_space_group_name_H-M "P 2/C"
_symmetry_group_IT_number 13
_symmetry_cell_setting 'monoclinic'
loop_
_space_group_symop_operation_xyz
x,y,z
-x,y,1/2-z
-x,-y,-z
x,-y,1/2+z
loop_
_atom_site_type_symbol
_atom_site_label
_atom_site_fract_x
_atom_site_fract_y
_atom_site_fract_z
Si Si1 0.340020 0.948676 0.584195
Si Si2 0.733923 0.680961 0.365767
Si Si3 0.549595 0.417271 0.213731
Si Si4 0.584968 0.943587 0.223779
Si Si5 0.724124 0.325833 0.567295
Si Si6 0.188951 0.864423 0.338982
Si Si7 0.248720 0.594292 0.885668
Si Si8 0.722622 0.332223 0.437526
O O1 0.353151 0.810154 0.572088
O O2 0.453505 0.954313 0.660359
O O3 0.550329 0.043479 0.611262
O O4 0.000000 0.000000 0.500000
O O5 0.510879 0.565062 0.303235
O O6 0.554230 0.809502 0.324001
O O7 0.977511 0.696460 0.387971
O O8 0.941700 0.650659 0.458573
O O9 0.500000 0.380702 0.250000
O O10 0.315555 0.360934 0.121222
O O11 0.895347 0.379103 0.287572
O O12 0.500000 0.965751 0.250000
O O13 0.944114 0.938084 0.305676
O O14 0.701438 0.241942 0.602797
O O15 0.756396 0.463720 0.592233
O O16 0.425927 0.317458 0.462920
O O17 0.000000 0.821811 0.250000
O O18 0.469985 0.590255 0.900321
#
# Coordination Sequence:
#
# PCOD9231872 Si02
#       8
#     4   4   4   4   4   4   4   4
#     4  11  25  48  64  94 137 178 236 284 329 407
#     4  11  21  43  72 100 139 171 226 289 333 410
#     4  12  24  41  67 103 139 176 219 274 341 417
#     4  11  21  40  74 103 131 176 229 285 345 381
#     4  10  20  42  66 101 139 171 225 279 340 410
#     4  10  23  39  69 104 132 178 233 284 332 399
#     4  10  23  40  65  98 139 178 214 275 344 410
#     4  11  26  45  69  93 136 187 223 274 348 405
#
# _framework density 21.253833
#
# number of rings (size 3 to 8) (size 9 to 14) (size 15 to 20)
#    0.000    1.250    3.750    1.875    0.000    7.500 
#    0.000    5.625    0.000    0.000    0.000    0.000 
#    0.000    0.000    0.000    0.000    0.000    0.000 
#
# Total GULP energy -178859.523796 kJ/mol
# GULP energy per Si atom -5589.360119 kJ/mol
# Density = 2.120546 g / cm^3
# Si number density = 21.253833 Si / 1000 Ang^3
#
#
#
# Elastic Constant Matrix: (Units=GPa)
#
#
# Indices 1 2 3 4 5 6 
#
# 1 103.3652 6.6839 41.1580 0.0000 -1.7269 0.0000
# 2 6.6839 39.8834 13.3439 0.0000 4.3105 0.0000
# 3 41.1580 13.3439 95.4455 0.0000 6.2560 0.0000
# 4 0.0000 0.0000 0.0000 16.8028 0.0000 28.5313
# 5 -1.7269 4.3105 6.2560 0.0000 38.1798 0.0000
# 6 0.0000 0.0000 0.0000 28.5313 0.0000 -47.8745
#
#
#
# Elastic Compliance Matrix: (Units=1/GPa)
#
#
# Indices 1 2 3 4 5 6 
#
# 1 0.011758 -0.000415 -0.005105 0.000000 0.001415 0.000000
# 2 -0.000415 0.026536 -0.003369 0.000000 -0.002463 0.000000
# 3 -0.005105 -0.003369 0.013282 0.000000 -0.002027 0.000000
# 4 0.000000 0.000000 0.000000 0.029580 0.000000 0.017629
# 5 0.001415 -0.002463 -0.002027 0.000000 0.026866 0.000000
# 6 0.000000 0.000000 0.000000 0.017629 0.000000 -0.010382
#
#
# Mechanical properties :
#
#
# Convention : Reuss Voigt Hill
#
# Bulk Modulus (GPa) = 29.58844 40.11839 34.85342
# Shear Modulus (GPa) = 39.46788 13.25550 26.36169
#
# Velocity S-wave (km/s) = 4.31394 2.50006 3.52565
# Velocity P-wave (km/s) = 6.22616 5.22021 5.74524
#
# Compressibility (1/GPa) = 0.03379698
#
# Stress axis : x y z
#
# Youngs Moduli (GPa) = 85.05158 37.68441 75.28767
#
# Poissons Ratio (x) = 0.01565 0.38433
# Poissons Ratio (y) = 0.03533 0.25367
# Poissons Ratio (z) = 0.43417 0.12697
#
# Static dielectric constant tensor:
#      x y z
#    x 1.753720 0.000000 0.005950 
#    y 0.000000 1.735270 0.000000 
#    z 0.005950 0.000000 1.778420 
# 
# From -- ./inp_files/96165.got.cif
#   From: 2010.05.17/outbox.cif.g08.bks.cpg/sg13_49_cif.got.tgz:96165.got - 2010.06.03 16:44:36.
