data_PCOD9231852
_publ_section_title
;
Structure prediction by ZEFSAII (Michael W. Deem and Ramdas Pophale) SiO2 
 PCOD9231852
Probable space group: P 2/C
;
_chemical_formula_sum "Si O2"
_cell_formula_units_Z 32
_cell_length_a 12.254668
_cell_length_b 16.294900
_cell_length_c 14.964725
_cell_angle_alpha 90.000000
_cell_angle_beta 153.597433
_cell_angle_gamma 90.000000
_cell_volume 1328.816480
_symmetry_space_group_name_H-M "P 2/C"
_symmetry_group_IT_number 13
_symmetry_cell_setting 'monoclinic'
loop_
_space_group_symop_operation_xyz
x,y,z
-x,y,1/2-z
-x,-y,-z
x,-y,1/2+z
loop_
_atom_site_type_symbol
_atom_site_label
_atom_site_fract_x
_atom_site_fract_y
_atom_site_fract_z
Si Si1 0.815410 0.428006 0.531598
Si Si2 0.301282 0.506360 0.732951
Si Si3 0.735775 0.260593 0.536612
Si Si4 0.434110 0.903640 0.804989
Si Si5 0.497337 0.632221 0.010513
Si Si6 0.158245 0.216806 0.279647
Si Si7 0.370537 0.934155 0.023403
Si Si8 0.101464 0.107607 0.512392
O O1 0.565591 0.468354 0.383047
O O2 0.769690 0.329298 0.483425
O O3 0.000000 0.442541 0.750000
O O4 0.877446 0.470623 0.481324
O O5 0.315862 0.567784 0.828380
O O6 0.351151 0.414625 0.803280
O O7 0.528662 0.190481 0.383077
O O8 0.677880 0.323888 0.573397
O O9 0.000000 0.220697 0.750000
O O10 0.500000 0.923220 0.750000
O O11 0.144453 0.919886 0.613234
O O12 0.600204 0.970370 0.978843
O O13 0.335788 0.708494 0.917583
O O14 0.294097 0.128844 0.389971
O O15 0.000000 0.224618 0.250000
O O16 0.976710 0.202537 0.063753
O O17 0.644728 0.904892 0.250649
O O18 0.185569 0.925088 0.973790
#
# Coordination Sequence:
#
# PCOD9231852 Si02
#       8
#     4   4   4   4   4   4   4   4
#     4   9  19  40  67  98 136 181 228 291 352 423
#     4   9  20  38  69  91 140 177 224 296 352 432
#     4  10  23  40  62  98 141 176 233 296 351 428
#     4  12  24  39  68  97 136 190 237 293 365 424
#     4  10  20  42  63  99 134 183 232 288 361 427
#     4  10  22  41  68  94 134 181 230 291 349 415
#     4  10  23  42  66  95 136 184 234 300 354 414
#     4  10  21  44  62  95 136 176 235 292 350 416
#
# _framework density 24.081578
#
# number of rings (size 3 to 8) (size 9 to 14) (size 15 to 20)
#    0.000    2.000    2.500    0.375    3.500    3.500 
#    0.000   20.625    0.000    1.500    0.000    0.000 
#    0.000    0.000    0.000    0.000    0.000    0.000 
#
# Total GULP energy -178308.139829 kJ/mol
# GULP energy per Si atom -5572.129370 kJ/mol
# Density = 2.402677 g / cm^3
# Si number density = 24.081578 Si / 1000 Ang^3
#
#
#
# Elastic Constant Matrix: (Units=GPa)
#
#
# Indices 1 2 3 4 5 6 
#
# 1 76.3314 41.7452 25.9894 0.0000 0.0819 0.0000
# 2 41.7452 146.2120 50.2007 0.0000 0.4388 0.0000
# 3 25.9894 50.2007 114.8396 0.0000 3.0607 0.0000
# 4 0.0000 0.0000 0.0000 42.8919 0.0000 -1.5845
# 5 0.0819 0.4388 3.0607 0.0000 39.2464 0.0000
# 6 0.0000 0.0000 0.0000 -1.5845 0.0000 -9.8270
#
#
#
# Elastic Compliance Matrix: (Units=1/GPa)
#
#
# Indices 1 2 3 4 5 6 
#
# 1 0.015869 -0.003879 -0.001900 0.000000 0.000158 0.000000
# 2 -0.003879 0.008997 -0.003059 0.000000 0.000146 0.000000
# 3 -0.001900 -0.003059 0.010496 0.000000 -0.000780 0.000000
# 4 0.000000 0.000000 0.000000 0.023176 0.000000 -0.003737
# 5 0.000158 0.000146 -0.000780 0.000000 0.025539 0.000000
# 6 0.000000 0.000000 0.000000 -0.003737 0.000000 -0.101158
#
#
# Mechanical properties :
#
#
# Convention : Reuss Voigt Hill
#
# Bulk Modulus (GPa) = 56.54216 63.69484 60.11850
# Shear Modulus (GPa) = 770.52707 29.09213 399.80960
#
# Velocity S-wave (km/s) = 17.90698 3.47949 12.89897
# Velocity P-wave (km/s) = 21.23857 6.53066 15.71188
#
# Compressibility (1/GPa) = 0.01768592
#
# Stress axis : x y z
#
# Youngs Moduli (GPa) = 63.01672 111.15269 95.27725
#
# Poissons Ratio (x) = 0.43115 0.18102
# Poissons Ratio (y) = 0.24443 0.29144
# Poissons Ratio (z) = 0.11973 0.34000
#
# Static dielectric constant tensor:
#      x y z
#    x 2.079640 0.000000 0.065750 
#    y 0.000000 1.982480 0.000000 
#    z 0.065750 0.000000 0.529780 
# 
# From -- ./inp_files/80385.got.cif
#   From: 2010.05.17/outbox.cif.g08.bks.cpg/sg13_41_cif.got.tgz:80385.got - 2010.06.03 16:44:36.
