data_PCOD9231085
_publ_section_title
;
Structure prediction by ZEFSAII (Michael W. Deem and Ramdas Pophale) SiO2 
 PCOD9231085
Probable space group: P 2/C
;
_chemical_formula_sum "Si O2"
_cell_formula_units_Z 32
_cell_length_a 15.382625
_cell_length_b 8.305011
_cell_length_c 25.329282
_cell_angle_alpha 90.000000
_cell_angle_beta 151.148464
_cell_angle_gamma 90.000000
_cell_volume 1561.451100
_symmetry_space_group_name_H-M "P 2/C"
_symmetry_group_IT_number 13
_symmetry_cell_setting 'monoclinic'
loop_
_space_group_symop_operation_xyz
x,y,z
-x,y,1/2-z
-x,-y,-z
x,-y,1/2+z
loop_
_atom_site_type_symbol
_atom_site_label
_atom_site_fract_x
_atom_site_fract_y
_atom_site_fract_z
Si Si1 0.564342 0.690443 0.919224
Si Si2 0.173008 0.542554 0.733906
Si Si3 0.028699 0.260354 0.585034
Si Si4 0.312259 0.560977 0.621280
Si Si5 0.226069 0.023355 0.999849
Si Si6 0.299132 0.459815 0.910818
Si Si7 0.103828 0.237253 0.357666
Si Si8 0.286521 0.189071 0.633299
O O1 0.362686 0.628983 0.822003
O O2 0.648634 0.571936 0.920326
O O3 0.596039 0.866502 0.911814
O O4 0.679206 0.678791 0.034335
O O5 0.189969 0.443448 0.798402
O O6 0.114898 0.418862 0.657708
O O7 0.031348 0.682359 0.671882
O O8 0.856541 0.321389 0.458885
O O9 0.940108 0.147278 0.582404
O O10 0.173331 0.166971 0.626527
O O11 0.500000 0.605662 0.750000
O O12 0.263929 0.379366 0.609887
O O13 0.208930 0.903984 0.941990
O O14 0.222119 0.920292 0.051132
O O15 0.224514 0.616096 0.901014
O O16 0.500000 0.500000 0.000000
O O17 0.000000 0.179171 0.250000
O O18 0.500000 0.161081 0.750000
#
# Coordination Sequence:
#
# PCOD9231085 Si02
#       8
#     4   4   4   4   4   4   4   4
#     4  10  21  38  59  88 117 155 204 249 299 355
#     4  10  20  38  64  88 115 154 203 254 295 346
#     4  11  23  39  62  91 117 155 207 253 300 356
#     4  10  21  38  62  86 114 158 208 255 297 350
#     4  11  24  38  57  85 125 161 191 243 308 370
#     4   9  19  38  63  87 114 152 199 246 288 344
#     4  10  21  38  59  87 121 156 194 242 301 357
#     4  11  23  39  58  86 121 161 200 246 304 364
#
# _framework density 20.493758
#
# number of rings (size 3 to 8) (size 9 to 14) (size 15 to 20)
#    0.000    1.750    0.000    5.250    0.000    6.000 
#    0.000    5.625    0.000    0.000    0.000    0.000 
#    0.000    0.000    0.000    0.000    0.000    0.000 
#
# Total GULP energy -178633.683593 kJ/mol
# GULP energy per Si atom -5582.302612 kJ/mol
# Density = 2.044711 g / cm^3
# Si number density = 20.493758 Si / 1000 Ang^3
#
#
#
# Elastic Constant Matrix: (Units=GPa)
#
#
# Indices 1 2 3 4 5 6 
#
# 1 103.7030 21.0229 28.3246 0.0000 12.8547 0.0000
# 2 21.0229 36.1660 28.8742 0.0000 -0.5045 0.0000
# 3 28.3246 28.8742 68.9163 0.0000 3.0969 0.0000
# 4 0.0000 0.0000 0.0000 18.4927 0.0000 -0.6210
# 5 12.8547 -0.5045 3.0969 0.0000 35.2859 0.0000
# 6 0.0000 0.0000 0.0000 -0.6210 0.0000 1.7509
#
#
#
# Elastic Compliance Matrix: (Units=1/GPa)
#
#
# Indices 1 2 3 4 5 6 
#
# 1 0.011865 -0.004825 -0.002668 0.000000 -0.004157 0.000000
# 2 -0.004825 0.043670 -0.016486 0.000000 0.003829 0.000000
# 3 -0.002668 -0.016486 0.022570 0.000000 -0.001245 0.000000
# 4 0.000000 0.000000 0.000000 0.054727 0.000000 0.019411
# 5 -0.004157 0.003829 -0.001245 0.000000 0.030018 0.000000
# 6 0.000000 0.000000 0.000000 0.019411 0.000000 0.578008
#
#
# Mechanical properties :
#
#
# Convention : Reuss Voigt Hill
#
# Bulk Modulus (GPa) = 33.16999 40.58095 36.87547
# Shear Modulus (GPa) = 6.25887 19.81016 13.03452
#
# Velocity S-wave (km/s) = 1.74948 3.11246 2.52469
# Velocity P-wave (km/s) = 4.50571 5.72374 5.15085
#
# Compressibility (1/GPa) = 0.03014773
#
# Stress axis : x y z
#
# Youngs Moduli (GPa) = 84.28060 22.89886 44.30639
#
# Poissons Ratio (x) = 0.11048 0.11822
# Poissons Ratio (y) = 0.40663 0.73043
# Poissons Ratio (z) = 0.22489 0.37751
#
# Static dielectric constant tensor:
#      x y z
#    x 1.740990 0.000000 -0.013230 
#    y 0.000000 1.695460 0.000000 
#    z -0.013230 0.000000 1.780100 
# 
# From -- ./inp_files/87438.got.cif
#   From: 2010.05.17/outbox.cif.g08.bks.cpg/sg13_44_cif.got.tgz:87438.got - 2010.06.03 16:44:36.
