data_PCOD9231293
_publ_section_title
;
Structure prediction by ZEFSAII (Michael W. Deem and Ramdas Pophale) SiO2 
 PCOD9231293
Probable space group: P 2/C
;
_chemical_formula_sum "Si O2"
_cell_formula_units_Z 26
_cell_length_a 26.726183
_cell_length_b 8.633868
_cell_length_c 11.148542
_cell_angle_alpha 90.000000
_cell_angle_beta 30.040303
_cell_angle_gamma 90.000000
_cell_volume 1287.831722
_symmetry_space_group_name_H-M "P 2/C"
_symmetry_group_IT_number 13
_symmetry_cell_setting 'monoclinic'
loop_
_space_group_symop_operation_xyz
x,y,z
-x,y,1/2-z
-x,-y,-z
x,-y,1/2+z
loop_
_atom_site_type_symbol
_atom_site_label
_atom_site_fract_x
_atom_site_fract_y
_atom_site_fract_z
Si Si1 0.833595 0.504650 0.092436
Si Si2 0.658623 0.286669 0.060898
Si Si3 0.926429 0.785861 0.515727
Si Si4 0.324981 0.304916 0.197590
Si Si5 0.758939 0.013283 0.247986
Si Si6 0.073670 0.811444 0.708192
Si Si7 0.500000 0.532121 0.750000
O O1 0.745599 0.591106 0.346592
O O2 0.892703 0.392058 0.060313
O O3 0.779525 0.393037 0.109232
O O4 0.891646 0.638274 0.901040
O O5 0.692008 0.126368 0.933574
O O6 0.658696 0.264131 0.200533
O O7 0.554481 0.357286 0.232212
O O8 0.832245 0.900809 0.690762
O O9 0.963733 0.808699 0.575691
O O10 0.000000 0.814791 0.250000
O O11 0.313043 0.147314 0.149693
O O12 0.413154 0.420641 0.978123
O O13 0.834080 0.931866 0.996155
O O14 0.000000 0.851182 0.750000
#
# Coordination Sequence:
#
# PCOD9231293 Si02
#       7
#     4   4   4   4   4   4   2
#     4   9  21  37  59  86 114 154 201 241 289 341
#     4  10  20  39  62  84 116 150 187 237 290 346
#     4  11  23  38  58  86 120 158 202 247 291 342
#     4  10  20  39  62  84 116 150 187 237 290 346
#     4  10  23  39  58  84 116 156 196 233 289 350
#     4  11  23  38  58  86 120 158 202 247 291 342
#     4  10  22  38  62  94 110 138 188 236 292 354
#
# _framework density 20.188973000000001
#
# number of rings (size 3 to 8) (size 9 to 14) (size 15 to 20)
#    0.000    1.846    0.000    3.231    0.000   10.462 
#    0.000    6.154    0.000    0.000    0.000    0.000 
#    0.000    0.000    0.000    0.000    0.000    0.000 
#
# Total GULP energy -145058.692559 kJ/mol
# GULP energy per Si atom -5579.180483 kJ/mol
# Density = 2.014302 g / cm^3
# Si number density = 20.188973 Si / 1000 Ang^3
#
#
#
# Elastic Constant Matrix: (Units=GPa)
#
#
# Indices 1 2 3 4 5 6 
#
# 1 131.1499 25.5809 42.8219 0.0000 5.9733 0.0000
# 2 25.5809 115.7343 16.1462 0.0000 -13.8002 0.0000
# 3 42.8219 16.1462 44.1238 0.0000 -2.2132 0.0000
# 4 0.0000 0.0000 0.0000 20.4810 0.0000 -21.5986
# 5 5.9733 -13.8002 -2.2132 0.0000 19.8779 0.0000
# 6 0.0000 0.0000 0.0000 -21.5986 0.0000 -1.4716
#
#
#
# Elastic Compliance Matrix: (Units=1/GPa)
#
#
# Indices 1 2 3 4 5 6 
#
# 1 0.011911 -0.001793 -0.011208 0.000000 -0.006072 0.000000
# 2 -0.001793 0.010143 -0.001600 0.000000 0.007402 0.000000
# 3 -0.011208 -0.001600 0.034431 0.000000 0.006091 0.000000
# 4 0.000000 0.000000 0.000000 0.002963 0.000000 -0.043489
# 5 -0.006072 0.007402 0.006091 0.000000 0.057949 0.000000
# 6 0.000000 0.000000 0.000000 -0.043489 0.000000 -0.041239
#
#
# Mechanical properties :
#
#
# Convention : Reuss Voigt Hill
#
# Bulk Modulus (GPa) = 36.65251 51.12290 43.88770
# Shear Modulus (GPa) = 43.68596 21.54138 32.61367
#
# Velocity S-wave (km/s) = 4.65677 3.27002 4.02359
# Velocity P-wave (km/s) = 6.86354 6.29560 6.58569
#
# Compressibility (1/GPa) = 0.02728326
#
# Stress axis : x y z
#
# Youngs Moduli (GPa) = 83.95935 98.59339 29.04325
#
# Poissons Ratio (x) = 0.17678 0.32550
# Poissons Ratio (y) = 0.15054 0.04647
# Poissons Ratio (z) = 0.94098 0.15776
#
# Static dielectric constant tensor:
#      x y z
#    x 1.716790 0.000000 -0.040040 
#    y 0.000000 1.723630 0.000000 
#    z -0.040040 0.000000 1.749550 
# 
# From -- ./inp_files/42263.got.cif
#   From: 2010.05.17/outbox.cif.g08.bks.cpg/sg13_22_cif.got.tgz:42263.got - 2010.06.03 16:44:36.
