data_PCOD9231511
_publ_section_title
;
Structure prediction by ZEFSAII (Michael W. Deem and Ramdas Pophale) SiO2 
 PCOD9231511
Probable space group: P 2/C
;
_chemical_formula_sum "Si O2"
_cell_formula_units_Z 26
_cell_length_a 5.193825
_cell_length_b 11.183265
_cell_length_c 23.340519
_cell_angle_alpha 90.000000
_cell_angle_beta 58.280253
_cell_angle_gamma 90.000000
_cell_volume 1153.206575
_symmetry_space_group_name_H-M "P 2/C"
_symmetry_group_IT_number 13
_symmetry_cell_setting 'monoclinic'
loop_
_space_group_symop_operation_xyz
x,y,z
-x,y,1/2-z
-x,-y,-z
x,-y,1/2+z
loop_
_atom_site_type_symbol
_atom_site_label
_atom_site_fract_x
_atom_site_fract_y
_atom_site_fract_z
Si Si1 0.193293 0.590585 0.669744
Si Si2 0.652599 0.917109 0.390216
Si Si3 0.000000 0.992902 0.250000
Si Si4 0.499338 0.190497 0.187062
Si Si5 0.302616 0.546759 0.332334
Si Si6 0.804357 0.109449 0.050746
Si Si7 0.059898 0.775965 0.424206
O O1 0.339984 0.721053 0.660043
O O2 0.466420 0.497767 0.645948
O O3 0.000000 0.577372 0.750000
O O4 0.954970 0.553807 0.649302
O O5 0.375545 0.848124 0.392392
O O6 0.783765 0.849337 0.428661
O O7 0.930559 0.918440 0.313907
O O8 0.527932 0.049540 0.418844
O O9 0.714656 0.078271 0.275754
O O10 0.500000 0.251883 0.250000
O O11 0.794006 0.139904 0.119963
O O12 0.500000 0.567241 0.250000
O O13 0.131879 0.661949 0.377208
O O14 0.931507 0.226944 0.004186
O O15 0.000000 0.000000 0.000000
#
# Coordination Sequence:
#
# PCOD9231511 Si02
#       7
#     4   4   2   4   4   4   4
#     4  10  20  40  61  93 123 158 211 275 316 361
#     4  10  23  37  62  89 130 166 212 258 313 380
#     4  10  24  34  60  96 122 158 220 270 306 376
#     4  11  22  40  68  95 124 169 220 272 324 377
#     4  10  22  37  63  90 126 163 210 263 320 376
#     4   9  22  43  61  94 133 174 208 265 322 391
#     4  11  22  42  61  89 130 177 207 251 331 387
#
# _framework density 22.545829999999999
#
# number of rings (size 3 to 8) (size 9 to 14) (size 15 to 20)
#    0.000    1.846    0.769    2.769    8.615    0.000 
#    2.769    1.538    0.000    0.000    0.000    3.231 
#    0.000    0.000    0.000    0.000    0.000    0.000 
#
# Total GULP energy -144831.327284 kJ/mol
# GULP energy per Si atom -5570.435665 kJ/mol
# Density = 2.249451 g / cm^3
# Si number density = 22.545830 Si / 1000 Ang^3
#
#
#
# Elastic Constant Matrix: (Units=GPa)
#
#
# Indices 1 2 3 4 5 6 
#
# 1 68.8633 26.2629 12.7406 0.0000 -8.6965 0.0000
# 2 26.2629 63.3899 28.3111 0.0000 1.3274 0.0000
# 3 12.7406 28.3111 138.3718 0.0000 -6.4409 0.0000
# 4 0.0000 0.0000 0.0000 27.9217 0.0000 -2.8682
# 5 -8.6965 1.3274 -6.4409 0.0000 15.0665 0.0000
# 6 0.0000 0.0000 0.0000 -2.8682 0.0000 31.0118
#
#
#
# Elastic Compliance Matrix: (Units=1/GPa)
#
#
# Indices 1 2 3 4 5 6 
#
# 1 0.019154 -0.008419 0.000518 0.000000 0.012019 0.000000
# 2 -0.008419 0.021206 -0.003956 0.000000 -0.008419 0.000000
# 3 0.000518 -0.003956 0.008181 0.000000 0.004145 0.000000
# 4 0.000000 0.000000 0.000000 0.036158 0.000000 0.003344
# 5 0.012019 -0.008419 0.004145 0.000000 0.075824 0.000000
# 6 0.000000 0.000000 0.000000 0.003344 0.000000 0.032555
#
#
# Mechanical properties :
#
#
# Convention : Reuss Voigt Hill
#
# Bulk Modulus (GPa) = 40.27420 45.02826 42.65123
# Shear Modulus (GPa) = 22.21553 28.35405 25.28479
#
# Velocity S-wave (km/s) = 3.14243 3.55014 3.35249
# Velocity P-wave (km/s) = 5.57392 6.06794 5.82617
#
# Compressibility (1/GPa) = 0.02482979
#
# Stress axis : x y z
#
# Youngs Moduli (GPa) = 52.20763 47.15574 122.22780
#
# Poissons Ratio (x) = 0.39700 -0.06336
# Poissons Ratio (y) = 0.43953 0.48348
# Poissons Ratio (z) = -0.02706 0.18653
#
# Static dielectric constant tensor:
#      x y z
#    x 1.936670 0.000000 0.062510 
#    y 0.000000 1.903170 0.000000 
#    z 0.062510 0.000000 1.917620 
# 
# From -- ./inp_files/83650.got.cif
#   From: 2010.05.17/outbox.cif.g08.bks.cpg/sg13_42_cif.got.tgz:83650.got - 2010.06.03 16:44:36.
