data_PCOD9231275
_publ_section_title
;
Structure prediction by ZEFSAII (Michael W. Deem and Ramdas Pophale) SiO2 
 PCOD9231275
Probable space group: P 2/C
;
_chemical_formula_sum "Si O2"
_cell_formula_units_Z 26
_cell_length_a 6.433401
_cell_length_b 12.505045
_cell_length_c 17.655293
_cell_angle_alpha 90.000000
_cell_angle_beta 55.287977
_cell_angle_gamma 90.000000
_cell_volume 1167.577202
_symmetry_space_group_name_H-M "P 2/C"
_symmetry_group_IT_number 13
_symmetry_cell_setting 'monoclinic'
loop_
_space_group_symop_operation_xyz
x,y,z
-x,y,1/2-z
-x,-y,-z
x,-y,1/2+z
loop_
_atom_site_type_symbol
_atom_site_label
_atom_site_fract_x
_atom_site_fract_y
_atom_site_fract_z
Si Si1 0.306245 0.122435 0.359096
Si Si2 0.124692 0.708218 0.375014
Si Si3 0.783920 0.478466 0.108579
Si Si4 0.000000 0.168708 0.750000
Si Si5 0.023370 0.711997 0.653053
Si Si6 0.431686 0.313307 0.442471
Si Si7 0.545470 0.896618 0.149940
O O1 0.500000 0.113613 0.250000
O O2 0.419868 0.208729 0.392661
O O3 0.068262 0.179376 0.368778
O O4 0.301026 0.005652 0.397985
O O5 0.259412 0.594073 0.347915
O O6 0.095721 0.758735 0.298587
O O7 0.278017 0.792164 0.395926
O O8 0.835148 0.690352 0.460357
O O9 0.560799 0.420765 0.109390
O O10 0.868248 0.388531 0.151550
O O11 0.000000 0.500000 0.000000
O O12 0.739317 0.105875 0.825987
O O13 0.309495 0.691663 0.567288
O O14 0.000000 0.717810 0.750000
O O15 0.500000 0.897453 0.250000
#
# Coordination Sequence:
#
# PCOD9231275 Si02
#       7
#     4   4   4   2   4   4   4
#     4  10  20  39  61  86 124 162 200 262 313 358
#     4  10  22  41  60  90 126 163 205 254 306 367
#     4   9  22  40  60  88 127 163 196 258 314 360
#     4  10  22  40  62  88 120 166 212 250 308 378
#     4  11  22  38  64  95 121 164 215 253 303 376
#     4  10  22  39  63  91 124 162 207 254 313 364
#     4   9  21  40  60  87 122 164 206 256 310 368
#
# _framework density 22.268332999999998
#
# number of rings (size 3 to 8) (size 9 to 14) (size 15 to 20)
#    0.000    2.154    1.538    0.000    1.077   11.692 
#    6.923    1.538    0.000    0.000    0.000    0.000 
#    0.000    0.000    0.000    0.000    0.000    0.000 
#
# Total GULP energy -144987.580646 kJ/mol
# GULP energy per Si atom -5576.445409 kJ/mol
# Density = 2.221765 g / cm^3
# Si number density = 22.268333 Si / 1000 Ang^3
#
#
#
# Elastic Constant Matrix: (Units=GPa)
#
#
# Indices 1 2 3 4 5 6 
#
# 1 95.6844 73.3124 8.1954 0.0000 -21.8475 0.0000
# 2 73.3124 176.8621 15.6027 0.0000 -10.0069 0.0000
# 3 8.1954 15.6027 52.5393 0.0000 -10.1531 0.0000
# 4 0.0000 0.0000 0.0000 15.7618 0.0000 -11.5682
# 5 -21.8475 -10.0069 -10.1531 0.0000 39.4062 0.0000
# 6 0.0000 0.0000 0.0000 -11.5682 0.0000 8.3930
#
#
#
# Elastic Compliance Matrix: (Units=1/GPa)
#
#
# Indices 1 2 3 4 5 6 
#
# 1 0.017512 -0.006874 0.000893 0.000000 0.008194 0.000000
# 2 -0.006874 0.008549 -0.001877 0.000000 -0.002124 0.000000
# 3 0.000893 -0.001877 0.020474 0.000000 0.005294 0.000000
# 4 0.000000 0.000000 0.000000 -5.467961 0.000000 -7.536605
# 5 0.008194 -0.002124 0.005294 0.000000 0.030744 0.000000
# 6 0.000000 0.000000 0.000000 -7.536605 0.000000-10.268713
#
#
# Mechanical properties :
#
#
# Convention : Reuss Voigt Hill
#
# Bulk Modulus (GPa) = 32.44673 57.70076 45.07375
# Shear Modulus (GPa) = -0.31983 27.91057 13.79537
#
# Velocity S-wave (km/s) = -0.37939 3.54414 2.49169
# Velocity P-wave (km/s) = 3.79612 6.53573 5.34445
#
# Compressibility (1/GPa) = 0.03081974
#
# Stress axis : x y z
#
# Youngs Moduli (GPa) = 57.10209 116.97127 48.84125
#
# Poissons Ratio (x) = 0.80411 -0.04363
# Poissons Ratio (y) = 0.39254 0.09167
# Poissons Ratio (z) = -0.05101 0.21955
#
# Static dielectric constant tensor:
#      x y z
#    x 1.810820 0.000000 -0.015430 
#    y 0.000000 1.890050 0.000000 
#    z -0.015430 0.000000 1.850280 
# 
# From -- ./inp_files/73531.got.cif
#   From: 2010.05.17/outbox.cif.g08.bks.cpg/sg13_37_cif.got.tgz:73531.got - 2010.06.03 16:44:36.
