data_PCOD9231552
_publ_section_title
;
Structure prediction by ZEFSAII (Michael W. Deem and Ramdas Pophale) SiO2 
 PCOD9231552
Probable space group: P 2/C
;
_chemical_formula_sum "Si O2"
_cell_formula_units_Z 24
_cell_length_a 27.276000
_cell_length_b 5.178310
_cell_length_c 23.626806
_cell_angle_alpha 90.000000
_cell_angle_beta 16.470025
_cell_angle_gamma 90.000000
_cell_volume 946.123378
_symmetry_space_group_name_H-M "P 2/C"
_symmetry_group_IT_number 13
_symmetry_cell_setting 'monoclinic'
loop_
_space_group_symop_operation_xyz
x,y,z
-x,y,1/2-z
-x,-y,-z
x,-y,1/2+z
loop_
_atom_site_type_symbol
_atom_site_label
_atom_site_fract_x
_atom_site_fract_y
_atom_site_fract_z
Si Si1 0.292601 0.731358 0.483351
Si Si2 0.158563 0.528745 0.246271
Si Si3 0.378307 0.894284 0.716646
Si Si4 0.946396 0.966386 0.982349
Si Si5 0.661750 0.279917 0.355306
Si Si6 0.663505 0.759762 0.610881
O O1 0.500000 0.773668 0.250000
O O2 0.245713 0.610354 0.595731
O O3 0.240975 0.512596 0.495910
O O4 0.225211 0.008891 0.538785
O O5 0.279733 0.500674 0.166852
O O6 0.096701 0.820940 0.306320
O O7 0.999440 0.329257 0.432214
O O8 0.382454 0.675830 0.662128
O O9 0.405744 0.813784 0.750103
O O10 0.513148 0.109972 0.548081
O O11 0.185849 0.011334 0.923775
O O12 0.827499 0.086036 0.163988
O O13 0.500000 0.723102 0.750000
#
# Coordination Sequence:
#
# PCOD9231552 Si02
#       6
#     4   4   4   4   4   4
#     4  10  22  38  64  90 119 165 221 266 312 386
#     4  12  22  43  67  96 129 175 216 271 338 396
#     4   9  21  42  67  98 132 172 218 273 330 393
#     4  10  24  41  64 100 135 167 214 270 340 396
#     4   9  20  42  69  97 133 171 218 268 328 404
#     4  10  20  40  63  90 122 163 217 269 314 381
#
# _framework density 25.366672000000001
#
# number of rings (size 3 to 8) (size 9 to 14) (size 15 to 20)
#    1.000    1.000    0.000    4.000    0.000    2.667 
#    0.000   11.667    0.000    0.000    0.000    0.000 
#    0.000    0.000    0.000    0.000    0.000    0.000 
#
# Total GULP energy -134142.827200 kJ/mol
# GULP energy per Si atom -5589.284467 kJ/mol
# Density = 2.530894 g / cm^3
# Si number density = 25.366672 Si / 1000 Ang^3
#
#
#
# Elastic Constant Matrix: (Units=GPa)
#
#
# Indices 1 2 3 4 5 6 
#
# 1 148.9009 1.9010 31.5314 0.0000 16.3813 0.0000
# 2 1.9010 120.2893 7.7280 0.0000 1.0440 0.0000
# 3 31.5314 7.7280 70.1233 0.0000 5.9814 0.0000
# 4 0.0000 0.0000 0.0000 37.0980 0.0000 7.2533
# 5 16.3813 1.0440 5.9814 0.0000 35.2333 0.0000
# 6 0.0000 0.0000 0.0000 7.2533 0.0000 28.9074
#
#
#
# Elastic Compliance Matrix: (Units=1/GPa)
#
#
# Indices 1 2 3 4 5 6 
#
# 1 0.007734 0.000112 -0.003230 0.000000 -0.003051 0.000000
# 2 0.000112 0.008374 -0.000961 0.000000 -0.000137 0.000000
# 3 -0.003230 -0.000961 0.015919 0.000000 -0.001172 0.000000
# 4 0.000000 0.000000 0.000000 0.028346 0.000000 -0.007113
# 5 -0.003051 -0.000137 -0.001172 0.000000 0.030004 0.000000
# 6 0.000000 0.000000 0.000000 -0.007113 0.000000 0.036378
#
#
# Mechanical properties :
#
#
# Convention : Reuss Voigt Hill
#
# Bulk Modulus (GPa) = 41.89646 46.84827 44.37236
# Shear Modulus (GPa) = 34.99676 40.12461 37.56068
#
# Velocity S-wave (km/s) = 3.71837 3.98148 3.85217
# Velocity P-wave (km/s) = 5.91500 6.29641 6.10868
#
# Compressibility (1/GPa) = 0.02386837
#
# Stress axis : x y z
#
# Youngs Moduli (GPa) = 129.29888 119.41035 62.81869
#
# Poissons Ratio (x) = -0.01334 0.20289
# Poissons Ratio (y) = -0.01445 0.06040
# Poissons Ratio (z) = 0.41760 0.11481
#
# Static dielectric constant tensor:
#      x y z
#    x 2.008970 0.000000 0.039690 
#    y 0.000000 2.099410 0.000000 
#    z 0.039690 0.000000 1.566270 
# 
# From -- ./inp_files/89402.got.cif
#   From: 2010.05.17/outbox.cif.g08.bks.cpg/sg13_45_cif.got.tgz:89402.got - 2010.06.03 16:44:36.
