data_PCOD9231667
_publ_section_title
;
Structure prediction by ZEFSAII (Michael W. Deem and Ramdas Pophale) SiO2 
 PCOD9231667
Probable space group: P 2/C
;
_chemical_formula_sum "Si O2"
_cell_formula_units_Z 28
_cell_length_a 24.509367
_cell_length_b 8.759103
_cell_length_c 9.140369
_cell_angle_alpha 90.000000
_cell_angle_beta 39.938762
_cell_angle_gamma 90.000000
_cell_volume 1259.705917
_symmetry_space_group_name_H-M "P 2/C"
_symmetry_group_IT_number 13
_symmetry_cell_setting 'monoclinic'
loop_
_space_group_symop_operation_xyz
x,y,z
-x,y,1/2-z
-x,-y,-z
x,-y,1/2+z
loop_
_atom_site_type_symbol
_atom_site_label
_atom_site_fract_x
_atom_site_fract_y
_atom_site_fract_z
Si Si1 0.976472 0.845250 0.627439
Si Si2 0.439392 0.041187 0.991259
Si Si3 0.869045 0.645949 0.246243
Si Si4 0.616422 0.705049 0.421198
Si Si5 0.704818 0.713167 0.705317
Si Si6 0.820270 0.667622 0.004730
Si Si7 0.633929 0.467711 0.619326
O O1 0.036020 0.710532 0.440242
O O2 0.000000 0.857288 0.750000
O O3 0.877590 0.803239 0.823411
O O4 0.000000 0.000000 0.500000
O O5 0.408627 0.877290 0.994064
O O6 0.359286 0.147703 0.185660
O O7 0.500000 0.122486 0.750000
O O8 0.500000 0.000000 0.000000
O O9 0.801837 0.753235 0.470802
O O10 0.852287 0.482526 0.353842
O O11 0.843471 0.645809 0.127864
O O12 0.589770 0.584946 0.599700
O O13 0.719807 0.697244 0.199473
O O14 0.583951 0.645178 0.330299
O O15 0.680266 0.583005 0.636818
O O16 0.690968 0.637395 0.893799
#
# Coordination Sequence:
#
# PCOD9231667 Si02
#       7
#     4   4   4   4   4   4   4
#     4  10  25  42  58  98 138 172 210 259 309 373
#     4  12  28  46  62  93 132 169 212 268 338 395
#     4  11  21  40  68  95 128 165 217 264 311 374
#     4  11  21  42  68  93 128 168 213 268 326 387
#     4  11  21  42  68  93 126 168 215 264 327 386
#     4  11  21  40  68  95 128 166 216 262 315 371
#     4  10  20  40  68  97 122 158 220 268 308 390
#
# _framework density 22.227409000000002
#
# number of rings (size 3 to 8) (size 9 to 14) (size 15 to 20)
#    0.000    1.143    4.286    2.143    2.000    1.143 
#    0.000   14.286    0.000    0.000    0.000    0.000 
#    0.000    0.000    0.000    0.000    0.000    0.000 
#
# Total GULP energy -156488.089496 kJ/mol
# GULP energy per Si atom -5588.860339 kJ/mol
# Density = 2.217682 g / cm^3
# Si number density = 22.227409 Si / 1000 Ang^3
#
#
#
# Elastic Constant Matrix: (Units=GPa)
#
#
# Indices 1 2 3 4 5 6 
#
# 1 48.6059 17.3595 34.4930 0.0000 -4.1549 0.0000
# 2 17.3595 87.0264 31.8301 0.0000 -11.8101 0.0000
# 3 34.4930 31.8301 112.3641 0.0000 -0.7477 0.0000
# 4 0.0000 0.0000 0.0000 141.0457 0.0000 -0.1521
# 5 -4.1549 -11.8101 -0.7477 0.0000 44.1726 0.0000
# 6 0.0000 0.0000 0.0000 -0.1521 0.0000 28.9594
#
#
#
# Elastic Compliance Matrix: (Units=1/GPa)
#
#
# Indices 1 2 3 4 5 6 
#
# 1 0.026958 -0.002358 -0.007596 0.000000 0.001777 0.000000
# 2 -0.002358 0.013546 -0.003091 0.000000 0.003348 0.000000
# 3 -0.007596 -0.003091 0.012098 0.000000 -0.001336 0.000000
# 4 0.000000 0.000000 0.000000 0.007090 0.000000 0.000037
# 5 0.001777 0.003348 -0.001336 0.000000 0.023678 0.000000
# 6 0.000000 0.000000 0.000000 0.000037 0.000000 0.034531
#
#
# Mechanical properties :
#
#
# Convention : Reuss Voigt Hill
#
# Bulk Modulus (GPa) = 37.71840 46.15128 41.93484
# Shear Modulus (GPa) = 32.71643 53.78978 43.25310
#
# Velocity S-wave (km/s) = 3.84069 4.92466 4.41606
# Velocity P-wave (km/s) = 6.05591 7.29004 6.70144
#
# Compressibility (1/GPa) = 0.02651226
#
# Stress axis : x y z
#
# Youngs Moduli (GPa) = 37.09483 73.82241 82.65803
#
# Poissons Ratio (x) = 0.17409 0.62784
# Poissons Ratio (y) = 0.08748 0.25550
# Poissons Ratio (z) = 0.28176 0.22819
#
# Static dielectric constant tensor:
#      x y z
#    x 1.858140 0.000000 0.001870 
#    y 0.000000 1.815020 0.000000 
#    z 0.001870 0.000000 1.843970 
# 
# From -- ./inp_files/24514.got.cif
#   From: 2010.05.17/outbox.cif.g08.bks.cpg/sg13_13_cif.got.tgz:24514.got - 2010.06.03 16:44:36.
