data_PCOD9231734
_publ_section_title
;
Structure prediction by ZEFSAII (Michael W. Deem and Ramdas Pophale) SiO2 
 PCOD9231734
Probable space group: P 2/C
;
_chemical_formula_sum "Si O2"
_cell_formula_units_Z 28
_cell_length_a 26.922852
_cell_length_b 9.008966
_cell_length_c 9.198362
_cell_angle_alpha 90.000000
_cell_angle_beta 139.757016
_cell_angle_gamma 90.000000
_cell_volume 1441.317107
_symmetry_space_group_name_H-M "P 2/C"
_symmetry_group_IT_number 13
_symmetry_cell_setting 'monoclinic'
loop_
_space_group_symop_operation_xyz
x,y,z
-x,y,1/2-z
-x,-y,-z
x,-y,1/2+z
loop_
_atom_site_type_symbol
_atom_site_label
_atom_site_fract_x
_atom_site_fract_y
_atom_site_fract_z
Si Si1 0.868512 0.842958 0.127542
Si Si2 0.449924 0.187023 0.016506
Si Si3 0.712186 0.340326 0.295636
Si Si4 0.856484 0.162429 0.252009
Si Si5 0.297919 0.348031 0.568712
Si Si6 0.994100 0.338236 0.413732
Si Si7 0.562404 0.149855 0.002258
O O1 0.938679 0.761645 0.365141
O O2 0.859082 0.004158 0.178366
O O3 0.791307 0.749713 0.985068
O O4 0.878727 0.849978 0.974029
O O5 0.500000 0.268108 0.250000
O O6 0.514546 0.155668 0.041834
O O7 0.377597 0.277610 0.800240
O O8 0.421913 0.022543 0.004222
O O9 0.716468 0.494807 0.388597
O O10 0.640452 0.240639 0.186060
O O11 0.698808 0.370519 0.096044
O O12 0.914978 0.266649 0.294040
O O13 0.772094 0.235260 0.057276
O O14 0.000000 0.343403 0.250000
O O15 0.000000 0.500000 0.500000
O O16 0.500000 0.212868 0.750000
#
# Coordination Sequence:
#
# PCOD9231734 Si02
#       7
#     4   4   4   4   4   4   4
#     4  11  24  44  68  97 129 168 215 260 316 374
#     4  10  22  39  63  91 117 164 209 259 313 376
#     4  11  25  41  62  90 126 166 206 262 313 375
#     4  11  24  44  69  96 129 168 213 264 312 379
#     4  11  25  42  60  91 127 163 211 256 318 373
#     4  12  25  44  69 100 135 171 210 257 315 374
#     4  10  20  41  63  86 124 159 208 259 314 369
#
# _framework density 19.426677999999999
#
# number of rings (size 3 to 8) (size 9 to 14) (size 15 to 20)
#    0.000    1.143    1.429    4.286    2.000    5.714 
#    0.000    0.000    0.000    0.000    0.000    0.000 
#    0.000    0.000    0.000    0.000    0.000    0.000 
#
# Total GULP energy -156427.968161 kJ/mol
# GULP energy per Si atom -5586.713149 kJ/mol
# Density = 1.938246 g / cm^3
# Si number density = 19.426678 Si / 1000 Ang^3
#
#
#
# Elastic Constant Matrix: (Units=GPa)
#
#
# Indices 1 2 3 4 5 6 
#
# 1 127.6132 57.6874 58.7727 0.0000 -6.2327 0.0000
# 2 57.6874 122.3854 28.5823 0.0000 -9.2665 0.0000
# 3 58.7727 28.5823 86.5031 0.0000 -12.3987 0.0000
# 4 0.0000 0.0000 0.0000 32.0366 0.0000 4.9103
# 5 -6.2327 -9.2665 -12.3987 0.0000 25.3947 0.0000
# 6 0.0000 0.0000 0.0000 4.9103 0.0000 54.1295
#
#
#
# Elastic Compliance Matrix: (Units=1/GPa)
#
#
# Indices 1 2 3 4 5 6 
#
# 1 0.013504 -0.004680 -0.007955 0.000000 -0.002277 0.000000
# 2 -0.004680 0.010566 0.000082 0.000000 0.002747 0.000000
# 3 -0.007955 0.000082 0.017916 0.000000 0.006825 0.000000
# 4 0.000000 0.000000 0.000000 0.031654 0.000000 -0.002871
# 5 -0.002277 0.002747 0.006825 0.000000 0.043154 0.000000
# 6 0.000000 0.000000 0.000000 -0.002871 0.000000 0.018735
#
#
# Mechanical properties :
#
#
# Convention : Reuss Voigt Hill
#
# Bulk Modulus (GPa) = 59.23997 69.62072 64.43035
# Shear Modulus (GPa) = 30.07301 35.07612 32.57456
#
# Velocity S-wave (km/s) = 3.93876 4.25380 4.09931
# Velocity P-wave (km/s) = 7.15860 7.74867 7.45947
#
# Compressibility (1/GPa) = 0.01688049
#
# Stress axis : x y z
#
# Youngs Moduli (GPa) = 74.05018 94.64691 55.81473
#
# Poissons Ratio (x) = 0.44294 0.44403
# Poissons Ratio (y) = 0.34655 -0.00459
# Poissons Ratio (z) = 0.58909 -0.00779
#
# Static dielectric constant tensor:
#      x y z
#    x 1.494130 0.000000 0.072130 
#    y 0.000000 1.676380 0.000000 
#    z 0.072130 0.000000 1.622180 
# 
# From -- ./inp_files/24594.got.cif
#   From: 2010.05.17/outbox.cif.g08.bks.cpg/sg13_13_cif.got.tgz:24594.got - 2010.06.03 16:44:36.
