data_PCOD9231084
_publ_section_title
;
Structure prediction by ZEFSAII (Michael W. Deem and Ramdas Pophale) SiO2 
 PCOD9231084
Probable space group: P 2/C
;
_chemical_formula_sum "Si O2"
_cell_formula_units_Z 32
_cell_length_a 19.145877
_cell_length_b 11.678128
_cell_length_c 16.644488
_cell_angle_alpha 90.000000
_cell_angle_beta 155.312151
_cell_angle_gamma 90.000000
_cell_volume 1554.378519
_symmetry_space_group_name_H-M "P 2/C"
_symmetry_group_IT_number 13
_symmetry_cell_setting 'monoclinic'
loop_
_space_group_symop_operation_xyz
x,y,z
-x,y,1/2-z
-x,-y,-z
x,-y,1/2+z
loop_
_atom_site_type_symbol
_atom_site_label
_atom_site_fract_x
_atom_site_fract_y
_atom_site_fract_z
Si Si1 0.752542 0.115051 0.456618
Si Si2 0.867462 0.762182 0.928859
Si Si3 0.812319 0.856784 0.564830
Si Si4 0.694876 0.915702 0.622181
Si Si5 0.583366 0.256808 0.699686
Si Si6 0.349784 0.573582 0.880852
Si Si7 0.781107 0.660556 0.255893
Si Si8 0.376949 0.156697 0.006170
O O1 0.864440 0.193509 0.516609
O O2 0.566171 0.124961 0.225480
O O3 0.730168 0.156665 0.524219
O O4 0.806171 0.982634 0.516638
O O5 0.806842 0.866961 0.810074
O O6 0.735001 0.661852 0.769462
O O7 0.045547 0.718001 0.086184
O O8 0.766396 0.877360 0.609798
O O9 0.674017 0.778983 0.376249
O O10 0.000000 0.811208 0.750000
O O11 0.511950 0.856046 0.433952
O O12 0.687854 0.051978 0.615218
O O13 0.434515 0.351591 0.540206
O O14 0.724246 0.306384 0.786552
O O15 0.217897 0.474100 0.762212
O O16 0.500000 0.500000 0.000000
O O17 0.640977 0.723044 0.055569
#
# Coordination Sequence:
#
# PCOD9231084 Si02
#       8
#     4   4   4   4   4   4   4   4
#     4  10  22  37  58  88 125 166 196 246 306 379
#     4  11  23  37  63  91 127 158 206 255 314 362
#     4  11  22  36  58  91 131 156 194 253 316 367
#     4  10  21  37  59  89 121 165 201 244 300 374
#     4  10  20  38  64  87 118 163 207 244 302 370
#     4   9  20  41  64  87 113 159 210 252 299 358
#     4  11  23  37  63  93 121 159 202 264 305 355
#     4  10  21  38  59  87 125 161 208 242 302 372
#
# _framework density 20.587005999999999
#
# number of rings (size 3 to 8) (size 9 to 14) (size 15 to 20)
#    0.000    1.750    1.250    3.750    5.250    1.500 
#    0.000    0.000   30.250    0.000    0.000    0.000 
#    0.000    0.000    0.000    0.000    0.000    0.000 
#
# Total GULP energy -178734.781053 kJ/mol
# GULP energy per Si atom -5585.461908 kJ/mol
# Density = 2.054015 g / cm^3
# Si number density = 20.587006 Si / 1000 Ang^3
#
#
#
# Elastic Constant Matrix: (Units=GPa)
#
#
# Indices 1 2 3 4 5 6 
#
# 1 79.5379 26.6518 14.6003 0.0000 13.7391 0.0000
# 2 26.6518 88.4308 3.9385 0.0000 -8.5146 0.0000
# 3 14.6003 3.9385 59.9752 0.0000 13.1208 0.0000
# 4 0.0000 0.0000 0.0000 25.3634 0.0000 2.8313
# 5 13.7391 -8.5146 13.1208 0.0000 27.1703 0.0000
# 6 0.0000 0.0000 0.0000 2.8313 0.0000 20.8127
#
#
#
# Elastic Compliance Matrix: (Units=1/GPa)
#
#
# Indices 1 2 3 4 5 6 
#
# 1 0.016412 -0.005777 -0.001570 0.000000 -0.009351 0.000000
# 2 -0.005777 0.013860 -0.001222 0.000000 0.007855 0.000000
# 3 -0.001570 -0.001222 0.019060 0.000000 -0.008793 0.000000
# 4 0.000000 0.000000 0.000000 0.040035 0.000000 -0.005446
# 5 -0.009351 0.007855 -0.008793 0.000000 0.048241 0.000000
# 6 0.000000 0.000000 0.000000 -0.005446 0.000000 0.048788
#
#
# Mechanical properties :
#
#
# Convention : Reuss Voigt Hill
#
# Bulk Modulus (GPa) = 31.06250 35.36945 33.21597
# Shear Modulus (GPa) = 23.33554 26.85284 25.09419
#
# Velocity S-wave (km/s) = 3.37041 3.61551 3.49511
# Velocity P-wave (km/s) = 5.50158 5.88617 5.69712
#
# Compressibility (1/GPa) = 0.03219316
#
# Stress axis : x y z
#
# Youngs Moduli (GPa) = 60.93181 72.14985 52.46654
#
# Poissons Ratio (x) = 0.41679 0.08238
# Poissons Ratio (y) = 0.35199 0.06413
# Poissons Ratio (z) = 0.09568 0.08819
#
# Static dielectric constant tensor:
#      x y z
#    x 1.757790 0.000000 0.039880 
#    y 0.000000 1.733280 0.000000 
#    z 0.039880 0.000000 1.747660 
# 
# From -- ./inp_files/55835.got.cif
#   From: 2010.05.17/outbox.cif.g08.bks.cpg/sg13_28_cif.got.tgz:55835.got - 2010.06.03 16:44:36.
