data_PCOD9231564
_publ_section_title
;
Structure prediction by ZEFSAII (Michael W. Deem and Ramdas Pophale) SiO2 
 PCOD9231564
Probable space group: P 2/C
;
_chemical_formula_sum "Si O2"
_cell_formula_units_Z 30
_cell_length_a 29.044368
_cell_length_b 12.148089
_cell_length_c 9.198193
_cell_angle_alpha 90.000000
_cell_angle_beta 28.987532
_cell_angle_gamma 90.000000
_cell_volume 1572.798571
_symmetry_space_group_name_H-M "P 2/C"
_symmetry_group_IT_number 13
_symmetry_cell_setting 'monoclinic'
loop_
_space_group_symop_operation_xyz
x,y,z
-x,y,1/2-z
-x,-y,-z
x,-y,1/2+z
loop_
_atom_site_type_symbol
_atom_site_label
_atom_site_fract_x
_atom_site_fract_y
_atom_site_fract_z
Si Si1 0.442369 0.637903 0.143668
Si Si2 0.280073 0.198109 0.090117
Si Si3 0.000000 0.994025 0.750000
Si Si4 0.267801 0.882463 0.312264
Si Si5 0.632048 0.468567 0.369390
Si Si6 0.433374 0.041143 0.810828
Si Si7 0.336261 0.659342 0.990823
Si Si8 0.873324 0.083920 0.847869
O O1 0.346890 0.701760 0.358281
O O2 0.436902 0.532504 0.052924
O O3 0.416338 0.612909 0.381884
O O4 0.548644 0.685218 0.831273
O O5 0.191237 0.191448 0.444832
O O6 0.239557 0.147963 0.053576
O O7 0.359113 0.124889 0.950804
O O8 0.074742 0.922116 0.450535
O O9 0.051250 0.067090 0.731390
O O10 0.195786 0.975529 0.453280
O O11 0.281734 0.771617 0.180444
O O12 0.371127 0.939869 0.041564
O O13 0.676633 0.563083 0.351345
O O14 0.689602 0.393881 0.094386
O O15 0.500000 0.090580 0.750000
O O16 0.500000 0.000000 0.500000
#
# Coordination Sequence:
#
# PCOD9231564 Si02
#       8
#     4   4   2   4   4   4   4   4
#     4  11  20  33  52  73 109 153 194 230 266 302
#     4  11  22  35  53  79 112 140 183 228 271 310
#     4  10  20  40  64  80 108 140 162 212 284 352
#     4  11  22  35  53  79 111 143 180 230 272 310
#     4  10  21  34  48  74 103 150 204 240 262 296
#     4  11  22  34  48  69 106 152 189 214 253 317
#     4  11  20  33  54  72 110 154 194 230 267 303
#     4  10  22  39  60  85 111 135 172 217 277 346
#
# _framework density 19.074279000000001
#
# number of rings (size 3 to 8) (size 9 to 14) (size 15 to 20)
#    0.000    1.333    4.000    4.000    0.000    3.200 
#    0.000    0.000    0.000    0.000    0.000    0.000 
#    0.000   74.667    0.000    0.000    0.000    0.000 
#
# Total GULP energy -167139.528136 kJ/mol
# GULP energy per Si atom -5571.317605 kJ/mol
# Density = 1.903087 g / cm^3
# Si number density = 19.074279 Si / 1000 Ang^3
#
#
#
# Elastic Constant Matrix: (Units=GPa)
#
#
# Indices 1 2 3 4 5 6 
#
# 1 77.7834 5.2611 3.9685 0.0000 16.6065 0.0000
# 2 5.2611 46.0916 14.6672 0.0000 2.9418 0.0000
# 3 3.9685 14.6672 90.3862 0.0000 13.8254 0.0000
# 4 0.0000 0.0000 0.0000 23.0802 0.0000 5.7614
# 5 16.6065 2.9418 13.8254 0.0000 31.6049 0.0000
# 6 0.0000 0.0000 0.0000 5.7614 0.0000 16.2937
#
#
#
# Elastic Compliance Matrix: (Units=1/GPa)
#
#
# Indices 1 2 3 4 5 6 
#
# 1 0.014595 -0.001416 0.000795 0.000000 -0.007885 0.000000
# 2 -0.001416 0.023023 -0.003708 0.000000 0.000223 0.000000
# 3 0.000795 -0.003708 0.012476 0.000000 -0.005530 0.000000
# 4 0.000000 0.000000 0.000000 0.047522 0.000000 -0.016803
# 5 -0.007885 0.000223 -0.005530 0.000000 0.038182 0.000000
# 6 0.000000 0.000000 0.000000 -0.016803 0.000000 0.067315
#
#
# Mechanical properties :
#
#
# Convention : Reuss Voigt Hill
#
# Bulk Modulus (GPa) = 24.13302 29.11720 26.62511
# Shear Modulus (GPa) = 22.16485 26.88674 24.52579
#
# Velocity S-wave (km/s) = 3.41255 3.75851 3.58970
# Velocity P-wave (km/s) = 5.31102 5.84239 5.58303
#
# Compressibility (1/GPa) = 0.04143700
#
# Stress axis : x y z
#
# Youngs Moduli (GPa) = 68.51778 43.43436 80.15176
#
# Poissons Ratio (x) = 0.06149 -0.06372
# Poissons Ratio (y) = 0.09700 0.29720
# Poissons Ratio (z) = -0.05447 0.16105
#
# Static dielectric constant tensor:
#      x y z
#    x 1.686320 0.000000 -0.010930 
#    y 0.000000 1.749720 0.000000 
#    z -0.010930 0.000000 1.719890 
# 
# From -- ./inp_files/21719.got.cif
#   From: 2010.05.17/outbox.cif.g08.bks.cpg/sg13_11_cif.got.tgz:21719.got - 2010.06.03 16:44:36.
