data_PCOD9231365
_publ_section_title
;
Structure prediction by ZEFSAII (Michael W. Deem and Ramdas Pophale) SiO2 
 PCOD9231365
Probable space group: P 2/C
;
_chemical_formula_sum "Si O2"
_cell_formula_units_Z 26
_cell_length_a 8.485383
_cell_length_b 8.931617
_cell_length_c 24.684930
_cell_angle_alpha 90.000000
_cell_angle_beta 38.127498
_cell_angle_gamma 90.000000
_cell_volume 1155.073306
_symmetry_space_group_name_H-M "P 2/C"
_symmetry_group_IT_number 13
_symmetry_cell_setting 'monoclinic'
loop_
_space_group_symop_operation_xyz
x,y,z
-x,y,1/2-z
-x,-y,-z
x,-y,1/2+z
loop_
_atom_site_type_symbol
_atom_site_label
_atom_site_fract_x
_atom_site_fract_y
_atom_site_fract_z
Si Si1 0.845102 0.927718 0.369584
Si Si2 0.500000 0.649636 0.750000
Si Si3 0.180045 0.414485 0.907213
Si Si4 0.333673 0.233942 0.687019
Si Si5 0.307926 0.702580 0.016828
Si Si6 0.057071 0.753574 0.799030
Si Si7 0.711526 0.498347 0.876674
O O1 0.115551 0.833967 0.286122
O O2 0.688444 0.883541 0.357292
O O3 0.700952 0.872218 0.462210
O O4 0.912886 0.099730 0.357803
O O5 0.332385 0.540467 0.833013
O O6 0.328993 0.747534 0.754829
O O7 0.383032 0.284053 0.870500
O O8 0.972701 0.337410 0.925472
O O9 0.000000 0.500000 0.000000
O O10 0.250428 0.397087 0.686035
O O11 0.377711 0.620563 0.054509
O O12 0.502166 0.627534 0.922575
O O13 0.000000 0.760854 0.750000
O O14 0.933951 0.592439 0.844511
#
# Coordination Sequence:
#
# PCOD9231365 Si02
#       7
#     4   2   4   4   4   4   4
#     4  10  23  41  64  96 131 185 220 275 347 424
#     4  12  28  42  72 108 136 186 234 290 352 416
#     4  12  23  41  67 107 137 170 231 304 347 401
#     4  10  20  39  64  95 128 171 229 272 343 401
#     4  10  21  39  63  97 125 173 225 279 346 398
#     4  12  25  44  67 100 142 185 229 281 357 421
#     4  10  21  38  66  90 130 170 222 282 328 411
#
# _framework density 22.509391999999998
#
# number of rings (size 3 to 8) (size 9 to 14) (size 15 to 20)
#    0.000    1.231    4.615    1.846    8.615    1.846 
#    0.000    0.000    0.000    2.769    0.000    0.000 
#    0.000    0.000    0.000    0.000    0.000    0.000 
#
# Total GULP energy -144810.383961 kJ/mol
# GULP energy per Si atom -5569.630152 kJ/mol
# Density = 2.245816 g / cm^3
# Si number density = 22.509392 Si / 1000 Ang^3
#
#
#
# Elastic Constant Matrix: (Units=GPa)
#
#
# Indices 1 2 3 4 5 6 
#
# 1 104.0650 8.1485 4.1386 0.0000 -24.9637 0.0000
# 2 8.1485 84.3876 6.9286 0.0000 4.0387 0.0000
# 3 4.1386 6.9286 50.2226 0.0000 -1.5719 0.0000
# 4 0.0000 0.0000 0.0000 30.1199 0.0000 -2.2792
# 5 -24.9637 4.0387 -1.5719 0.0000 31.3823 0.0000
# 6 0.0000 0.0000 0.0000 -2.2792 0.0000 23.7851
#
#
#
# Elastic Compliance Matrix: (Units=1/GPa)
#
#
# Indices 1 2 3 4 5 6 
#
# 1 0.012107 -0.001600 -0.000470 0.000000 0.009814 0.000000
# 2 -0.001600 0.012281 -0.001654 0.000000 -0.002936 0.000000
# 3 -0.000470 -0.001654 0.020205 0.000000 0.000851 0.000000
# 4 0.000000 0.000000 0.000000 0.033443 0.000000 0.003205
# 5 0.009814 -0.002936 0.000851 0.000000 0.040092 0.000000
# 6 0.000000 0.000000 0.000000 0.003205 0.000000 0.042350
#
#
# Mechanical properties :
#
#
# Convention : Reuss Voigt Hill
#
# Bulk Modulus (GPa) = 26.92169 30.78963 28.85566
# Shear Modulus (GPa) = 27.73019 31.68810 29.70914
#
# Velocity S-wave (km/s) = 3.51371 3.75610 3.63692
# Velocity P-wave (km/s) = 5.33364 5.70257 5.52119
#
# Compressibility (1/GPa) = 0.03714477
#
# Stress axis : x y z
#
# Youngs Moduli (GPa) = 82.59345 81.42697 49.49291
#
# Poissons Ratio (x) = 0.13030 0.02325
# Poissons Ratio (y) = 0.13217 0.08188
# Poissons Ratio (z) = 0.03880 0.13470
#
# Static dielectric constant tensor:
#      x y z
#    x 1.880320 0.000000 -0.020490 
#    y 0.000000 1.913080 0.000000 
#    z -0.020490 0.000000 1.987710 
# 
# From -- ./inp_files/91230.got.cif
#   From: 2010.05.17/outbox.cif.g08.bks.cpg/sg13_46_cif.got.tgz:91230.got - 2010.06.03 16:44:36.
