data_PCOD9231956
_publ_section_title
;
Structure prediction by ZEFSAII (Michael W. Deem and Ramdas Pophale) SiO2 
 PCOD9231956
Probable space group: P 2/C
;
_chemical_formula_sum "Si O2"
_cell_formula_units_Z 16
_cell_length_a 24.959235
_cell_length_b 6.256790
_cell_length_c 14.898449
_cell_angle_alpha 90.000000
_cell_angle_beta 16.669588
_cell_angle_gamma 90.000000
_cell_volume 667.393399
_symmetry_space_group_name_H-M "P 2/C"
_symmetry_group_IT_number 13
_symmetry_cell_setting 'monoclinic'
loop_
_space_group_symop_operation_xyz
x,y,z
-x,y,1/2-z
-x,-y,-z
x,-y,1/2+z
loop_
_atom_site_type_symbol
_atom_site_label
_atom_site_fract_x
_atom_site_fract_y
_atom_site_fract_z
Si Si1 0.500000 0.041998 0.750000
Si Si2 0.278727 0.487186 0.367743
Si Si3 0.207567 0.205399 0.825326
Si Si4 0.000000 0.866417 0.250000
Si Si5 0.709855 0.451941 0.444276
O O1 0.673711 0.196118 0.499331
O O2 0.594425 0.903827 0.519754
O O3 0.212674 0.687650 0.414912
O O4 0.243793 0.490341 0.529226
O O5 0.176165 0.282295 0.490659
O O6 0.500000 0.500000 0.000000
O O7 0.171237 0.401933 0.814814
O O8 0.060108 0.014638 0.070182
O O9 0.500000 0.514242 0.750000
#
# Coordination Sequence:
#
# PCOD9231956 Si02
#       5
#     2   4   4   2   4
#     4  10  20  42  74 106 144 188 248 294 364 442
#     4  12  24  49  77 105 152 199 243 310 367 439
#     4  12  23  46  71 110 149 188 251 302 364 442
#     4  12  30  44  72 116 150 194 252 302 374 440
#     4  10  22  43  72 109 143 191 248 298 358 441
#
# _framework density 23.973866999999998
#
# number of rings (size 3 to 8) (size 9 to 14) (size 15 to 20)
#    0.750    0.000    3.750    3.750    0.000    7.000 
#    0.000    8.750    0.000    0.000    0.000    0.000 
#    0.000    0.000    0.000    0.000    0.000    0.000 
#
# Total GULP energy -89260.879111 kJ/mol
# GULP energy per Si atom -5578.804944 kJ/mol
# Density = 2.391930 g / cm^3
# Si number density = 23.973867 Si / 1000 Ang^3
#
#
#
# Elastic Constant Matrix: (Units=GPa)
#
#
# Indices 1 2 3 4 5 6 
#
# 1 144.6524 51.2180 32.7163 0.0000 20.2058 0.0000
# 2 51.2180 124.1917 58.6830 0.0000 8.9920 0.0000
# 3 32.7163 58.6830 136.6120 0.0000 -7.3710 0.0000
# 4 0.0000 0.0000 0.0000 70.7973 0.0000 24.4054
# 5 20.2058 8.9920 -7.3710 0.0000 20.8501 0.0000
# 6 0.0000 0.0000 0.0000 24.4054 0.0000 24.5406
#
#
#
# Elastic Compliance Matrix: (Units=1/GPa)
#
#
# Indices 1 2 3 4 5 6 
#
# 1 0.009356 -0.002458 -0.001648 0.000000 -0.008590 0.000000
# 2 -0.002458 0.011544 -0.004598 0.000000 -0.004222 0.000000
# 3 -0.001648 -0.004598 0.010075 0.000000 0.007142 0.000000
# 4 0.000000 0.000000 0.000000 0.021493 0.000000 -0.021375
# 5 -0.008590 -0.004222 0.007142 0.000000 0.060632 0.000000
# 6 0.000000 0.000000 0.000000 -0.021375 0.000000 0.062006
#
#
# Mechanical properties :
#
#
# Convention : Reuss Voigt Hill
#
# Bulk Modulus (GPa) = 73.70806 76.74340 75.22573
# Shear Modulus (GPa) = 25.37601 40.76019 33.06810
#
# Velocity S-wave (km/s) = 3.25697 4.12781 3.71798
# Velocity P-wave (km/s) = 6.70490 7.40265 7.06240
#
# Compressibility (1/GPa) = 0.01356704
#
# Stress axis : x y z
#
# Youngs Moduli (GPa) = 106.88327 86.62454 99.25290
#
# Poissons Ratio (x) = 0.21290 0.16360
# Poissons Ratio (y) = 0.26269 0.45638
# Poissons Ratio (z) = 0.17618 0.39831
#
# Static dielectric constant tensor:
#      x y z
#    x 1.891200 0.000000 0.094030 
#    y 0.000000 2.007340 0.000000 
#    z 0.094030 0.000000 2.216180 
# 
# From -- ./inp_files/48793.got.cif
#   From: 2010.05.17/outbox.cif.g08.bks.cpg/sg13_25_cif.got.tgz:48793.got - 2010.06.03 16:44:36.
