data_PCOD9231733
_publ_section_title
;
Structure prediction by ZEFSAII (Michael W. Deem and Ramdas Pophale) SiO2 
 PCOD9231733
Probable space group: P 2/C
;
_chemical_formula_sum "Si O2"
_cell_formula_units_Z 26
_cell_length_a 8.649808
_cell_length_b 21.503832
_cell_length_c 7.733237
_cell_angle_alpha 90.000000
_cell_angle_beta 127.039713
_cell_angle_gamma 90.000000
_cell_volume 1148.167540
_symmetry_space_group_name_H-M "P 2/C"
_symmetry_group_IT_number 13
_symmetry_cell_setting 'monoclinic'
loop_
_space_group_symop_operation_xyz
x,y,z
-x,y,1/2-z
-x,-y,-z
x,-y,1/2+z
loop_
_atom_site_type_symbol
_atom_site_label
_atom_site_fract_x
_atom_site_fract_y
_atom_site_fract_z
Si Si1 0.878051 0.582835 0.926464
Si Si2 0.728728 0.172095 0.710806
Si Si3 0.448580 0.929783 0.917252
Si Si4 0.500000 0.278673 0.750000
Si Si5 0.845576 0.164182 0.384958
Si Si6 0.199342 0.300266 0.280714
Si Si7 0.725633 0.539785 0.451819
O O1 0.822070 0.655320 0.900513
O O2 0.779806 0.564004 0.677600
O O3 0.783331 0.533499 0.990181
O O4 0.108806 0.571283 0.059762
O O5 0.581536 0.115007 0.621361
O O6 0.636987 0.234115 0.727310
O O7 0.775212 0.173671 0.536672
O O8 0.924901 0.160075 0.945982
O O9 0.500000 0.924964 0.750000
O O10 0.239804 0.896118 0.769522
O O11 0.500000 0.000000 0.000000
O O12 0.371558 0.316355 0.528149
O O13 0.780686 0.227627 0.249130
O O14 0.000000 0.308442 0.250000
O O15 0.500000 0.546541 0.250000
#
# Coordination Sequence:
#
# PCOD9231733 Si02
#       7
#     4   4   4   2   4   4   4
#     4  10  23  40  61  91 129 158 215 265 315 381
#     4  10  22  41  64  92 122 174 206 263 324 375
#     4  10  22  39  62  92 128 168 215 261 312 381
#     4  12  24  38  68  92 126 170 216 260 330 384
#     4  10  22  43  64  89 135 163 208 271 320 377
#     4  12  23  41  62  97 126 167 215 274 319 387
#     4  10  20  41  63  85 120 168 202 256 317 377
#
# _framework density 22.644780000000001
#
# number of rings (size 3 to 8) (size 9 to 14) (size 15 to 20)
#    0.000    1.538    4.615    0.462    2.154    0.615 
#    2.769    6.154    0.000    0.000    0.000    0.000 
#    0.000    0.000    0.000    0.000    0.000    0.000 
#
# Total GULP energy -145227.232355 kJ/mol
# GULP energy per Si atom -5585.662783 kJ/mol
# Density = 2.259324 g / cm^3
# Si number density = 22.644780 Si / 1000 Ang^3
#
#
#
# Elastic Constant Matrix: (Units=GPa)
#
#
# Indices 1 2 3 4 5 6 
#
# 1 57.5848 8.8241 49.3922 0.0000 23.5876 0.0000
# 2 8.8241 109.2355 45.1521 0.0000 11.2223 0.0000
# 3 49.3922 45.1521 136.0143 0.0000 37.3160 0.0000
# 4 0.0000 0.0000 0.0000 41.9404 0.0000 -4.5538
# 5 23.5876 11.2223 37.3160 0.0000 39.3765 0.0000
# 6 0.0000 0.0000 0.0000 -4.5538 0.0000 13.1066
#
#
#
# Elastic Compliance Matrix: (Units=1/GPa)
#
#
# Indices 1 2 3 4 5 6 
#
# 1 0.028054 0.002136 -0.008269 0.000000 -0.009578 0.000000
# 2 0.002136 0.010778 -0.004270 0.000000 -0.000305 0.000000
# 3 -0.008269 -0.004270 0.013621 0.000000 -0.006738 0.000000
# 4 0.000000 0.000000 0.000000 0.024778 0.000000 0.008609
# 5 -0.009578 -0.000305 -0.006738 0.000000 0.037605 0.000000
# 6 0.000000 0.000000 0.000000 0.008609 0.000000 0.079289
#
#
# Mechanical properties :
#
#
# Convention : Reuss Voigt Hill
#
# Bulk Modulus (GPa) = 31.59865 56.61904 44.10885
# Shear Modulus (GPa) = 22.17483 32.18244 27.17863
#
# Velocity S-wave (km/s) = 3.13269 3.77395 3.46817
# Velocity P-wave (km/s) = 5.20282 6.63684 5.96310
#
# Compressibility (1/GPa) = 0.03164692
#
# Stress axis : x y z
#
# Youngs Moduli (GPa) = 35.64556 92.77901 73.41608
#
# Poissons Ratio (x) = -0.19814 0.60706
# Poissons Ratio (y) = -0.07613 0.31349
# Poissons Ratio (z) = 0.29475 0.39617
#
# Static dielectric constant tensor:
#      x y z
#    x 1.876660 0.000000 -0.008650 
#    y 0.000000 1.924120 0.000000 
#    z -0.008650 0.000000 1.839110 
# 
# From -- ./inp_files/13690.got.cif
#   From: 2010.05.17/outbox.cif.g08.bks.cpg/sg13_7_cif.got.tgz:13690.got - 2010.06.03 16:44:36.
