data_PCOD9231376
_publ_section_title
;
Structure prediction by ZEFSAII (Michael W. Deem and Ramdas Pophale) SiO2 
 PCOD9231376
Probable space group: P 2/C
;
_chemical_formula_sum "Si O2"
_cell_formula_units_Z 30
_cell_length_a 9.121673
_cell_length_b 12.618290
_cell_length_c 16.057861
_cell_angle_alpha 90.000000
_cell_angle_beta 120.463221
_cell_angle_gamma 90.000000
_cell_volume 1593.115195
_symmetry_space_group_name_H-M "P 2/C"
_symmetry_group_IT_number 13
_symmetry_cell_setting 'monoclinic'
loop_
_space_group_symop_operation_xyz
x,y,z
-x,y,1/2-z
-x,-y,-z
x,-y,1/2+z
loop_
_atom_site_type_symbol
_atom_site_label
_atom_site_fract_x
_atom_site_fract_y
_atom_site_fract_z
Si Si1 0.749019 0.348072 0.938728
Si Si2 0.395544 0.966728 0.339492
Si Si3 0.500000 0.215625 0.750000
Si Si4 0.605749 0.422870 0.365279
Si Si5 0.150135 0.147659 0.234308
Si Si6 0.618668 0.288583 0.084208
Si Si7 0.891943 0.244846 0.452659
Si Si8 0.667524 0.104666 0.498759
O O1 0.629059 0.286852 0.839339
O O2 0.710819 0.472142 0.916787
O O3 0.697947 0.315542 0.018055
O O4 0.941355 0.311409 0.977374
O O5 0.408472 0.862177 0.288927
O O6 0.307229 0.943625 0.402819
O O7 0.291211 0.057590 0.262856
O O8 0.581174 0.014452 0.416258
O O9 0.500000 0.437362 0.250000
O O10 0.476057 0.388091 0.400941
O O11 0.734932 0.324890 0.393127
O O12 0.242306 0.242875 0.311253
O O13 0.079607 0.185384 0.126124
O O14 0.000000 0.107984 0.250000
O O15 0.478899 0.194970 0.033839
O O16 0.828496 0.160486 0.503057
#
# Coordination Sequence:
#
# PCOD9231376 Si02
#       8
#     4   4   2   4   4   4   4   4
#     4  12  24  41  61  91 127 160 207 254 314 361
#     4  10  21  38  61  89 126 166 213 243 306 374
#     4  12  24  40  62  86 124 170 204 254 300 380
#     4  11  22  40  66  92 120 162 206 250 310 380
#     4  11  21  37  62  94 122 157 205 262 303 355
#     4  10  20  39  65  86 120 160 203 252 302 375
#     4  11  23  39  65  93 128 157 203 261 314 359
#     4   9  20  38  63  90 120 164 203 252 306 366
#
# _framework density 18.831032
#
# number of rings (size 3 to 8) (size 9 to 14) (size 15 to 20)
#    0.000    1.333    4.667    1.600    0.000    1.067 
#    0.000    2.000    0.000    0.000    0.000    0.000 
#    0.000    0.000    0.000    0.000    0.000    0.000 
#
# Total GULP energy -167608.874552 kJ/mol
# GULP energy per Si atom -5586.962485 kJ/mol
# Density = 1.878817 g / cm^3
# Si number density = 18.831032 Si / 1000 Ang^3
#
#
#
# Elastic Constant Matrix: (Units=GPa)
#
#
# Indices 1 2 3 4 5 6 
#
# 1 69.6525 -0.0237 16.2829 0.0000 -5.4944 0.0000
# 2 -0.0237 57.7307 13.3795 0.0000 -5.5991 0.0000
# 3 16.2829 13.3795 62.0489 0.0000 -1.5051 0.0000
# 4 0.0000 0.0000 0.0000 2.8346 0.0000 -4.6034
# 5 -5.4944 -5.5991 -1.5051 0.0000 24.0690 0.0000
# 6 0.0000 0.0000 0.0000 -4.6034 0.0000 21.7012
#
#
#
# Elastic Compliance Matrix: (Units=1/GPa)
#
#
# Indices 1 2 3 4 5 6 
#
# 1 0.015651 0.001357 -0.004312 0.000000 0.003619 0.000000
# 2 0.001357 0.018744 -0.004291 0.000000 0.004402 0.000000
# 3 -0.004312 -0.004291 0.018153 0.000000 -0.000847 0.000000
# 4 0.000000 0.000000 0.000000 0.538198 0.000000 0.114167
# 5 0.003619 0.004402 -0.000847 0.000000 0.043344 0.000000
# 6 0.000000 0.000000 0.000000 0.114167 0.000000 0.070298
#
#
# Mechanical properties :
#
#
# Convention : Reuss Voigt Hill
#
# Bulk Modulus (GPa) = 26.27781 27.63440 26.95611
# Shear Modulus (GPa) = 6.83466 20.37384 13.60425
#
# Velocity S-wave (km/s) = 1.90718 3.29284 2.69074
# Velocity P-wave (km/s) = 4.33989 5.40035 4.89890
#
# Compressibility (1/GPa) = 0.03805492
#
# Stress axis : x y z
#
# Youngs Moduli (GPa) = 63.89405 53.35118 55.08870
#
# Poissons Ratio (x) = -0.07238 0.23754
# Poissons Ratio (y) = -0.08669 0.23638
# Poissons Ratio (z) = 0.27550 0.22893
#
# Static dielectric constant tensor:
#      x y z
#    x 1.644450 0.000000 -0.003060 
#    y 0.000000 1.629370 0.000000 
#    z -0.003060 0.000000 1.627960 
# 
# From -- ./inp_files/47302.got.cif
#   From: 2010.05.17/outbox.cif.g08.bks.cpg/sg13_24_cif.got.tgz:47302.got - 2010.06.03 16:44:36.
