data_PCOD9231105
_publ_section_title
;
Structure prediction by ZEFSAII (Michael W. Deem and Ramdas Pophale) SiO2 
 PCOD9231105
Probable space group: P 2/C
;
_chemical_formula_sum "Si O2"
_cell_formula_units_Z 16
_cell_length_a 5.484864
_cell_length_b 16.115380
_cell_length_c 9.534083
_cell_angle_alpha 90.000000
_cell_angle_beta 56.270003
_cell_angle_gamma 90.000000
_cell_volume 700.862777
_symmetry_space_group_name_H-M "P 2/C"
_symmetry_group_IT_number 13
_symmetry_cell_setting 'monoclinic'
loop_
_space_group_symop_operation_xyz
x,y,z
-x,y,1/2-z
-x,-y,-z
x,-y,1/2+z
loop_
_atom_site_type_symbol
_atom_site_label
_atom_site_fract_x
_atom_site_fract_y
_atom_site_fract_z
Si Si1 0.800933 0.546245 0.448821
Si Si2 0.000000 0.185582 0.250000
Si Si3 0.375756 0.891079 0.016945
Si Si4 0.786402 0.268342 0.064833
Si Si5 0.500000 0.011842 0.750000
O O1 0.500000 0.500000 0.500000
O O2 0.759689 0.639783 0.516201
O O3 0.000000 0.550549 0.250000
O O4 0.000000 0.500000 0.500000
O O5 0.281614 0.127724 0.131568
O O6 0.976044 0.246976 0.392828
O O7 0.213588 0.803822 0.049788
O O8 0.297847 0.953368 0.914158
O O9 0.350367 0.931045 0.178283
O O10 0.500000 0.252643 0.250000
#
# Coordination Sequence:
#
# PCOD9231105 Si02
#       5
#     4   2   4   4   2
#     4  12  28  49  76 111 146 188 238 299 364 440
#     4  10  20  38  64  92 124 182 218 282 354 408
#     4  10  21  39  60  91 131 177 227 289 343 414
#     4  10  22  42  66  96 137 176 230 286 361 420
#     4  10  20  40  58  88 134 172 232 288 340 414
#
# _framework density 22.829003
#
# number of rings (size 3 to 8) (size 9 to 14) (size 15 to 20)
#    0.000    1.500    3.750    2.250    8.750    3.000 
#    0.000    0.000    0.000    0.000    0.000    0.000 
#    0.000    0.000    0.000    0.000    0.000    0.000 
#
# Total GULP energy -89300.838182 kJ/mol
# GULP energy per Si atom -5581.302386 kJ/mol
# Density = 2.277704 g / cm^3
# Si number density = 22.829003 Si / 1000 Ang^3
#
#
#
# Elastic Constant Matrix: (Units=GPa)
#
#
# Indices 1 2 3 4 5 6 
#
# 1 93.7985 62.1004 34.6437 0.0000 22.0471 0.0000
# 2 62.1004 203.2562 59.5875 0.0000 39.0869 0.0000
# 3 34.6437 59.5875 132.5940 0.0000 34.3451 0.0000
# 4 0.0000 0.0000 0.0000 52.0594 0.0000 15.8335
# 5 22.0471 39.0869 34.3451 0.0000 46.0072 0.0000
# 6 0.0000 0.0000 0.0000 15.8335 0.0000 37.8083
#
#
#
# Elastic Compliance Matrix: (Units=1/GPa)
#
#
# Indices 1 2 3 4 5 6 
#
# 1 0.014065 -0.003329 -0.001445 0.000000 -0.002833 0.000000
# 2 -0.003329 0.006983 -0.001420 0.000000 -0.003278 0.000000
# 3 -0.001445 -0.001420 0.009999 0.000000 -0.005566 0.000000
# 4 0.000000 0.000000 0.000000 0.022013 0.000000 -0.009218
# 5 -0.002833 -0.003278 -0.005566 0.000000 0.030034 0.000000
# 6 0.000000 0.000000 0.000000 -0.009218 0.000000 0.030310
#
#
# Mechanical properties :
#
#
# Convention : Reuss Voigt Hill
#
# Bulk Modulus (GPa) = 53.58849 82.47912 68.03381
# Shear Modulus (GPa) = 37.87606 45.39612 41.63609
#
# Velocity S-wave (km/s) = 4.07765 4.46413 4.27526
# Velocity P-wave (km/s) = 6.75977 7.92331 7.36455
#
# Compressibility (1/GPa) = 0.01866072
#
# Stress axis : x y z
#
# Youngs Moduli (GPa) = 71.10071 143.19550 100.00989
#
# Poissons Ratio (x) = 0.47665 0.14451
# Poissons Ratio (y) = 0.23667 0.14197
# Poissons Ratio (z) = 0.10274 0.20327
#
# Static dielectric constant tensor:
#      x y z
#    x 2.224550 0.000000 0.101200 
#    y 0.000000 1.692720 0.000000 
#    z 0.101200 0.000000 1.850720 
# 
# From -- ./inp_files/8918.got.cif
#   From: 2010.05.17/outbox.cif.g08.bks.cpg/sg13_5_cif.got.tgz:8918.got - 2010.06.03 16:44:36.
