data_PCOD9231389
_publ_section_title
;
Structure prediction by ZEFSAII (Michael W. Deem and Ramdas Pophale) SiO2 
 PCOD9231389
Probable space group: P 2/C
;
_chemical_formula_sum "Si O2"
_cell_formula_units_Z 24
_cell_length_a 9.073205
_cell_length_b 9.103235
_cell_length_c 31.010516
_cell_angle_alpha 90.000000
_cell_angle_beta 30.311295
_cell_angle_gamma 90.000000
_cell_volume 1292.697470
_symmetry_space_group_name_H-M "P 2/C"
_symmetry_group_IT_number 13
_symmetry_cell_setting 'monoclinic'
loop_
_space_group_symop_operation_xyz
x,y,z
-x,y,1/2-z
-x,-y,-z
x,-y,1/2+z
loop_
_atom_site_type_symbol
_atom_site_label
_atom_site_fract_x
_atom_site_fract_y
_atom_site_fract_z
Si Si1 0.845086 0.190678 0.164310
Si Si2 0.879517 0.367859 0.326793
Si Si3 0.798926 0.295226 0.840127
Si Si4 0.887263 0.336870 0.487260
Si Si5 0.811281 0.676397 0.499065
Si Si6 0.194348 0.094531 0.577432
O O1 0.500000 0.211008 0.250000
O O2 0.971617 0.282141 0.172238
O O3 0.005070 0.245258 0.080635
O O4 0.936212 0.022352 0.146279
O O5 0.920739 0.542927 0.320810
O O6 0.536488 0.338721 0.413331
O O7 0.000000 0.321998 0.250000
O O8 0.803847 0.194028 0.880595
O O9 0.000000 0.239636 0.750000
O O10 0.455922 0.315119 0.915536
O O11 0.930569 0.508930 0.463092
O O12 0.067270 0.289100 0.484030
O O13 0.861808 0.798877 0.449553
O O14 0.500000 0.000000 0.500000
#
# Coordination Sequence:
#
# PCOD9231389 Si02
#       6
#     4   4   4   4   4   4
#     4  12  25  40  61  93 128 165 210 259 319 384
#     4  10  20  39  65  93 122 163 212 267 312 374
#     4  10  22  41  66  91 123 165 214 256 316 371
#     4  10  21  41  65  95 120 161 214 269 307 367
#     4  10  21  39  67  90 123 164 211 259 321 373
#     4  12  23  42  60  90 130 175 203 255 322 387
#
# _framework density 18.565829000000001
#
# number of rings (size 3 to 8) (size 9 to 14) (size 15 to 20)
#    0.000    1.333    3.333    2.000    0.000    6.667 
#    3.000    1.667    0.000    0.000    0.000    0.000 
#    0.000    0.000    0.000    0.000    0.000    0.000 
#
# Total GULP energy -133954.507255 kJ/mol
# GULP energy per Si atom -5581.437802 kJ/mol
# Density = 1.852357 g / cm^3
# Si number density = 18.565829 Si / 1000 Ang^3
#
#
#
# Elastic Constant Matrix: (Units=GPa)
#
#
# Indices 1 2 3 4 5 6 
#
# 1 165.7662 78.6119 50.5006 0.0000 10.7428 0.0000
# 2 78.6119 75.6647 29.4001 0.0000 15.6849 0.0000
# 3 50.5006 29.4001 74.7995 0.0000 5.6349 0.0000
# 4 0.0000 0.0000 0.0000 -2.5275 0.0000 -44.6182
# 5 10.7428 15.6849 5.6349 0.0000 28.5047 0.0000
# 6 0.0000 0.0000 0.0000 -44.6182 0.0000 -34.5647
#
#
#
# Elastic Compliance Matrix: (Units=1/GPa)
#
#
# Indices 1 2 3 4 5 6 
#
# 1 0.013046 -0.012545 -0.004088 0.000000 0.002794 0.000000
# 2 -0.012545 0.029411 -0.002261 0.000000 -0.011008 0.000000
# 3 -0.004088 -0.002261 0.017062 0.000000 -0.000588 0.000000
# 4 0.000000 0.000000 0.000000 0.018159 0.000000 -0.023441
# 5 0.002794 -0.011008 -0.000588 0.000000 0.040203 0.000000
# 6 0.000000 0.000000 0.000000 -0.023441 0.000000 0.001328
#
#
# Mechanical properties :
#
#
# Convention : Reuss Voigt Hill
#
# Bulk Modulus (GPa) = 46.01673 70.36173 58.18923
# Shear Modulus (GPa) = 30.44342 8.79703 19.62023
#
# Velocity S-wave (km/s) = 4.05378 2.17912 3.25436
# Velocity P-wave (km/s) = 6.83743 6.65674 6.74769
#
# Compressibility (1/GPa) = 0.02173123
#
# Stress axis : x y z
#
# Youngs Moduli (GPa) = 76.65055 34.00140 58.61079
#
# Poissons Ratio (x) = 0.42656 0.23958
# Poissons Ratio (y) = 0.96161 0.13250
# Poissons Ratio (z) = 0.31332 0.07686
#
# Static dielectric constant tensor:
#      x y z
#    x 1.600660 0.000000 -0.015710 
#    y 0.000000 1.656270 0.000000 
#    z -0.015710 0.000000 1.621840 
# 
# From -- ./inp_files/68059.got.cif
#   From: 2010.05.17/outbox.cif.g08.bks.cpg/sg13_35_cif.got.tgz:68059.got - 2010.06.03 16:44:36.
