data_PCOD9231333
_publ_section_title
;
Structure prediction by ZEFSAII (Michael W. Deem and Ramdas Pophale) SiO2 
 PCOD9231333
Probable space group: P 2/C
;
_chemical_formula_sum "Si O2"
_cell_formula_units_Z 20
_cell_length_a 14.196653
_cell_length_b 11.166068
_cell_length_c 11.286483
_cell_angle_alpha 90.000000
_cell_angle_beta 26.195170
_cell_angle_gamma 90.000000
_cell_volume 789.781437
_symmetry_space_group_name_H-M "P 2/C"
_symmetry_group_IT_number 13
_symmetry_cell_setting 'monoclinic'
loop_
_space_group_symop_operation_xyz
x,y,z
-x,y,1/2-z
-x,-y,-z
x,-y,1/2+z
loop_
_atom_site_type_symbol
_atom_site_label
_atom_site_fract_x
_atom_site_fract_y
_atom_site_fract_z
Si Si1 0.889644 0.461416 0.749755
Si Si2 0.716806 0.164934 0.694077
Si Si3 0.551335 0.608408 0.031907
Si Si4 0.624477 0.077883 0.224013
Si Si5 0.055976 0.225917 0.494718
O O1 0.675910 0.536947 0.992847
O O2 0.000000 0.486634 0.750000
O O3 0.000000 0.500000 0.500000
O O4 0.882991 0.317718 0.745504
O O5 0.943740 0.173546 0.504340
O O6 0.688118 0.061287 0.629849
O O7 0.640738 0.296527 0.738922
O O8 0.551785 0.112305 0.977742
O O9 0.738511 0.693552 0.768643
O O10 0.500000 0.500000 0.000000
O O11 0.500000 0.123954 0.250000
O O12 0.843479 0.132878 0.027835
#
# Coordination Sequence:
#
# PCOD9231333 Si02
#       5
#     4   4   4   4   4
#     4  10  22  40  64  99 132 174 221 276 338 403
#     4  10  21  41  61  85 129 166 219 278 333 400
#     4  10  20  39  63  93 131 168 220 273 339 402
#     4  10  23  39  59  92 120 168 221 278 334 393
#     4  10  21  37  67  89 123 171 221 274 333 404
#
# _framework density 25.323460000000001
#
# number of rings (size 3 to 8) (size 9 to 14) (size 15 to 20)
#    0.000    2.000    2.000    0.600    2.800    0.000 
#    7.200    3.000    0.000    0.000    0.000    0.000 
#    0.000    0.000    0.000    0.000    0.000    0.000 
#
# Total GULP energy -111597.034464 kJ/mol
# GULP energy per Si atom -5579.851723 kJ/mol
# Density = 2.526582 g / cm^3
# Si number density = 25.323460 Si / 1000 Ang^3
#
#
#
# Elastic Constant Matrix: (Units=GPa)
#
#
# Indices 1 2 3 4 5 6 
#
# 1 154.7214 37.9612 23.0415 0.0000 -43.8939 0.0000
# 2 37.9612 110.4754 26.5160 0.0000 -34.9822 0.0000
# 3 23.0415 26.5160 75.6159 0.0000 -6.6809 0.0000
# 4 0.0000 0.0000 0.0000 12.7988 0.0000 -5.6514
# 5 -43.8939 -34.9822 -6.6809 0.0000 39.1990 0.0000
# 6 0.0000 0.0000 0.0000 -5.6514 0.0000 23.1952
#
#
#
# Elastic Compliance Matrix: (Units=1/GPa)
#
#
# Indices 1 2 3 4 5 6 
#
# 1 0.009813 0.000734 -0.002253 0.000000 0.011259 0.000000
# 2 0.000734 0.013645 -0.003919 0.000000 0.012331 0.000000
# 3 -0.002253 -0.003919 0.014979 0.000000 -0.003467 0.000000
# 4 0.000000 0.000000 0.000000 0.087552 0.000000 0.021331
# 5 0.011259 0.012331 -0.003467 0.000000 0.048532 0.000000
# 6 0.000000 0.000000 0.000000 0.021331 0.000000 0.048310
#
#
# Mechanical properties :
#
#
# Convention : Reuss Voigt Hill
#
# Bulk Modulus (GPa) = 36.28250 57.31669 46.79959
# Shear Modulus (GPa) = 20.58521 31.92486 26.25503
#
# Velocity S-wave (km/s) = 2.85422 3.55446 3.22341
# Velocity P-wave (km/s) = 5.02203 6.28717 5.68988
#
# Compressibility (1/GPa) = 0.02756150
#
# Stress axis : x y z
#
# Youngs Moduli (GPa) = 101.90736 73.28797 66.75954
#
# Poissons Ratio (x) = -0.05380 0.15039
# Poissons Ratio (y) = -0.07481 0.26163
# Poissons Ratio (z) = 0.22958 0.28721
#
# Static dielectric constant tensor:
#      x y z
#    x 1.994190 0.000000 0.032920 
#    y 0.000000 2.070040 0.000000 
#    z 0.032920 0.000000 2.042820 
# 
# From -- ./inp_files/33016.got.cif
#   From: 2010.05.17/outbox.cif.g08.bks.cpg/sg13_17_cif.got.tgz:33016.got - 2010.06.03 16:44:36.
