data_PCOD9231623
_publ_section_title
;
Structure prediction by ZEFSAII (Michael W. Deem and Ramdas Pophale) SiO2 
 PCOD9231623
Probable space group: P 2/C
;
_chemical_formula_sum "Si O2"
_cell_formula_units_Z 28
_cell_length_a 14.183626
_cell_length_b 8.906966
_cell_length_c 19.730613
_cell_angle_alpha 90.000000
_cell_angle_beta 150.584593
_cell_angle_gamma 90.000000
_cell_volume 1224.224843
_symmetry_space_group_name_H-M "P 2/C"
_symmetry_group_IT_number 13
_symmetry_cell_setting 'monoclinic'
loop_
_space_group_symop_operation_xyz
x,y,z
-x,y,1/2-z
-x,-y,-z
x,-y,1/2+z
loop_
_atom_site_type_symbol
_atom_site_label
_atom_site_fract_x
_atom_site_fract_y
_atom_site_fract_z
Si Si1 0.949014 0.091408 0.794247
Si Si2 0.600685 0.364689 0.019728
Si Si3 0.968077 0.579978 0.908716
Si Si4 0.625534 0.797055 0.897622
Si Si5 0.149414 0.390770 0.790534
Si Si6 0.372529 0.433709 0.604596
Si Si7 0.302800 0.841769 0.798311
O O1 0.000000 0.030613 0.750000
O O2 0.781602 0.223135 0.685736
O O3 0.153298 0.145534 0.956523
O O4 0.847951 0.970097 0.778913
O O5 0.792610 0.462433 0.130136
O O6 0.638580 0.229159 0.092489
O O7 0.500000 0.500000 0.000000
O O8 0.534456 0.351070 0.901793
O O9 0.892999 0.458246 0.808514
O O10 0.812429 0.711117 0.814236
O O11 0.166292 0.629740 0.997792
O O12 0.000000 0.500000 0.000000
O O13 0.500000 0.821783 0.750000
O O14 0.636727 0.614858 0.914708
O O15 0.494743 0.868520 0.875249
O O16 0.000000 0.324825 0.750000
O O17 0.500000 0.416034 0.750000
#
# Coordination Sequence:
#
# PCOD9231623 Si02
#       7
#     4   4   4   4   4   4   4
#     4  11  25  45  71  99 139 191 234 287 349 421
#     4  11  22  40  67 101 132 172 234 294 342 410
#     4  11  22  40  66 102 134 172 228 291 352 408
#     4  11  23  47  71 100 140 192 236 283 354 430
#     4  10  20  40  66  92 129 183 226 275 342 414
#     4  11  21  38  67  98 138 180 226 289 354 422
#     4  11  27  42  73 104 137 182 239 297 344 414
#
# _framework density 22.871614999999998
#
# number of rings (size 3 to 8) (size 9 to 14) (size 15 to 20)
#    0.000    1.143    4.286    2.571    4.000    1.143 
#    0.000    0.714    0.000    0.000    0.000    0.000 
#    0.000    0.000    0.000    0.000    0.000    0.000 
#
# Total GULP energy -155876.463322 kJ/mol
# GULP energy per Si atom -5567.016547 kJ/mol
# Density = 2.281956 g / cm^3
# Si number density = 22.871615 Si / 1000 Ang^3
#
#
#
# Elastic Constant Matrix: (Units=GPa)
#
#
# Indices 1 2 3 4 5 6 
#
# 1 41.0199 -12.6759 -6.7488 0.0000 -20.7074 0.0000
# 2 -12.6759 35.4159 -0.6378 0.0000 -4.0227 0.0000
# 3 -6.7488 -0.6378 78.4077 0.0000 -8.8913 0.0000
# 4 0.0000 0.0000 0.0000 21.3142 0.0000 3.9321
# 5 -20.7074 -4.0227 -8.8913 0.0000 56.6182 0.0000
# 6 0.0000 0.0000 0.0000 3.9321 0.0000 3.3375
#
#
#
# Elastic Compliance Matrix: (Units=1/GPa)
#
#
# Indices 1 2 3 4 5 6 
#
# 1 0.038003 0.015492 0.005190 0.000000 0.015815 0.000000
# 2 0.015492 0.034798 0.002585 0.000000 0.008544 0.000000
# 3 0.005190 0.002585 0.013702 0.000000 0.004234 0.000000
# 4 0.000000 0.000000 0.000000 0.059946 0.000000 -0.070626
# 5 0.015815 0.008544 0.004234 0.000000 0.024718 0.000000
# 6 0.000000 0.000000 0.000000 -0.070626 0.000000 0.382837
#
#
# Mechanical properties :
#
#
# Convention : Reuss Voigt Hill
#
# Bulk Modulus (GPa) = 7.51664 12.74649 10.13157
# Shear Modulus (GPa) = 9.06101 27.91438 18.48770
#
# Velocity S-wave (km/s) = 1.99256 3.49733 2.84619
# Velocity P-wave (km/s) = 2.93041 4.67906 3.90390
#
# Compressibility (1/GPa) = 0.13303815
#
# Stress axis : x y z
#
# Youngs Moduli (GPa) = 26.31352 28.73747 72.98339
#
# Poissons Ratio (x) = -0.44520 -0.37882
# Poissons Ratio (y) = -0.40764 -0.18869
# Poissons Ratio (z) = -0.13658 -0.07430
#
# Static dielectric constant tensor:
#      x y z
#    x 2.917520 0.000000 -0.090100 
#    y 0.000000 1.736930 0.000000 
#    z -0.090100 0.000000 2.142620 
# 
# From -- ./inp_files/80028.got.cif
#   From: 2010.05.17/outbox.cif.g08.bks.cpg/sg13_41_cif.got.tgz:80028.got - 2010.06.03 16:44:36.
