data_PCOD9231136
_publ_section_title
;
Structure prediction by ZEFSAII (Michael W. Deem and Ramdas Pophale) SiO2 
 PCOD9231136
Probable space group: P 2/C
;
_chemical_formula_sum "Si O2"
_cell_formula_units_Z 32
_cell_length_a 17.883129
_cell_length_b 14.425247
_cell_length_c 11.860809
_cell_angle_alpha 90.000000
_cell_angle_beta 149.421283
_cell_angle_gamma 90.000000
_cell_volume 1556.543639
_symmetry_space_group_name_H-M "P 2/C"
_symmetry_group_IT_number 13
_symmetry_cell_setting 'monoclinic'
loop_
_space_group_symop_operation_xyz
x,y,z
-x,y,1/2-z
-x,-y,-z
x,-y,1/2+z
loop_
_atom_site_type_symbol
_atom_site_label
_atom_site_fract_x
_atom_site_fract_y
_atom_site_fract_z
Si Si1 0.160233 0.811833 0.514147
Si Si2 0.734062 0.335230 0.189070
Si Si3 0.854284 0.222896 0.133484
Si Si4 0.610446 0.338996 0.717534
Si Si5 0.850592 0.945925 0.785136
Si Si6 0.349727 0.684038 0.487352
Si Si7 0.327219 0.120206 0.015021
Si Si8 0.322721 0.498229 0.526893
O O1 0.211711 0.710754 0.625138
O O2 0.169496 0.878197 0.634926
O O3 0.264177 0.857390 0.556275
O O4 0.000000 0.807935 0.250000
O O5 0.826776 0.284217 0.210830
O O6 0.555861 0.320826 0.954904
O O7 0.741600 0.442800 0.164147
O O8 0.857089 0.118201 0.182391
O O9 0.000000 0.243615 0.250000
O O10 0.711616 0.250873 0.876384
O O11 0.610745 0.353636 0.584620
O O12 0.684766 0.427669 0.877074
O O13 0.733108 0.026732 0.616855
O O14 0.000000 0.000000 0.000000
O O15 0.279731 0.785722 0.387002
O O16 0.264958 0.603194 0.445149
O O17 0.500000 0.701414 0.750000
O O18 0.500000 0.110152 0.250000
O O19 0.500000 0.509245 0.750000
#
# Coordination Sequence:
#
# PCOD9231136 Si02
#       8
#     4   4   4   4   4   4   4   4
#     4  11  23  41  63  88 127 168 206 259 328 378
#     4   9  19  38  62  95 123 162 214 260 308 378
#     4  10  23  38  64  91 119 164 212 262 316 382
#     4  10  20  38  65  93 130 168 209 262 317 366
#     4  11  25  42  64  90 120 166 218 256 313 396
#     4  10  21  35  59  98 132 164 210 263 317 371
#     4  11  25  41  62  95 126 158 213 270 318 368
#     4   8  17  34  59  92 129 163 208 254 308 376
#
# _framework density 20.558368999999999
#
# number of rings (size 3 to 8) (size 9 to 14) (size 15 to 20)
#    0.000    2.000    1.250    2.625    3.500    8.000 
#    0.000    0.000    0.000   10.500    0.000    0.000 
#    0.000    0.000    0.000    0.000    0.000    0.000 
#
# Total GULP energy -178305.838306 kJ/mol
# GULP energy per Si atom -5572.057447 kJ/mol
# Density = 2.051158 g / cm^3
# Si number density = 20.558369 Si / 1000 Ang^3
#
#
#
# Elastic Constant Matrix: (Units=GPa)
#
#
# Indices 1 2 3 4 5 6 
#
# 1 95.1059 20.8340 38.6527 0.0000 0.7265 0.0000
# 2 20.8340 113.5853 42.7687 0.0000 1.6499 0.0000
# 3 38.6527 42.7687 87.2219 0.0000 0.7339 0.0000
# 4 0.0000 0.0000 0.0000 -152.3370 0.0000 -13.2859
# 5 0.7265 1.6499 0.7339 0.0000 34.0339 0.0000
# 6 0.0000 0.0000 0.0000 -13.2859 0.0000 23.9619
#
#
#
# Elastic Compliance Matrix: (Units=1/GPa)
#
#
# Indices 1 2 3 4 5 6 
#
# 1 0.012831 -0.000259 -0.005558 0.000000 -0.000142 0.000000
# 2 -0.000259 0.010808 -0.005182 0.000000 -0.000407 0.000000
# 3 -0.005558 -0.005182 0.016469 0.000000 0.000015 0.000000
# 4 0.000000 0.000000 0.000000 -0.006262 0.000000 -0.003472
# 5 -0.000142 -0.000407 0.000015 0.000000 0.029405 0.000000
# 6 0.000000 0.000000 0.000000 -0.003472 0.000000 0.039808
#
#
# Mechanical properties :
#
#
# Convention : Reuss Voigt Hill
#
# Bulk Modulus (GPa) = 55.21416 55.60266 55.40841
# Shear Modulus (GPa) = 38.14049 -5.95774 16.09138
#
# Velocity S-wave (km/s) = 4.31191 -1.70419 2.80074
# Velocity P-wave (km/s) = 7.19067 4.82002 6.12120
#
# Compressibility (1/GPa) = 0.01811130
#
# Stress axis : x y z
#
# Youngs Moduli (GPa) = 77.93450 92.52033 60.72043
#
# Poissons Ratio (x) = 0.02393 0.33750
# Poissons Ratio (y) = 0.02016 0.31464
# Poissons Ratio (z) = 0.43318 0.47942
#
# Static dielectric constant tensor:
#      x y z
#    x 1.988180 0.000000 -0.217860 
#    y 0.000000 1.840040 0.000000 
#    z -0.217860 0.000000 2.226710 
# 
# From -- ./inp_files/39501.got.cif
#   From: 2010.05.17/outbox.cif.g08.bks.cpg/sg13_20_cif.got.tgz:39501.got - 2010.06.03 16:44:36.
