data_PCOD9231781
_publ_section_title
;
Structure prediction by ZEFSAII (Michael W. Deem and Ramdas Pophale) SiO2 
 PCOD9231781
Probable space group: P 2/C
;
_chemical_formula_sum "Si O2"
_cell_formula_units_Z 24
_cell_length_a 13.937090
_cell_length_b 6.075044
_cell_length_c 15.072883
_cell_angle_alpha 90.000000
_cell_angle_beta 64.330169
_cell_angle_gamma 90.000000
_cell_volume 1150.243415
_symmetry_space_group_name_H-M "P 2/C"
_symmetry_group_IT_number 13
_symmetry_cell_setting 'monoclinic'
loop_
_space_group_symop_operation_xyz
x,y,z
-x,y,1/2-z
-x,-y,-z
x,-y,1/2+z
loop_
_atom_site_type_symbol
_atom_site_label
_atom_site_fract_x
_atom_site_fract_y
_atom_site_fract_z
Si Si1 0.326858 0.513382 0.093645
Si Si2 0.932428 0.561691 0.113247
Si Si3 0.000000 0.845555 0.250000
Si Si4 0.521114 0.803608 0.561912
Si Si5 0.500000 0.067259 0.750000
Si Si6 0.174809 0.810936 0.726018
Si Si7 0.721902 0.809515 0.217791
O O1 0.428386 0.373177 0.084430
O O2 0.232743 0.335050 0.127742
O O3 0.292311 0.671544 0.186837
O O4 0.368685 0.672440 0.999510
O O5 0.995836 0.701428 0.162372
O O6 0.893062 0.347091 0.182838
O O7 0.826930 0.706010 0.131024
O O8 0.000000 0.500000 0.000000
O O9 0.898146 0.003323 0.287794
O O10 0.500000 0.000000 0.500000
O O11 0.513349 0.915453 0.659338
O O12 0.390454 0.203630 0.786835
O O13 0.255959 0.941518 0.758238
#
# Coordination Sequence:
#
# PCOD9231781 Si02
#       7
#     4   4   2   4   2   4   4
#     4  10  20  41  67  89 131 178 224 279 335 394
#     4  10  23  45  71 101 138 177 232 288 347 407
#     4  10  22  40  74  98 134 186 218 292 350 398
#     4  11  22  40  64  95 133 182 223 282 323 409
#     4  12  22  42  66  94 146 186 228 274 358 398
#     4  10  20  43  66  96 134 175 224 289 334 409
#     4  10  22  41  67  94 137 178 223 287 333 411
#
# _framework density 20.865148999999999
#
# number of rings (size 3 to 8) (size 9 to 14) (size 15 to 20)
#    0.000    1.667    3.333    0.500    0.000    3.333 
#    0.000   21.667    0.000    0.000    0.000    0.000 
#    0.000    0.000    0.000    0.000    0.000    0.000 
#
# Total GULP energy -134004.274741 kJ/mol
# GULP energy per Si atom -5583.511448 kJ/mol
# Density = 2.081766 g / cm^3
# Si number density = 20.865149 Si / 1000 Ang^3
#
#
#
# Elastic Constant Matrix: (Units=GPa)
#
#
# Indices 1 2 3 4 5 6 
#
# 1 109.3902 39.2965 50.1515 0.0000 -10.3646 0.0000
# 2 39.2965 106.5750 56.1120 0.0000 -9.7239 0.0000
# 3 50.1515 56.1120 149.7838 0.0000 -17.0234 0.0000
# 4 0.0000 0.0000 0.0000 17.6682 0.0000 -15.8660
# 5 -10.3646 -9.7239 -17.0234 0.0000 29.7954 0.0000
# 6 0.0000 0.0000 0.0000 -15.8660 0.0000 37.7906
#
#
#
# Elastic Compliance Matrix: (Units=1/GPa)
#
#
# Indices 1 2 3 4 5 6 
#
# 1 0.011475 -0.002688 -0.002653 0.000000 0.001598 0.000000
# 2 -0.002688 0.012373 -0.003617 0.000000 0.001036 0.000000
# 3 -0.002653 -0.003617 0.009284 0.000000 0.003201 0.000000
# 4 0.000000 0.000000 0.000000 0.090851 0.000000 0.038143
# 5 0.001598 0.001036 0.003201 0.000000 0.036285 0.000000
# 6 0.000000 0.000000 0.000000 0.038143 0.000000 0.042476
#
#
# Mechanical properties :
#
#
# Convention : Reuss Voigt Hill
#
# Bulk Modulus (GPa) = 65.72919 72.98544 69.35732
# Shear Modulus (GPa) = 22.14999 31.73009 26.94004
#
# Velocity S-wave (km/s) = 3.26172 3.90387 3.59716
# Velocity P-wave (km/s) = 6.76427 7.44149 7.11095
#
# Compressibility (1/GPa) = 0.01521394
#
# Stress axis : x y z
#
# Youngs Moduli (GPa) = 87.14386 80.81829 107.71597
#
# Poissons Ratio (x) = 0.21726 0.28582
# Poissons Ratio (y) = 0.23427 0.38966
# Poissons Ratio (z) = 0.23123 0.29236
#
# Static dielectric constant tensor:
#      x y z
#    x 1.831500 0.000000 -0.059540 
#    y 0.000000 1.817040 0.000000 
#    z -0.059540 0.000000 1.734480 
# 
# From -- ./inp_files/52142.got.cif
#   From: 2010.05.17/outbox.cif.g08.bks.cpg/sg13_27_cif.got.tgz:52142.got - 2010.06.03 16:44:36.
