data_PCOD9231209
_publ_section_title
;
Structure prediction by ZEFSAII (Michael W. Deem and Ramdas Pophale) SiO2 
 PCOD9231209
Probable space group: P 2/C
;
_chemical_formula_sum "Si O2"
_cell_formula_units_Z 26
_cell_length_a 20.937743
_cell_length_b 9.512070
_cell_length_c 8.938036
_cell_angle_alpha 90.000000
_cell_angle_beta 43.874482
_cell_angle_gamma 90.000000
_cell_volume 1233.760604
_symmetry_space_group_name_H-M "P 2/C"
_symmetry_group_IT_number 13
_symmetry_cell_setting 'monoclinic'
loop_
_space_group_symop_operation_xyz
x,y,z
-x,y,1/2-z
-x,-y,-z
x,-y,1/2+z
loop_
_atom_site_type_symbol
_atom_site_label
_atom_site_fract_x
_atom_site_fract_y
_atom_site_fract_z
Si Si1 0.167938 0.898997 0.536150
Si Si2 0.581803 0.296801 0.192097
Si Si3 0.739702 0.646261 0.954058
Si Si4 0.099406 0.559802 0.371681
Si Si5 0.000000 0.249394 0.250000
Si Si6 0.628068 0.456544 0.381898
Si Si7 0.212016 0.179445 0.621343
O O1 0.234124 0.792114 0.513735
O O2 0.183474 0.878864 0.332988
O O3 0.061709 0.852110 0.749324
O O4 0.190948 0.056620 0.542087
O O5 0.500000 0.210170 0.250000
O O6 0.560859 0.367121 0.388717
O O7 0.594455 0.423459 0.051728
O O8 0.680796 0.223492 0.047030
O O9 0.830588 0.567087 0.742639
O O10 0.676843 0.651986 0.912899
O O11 0.693767 0.542768 0.155877
O O12 0.149300 0.683097 0.192927
O O13 0.000000 0.500000 0.500000
O O14 0.077912 0.643657 0.559715
#
# Coordination Sequence:
#
# PCOD9231209 Si02
#       7
#     4   4   4   4   2   4   4
#     4  11  24  42  63  86 134 173 213 264 310 386
#     4  11  22  41  68  99 130 162 211 270 325 387
#     4  11  20  39  65  95 129 167 212 263 318 377
#     4  11  21  37  65  91 125 165 213 266 312 366
#     4  10  22  42  58  94 130 166 220 268 310 366
#     4  10  20  38  69  96 128 164 207 265 330 377
#     4  11  25  43  64  90 130 173 211 263 324 376
#
# _framework density 21.073781
#
# number of rings (size 3 to 8) (size 9 to 14) (size 15 to 20)
#    0.000    1.231    6.154    1.385    2.154    2.462 
#    0.000    0.769    0.000    0.000    0.000    0.000 
#    0.000    0.000    0.000    0.000    0.000    0.000 
#
# Total GULP energy -144956.363009 kJ/mol
# GULP energy per Si atom -5575.244731 kJ/mol
# Density = 2.102582 g / cm^3
# Si number density = 21.073781 Si / 1000 Ang^3
#
#
#
# Elastic Constant Matrix: (Units=GPa)
#
#
# Indices 1 2 3 4 5 6 
#
# 1 117.1186 26.4828 9.7074 0.0000 6.3762 0.0000
# 2 26.4828 76.5654 0.0569 0.0000 -3.8884 0.0000
# 3 9.7074 0.0569 45.7418 0.0000 4.9513 0.0000
# 4 0.0000 0.0000 0.0000 19.2015 0.0000 7.3172
# 5 6.3762 -3.8884 4.9513 0.0000 30.3017 0.0000
# 6 0.0000 0.0000 0.0000 7.3172 0.0000 35.3457
#
#
#
# Elastic Compliance Matrix: (Units=1/GPa)
#
#
# Indices 1 2 3 4 5 6 
#
# 1 0.009578 -0.003421 -0.001795 0.000000 -0.002161 0.000000
# 2 -0.003421 0.014370 0.000438 0.000000 0.002492 0.000000
# 3 -0.001795 0.000438 0.022595 0.000000 -0.003258 0.000000
# 4 0.000000 0.000000 0.000000 0.056539 0.000000 -0.011705
# 5 -0.002161 0.002492 -0.003258 0.000000 0.034308 0.000000
# 6 0.000000 0.000000 0.000000 -0.011705 0.000000 0.030715
#
#
# Mechanical properties :
#
#
# Convention : Reuss Voigt Hill
#
# Bulk Modulus (GPa) = 27.03542 34.65780 30.84661
# Shear Modulus (GPa) = 26.31700 30.51502 28.41601
#
# Velocity S-wave (km/s) = 3.53767 3.80940 3.67605
# Velocity P-wave (km/s) = 5.43541 5.98584 5.71725
#
# Compressibility (1/GPa) = 0.03698851
#
# Stress axis : x y z
#
# Youngs Moduli (GPa) = 104.40129 69.58747 44.25798
#
# Poissons Ratio (x) = 0.23809 0.07942
# Poissons Ratio (y) = 0.35721 -0.01940
# Poissons Ratio (z) = 0.18735 -0.03051
#
# Static dielectric constant tensor:
#      x y z
#    x 1.836640 0.000000 -0.042130 
#    y 0.000000 1.753400 0.000000 
#    z -0.042130 0.000000 1.858540 
# 
# From -- ./inp_files/22940.got.cif
#   From: 2010.05.17/outbox.cif.g08.bks.cpg/sg13_12_cif.got.tgz:22940.got - 2010.06.03 16:44:36.
