data_PCOD9231591
_publ_section_title
;
Structure prediction by ZEFSAII (Michael W. Deem and Ramdas Pophale) SiO2 
 PCOD9231591
Probable space group: P 2/C
;
_chemical_formula_sum "Si O2"
_cell_formula_units_Z 32
_cell_length_a 22.494646
_cell_length_b 14.954046
_cell_length_c 15.379078
_cell_angle_alpha 90.000000
_cell_angle_beta 16.754527
_cell_angle_gamma 90.000000
_cell_volume 1491.318909
_symmetry_space_group_name_H-M "P 2/C"
_symmetry_group_IT_number 13
_symmetry_cell_setting 'monoclinic'
loop_
_space_group_symop_operation_xyz
x,y,z
-x,y,1/2-z
-x,-y,-z
x,-y,1/2+z
loop_
_atom_site_type_symbol
_atom_site_label
_atom_site_fract_x
_atom_site_fract_y
_atom_site_fract_z
Si Si1 0.210680 0.508106 0.321434
Si Si2 0.443211 0.203411 0.037160
Si Si3 0.262286 0.273131 0.552304
Si Si4 0.822172 0.097847 0.427930
Si Si5 0.914815 0.629704 0.652094
Si Si6 0.789519 0.893352 0.488646
Si Si7 0.622217 0.383724 0.271663
Si Si8 0.273258 0.192315 0.093261
O O1 0.179638 0.439446 0.284978
O O2 0.239663 0.452383 0.368109
O O3 0.015631 0.573847 0.588618
O O4 0.421205 0.564971 0.017546
O O5 0.382676 0.144262 0.204692
O O6 0.448400 0.305081 0.063316
O O7 0.275077 0.193710 0.195008
O O8 0.652924 0.165201 0.704259
O O9 0.205821 0.173812 0.599247
O O10 0.255610 0.336301 0.476709
O O11 0.500000 0.273523 0.250000
O O12 0.103340 0.315037 0.843289
O O13 0.879599 0.133903 0.251418
O O14 0.747825 0.995795 0.523439
O O15 0.000000 0.097048 0.250000
O O16 0.752405 0.705744 0.902348
O O17 0.000000 0.887860 0.250000
O O18 0.500000 0.157649 0.750000
#
# Coordination Sequence:
#
# PCOD9231591 Si02
#       8
#     4   4   4   4   4   4   4   4
#     4  10  22  39  62  85 125 156 208 249 295 360
#     4  10  20  40  65  85 124 165 192 251 308 353
#     4  11  23  39  62  93 124 157 199 252 305 361
#     4  10  23  40  61  94 123 155 209 244 292 369
#     4  11  22  42  61  92 124 162 201 250 303 358
#     4  10  22  40  64  92 121 155 202 250 300 363
#     4  10  21  41  62  91 123 160 203 254 299 355
#     4  10  22  41  62  87 125 163 201 246 302 361
#
# _framework density 21.457515999999998
#
# number of rings (size 3 to 8) (size 9 to 14) (size 15 to 20)
#    0.000    1.750    2.500    1.125    3.500    1.500 
#    4.500    8.125    0.000    0.000    0.000    0.000 
#    0.000    0.000    0.000    0.000    0.000    0.000 
#
# Total GULP energy -178737.428251 kJ/mol
# GULP energy per Si atom -5585.544633 kJ/mol
# Density = 2.140868 g / cm^3
# Si number density = 21.457516 Si / 1000 Ang^3
#
#
#
# Elastic Constant Matrix: (Units=GPa)
#
#
# Indices 1 2 3 4 5 6 
#
# 1 79.1717 52.6637 16.6897 0.0000 -24.2851 0.0000
# 2 52.6637 118.3533 15.0946 0.0000 -5.3720 0.0000
# 3 16.6897 15.0946 45.3948 0.0000 -5.0196 0.0000
# 4 0.0000 0.0000 0.0000 22.6949 0.0000 -7.6726
# 5 -24.2851 -5.3720 -5.0196 0.0000 24.5883 0.0000
# 6 0.0000 0.0000 0.0000 -7.6726 0.0000 35.1968
#
#
#
# Elastic Compliance Matrix: (Units=1/GPa)
#
#
# Indices 1 2 3 4 5 6 
#
# 1 0.028423 -0.011004 -0.004044 0.000000 0.024843 0.000000
# 2 -0.011004 0.013128 -0.001232 0.000000 -0.008252 0.000000
# 3 -0.004044 -0.001232 0.023996 0.000000 0.000635 0.000000
# 4 0.000000 0.000000 0.000000 0.047568 0.000000 0.010370
# 5 0.024843 -0.008252 0.000635 0.000000 0.063534 0.000000
# 6 0.000000 0.000000 0.000000 0.010370 0.000000 0.030672
#
#
# Mechanical properties :
#
#
# Convention : Reuss Voigt Hill
#
# Bulk Modulus (GPa) = 30.31487 45.75732 38.03609
# Shear Modulus (GPa) = 19.93001 27.06079 23.49540
#
# Velocity S-wave (km/s) = 3.05095 3.55510 3.31263
# Velocity P-wave (km/s) = 5.15457 6.18244 5.69175
#
# Compressibility (1/GPa) = 0.03298711
#
# Stress axis : x y z
#
# Youngs Moduli (GPa) = 35.18217 76.17059 41.67415
#
# Poissons Ratio (x) = 0.83820 0.16853
# Poissons Ratio (y) = 0.38715 0.05135
# Poissons Ratio (z) = 0.14227 0.09385
#
# Static dielectric constant tensor:
#      x y z
#    x 1.818740 0.000000 0.002910 
#    y 0.000000 1.759930 0.000000 
#    z 0.002910 0.000000 1.802380 
# 
# From -- ./inp_files/57867.got.cif
#   From: 2010.05.17/outbox.cif.g08.bks.cpg/sg13_29_cif.got.tgz:57867.got - 2010.06.03 16:44:36.
