data_PCOD9231504
_publ_section_title
;
Structure prediction by ZEFSAII (Michael W. Deem and Ramdas Pophale) SiO2 
 PCOD9231504
Probable space group: P 2/C
;
_chemical_formula_sum "Si O2"
_cell_formula_units_Z 20
_cell_length_a 11.801829
_cell_length_b 7.898240
_cell_length_c 10.388268
_cell_angle_alpha 90.000000
_cell_angle_beta 77.393278
_cell_angle_gamma 90.000000
_cell_volume 944.983389
_symmetry_space_group_name_H-M "P 2/C"
_symmetry_group_IT_number 13
_symmetry_cell_setting 'monoclinic'
loop_
_space_group_symop_operation_xyz
x,y,z
-x,y,1/2-z
-x,-y,-z
x,-y,1/2+z
loop_
_atom_site_type_symbol
_atom_site_label
_atom_site_fract_x
_atom_site_fract_y
_atom_site_fract_z
Si Si1 0.595898 0.344709 0.117609
Si Si2 0.229199 0.125158 0.063652
Si Si3 0.031163 0.618566 0.608970
Si Si4 0.818965 0.864732 0.640599
Si Si5 0.462285 0.738760 0.400057
O O1 0.500000 0.294660 0.250000
O O2 0.719956 0.272824 0.128892
O O3 0.587519 0.548443 0.110846
O O4 0.561192 0.277580 0.984418
O O5 0.159741 0.303810 0.077136
O O6 0.217353 0.060254 0.212113
O O7 0.360747 0.152161 0.987921
O O8 0.175100 0.000568 0.973049
O O9 0.000000 0.526684 0.750000
O O10 0.000000 0.500000 0.500000
O O11 0.942117 0.775227 0.626771
O O12 0.500000 0.802914 0.250000
#
# Coordination Sequence:
#
# PCOD9231504 Si02
#       5
#     4   4   4   4   4
#     4  10  20  40  61  86 123 158 202 254 295 349
#     4  11  24  41  60  90 125 159 200 246 300 359
#     4  10  23  44  67  91 119 154 201 250 298 357
#     4  11  24  40  62  89 125 160 197 248 300 357
#     4  10  22  38  63  89 119 161 206 248 299 352
#
# _framework density 21.164393
#
# number of rings (size 3 to 8) (size 9 to 14) (size 15 to 20)
#    0.000    1.600    2.000    1.800    2.800    3.200 
#    0.000    0.000    0.000    0.000    0.000    0.000 
#    0.000    0.000    0.000    0.000    0.000    0.000 
#
# Total GULP energy -111815.394042 kJ/mol
# GULP energy per Si atom -5590.769702 kJ/mol
# Density = 2.111622 g / cm^3
# Si number density = 21.164393 Si / 1000 Ang^3
#
#
#
# Elastic Constant Matrix: (Units=GPa)
#
#
# Indices 1 2 3 4 5 6 
#
# 1 54.3876 -10.5521 17.8744 0.0000 -4.4094 0.0000
# 2 -10.5521 18.9473 32.1649 0.0000 1.4551 0.0000
# 3 17.8744 32.1649 179.6781 0.0000 16.4296 0.0000
# 4 0.0000 0.0000 0.0000 27.6276 0.0000 15.4162
# 5 -4.4094 1.4551 16.4296 0.0000 33.4094 0.0000
# 6 0.0000 0.0000 0.0000 15.4162 0.0000 24.5791
#
#
#
# Elastic Compliance Matrix: (Units=1/GPa)
#
#
# Indices 1 2 3 4 5 6 
#
# 1 0.027431 0.029341 -0.008581 0.000000 0.006563 0.000000
# 2 0.029341 0.107602 -0.023148 0.000000 0.010569 0.000000
# 3 -0.008581 -0.023148 0.011072 0.000000 -0.005569 0.000000
# 4 0.000000 0.000000 0.000000 0.055684 0.000000 -0.034926
# 5 0.006563 0.010569 -0.005569 0.000000 0.033076 0.000000
# 6 0.000000 0.000000 0.000000 -0.034926 0.000000 0.062591
#
#
# Mechanical properties :
#
#
# Convention : Reuss Voigt Hill
#
# Bulk Modulus (GPa) = 7.07565 36.88749 21.98157
# Shear Modulus (GPa) = 14.31258 31.35827 22.83542
#
# Velocity S-wave (km/s) = 2.60332 3.85340 3.28831
# Velocity P-wave (km/s) = 3.51949 6.10452 4.98256
#
# Compressibility (1/GPa) = 0.14132972
#
# Stress axis : x y z
#
# Youngs Moduli (GPa) = 36.45447 9.29349 90.31640
#
# Poissons Ratio (x) = -0.27268 0.77504
# Poissons Ratio (y) = -1.06961 2.09061
# Poissons Ratio (z) = 0.31283 0.21512
#
# Static dielectric constant tensor:
#      x y z
#    x 1.744550 0.000000 0.008910 
#    y 0.000000 1.756260 0.000000 
#    z 0.008910 0.000000 1.793860 
# 
# From -- ./inp_files/14801.got.cif
#   From: 2010.05.17/outbox.cif.g08.bks.cpg/sg13_8_cif.got.tgz:14801.got - 2010.06.03 16:44:36.
