data_PCOD9231284
_publ_section_title
;
Structure prediction by ZEFSAII (Michael W. Deem and Ramdas Pophale) SiO2 
 PCOD9231284
Probable space group: P 2/C
;
_chemical_formula_sum "Si O2"
_cell_formula_units_Z 32
_cell_length_a 29.230084
_cell_length_b 12.053550
_cell_length_c 8.947924
_cell_angle_alpha 90.000000
_cell_angle_beta 30.906344
_cell_angle_gamma 90.000000
_cell_volume 1619.283895
_symmetry_space_group_name_H-M "P 2/C"
_symmetry_group_IT_number 13
_symmetry_cell_setting 'monoclinic'
loop_
_space_group_symop_operation_xyz
x,y,z
-x,y,1/2-z
-x,-y,-z
x,-y,1/2+z
loop_
_atom_site_type_symbol
_atom_site_label
_atom_site_fract_x
_atom_site_fract_y
_atom_site_fract_z
Si Si1 0.408828 0.781407 0.441929
Si Si2 0.737259 0.393339 0.551655
Si Si3 0.405728 0.790778 0.094356
Si Si4 0.916394 0.784467 0.283311
Si Si5 0.820978 0.990614 0.062015
Si Si6 0.693353 0.019602 0.182600
Si Si7 0.760608 0.632731 0.630042
Si Si8 0.884194 0.766319 0.730343
O O1 0.500000 0.731950 0.250000
O O2 0.420310 0.796818 0.231808
O O3 0.385174 0.890708 0.607213
O O4 0.321558 0.706202 0.695623
O O5 0.645875 0.321272 0.813404
O O6 0.748401 0.518131 0.577103
O O7 0.755349 0.391069 0.322760
O O8 0.809283 0.326866 0.450176
O O9 0.343660 0.895906 0.228731
O O10 0.500000 0.799725 0.750000
O O11 0.849971 0.708262 0.372418
O O12 0.897403 0.772314 0.514116
O O13 0.895142 0.915508 0.327692
O O14 0.018283 0.749776 0.972932
O O15 0.783052 0.965167 0.332663
O O16 0.730374 0.037970 0.244673
O O17 0.848382 0.879502 0.901340
#
# Coordination Sequence:
#
# PCOD9231284 Si02
#       8
#     4   4   4   4   4   4   4   4
#     4  11  25  41  61  90 121 157 198 247 298 353
#     4  10  22  42  62  86 117 159 200 248 299 350
#     4  11  24  41  61  89 123 157 196 244 301 358
#     4  10  20  39  61  89 124 159 196 248 297 352
#     4  12  20  38  63  90 124 163 197 238 297 358
#     4  12  22  38  64  89 125 161 196 241 296 357
#     4  10  22  42  63  84 120 156 200 251 299 349
#     4  10  21  37  63  90 121 161 199 241 302 352
#
# _framework density 19.761823
#
# number of rings (size 3 to 8) (size 9 to 14) (size 15 to 20)
#    0.000    1.250    5.000    1.500    1.750    4.000 
#    0.000    2.500    0.000    0.000    0.000    0.000 
#    0.000    0.000    0.000    0.000    0.000    0.000 
#
# Total GULP energy -178318.817682 kJ/mol
# GULP energy per Si atom -5572.463053 kJ/mol
# Density = 1.971684 g / cm^3
# Si number density = 19.761823 Si / 1000 Ang^3
#
#
#
# Elastic Constant Matrix: (Units=GPa)
#
#
# Indices 1 2 3 4 5 6 
#
# 1 85.3268 25.4284 15.8723 0.0000 -42.1069 0.0000
# 2 25.4284 91.1609 19.9306 0.0000 -0.4616 0.0000
# 3 15.8723 19.9306 65.3266 0.0000 -7.8027 0.0000
# 4 0.0000 0.0000 0.0000 6.0637 0.0000 3.9883
# 5 -42.1069 -0.4616 -7.8027 0.0000 46.1879 0.0000
# 6 0.0000 0.0000 0.0000 3.9883 0.0000 24.8137
#
#
#
# Elastic Compliance Matrix: (Units=1/GPa)
#
#
# Indices 1 2 3 4 5 6 
#
# 1 0.025065 -0.006573 -0.001391 0.000000 0.022550 0.000000
# 2 -0.006573 0.013489 -0.003284 0.000000 -0.006412 0.000000
# 3 -0.001391 -0.003284 0.016832 0.000000 0.001542 0.000000
# 4 0.000000 0.000000 0.000000 0.184410 0.000000 -0.029640
# 5 0.022550 -0.006412 0.001542 0.000000 0.042404 0.000000
# 6 0.000000 0.000000 0.000000 -0.029640 0.000000 0.045064
#
#
# Mechanical properties :
#
#
# Convention : Reuss Voigt Hill
#
# Bulk Modulus (GPa) = 30.40577 40.47521 35.44049
# Shear Modulus (GPa) = 13.86099 27.45194 20.65646
#
# Velocity S-wave (km/s) = 2.65127 3.73116 3.23657
# Velocity P-wave (km/s) = 4.97914 6.25204 5.65154
#
# Compressibility (1/GPa) = 0.03288849
#
# Stress axis : x y z
#
# Youngs Moduli (GPa) = 39.89602 74.13608 59.41106
#
# Poissons Ratio (x) = 0.48732 0.08265
# Poissons Ratio (y) = 0.26225 0.19511
# Poissons Ratio (z) = 0.05550 0.24347
#
# Static dielectric constant tensor:
#      x y z
#    x 1.765300 0.000000 -0.021830 
#    y 0.000000 1.706710 0.000000 
#    z -0.021830 0.000000 1.693450 
# 
# From -- ./inp_files/24945.got.cif
#   From: 2010.05.17/outbox.cif.g08.bks.cpg/sg13_13_cif.got.tgz:24945.got - 2010.06.03 16:44:36.
