data_PCOD9231385
_publ_section_title
;
Structure prediction by ZEFSAII (Michael W. Deem and Ramdas Pophale) SiO2 
 PCOD9231385
Probable space group: P 2/C
;
_chemical_formula_sum "Si O2"
_cell_formula_units_Z 28
_cell_length_a 5.257344
_cell_length_b 8.753938
_cell_length_c 29.858278
_cell_angle_alpha 90.000000
_cell_angle_beta 64.740618
_cell_angle_gamma 90.000000
_cell_volume 1242.762401
_symmetry_space_group_name_H-M "P 2/C"
_symmetry_group_IT_number 13
_symmetry_cell_setting 'monoclinic'
loop_
_space_group_symop_operation_xyz
x,y,z
-x,y,1/2-z
-x,-y,-z
x,-y,1/2+z
loop_
_atom_site_type_symbol
_atom_site_label
_atom_site_fract_x
_atom_site_fract_y
_atom_site_fract_z
Si Si1 0.622562 0.716258 0.959262
Si Si2 0.124647 0.532438 0.883432
Si Si3 0.667035 0.423905 0.550248
Si Si4 0.000000 0.828829 0.250000
Si Si5 0.500000 0.965039 0.750000
Si Si6 0.140699 0.957824 0.609158
Si Si7 0.151182 0.294879 0.646436
Si Si8 0.541364 0.821720 0.651334
O O1 0.376076 0.598078 0.964493
O O2 0.633795 0.892760 0.944131
O O3 0.869608 0.650084 0.908711
O O4 0.685550 0.685167 0.006374
O O5 0.089455 0.434381 0.931629
O O6 0.393044 0.643288 0.861188
O O7 0.096730 0.415067 0.845330
O O8 0.416351 0.370997 0.601825
O O9 0.839364 0.736653 0.301342
O O10 0.769779 0.929068 0.240363
O O11 0.524999 0.860352 0.704643
O O12 0.270562 0.882044 0.645024
O O13 0.826525 0.913136 0.616376
O O14 0.122934 0.135158 0.622513
#
# Coordination Sequence:
#
# PCOD9231385 Si02
#       8
#     4   4   4   2   2   4   4   4
#     4   9  20  39  64  93 127 178 224 264 330 400
#     4  10  22  40  63  96 130 171 218 279 332 390
#     4  10  20  39  65  91 133 174 219 271 335 399
#     4  12  26  44  68  94 134 172 214 266 344 400
#     4  12  22  44  70  94 116 178 226 264 326 398
#     4  11  22  41  66  96 128 172 214 272 325 394
#     4  11  25  41  63  96 133 170 215 278 341 393
#     4  11  22  42  67  92 126 168 227 269 314 394
#
# _framework density 22.530452
#
# number of rings (size 3 to 8) (size 9 to 14) (size 15 to 20)
#    0.000    1.429    4.286    0.429    4.000    0.571 
#    2.571    0.714    0.000    0.000    0.000    0.000 
#    0.000    0.000    0.000    0.000    0.000    0.000 
#
# Total GULP energy -156044.803515 kJ/mol
# GULP energy per Si atom -5573.028697 kJ/mol
# Density = 2.247917 g / cm^3
# Si number density = 22.530452 Si / 1000 Ang^3
#
#
#
# Elastic Constant Matrix: (Units=GPa)
#
#
# Indices 1 2 3 4 5 6 
#
# 1 60.6954 17.0355 19.0294 0.0000 14.8652 0.0000
# 2 17.0355 92.1646 32.7555 0.0000 -0.9700 0.0000
# 3 19.0294 32.7555 105.6735 0.0000 10.8123 0.0000
# 4 0.0000 0.0000 0.0000 30.0480 0.0000 -0.6731
# 5 14.8652 -0.9700 10.8123 0.0000 34.0218 0.0000
# 6 0.0000 0.0000 0.0000 -0.6731 0.0000 15.5026
#
#
#
# Elastic Compliance Matrix: (Units=1/GPa)
#
#
# Indices 1 2 3 4 5 6 
#
# 1 0.019930 -0.003140 -0.001773 0.000000 -0.008234 0.000000
# 2 -0.003140 0.012773 -0.003691 0.000000 0.002909 0.000000
# 3 -0.001773 -0.003691 0.011223 0.000000 -0.002897 0.000000
# 4 0.000000 0.000000 0.000000 0.033312 0.000000 0.001446
# 5 -0.008234 0.002909 -0.002897 0.000000 0.033994 0.000000
# 6 0.000000 0.000000 0.000000 0.001446 0.000000 0.064568
#
#
# Mechanical properties :
#
#
# Convention : Reuss Voigt Hill
#
# Bulk Modulus (GPa) = 37.43027 44.01937 40.72482
# Shear Modulus (GPa) = 24.76283 28.56203 26.66243
#
# Velocity S-wave (km/s) = 3.31884 3.56435 3.44378
# Velocity P-wave (km/s) = 5.59781 6.04315 5.82474
#
# Compressibility (1/GPa) = 0.02671634
#
# Stress axis : x y z
#
# Youngs Moduli (GPa) = 50.17664 78.28909 89.10208
#
# Poissons Ratio (x) = 0.24585 0.15798
# Poissons Ratio (y) = 0.15757 0.32892
# Poissons Ratio (z) = 0.08896 0.28900
#
# Static dielectric constant tensor:
#      x y z
#    x 1.951380 0.000000 -0.023250 
#    y 0.000000 1.889610 0.000000 
#    z -0.023250 0.000000 1.859490 
# 
# From -- ./inp_files/90264.got.cif
#   From: 2010.05.17/outbox.cif.g08.bks.cpg/sg13_46_cif.got.tgz:90264.got - 2010.06.03 16:44:36.
