data_PCOD9231673
_publ_section_title
;
Structure prediction by ZEFSAII (Michael W. Deem and Ramdas Pophale) SiO2 
 PCOD9231673
Probable space group: P 2/C
;
_chemical_formula_sum "Si O2"
_cell_formula_units_Z 24
_cell_length_a 9.223202
_cell_length_b 8.060990
_cell_length_c 19.786868
_cell_angle_alpha 90.000000
_cell_angle_beta 126.012818
_cell_angle_gamma 90.000000
_cell_volume 1189.965026
_symmetry_space_group_name_H-M "P 2/C"
_symmetry_group_IT_number 13
_symmetry_cell_setting 'monoclinic'
loop_
_space_group_symop_operation_xyz
x,y,z
-x,y,1/2-z
-x,-y,-z
x,-y,1/2+z
loop_
_atom_site_type_symbol
_atom_site_label
_atom_site_fract_x
_atom_site_fract_y
_atom_site_fract_z
Si Si1 0.195751 0.676394 0.304331
Si Si2 0.450738 0.136639 0.540704
Si Si3 0.706636 0.689078 0.317847
Si Si4 0.804700 0.992264 0.915399
Si Si5 0.386807 0.355168 0.149394
Si Si6 0.367622 0.393266 0.417155
O O1 0.366154 0.780708 0.379309
O O2 0.230132 0.624166 0.236896
O O3 0.203709 0.508220 0.350190
O O4 0.000000 0.758149 0.250000
O O5 0.341295 0.061553 0.571933
O O6 0.324561 0.251912 0.459173
O O7 0.500000 0.000000 0.500000
O O8 0.500000 0.734055 0.250000
O O9 0.802679 0.863050 0.358597
O O10 0.708062 0.538077 0.372648
O O11 0.744309 0.803628 0.884158
O O12 0.000000 0.000000 0.000000
O O13 0.500000 0.349130 0.250000
O O14 0.516181 0.345862 0.118365
O O15 0.500000 0.500000 0.500000
#
# Coordination Sequence:
#
# PCOD9231673 Si02
#       6
#     4   4   4   4   4   4
#     4  11  24  41  68  98 125 172 228 280 334 399
#     4  11  23  42  63  92 137 176 208 274 345 396
#     4  11  21  44  68  91 132 175 219 276 337 387
#     4  12  27  41  66 103 132 177 229 271 333 409
#     4  11  22  42  71  97 130 180 222 276 335 398
#     4  10  20  40  69  91 130 175 216 264 344 400
#
# _framework density 20.168661
#
# number of rings (size 3 to 8) (size 9 to 14) (size 15 to 20)
#    0.000    1.000    6.667    1.500    2.333    2.000 
#    0.000    0.833    0.000    0.000    0.000    0.000 
#    0.000    0.000    0.000    0.000    0.000    0.000 
#
# Total GULP energy -133660.030334 kJ/mol
# GULP energy per Si atom -5569.167931 kJ/mol
# Density = 2.012276 g / cm^3
# Si number density = 20.168661 Si / 1000 Ang^3
#
#
#
# Elastic Constant Matrix: (Units=GPa)
#
#
# Indices 1 2 3 4 5 6 
#
# 1 42.1881 -8.5514 32.2821 0.0000 5.2109 0.0000
# 2 -8.5514 94.4422 37.9998 0.0000 14.5017 0.0000
# 3 32.2821 37.9998 89.0826 0.0000 8.6540 0.0000
# 4 0.0000 0.0000 0.0000 31.4580 0.0000 -9.8408
# 5 5.2109 14.5017 8.6540 0.0000 39.3575 0.0000
# 6 0.0000 0.0000 0.0000 -9.8408 0.0000 13.0265
#
#
#
# Elastic Compliance Matrix: (Units=1/GPa)
#
#
# Indices 1 2 3 4 5 6 
#
# 1 0.042732 0.013015 -0.020459 0.000000 -0.005955 0.000000
# 2 0.013015 0.017262 -0.011541 0.000000 -0.005546 0.000000
# 3 -0.020459 -0.011541 0.023386 0.000000 0.001819 0.000000
# 4 0.000000 0.000000 0.000000 0.041625 0.000000 0.031445
# 5 -0.005955 -0.005546 0.001819 0.000000 0.027840 0.000000
# 6 0.000000 0.000000 0.000000 0.031445 0.000000 0.100522
#
#
# Mechanical properties :
#
#
# Convention : Reuss Voigt Hill
#
# Bulk Modulus (GPa) = 22.02122 38.79713 30.40918
# Shear Modulus (GPa) = 16.31457 27.70054 22.00756
#
# Velocity S-wave (km/s) = 2.84721 3.71002 3.30688
# Velocity P-wave (km/s) = 4.66381 6.13437 5.44892
#
# Compressibility (1/GPa) = 0.04541075
#
# Stress axis : x y z
#
# Youngs Moduli (GPa) = 23.40157 57.92938 42.76056
#
# Poissons Ratio (x) = -0.75398 0.87484
# Poissons Ratio (y) = -0.30458 0.49352
# Poissons Ratio (z) = 0.47877 0.66859
#
# Static dielectric constant tensor:
#      x y z
#    x 1.734410 0.000000 0.007550 
#    y 0.000000 2.005510 0.000000 
#    z 0.007550 0.000000 1.850130 
# 
# From -- ./inp_files/75766.got.cif
#   From: 2010.05.17/outbox.cif.g08.bks.cpg/sg13_38_cif.got.tgz:75766.got - 2010.06.03 16:44:36.
