data_PCOD9231446
_publ_section_title
;
Structure prediction by ZEFSAII (Michael W. Deem and Ramdas Pophale) SiO2 
 PCOD9231446
Probable space group: P 2/C
;
_chemical_formula_sum "Si O2"
_cell_formula_units_Z 30
_cell_length_a 11.462732
_cell_length_b 8.170043
_cell_length_c 14.117216
_cell_angle_alpha 90.000000
_cell_angle_beta 105.482610
_cell_angle_gamma 90.000000
_cell_volume 1274.114889
_symmetry_space_group_name_H-M "P 2/C"
_symmetry_group_IT_number 13
_symmetry_cell_setting 'monoclinic'
loop_
_space_group_symop_operation_xyz
x,y,z
-x,y,1/2-z
-x,-y,-z
x,-y,1/2+z
loop_
_atom_site_type_symbol
_atom_site_label
_atom_site_fract_x
_atom_site_fract_y
_atom_site_fract_z
Si Si1 0.147024 0.822135 0.109450
Si Si2 0.000000 0.507199 0.750000
Si Si3 0.615760 0.517441 0.708320
Si Si4 0.450251 0.170458 0.411559
Si Si5 0.152959 0.558378 0.608362
Si Si6 0.381187 0.159254 0.791419
Si Si7 0.116345 0.751858 0.403482
Si Si8 0.302864 0.969795 0.507385
O O1 0.138584 0.632215 0.074036
O O2 0.256066 0.833358 0.207133
O O3 0.012094 0.847104 0.119673
O O4 0.194897 0.953495 0.044878
O O5 0.054460 0.597062 0.670093
O O6 0.099284 0.386427 0.819582
O O7 0.500000 0.528134 0.750000
O O8 0.603631 0.659024 0.629529
O O9 0.724852 0.557211 0.803950
O O10 0.615755 0.339152 0.659772
O O11 0.595551 0.158169 0.434328
O O12 0.398900 0.019743 0.339243
O O13 0.393287 0.118613 0.500025
O O14 0.141661 0.669126 0.512552
O O15 0.500000 0.169133 0.750000
O O16 0.227017 0.874130 0.411185
#
# Coordination Sequence:
#
# PCOD9231446 Si02
#       8
#     4   2   4   4   4   4   4   4
#     4  10  21  41  64  89 126 172 219 268 339 399
#     4  10  22  42  66  98 134 176 222 280 346 398
#     4  10  22  39  67 100 125 173 230 270 339 409
#     4  11  24  42  63  96 137 172 225 284 333 397
#     4  10  23  42  70  98 132 175 224 282 339 402
#     4  10  20  39  69  90 127 175 217 274 339 403
#     4  11  24  42  68  96 135 175 227 277 338 412
#     4  11  25  42  61  94 134 177 220 281 343 392
#
# _framework density 23.545757999999999
#
# number of rings (size 3 to 8) (size 9 to 14) (size 15 to 20)
#    0.000    1.600    1.333    3.200    7.467    2.133 
#    0.000    1.333    0.000    0.800    0.000    0.000 
#    0.000    0.000    0.000    0.000    0.000    0.000 
#
# Total GULP energy -167387.336859 kJ/mol
# GULP energy per Si atom -5579.577895 kJ/mol
# Density = 2.349217 g / cm^3
# Si number density = 23.545758 Si / 1000 Ang^3
#
#
#
# Elastic Constant Matrix: (Units=GPa)
#
#
# Indices 1 2 3 4 5 6 
#
# 1 99.3968 11.1356 5.3608 0.0000 24.2490 0.0000
# 2 11.1356 82.1744 17.6436 0.0000 1.9920 0.0000
# 3 5.3608 17.6436 52.1680 0.0000 -4.7123 0.0000
# 4 0.0000 0.0000 0.0000 28.9281 0.0000 -15.6679
# 5 24.2490 1.9920 -4.7123 0.0000 36.1206 0.0000
# 6 0.0000 0.0000 0.0000 -15.6679 0.0000 15.6234
#
#
#
# Elastic Compliance Matrix: (Units=1/GPa)
#
#
# Indices 1 2 3 4 5 6 
#
# 1 0.012332 -0.001112 -0.001653 0.000000 -0.008433 0.000000
# 2 -0.001112 0.013285 -0.004430 0.000000 -0.000564 0.000000
# 3 -0.001653 -0.004430 0.021209 0.000000 0.004121 0.000000
# 4 0.000000 0.000000 0.000000 0.075668 0.000000 0.075884
# 5 -0.008433 -0.000564 0.004121 0.000000 0.033915 0.000000
# 6 0.000000 0.000000 0.000000 0.075884 0.000000 0.140107
#
#
# Mechanical properties :
#
#
# Convention : Reuss Voigt Hill
#
# Bulk Modulus (GPa) = 30.82931 33.55771 32.19351
# Shear Modulus (GPa) = 15.54163 29.44104 22.49133
#
# Velocity S-wave (km/s) = 2.57195 3.53990 3.09401
# Velocity P-wave (km/s) = 4.68420 5.56695 5.14454
#
# Compressibility (1/GPa) = 0.03243666
#
# Stress axis : x y z
#
# Youngs Moduli (GPa) = 81.09160 75.27476 47.14961
#
# Poissons Ratio (x) = 0.08369 0.07794
# Poissons Ratio (y) = 0.09016 0.20886
# Poissons Ratio (z) = 0.13404 0.33344
#
# Static dielectric constant tensor:
#      x y z
#    x 1.947930 0.000000 -0.063600 
#    y 0.000000 1.887400 0.000000 
#    z -0.063600 0.000000 1.986920 
# 
# From -- ./inp_files/50400.got.cif
#   From: 2010.05.17/outbox.cif.g08.bks.cpg/sg13_26_cif.got.tgz:50400.got - 2010.06.03 16:44:36.
