data_PCOD9231534
_publ_section_title
;
Structure prediction by ZEFSAII (Michael W. Deem and Ramdas Pophale) SiO2 
 PCOD9231534
Probable space group: P 2/C
;
_chemical_formula_sum "Si O2"
_cell_formula_units_Z 18
_cell_length_a 7.735465
_cell_length_b 7.031566
_cell_length_c 17.557199
_cell_angle_alpha 90.000000
_cell_angle_beta 129.750113
_cell_angle_gamma 90.000000
_cell_volume 734.226419
_symmetry_space_group_name_H-M "P 2/C"
_symmetry_group_IT_number 13
_symmetry_cell_setting 'monoclinic'
loop_
_space_group_symop_operation_xyz
x,y,z
-x,y,1/2-z
-x,-y,-z
x,-y,1/2+z
loop_
_atom_site_type_symbol
_atom_site_label
_atom_site_fract_x
_atom_site_fract_y
_atom_site_fract_z
Si Si1 0.661634 0.256358 0.204414
Si Si2 0.350130 0.498286 0.536116
Si Si3 0.120075 0.816247 0.897069
Si Si4 0.500000 0.087672 0.750000
Si Si5 0.988341 0.166128 0.930877
O O1 0.505784 0.439386 0.150074
O O2 0.765069 0.230845 0.150170
O O3 0.867387 0.266633 0.320741
O O4 0.531986 0.064019 0.189775
O O5 0.500000 0.500000 0.500000
O O6 0.243785 0.290092 0.500789
O O7 0.144364 0.649120 0.481408
O O8 0.107758 0.041335 0.898308
O O9 0.733103 0.195142 0.830345
O O10 0.000000 0.000000 0.000000
#
# Coordination Sequence:
#
# PCOD9231534 Si02
#       5
#     4   4   4   2   4
#     4   9  18  39  61  87 126 169 204 273 329 383
#     4  10  21  40  64  94 124 163 221 264 324 391
#     4   9  21  39  62  87 126 169 214 261 333 394
#     4  10  20  40  62  92 130 164 216 274 332 394
#     4  11  22  41  63  94 128 169 220 270 330 394
#
# _framework density 24.515599000000002
#
# number of rings (size 3 to 8) (size 9 to 14) (size 15 to 20)
#    0.000    2.222    2.222    0.000    0.000    4.444 
#    4.000   16.667    0.000    0.000    0.000    0.000 
#    0.000    0.000    0.000    0.000    0.000    0.000 
#
# Total GULP energy -100463.031524 kJ/mol
# GULP energy per Si atom -5581.279529 kJ/mol
# Density = 2.445980 g / cm^3
# Si number density = 24.515599 Si / 1000 Ang^3
#
#
#
# Elastic Constant Matrix: (Units=GPa)
#
#
# Indices 1 2 3 4 5 6 
#
# 1 87.3628 43.0103 19.2836 0.0000 19.4227 0.0000
# 2 43.0103 77.0130 26.1344 0.0000 10.9648 0.0000
# 3 19.2836 26.1344 58.6634 0.0000 4.0428 0.0000
# 4 0.0000 0.0000 0.0000 42.5350 0.0000 3.6284
# 5 19.4227 10.9648 4.0428 0.0000 22.1061 0.0000
# 6 0.0000 0.0000 0.0000 3.6284 0.0000 42.3057
#
#
#
# Elastic Compliance Matrix: (Units=1/GPa)
#
#
# Indices 1 2 3 4 5 6 
#
# 1 0.018406 -0.008025 -0.001656 0.000000 -0.011888 0.000000
# 2 -0.008025 0.019753 -0.006049 0.000000 -0.001641 0.000000
# 3 -0.001656 -0.006049 0.020233 0.000000 0.000755 0.000000
# 4 0.000000 0.000000 0.000000 0.023683 0.000000 -0.002031
# 5 -0.011888 -0.001641 0.000755 0.000000 0.056357 0.000000
# 6 0.000000 0.000000 0.000000 -0.002031 0.000000 0.023812
#
#
# Mechanical properties :
#
#
# Convention : Reuss Voigt Hill
#
# Bulk Modulus (GPa) = 37.12936 44.43287 40.78111
# Shear Modulus (GPa) = 24.66928 30.36344 27.51636
#
# Velocity S-wave (km/s) = 3.17562 3.52310 3.35386
# Velocity P-wave (km/s) = 5.35015 5.89180 5.62750
#
# Compressibility (1/GPa) = 0.02693286
#
# Stress axis : x y z
#
# Youngs Moduli (GPa) = 54.33055 50.62586 49.42307
#
# Poissons Ratio (x) = 0.40626 0.08185
# Poissons Ratio (y) = 0.43599 0.29895
# Poissons Ratio (z) = 0.08997 0.30623
#
# Static dielectric constant tensor:
#      x y z
#    x 2.143000 0.000000 -0.013090 
#    y 0.000000 1.982050 0.000000 
#    z -0.013090 0.000000 1.998540 
# 
# From -- ./inp_files/74735.got.cif
#   From: 2010.05.17/outbox.cif.g08.bks.cpg/sg13_38_cif.got.tgz:74735.got - 2010.06.03 16:44:36.
