data_PCOD9231464
_publ_section_title
;
Structure prediction by ZEFSAII (Michael W. Deem and Ramdas Pophale) SiO2 
 PCOD9231464
Probable space group: P 2/C
;
_chemical_formula_sum "Si O2"
_cell_formula_units_Z 32
_cell_length_a 23.531399
_cell_length_b 7.666830
_cell_length_c 29.778412
_cell_angle_alpha 90.000000
_cell_angle_beta 163.415022
_cell_angle_gamma 90.000000
_cell_volume 1533.470897
_symmetry_space_group_name_H-M "P 2/C"
_symmetry_group_IT_number 13
_symmetry_cell_setting 'monoclinic'
loop_
_space_group_symop_operation_xyz
x,y,z
-x,y,1/2-z
-x,-y,-z
x,-y,1/2+z
loop_
_atom_site_type_symbol
_atom_site_label
_atom_site_fract_x
_atom_site_fract_y
_atom_site_fract_z
Si Si1 0.778437 0.495401 0.885833
Si Si2 0.218968 0.919868 0.721628
Si Si3 0.786058 0.832995 0.563893
Si Si4 0.272065 0.307902 0.069125
Si Si5 0.345547 0.435493 0.029269
Si Si6 0.012111 0.982325 0.867823
Si Si7 0.924123 0.750650 0.429918
Si Si8 0.332480 0.124605 0.958465
O O1 0.758492 0.520420 0.923591
O O2 0.582254 0.586584 0.716806
O O3 0.788628 0.311779 0.868745
O O4 0.982875 0.590764 0.027076
O O5 0.112122 0.838252 0.597114
O O6 0.091708 0.880078 0.669916
O O7 0.194768 0.124985 0.693148
O O8 0.449278 0.872027 0.898249
O O9 0.695944 0.641438 0.503222
O O10 0.000000 0.830548 0.750000
O O11 0.667407 0.988870 0.499152
O O12 0.836413 0.879161 0.550257
O O13 0.500000 0.253632 0.250000
O O14 0.240727 0.355314 0.993779
O O15 0.132159 0.149202 0.977406
O O16 0.284627 0.316902 0.941241
O O17 0.833554 0.056049 0.701499
#
# Coordination Sequence:
#
# PCOD9231464 Si02
#       8
#     4   4   4   4   4   4   4   4
#     4  10  20  40  56  93 120 160 210 262 305 378
#     4  11  22  40  63  93 125 172 209 258 323 373
#     4  10  24  40  63  93 123 162 212 258 311 379
#     4  10  22  38  63  90 122 160 208 260 314 373
#     4  11  22  40  65  88 123 163 210 254 323 366
#     4  11  23  42  62  94 129 163 210 267 312 374
#     4  10  21  35  65  84 126 165 208 255 316 374
#     4  11  23  42  66  92 125 169 211 258 312 380
#
# _framework density 20.867694
#
# number of rings (size 3 to 8) (size 9 to 14) (size 15 to 20)
#    0.000    1.500    3.750    1.125    3.500    0.000 
#    2.250    0.000    0.000    3.750    0.000    0.000 
#    0.000    0.000    0.000    0.000    0.000    0.000 
#
# Total GULP energy -178533.921859 kJ/mol
# GULP energy per Si atom -5579.185058 kJ/mol
# Density = 2.082020 g / cm^3
# Si number density = 20.867694 Si / 1000 Ang^3
#
#
#
# Elastic Constant Matrix: (Units=GPa)
#
#
# Indices 1 2 3 4 5 6 
#
# 1 79.1847 14.1117 12.2244 0.0000 16.6028 0.0000
# 2 14.1117 56.6692 -4.7703 0.0000 10.1123 0.0000
# 3 12.2244 -4.7703 42.6798 0.0000 11.6501 0.0000
# 4 0.0000 0.0000 0.0000 21.0454 0.0000 7.2193
# 5 16.6028 10.1123 11.6501 0.0000 27.8582 0.0000
# 6 0.0000 0.0000 0.0000 7.2193 0.0000 37.1099
#
#
#
# Elastic Compliance Matrix: (Units=1/GPa)
#
#
# Indices 1 2 3 4 5 6 
#
# 1 0.014962 -0.002748 -0.002744 0.000000 -0.006772 0.000000
# 2 -0.002748 0.020168 0.005184 0.000000 -0.007851 0.000000
# 3 -0.002744 0.005184 0.028067 0.000000 -0.011984 0.000000
# 4 0.000000 0.000000 0.000000 0.050914 0.000000 -0.009905
# 5 -0.006772 -0.007851 -0.011984 0.000000 0.047793 0.000000
# 6 0.000000 0.000000 0.000000 -0.009905 0.000000 0.028874
#
#
# Mechanical properties :
#
#
# Convention : Reuss Voigt Hill
#
# Bulk Modulus (GPa) = 15.97940 24.62948 20.30444
# Shear Modulus (GPa) = 23.55663 27.66723 25.61193
#
# Velocity S-wave (km/s) = 3.36349 3.64516 3.50715
# Velocity P-wave (km/s) = 4.77056 5.43549 5.11384
#
# Compressibility (1/GPa) = 0.06258056
#
# Stress axis : x y z
#
# Youngs Moduli (GPa) = 66.83610 49.58335 35.62914
#
# Poissons Ratio (x) = 0.13628 0.09777
# Poissons Ratio (y) = 0.18369 -0.18472
# Poissons Ratio (z) = 0.18341 -0.25706
#
# Static dielectric constant tensor:
#      x y z
#    x 1.781650 0.000000 0.017640 
#    y 0.000000 1.799450 0.000000 
#    z 0.017640 0.000000 1.720080 
# 
# From -- ./inp_files/93597.got.cif
#   From: 2010.05.17/outbox.cif.g08.bks.cpg/sg13_47_cif.got.tgz:93597.got - 2010.06.03 16:44:36.
