data_PCOD9231778
_publ_section_title
;
Structure prediction by ZEFSAII (Michael W. Deem and Ramdas Pophale) SiO2 
 PCOD9231778
Probable space group: P 2/C
;
_chemical_formula_sum "Si O2"
_cell_formula_units_Z 24
_cell_length_a 9.038783
_cell_length_b 7.591903
_cell_length_c 21.602450
_cell_angle_alpha 90.000000
_cell_angle_beta 56.797875
_cell_angle_gamma 90.000000
_cell_volume 1240.384209
_symmetry_space_group_name_H-M "P 2/C"
_symmetry_group_IT_number 13
_symmetry_cell_setting 'monoclinic'
loop_
_space_group_symop_operation_xyz
x,y,z
-x,y,1/2-z
-x,-y,-z
x,-y,1/2+z
loop_
_atom_site_type_symbol
_atom_site_label
_atom_site_fract_x
_atom_site_fract_y
_atom_site_fract_z
Si Si1 0.708189 0.928640 0.711135
Si Si2 0.209310 0.223150 0.711273
Si Si3 0.443957 0.329110 0.429183
Si Si4 0.539241 0.733891 0.045632
Si Si5 0.207780 0.989526 0.943757
Si Si6 0.660836 0.424118 0.259663
O O1 0.500000 0.902015 0.750000
O O2 0.739934 0.050007 0.762286
O O3 0.767400 0.019808 0.634936
O O4 0.780021 0.730193 0.702889
O O5 0.345141 0.238557 0.622019
O O6 0.245809 0.396466 0.743767
O O7 0.000000 0.215672 0.750000
O O8 0.399578 0.533794 0.452995
O O9 0.521634 0.252828 0.475564
O O10 0.581525 0.340274 0.340943
O O11 0.286384 0.202322 0.443452
O O12 0.676323 0.870721 0.044037
O O13 0.000000 0.000000 0.000000
O O14 0.500000 0.467828 0.250000
#
# Coordination Sequence:
#
# PCOD9231778 Si02
#       6
#     4   4   4   4   4   4
#     4  11  21  42  65  89 122 164 207 256 309 358
#     4  11  24  39  64  95 122 159 205 254 309 368
#     4  10  21  42  64  89 120 165 202 247 314 366
#     4  10  23  43  64  86 128 165 200 254 310 367
#     4  12  25  40  63  95 123 165 211 253 304 366
#     4  10  20  41  67  88 119 161 204 251 307 364
#
# _framework density 19.348844
#
# number of rings (size 3 to 8) (size 9 to 14) (size 15 to 20)
#    0.000    1.333    5.000    1.000    4.667    1.333 
#    9.000    0.000    0.000    0.000    0.000    0.000 
#    0.000    0.000    0.000    0.000    0.000    0.000 
#
# Total GULP energy -133930.836885 kJ/mol
# GULP energy per Si atom -5580.451537 kJ/mol
# Density = 1.930481 g / cm^3
# Si number density = 19.348844 Si / 1000 Ang^3
#
#
#
# Elastic Constant Matrix: (Units=GPa)
#
#
# Indices 1 2 3 4 5 6 
#
# 1 80.9514 38.6321 22.7685 0.0000 -2.9977 0.0000
# 2 38.6321 77.4693 -7.4556 0.0000 0.0570 0.0000
# 3 22.7685 -7.4556 56.8713 0.0000 13.6532 0.0000
# 4 0.0000 0.0000 0.0000 23.8192 0.0000 15.5004
# 5 -2.9977 0.0570 13.6532 0.0000 34.9930 0.0000
# 6 0.0000 0.0000 0.0000 15.5004 0.0000 11.3472
#
#
#
# Elastic Compliance Matrix: (Units=1/GPa)
#
#
# Indices 1 2 3 4 5 6 
#
# 1 0.021569 -0.011891 -0.011742 0.000000 0.006449 0.000000
# 2 -0.011891 0.019647 0.008373 0.000000 -0.004317 0.000000
# 3 -0.011742 0.008373 0.026069 0.000000 -0.011191 0.000000
# 4 0.000000 0.000000 0.000000 0.377997 0.000000 -0.516350
# 5 0.006449 -0.004317 -0.011191 0.000000 0.033503 0.000000
# 6 0.000000 0.000000 0.000000 -0.516350 0.000000 0.793469
#
#
# Mechanical properties :
#
#
# Convention : Reuss Voigt Hill
#
# Bulk Modulus (GPa) = 27.20045 35.90911 31.55478
# Shear Modulus (GPa) = 3.80220 24.78834 14.29527
#
# Velocity S-wave (km/s) = 1.40333 3.58317 2.72107
# Velocity P-wave (km/s) = 4.08830 5.97644 5.12016
#
# Compressibility (1/GPa) = 0.03676410
#
# Stress axis : x y z
#
# Youngs Moduli (GPa) = 46.36263 50.89848 38.36013
#
# Poissons Ratio (x) = 0.60522 0.45043
# Poissons Ratio (y) = 0.55129 -0.32117
# Poissons Ratio (z) = 0.54440 -0.42615
#
# Static dielectric constant tensor:
#      x y z
#    x 1.540690 0.000000 0.123810 
#    y 0.000000 1.711810 0.000000 
#    z 0.123810 0.000000 1.580860 
# 
# From -- ./inp_files/75191.got.cif
#   From: 2010.05.17/outbox.cif.g08.bks.cpg/sg13_38_cif.got.tgz:75191.got - 2010.06.03 16:44:36.
