data_PCOD9231030
_publ_section_title
;
Structure prediction by ZEFSAII (Michael W. Deem and Ramdas Pophale) SiO2 
 PCOD9231030
Probable space group: P 2/C
;
_chemical_formula_sum "Si O2"
_cell_formula_units_Z 28
_cell_length_a 12.491084
_cell_length_b 8.845144
_cell_length_c 10.825791
_cell_angle_alpha 90.000000
_cell_angle_beta 102.099705
_cell_angle_gamma 90.000000
_cell_volume 1169.520239
_symmetry_space_group_name_H-M "P 2/C"
_symmetry_group_IT_number 13
_symmetry_cell_setting 'monoclinic'
loop_
_space_group_symop_operation_xyz
x,y,z
-x,y,1/2-z
-x,-y,-z
x,-y,1/2+z
loop_
_atom_site_type_symbol
_atom_site_label
_atom_site_fract_x
_atom_site_fract_y
_atom_site_fract_z
Si Si1 0.134257 0.885995 0.506851
Si Si2 0.556934 0.133422 0.591689
Si Si3 0.269008 0.386006 0.967535
Si Si4 0.777126 0.945829 0.234914
Si Si5 0.917996 0.439703 0.145065
Si Si6 0.445418 0.571702 0.109962
Si Si7 0.924327 0.717771 0.399100
O O1 0.181459 0.715267 0.516291
O O2 0.185137 0.971520 0.398354
O O3 0.008262 0.855502 0.444248
O O4 0.175438 0.948708 0.646754
O O5 0.641632 0.259291 0.552598
O O6 0.644807 0.055995 0.704697
O O7 0.461525 0.248096 0.610761
O O8 0.500000 0.000000 0.500000
O O9 0.198689 0.483470 0.851305
O O10 0.325641 0.505066 0.071251
O O11 0.832341 0.785505 0.287372
O O12 0.000000 0.343157 0.250000
O O13 0.005588 0.574194 0.132035
O O14 0.885979 0.337170 0.022006
O O15 0.500000 0.518090 0.250000
O O16 0.500000 0.500000 0.000000
#
# Coordination Sequence:
#
# PCOD9231030 Si02
#       7
#     4   4   4   4   4   4   4
#     4  10  22  41  65  98 132 182 217 275 338 411
#     4  10  23  43  66  97 133 181 231 285 345 404
#     4   9  21  43  63  94 137 179 219 285 349 395
#     4  11  23  41  67  91 138 176 224 271 341 400
#     4  10  20  38  62  95 131 173 222 272 332 415
#     4  10  23  43  68  98 133 179 230 286 343 404
#     4  10  21  37  62  94 132 175 215 270 337 405
#
# _framework density 23.941441999999999
#
# number of rings (size 3 to 8) (size 9 to 14) (size 15 to 20)
#    0.000    2.000    0.000    3.429    2.000    5.714 
#   10.286    0.714    0.000    0.000    0.000    0.000 
#    0.000    0.000    0.000    0.000    0.000    0.000 
#
# Total GULP energy -155933.828745 kJ/mol
# GULP energy per Si atom -5569.065312 kJ/mol
# Density = 2.388695 g / cm^3
# Si number density = 23.941442 Si / 1000 Ang^3
#
#
#
# Elastic Constant Matrix: (Units=GPa)
#
#
# Indices 1 2 3 4 5 6 
#
# 1 52.9912 28.7405 55.5363 0.0000 28.9726 0.0000
# 2 28.7405 41.4474 40.6699 0.0000 3.3712 0.0000
# 3 55.5363 40.6699 146.4465 0.0000 30.8063 0.0000
# 4 0.0000 0.0000 0.0000 10.6660 0.0000 -30.7603
# 5 28.9726 3.3712 30.8063 0.0000 46.9308 0.0000
# 6 0.0000 0.0000 0.0000 -30.7603 0.0000 -18.1325
#
#
#
# Elastic Compliance Matrix: (Units=1/GPa)
#
#
# Indices 1 2 3 4 5 6 
#
# 1 0.061133 -0.032202 -0.007875 0.000000 -0.030258 0.000000
# 2 -0.032202 0.050874 -0.006183 0.000000 0.020284 0.000000
# 3 -0.007875 -0.006183 0.012085 0.000000 -0.002627 0.000000
# 4 0.000000 0.000000 0.000000 0.015911 0.000000 -0.026992
# 5 -0.030258 0.020284 -0.002627 0.000000 0.040254 0.000000
# 6 0.000000 0.000000 0.000000 -0.026992 0.000000 -0.009359
#
#
# Mechanical properties :
#
#
# Convention : Reuss Voigt Hill
#
# Bulk Modulus (GPa) = 31.67571 54.53094 43.10332
# Shear Modulus (GPa) = 18.25189 15.62210 16.93699
#
# Velocity S-wave (km/s) = 2.76407 2.55720 2.66265
# Velocity P-wave (km/s) = 4.84211 5.61652 5.24363
#
# Compressibility (1/GPa) = 0.03156993
#
# Stress axis : x y z
#
# Youngs Moduli (GPa) = 16.35771 19.65628 82.74906
#
# Poissons Ratio (x) = 0.63298 0.65168
# Poissons Ratio (y) = 0.52676 0.51167
# Poissons Ratio (z) = 0.12882 0.12154
#
# Static dielectric constant tensor:
#      x y z
#    x 2.027080 0.000000 -0.005330 
#    y 0.000000 1.973160 0.000000 
#    z -0.005330 0.000000 2.035370 
# 
# From -- ./inp_files/36512.got.cif
#   From: 2010.05.17/outbox.cif.g08.bks.cpg/sg13_19_cif.got.tgz:36512.got - 2010.06.03 16:44:36.
