data_PCOD9231081
_publ_section_title
;
Structure prediction by ZEFSAII (Michael W. Deem and Ramdas Pophale) SiO2 
 PCOD9231081
Probable space group: P 2/C
;
_chemical_formula_sum "Si O2"
_cell_formula_units_Z 26
_cell_length_a 14.674042
_cell_length_b 13.237909
_cell_length_c 9.184880
_cell_angle_alpha 90.000000
_cell_angle_beta 138.560008
_cell_angle_gamma 90.000000
_cell_volume 1180.844054
_symmetry_space_group_name_H-M "P 2/C"
_symmetry_group_IT_number 13
_symmetry_cell_setting 'monoclinic'
loop_
_space_group_symop_operation_xyz
x,y,z
-x,y,1/2-z
-x,-y,-z
x,-y,1/2+z
loop_
_atom_site_type_symbol
_atom_site_label
_atom_site_fract_x
_atom_site_fract_y
_atom_site_fract_z
Si Si1 0.234833 0.568691 0.847617
Si Si2 0.480098 0.776706 0.885984
Si Si3 0.381063 0.449640 0.260168
Si Si4 0.221725 0.213049 0.635579
Si Si5 0.731878 0.194591 0.128200
Si Si6 0.009973 0.108676 0.587424
Si Si7 0.000000 0.373019 0.250000
O O1 0.243912 0.537732 0.692547
O O2 0.284852 0.685142 0.914866
O O3 0.085161 0.564555 0.735601
O O4 0.343858 0.504073 0.068199
O O5 0.500000 0.826562 0.750000
O O6 0.408533 0.668542 0.771440
O O7 0.388340 0.833235 0.900149
O O8 0.629496 0.753131 0.131486
O O9 0.500000 0.500000 0.500000
O O10 0.253344 0.153584 0.520349
O O11 0.113245 0.300190 0.461947
O O12 0.147053 0.155307 0.678684
O O13 0.877922 0.172877 0.377381
O O14 0.000000 0.102370 0.750000
O O15 0.000000 0.000000 0.500000
#
# Coordination Sequence:
#
# PCOD9231081 Si02
#       7
#     4   4   4   4   4   4   2
#     4  10  21  36  59  82 127 170 223 277 328 389
#     4  11  23  38  62  95 130 178 230 280 333 394
#     4  11  21  35  55  85 119 169 227 278 321 382
#     4  11  20  41  67  94 133 178 226 272 339 406
#     4  10  21  42  64  97 129 180 230 266 343 408
#     4  12  24  42  72 106 137 171 218 276 338 417
#     4  10  20  38  64  86 128 178 228 272 346 400
#
# _framework density 22.018149999999999
#
# number of rings (size 3 to 8) (size 9 to 14) (size 15 to 20)
#    0.000    1.231    3.077    5.538    0.000    4.308 
#    0.000    0.769    3.385    0.000    0.000    0.000 
#    0.000    0.000    0.000    0.000    0.000    0.000 
#
# Total GULP energy -145123.894760 kJ/mol
# GULP energy per Si atom -5581.688260 kJ/mol
# Density = 2.196804 g / cm^3
# Si number density = 22.018150 Si / 1000 Ang^3
#
#
#
# Elastic Constant Matrix: (Units=GPa)
#
#
# Indices 1 2 3 4 5 6 
#
# 1 241.2852 19.5103 58.7479 0.0000 -20.7159 0.0000
# 2 19.5103 27.6026 7.6942 0.0000 -4.6919 0.0000
# 3 58.7479 7.6942 104.7533 0.0000 -7.2232 0.0000
# 4 0.0000 0.0000 0.0000 15.8301 0.0000 -8.7131
# 5 -20.7159 -4.6919 -7.2232 0.0000 52.4401 0.0000
# 6 0.0000 0.0000 0.0000 -8.7131 0.0000 17.4401
#
#
#
# Elastic Compliance Matrix: (Units=1/GPa)
#
#
# Indices 1 2 3 4 5 6 
#
# 1 0.005107 -0.002651 -0.002571 0.000000 0.001426 0.000000
# 2 -0.002651 0.038823 -0.001209 0.000000 0.002260 0.000000
# 3 -0.002571 -0.001209 0.011105 0.000000 0.000406 0.000000
# 4 0.000000 0.000000 0.000000 0.087130 0.000000 0.043530
# 5 0.001426 0.002260 0.000406 0.000000 0.019891 0.000000
# 6 0.000000 0.000000 0.000000 0.043530 0.000000 0.079087
#
#
# Mechanical properties :
#
#
# Convention : Reuss Voigt Hill
#
# Bulk Modulus (GPa) = 23.71170 60.61622 42.16396
# Shear Modulus (GPa) = 18.65227 36.32129 27.48678
#
# Velocity S-wave (km/s) = 2.91371 4.06594 3.53706
# Velocity P-wave (km/s) = 4.70236 7.04503 5.98935
#
# Compressibility (1/GPa) = 0.04217328
#
# Stress axis : x y z
#
# Youngs Moduli (GPa) = 195.79752 25.75770 90.04920
#
# Poissons Ratio (x) = 0.06828 0.23154
# Poissons Ratio (y) = 0.51903 0.10888
# Poissons Ratio (z) = 0.50344 0.03114
#
# Static dielectric constant tensor:
#      x y z
#    x 1.947650 0.000000 -0.001770 
#    y 0.000000 1.802030 0.000000 
#    z -0.001770 0.000000 1.773670 
# 
# From -- ./inp_files/19924.got.cif
#   From: 2010.05.17/outbox.cif.g08.bks.cpg/sg13_10_cif.got.tgz:19924.got - 2010.06.03 16:44:36.
