data_PCOD9231430
_publ_section_title
;
Structure prediction by ZEFSAII (Michael W. Deem and Ramdas Pophale) SiO2 
 PCOD9231430
Probable space group: P 2/C
;
_chemical_formula_sum "Si O2"
_cell_formula_units_Z 20
_cell_length_a 11.059281
_cell_length_b 8.600740
_cell_length_c 9.162474
_cell_angle_alpha 90.000000
_cell_angle_beta 98.051493
_cell_angle_gamma 90.000000
_cell_volume 862.925314
_symmetry_space_group_name_H-M "P 2/C"
_symmetry_group_IT_number 13
_symmetry_cell_setting 'monoclinic'
loop_
_space_group_symop_operation_xyz
x,y,z
-x,y,1/2-z
-x,-y,-z
x,-y,1/2+z
loop_
_atom_site_type_symbol
_atom_site_label
_atom_site_fract_x
_atom_site_fract_y
_atom_site_fract_z
Si Si1 0.700807 0.465457 0.643972
Si Si2 0.034155 0.337288 0.085282
Si Si3 0.586025 0.043610 0.881282
Si Si4 0.800652 0.716871 0.429157
Si Si5 0.325936 0.293134 0.129116
O O1 0.766336 0.585272 0.543749
O O2 0.785054 0.361317 0.766370
O O3 0.630567 0.350832 0.522927
O O4 0.634948 0.580945 0.744462
O O5 0.000000 0.344074 0.250000
O O6 0.176785 0.296886 0.096593
O O7 0.937019 0.226507 0.987636
O O8 0.000000 0.500000 0.000000
O O9 0.500000 0.127128 0.750000
O O10 0.632489 0.878775 0.826815
O O11 0.701717 0.149242 0.932630
O O12 0.500000 0.000000 0.000000
#
# Coordination Sequence:
#
# PCOD9231430 Si02
#       5
#     4   4   4   4   4
#     4  10  20  39  68 100 130 168 220 277 316 408
#     4  12  20  37  72 102 138 163 208 286 337 398
#     4  12  28  49  66  89 140 188 224 277 326 386
#     4  11  22  41  69 101 132 174 222 266 345 393
#     4  11  22  41  69 101 134 174 221 269 341 395
#
# _framework density 23.176977000000001
#
# number of rings (size 3 to 8) (size 9 to 14) (size 15 to 20)
#    0.000    0.800    6.000    2.400    0.000    0.800 
#    0.000   20.000    0.000    0.000    0.000    0.000 
#    0.000    0.000    0.000    0.000    0.000    0.000 
#
# Total GULP energy -111768.625571 kJ/mol
# GULP energy per Si atom -5588.431279 kJ/mol
# Density = 2.312423 g / cm^3
# Si number density = 23.176977 Si / 1000 Ang^3
#
#
#
# Elastic Constant Matrix: (Units=GPa)
#
#
# Indices 1 2 3 4 5 6 
#
# 1 124.0080 42.8325 17.1666 0.0000 14.9959 0.0000
# 2 42.8325 75.3927 17.2587 0.0000 1.6701 0.0000
# 3 17.1666 17.2587 132.9829 0.0000 -6.5422 0.0000
# 4 0.0000 0.0000 0.0000 38.0293 0.0000 9.1353
# 5 14.9959 1.6701 -6.5422 0.0000 25.4538 0.0000
# 6 0.0000 0.0000 0.0000 9.1353 0.0000 46.3680
#
#
#
# Elastic Compliance Matrix: (Units=1/GPa)
#
#
# Indices 1 2 3 4 5 6 
#
# 1 0.010998 -0.005886 -0.000968 0.000000 -0.006342 0.000000
# 2 -0.005886 0.016868 -0.001330 0.000000 0.002019 0.000000
# 3 -0.000968 -0.001330 0.007950 0.000000 0.002701 0.000000
# 4 0.000000 0.000000 0.000000 0.027602 0.000000 -0.005438
# 5 -0.006342 0.002019 0.002701 0.000000 0.043585 0.000000
# 6 0.000000 0.000000 0.000000 -0.005438 0.000000 0.022638
#
#
# Mechanical properties :
#
#
# Convention : Reuss Voigt Hill
#
# Bulk Modulus (GPa) = 51.41917 54.09990 52.75954
# Shear Modulus (GPa) = 32.78883 38.97861 35.88372
#
# Velocity S-wave (km/s) = 3.76535 4.10540 3.93905
# Velocity P-wave (km/s) = 6.41385 6.77238 6.59555
#
# Compressibility (1/GPa) = 0.01944800
#
# Stress axis : x y z
#
# Youngs Moduli (GPa) = 90.92579 59.28490 125.78358
#
# Poissons Ratio (x) = 0.34896 0.12173
# Poissons Ratio (y) = 0.53521 0.16728
# Poissons Ratio (z) = 0.08800 0.07884
#
# Static dielectric constant tensor:
#      x y z
#    x 1.950970 0.000000 0.005980 
#    y 0.000000 1.887450 0.000000 
#    z 0.005980 0.000000 1.909920 
# 
# From -- ./inp_files/15002.got.cif
#   From: 2010.05.17/outbox.cif.g08.bks.cpg/sg13_8_cif.got.tgz:15002.got - 2010.06.03 16:44:36.
