data_PCOD9231862
_publ_section_title
;
Structure prediction by ZEFSAII (Michael W. Deem and Ramdas Pophale) SiO2 
 PCOD9231862
Probable space group: P 2/C
;
_chemical_formula_sum "Si O2"
_cell_formula_units_Z 30
_cell_length_a 14.696345
_cell_length_b 17.648177
_cell_length_c 11.629942
_cell_angle_alpha 90.000000
_cell_angle_beta 149.573774
_cell_angle_gamma 90.000000
_cell_volume 1527.583239
_symmetry_space_group_name_H-M "P 2/C"
_symmetry_group_IT_number 13
_symmetry_cell_setting 'monoclinic'
loop_
_space_group_symop_operation_xyz
x,y,z
-x,y,1/2-z
-x,-y,-z
x,-y,1/2+z
loop_
_atom_site_type_symbol
_atom_site_label
_atom_site_fract_x
_atom_site_fract_y
_atom_site_fract_z
Si Si1 0.692445 0.823399 0.175763
Si Si2 0.794204 0.368806 0.317848
Si Si3 0.556113 0.330126 0.442571
Si Si4 0.970396 0.747898 0.847178
Si Si5 0.628958 0.146456 0.999924
Si Si6 0.396519 0.018723 0.011361
Si Si7 0.000000 0.554515 0.250000
Si Si8 0.665592 0.495924 0.519489
O O1 0.507407 0.835178 0.044848
O O2 0.864174 0.803174 0.440495
O O3 0.671837 0.745282 0.083270
O O4 0.706881 0.902272 0.121897
O O5 0.621808 0.322345 0.174154
O O6 0.931740 0.322503 0.388658
O O7 0.902381 0.396299 0.546685
O O8 0.702543 0.439033 0.151664
O O9 0.500000 0.334031 0.250000
O O10 0.642658 0.413432 0.555401
O O11 0.789180 0.795889 0.660814
O O12 0.000000 0.720643 0.750000
O O13 0.500000 0.150290 0.750000
O O14 0.706328 0.060923 0.088696
O O15 0.500000 0.026457 0.250000
O O16 0.500000 0.000000 0.000000
O O17 0.155294 0.506742 0.360708
O O18 0.500000 0.508354 0.250000
#
# Coordination Sequence:
#
# PCOD9231862 Si02
#       8
#     4   4   4   4   4   4   2   4
#     4  11  22  40  68  96 133 174 223 279 324 400
#     4  12  26  45  67  98 136 173 226 277 336 409
#     4  11  22  43  69  90 130 174 216 277 342 391
#     4  12  26  41  67 102 134 180 223 272 337 399
#     4  10  20  42  64  93 136 174 218 273 330 393
#     4   9  20  39  70 100 132 180 226 273 339 402
#     4  12  24  46  68  94 132 174 218 282 340 396
#     4  11  25  44  69  95 127 176 219 276 341 398
#
# _framework density 19.638864999999999
#
# number of rings (size 3 to 8) (size 9 to 14) (size 15 to 20)
#    0.000    1.067    5.333    2.000    0.933    2.133 
#    0.000    0.000    0.000    0.000    0.000    0.000 
#    0.000    0.000    0.000    0.000    0.000    0.000 
#
# Total GULP energy -167165.034657 kJ/mol
# GULP energy per Si atom -5572.167822 kJ/mol
# Density = 1.959417 g / cm^3
# Si number density = 19.638865 Si / 1000 Ang^3
#
#
#
# Elastic Constant Matrix: (Units=GPa)
#
#
# Indices 1 2 3 4 5 6 
#
# 1 74.0457 17.9030 6.9286 0.0000 -1.0637 0.0000
# 2 17.9030 108.0191 34.9313 0.0000 -17.1649 0.0000
# 3 6.9286 34.9313 61.6630 0.0000 -3.0826 0.0000
# 4 0.0000 0.0000 0.0000 13.0512 0.0000 -11.5827
# 5 -1.0637 -17.1649 -3.0826 0.0000 36.4272 0.0000
# 6 0.0000 0.0000 0.0000 -11.5827 0.0000 29.1985
#
#
#
# Elastic Compliance Matrix: (Units=1/GPa)
#
#
# Indices 1 2 3 4 5 6 
#
# 1 0.014092 -0.002359 -0.000283 0.000000 -0.000724 0.000000
# 2 -0.002359 0.012638 -0.006628 0.000000 0.005326 0.000000
# 3 -0.000283 -0.006628 0.019932 0.000000 -0.001445 0.000000
# 4 0.000000 0.000000 0.000000 0.118253 0.000000 0.046910
# 5 -0.000724 0.005326 -0.001445 0.000000 0.029818 0.000000
# 6 0.000000 0.000000 0.000000 0.046910 0.000000 0.052857
#
#
# Mechanical properties :
#
#
# Convention : Reuss Voigt Hill
#
# Bulk Modulus (GPa) = 35.56094 40.36148 37.96121
# Shear Modulus (GPa) = 18.14859 27.99971 23.07415
#
# Velocity S-wave (km/s) = 3.04323 3.77998 3.43143
# Velocity P-wave (km/s) = 5.52223 6.29662 5.92210
#
# Compressibility (1/GPa) = 0.02812074
#
# Stress axis : x y z
#
# Youngs Moduli (GPa) = 70.96405 79.12474 50.17179
#
# Poissons Ratio (x) = 0.18666 0.01421
# Poissons Ratio (y) = 0.16740 0.33255
# Poissons Ratio (z) = 0.02010 0.52445
#
# Static dielectric constant tensor:
#      x y z
#    x 1.659800 0.000000 0.015820 
#    y 0.000000 1.699590 0.000000 
#    z 0.015820 0.000000 1.670580 
# 
# From -- ./inp_files/37676.got.cif
#   From: 2010.05.17/outbox.cif.g08.bks.cpg/sg13_19_cif.got.tgz:37676.got - 2010.06.03 16:44:36.
