data_PCOD9231048
_publ_section_title
;
Structure prediction by ZEFSAII (Michael W. Deem and Ramdas Pophale) SiO2 
 PCOD9231048
Probable space group: P 2/C
;
_chemical_formula_sum "Si O2"
_cell_formula_units_Z 28
_cell_length_a 7.786160
_cell_length_b 14.691055
_cell_length_c 16.891209
_cell_angle_alpha 90.000000
_cell_angle_beta 41.288618
_cell_angle_gamma 90.000000
_cell_volume 1274.922700
_symmetry_space_group_name_H-M "P 2/C"
_symmetry_group_IT_number 13
_symmetry_cell_setting 'monoclinic'
loop_
_space_group_symop_operation_xyz
x,y,z
-x,y,1/2-z
-x,-y,-z
x,-y,1/2+z
loop_
_atom_site_type_symbol
_atom_site_label
_atom_site_fract_x
_atom_site_fract_y
_atom_site_fract_z
Si Si1 0.099495 0.871192 0.508842
Si Si2 0.219900 0.680532 0.389220
Si Si3 0.166891 0.615330 0.112764
Si Si4 0.000000 0.956560 0.250000
Si Si5 0.762578 0.595846 0.954153
Si Si6 0.000000 0.722880 0.750000
Si Si7 0.186911 0.941932 0.027571
Si Si8 0.304909 0.124444 0.213771
O O1 0.205114 0.774614 0.444499
O O2 0.069890 0.923952 0.435023
O O3 0.847503 0.854587 0.652579
O O4 0.247058 0.949698 0.508763
O O5 0.500000 0.676792 0.250000
O O6 0.213944 0.605017 0.459943
O O7 0.983970 0.666164 0.407623
O O8 0.172487 0.507130 0.092464
O O9 0.000000 0.632969 0.250000
O O10 0.474834 0.629731 0.024831
O O11 0.192968 0.026572 0.226299
O O12 0.854455 0.904932 0.370230
O O13 0.963521 0.660203 0.838406
O O14 0.232950 0.793713 0.680319
O O15 0.393957 0.889744 0.903478
#
# Coordination Sequence:
#
# PCOD9231048 Si02
#       8
#     4   4   4   2   4   2   4   4
#     4  10  23  40  60  91 128 176 227 279 340 398
#     4  12  25  45  70 104 143 179 230 287 343 413
#     4  11  24  46  74 104 138 188 224 279 355 416
#     4   9  20  36  56  91 114 162 226 273 344 400
#     4  11  24  47  72 103 144 175 234 284 344 420
#     4  11  22  40  70  97 132 184 226 299 342 404
#     4  10  21  40  61  86 130 174 224 284 335 408
#     4  10  20  38  63  88 124 170 232 282 339 401
#
# _framework density 21.962116000000002
#
# number of rings (size 3 to 8) (size 9 to 14) (size 15 to 20)
#    0.000    1.429    3.571    1.286    2.000    3.429 
#    3.857    0.714    0.000    0.000    0.000    0.000 
#    0.000    0.000    0.000    0.000    0.000    0.000 
#
# Total GULP energy -155993.723979 kJ/mol
# GULP energy per Si atom -5571.204428 kJ/mol
# Density = 2.191213 g / cm^3
# Si number density = 21.962116 Si / 1000 Ang^3
#
#
#
# Elastic Constant Matrix: (Units=GPa)
#
#
# Indices 1 2 3 4 5 6 
#
# 1 63.0455 -8.2686 12.5299 0.0000 10.4015 0.0000
# 2 -8.2686 49.1227 6.5635 0.0000 -1.1659 0.0000
# 3 12.5299 6.5635 83.9094 0.0000 19.6414 0.0000
# 4 0.0000 0.0000 0.0000 23.9558 0.0000 5.0251
# 5 10.4015 -1.1659 19.6414 0.0000 27.2551 0.0000
# 6 0.0000 0.0000 0.0000 5.0251 0.0000 28.5821
#
#
#
# Elastic Compliance Matrix: (Units=1/GPa)
#
#
# Indices 1 2 3 4 5 6 
#
# 1 0.017462 0.003023 -0.001581 0.000000 -0.005396 0.000000
# 2 0.003023 0.021233 -0.002472 0.000000 0.001536 0.000000
# 3 -0.001581 -0.002472 0.014712 0.000000 -0.010105 0.000000
# 4 0.000000 0.000000 0.000000 0.043342 0.000000 -0.007620
# 5 -0.005396 0.001536 -0.010105 0.000000 0.046097 0.000000
# 6 0.000000 0.000000 0.000000 -0.007620 0.000000 0.036327
#
#
# Mechanical properties :
#
#
# Convention : Reuss Voigt Hill
#
# Bulk Modulus (GPa) = 19.47535 24.19193 21.83364
# Shear Modulus (GPa) = 25.20801 28.30876 26.75838
#
# Velocity S-wave (km/s) = 3.39159 3.59413 3.49433
# Velocity P-wave (km/s) = 4.92180 5.31629 5.12284
#
# Compressibility (1/GPa) = 0.05134695
#
# Stress axis : x y z
#
# Youngs Moduli (GPa) = 57.26598 47.09723 67.96990
#
# Poissons Ratio (x) = -0.14235 0.10746
# Poissons Ratio (y) = -0.17309 0.16800
# Poissons Ratio (z) = 0.09054 0.11641
#
# Static dielectric constant tensor:
#      x y z
#    x 1.819260 0.000000 -0.012500 
#    y 0.000000 1.818010 0.000000 
#    z -0.012500 0.000000 1.804720 
# 
# From -- ./inp_files/64648.got.cif
#   From: 2010.05.17/outbox.cif.g08.bks.cpg/sg13_33_cif.got.tgz:64648.got - 2010.06.03 16:44:36.
