data_PCOD9231496
_publ_section_title
;
Structure prediction by ZEFSAII (Michael W. Deem and Ramdas Pophale) SiO2 
 PCOD9231496
Probable space group: P 2/C
;
_chemical_formula_sum "Si O2"
_cell_formula_units_Z 30
_cell_length_a 13.104809
_cell_length_b 20.066036
_cell_length_c 5.520640
_cell_angle_alpha 90.000000
_cell_angle_beta 78.901630
_cell_angle_gamma 90.000000
_cell_volume 1424.566366
_symmetry_space_group_name_H-M "P 2/C"
_symmetry_group_IT_number 13
_symmetry_cell_setting 'monoclinic'
loop_
_space_group_symop_operation_xyz
x,y,z
-x,y,1/2-z
-x,-y,-z
x,-y,1/2+z
loop_
_atom_site_type_symbol
_atom_site_label
_atom_site_fract_x
_atom_site_fract_y
_atom_site_fract_z
Si Si1 0.900222 0.734653 0.180277
Si Si2 0.500000 0.235491 0.750000
Si Si3 0.274955 0.958361 0.357406
Si Si4 0.254361 0.209391 0.356496
Si Si5 0.625681 0.535028 0.170593
Si Si6 0.904784 0.135692 0.425836
Si Si7 0.300633 0.316499 0.961064
Si Si8 0.575771 0.121134 0.389046
O O1 0.813394 0.768269 0.389791
O O2 0.821230 0.690622 0.057796
O O3 0.000000 0.698252 0.250000
O O4 0.952195 0.799998 0.036984
O O5 0.393607 0.278043 0.771862
O O6 0.518965 0.186416 0.517390
O O7 0.168645 0.915497 0.402394
O O8 0.370801 0.911448 0.399678
O O9 0.277176 0.993813 0.095951
O O10 0.174747 0.174249 0.210200
O O11 0.337236 0.150432 0.332568
O O12 0.302013 0.276036 0.213925
O O13 0.500000 0.537267 0.250000
O O14 0.657343 0.512756 0.429342
O O15 0.667284 0.607202 0.072898
O O16 0.000000 0.100184 0.250000
O O17 0.500000 0.078990 0.250000
#
# Coordination Sequence:
#
# PCOD9231496 Si02
#       8
#     4   2   4   4   4   4   4   4
#     4  11  21  35  66  94 128 163 206 267 337 388
#     4  10  20  40  60  96 122 164 208 264 338 386
#     4  11  28  44  62  87 120 164 216 263 310 388
#     4   9  20  36  57  95 119 159 199 263 321 384
#     4  10  22  41  64  94 135 183 224 263 312 367
#     4  10  21  39  62  87 119 154 204 266 330 382
#     4  10  21  36  61  95 135 164 217 265 315 383
#     4  10  22  38  63  85 122 157 207 257 326 392
#
# _framework density 21.059038000000001
#
# number of rings (size 3 to 8) (size 9 to 14) (size 15 to 20)
#    0.000    1.867    2.000    1.600    7.467    1.067 
#    0.000    0.000    0.000    0.800    0.000    0.000 
#    0.000    0.000    0.000    0.000    0.000    0.000 
#
# Total GULP energy -167021.044455 kJ/mol
# GULP energy per Si atom -5567.368149 kJ/mol
# Density = 2.101111 g / cm^3
# Si number density = 21.059038 Si / 1000 Ang^3
#
#
#
# Elastic Constant Matrix: (Units=GPa)
#
#
# Indices 1 2 3 4 5 6 
#
# 1 79.1519 15.0739 0.4539 0.0000 -4.5699 0.0000
# 2 15.0739 75.6077 22.2647 0.0000 -7.5007 0.0000
# 3 0.4539 22.2647 60.5819 0.0000 -11.2567 0.0000
# 4 0.0000 0.0000 0.0000 10.4956 0.0000 -24.7517
# 5 -4.5699 -7.5007 -11.2567 0.0000 26.4584 0.0000
# 6 0.0000 0.0000 0.0000 -24.7517 0.0000 -6.5000
#
#
#
# Elastic Compliance Matrix: (Units=1/GPa)
#
#
# Indices 1 2 3 4 5 6 
#
# 1 0.013285 -0.002835 0.001324 0.000000 0.002054 0.000000
# 2 -0.002835 0.015539 -0.005388 0.000000 0.001623 0.000000
# 3 0.001324 -0.005388 0.019801 0.000000 0.007126 0.000000
# 4 0.000000 0.000000 0.000000 0.009547 0.000000 -0.036353
# 5 0.002054 0.001623 0.007126 0.000000 0.041642 0.000000
# 6 0.000000 0.000000 0.000000 -0.036353 0.000000 -0.015415
#
#
# Mechanical properties :
#
#
# Convention : Reuss Voigt Hill
#
# Bulk Modulus (GPa) = 28.71314 32.32515 30.51915
# Shear Modulus (GPa) = 45.53559 17.92741 31.73150
#
# Velocity S-wave (km/s) = 4.65508 2.92086 3.88595
# Velocity P-wave (km/s) = 6.52359 5.17284 5.88708
#
# Compressibility (1/GPa) = 0.03482726
#
# Stress axis : x y z
#
# Youngs Moduli (GPa) = 75.27409 64.35429 50.50302
#
# Poissons Ratio (x) = 0.18242 -0.06686
# Poissons Ratio (y) = 0.21338 0.27211
# Poissons Ratio (z) = -0.09966 0.34674
#
# Static dielectric constant tensor:
#      x y z
#    x 1.853190 0.000000 0.059860 
#    y 0.000000 1.752300 0.000000 
#    z 0.059860 0.000000 1.852940 
# 
# From -- ./inp_files/5345.got.cif
#   From: 2010.05.17/outbox.cif.g08.bks.cpg/sg13_3_cif.got.tgz:5345.got - 2010.06.03 16:44:36.
