data_PCOD9231775
_publ_section_title
;
Structure prediction by ZEFSAII (Michael W. Deem and Ramdas Pophale) SiO2 
 PCOD9231775
Probable space group: P 2/C
;
_chemical_formula_sum "Si O2"
_cell_formula_units_Z 16
_cell_length_a 7.132849
_cell_length_b 9.309491
_cell_length_c 15.629988
_cell_angle_alpha 90.000000
_cell_angle_beta 139.627816
_cell_angle_gamma 90.000000
_cell_volume 672.287611
_symmetry_space_group_name_H-M "P 2/C"
_symmetry_group_IT_number 13
_symmetry_cell_setting 'monoclinic'
loop_
_space_group_symop_operation_xyz
x,y,z
-x,y,1/2-z
-x,-y,-z
x,-y,1/2+z
loop_
_atom_site_type_symbol
_atom_site_label
_atom_site_fract_x
_atom_site_fract_y
_atom_site_fract_z
Si Si1 0.282554 0.711260 0.785851
Si Si2 0.329175 0.852977 0.442890
Si Si3 0.345244 0.423632 0.864188
Si Si4 0.173436 0.995428 0.648085
O O1 0.367323 0.544952 0.798263
O O2 0.000000 0.706269 0.750000
O O3 0.196788 0.829319 0.686636
O O4 0.555922 0.775778 0.931286
O O5 0.433957 0.742404 0.405446
O O6 0.001547 0.906160 0.344937
O O7 0.500000 0.000000 0.500000
O O8 0.000000 0.405525 0.750000
O O9 0.500000 0.500000 0.000000
O O10 0.500000 0.047494 0.750000
O O11 0.000000 0.000000 0.500000
#
# Coordination Sequence:
#
# PCOD9231775 Si02
#       4
#     4   4   4   4
#     4  10  20  41  66  96 135 180 234 289 340 412
#     4  11  22  38  70 103 128 176 248 292 334 407
#     4   9  21  38  64  99 130 172 227 297 341 392
#     4  12  25  40  65 106 148 182 224 293 366 425
#
# _framework density 23.799340000000001
#
# number of rings (size 3 to 8) (size 9 to 14) (size 15 to 20)
#    0.000    1.500    5.000    0.000    3.500    0.000 
#    0.000    0.000    0.000   19.500    0.000    0.000 
#    0.000    0.000    0.000    0.000    0.000    0.000 
#
# Total GULP energy -89141.753077 kJ/mol
# GULP energy per Si atom -5571.359567 kJ/mol
# Density = 2.374517 g / cm^3
# Si number density = 23.799340 Si / 1000 Ang^3
#
#
#
# Elastic Constant Matrix: (Units=GPa)
#
#
# Indices 1 2 3 4 5 6 
#
# 1 86.6499 44.4583 26.9373 0.0000 9.3823 0.0000
# 2 44.4583 244.6578 36.0338 0.0000 -9.4295 0.0000
# 3 26.9373 36.0338 114.9936 0.0000 10.8834 0.0000
# 4 0.0000 0.0000 0.0000 49.9721 0.0000 -5.7146
# 5 9.3823 -9.4295 10.8834 0.0000 47.7109 0.0000
# 6 0.0000 0.0000 0.0000 -5.7146 0.0000 11.5318
#
#
#
# Elastic Compliance Matrix: (Units=1/GPa)
#
#
# Indices 1 2 3 4 5 6 
#
# 1 0.013682 -0.002256 -0.002250 0.000000 -0.002623 0.000000
# 2 -0.002256 0.004723 -0.001106 0.000000 0.001629 0.000000
# 3 -0.002250 -0.001106 0.009759 0.000000 -0.002002 0.000000
# 4 0.000000 0.000000 0.000000 0.021213 0.000000 0.010512
# 5 -0.002623 0.001629 -0.002002 0.000000 0.022254 0.000000
# 6 0.000000 0.000000 0.000000 0.010512 0.000000 0.091926
#
#
# Mechanical properties :
#
#
# Convention : Reuss Voigt Hill
#
# Bulk Modulus (GPa) = 59.02879 73.46224 66.24551
# Shear Modulus (GPa) = 27.71208 44.43441 36.07324
#
# Velocity S-wave (km/s) = 3.41604 4.32562 3.89745
# Velocity P-wave (km/s) = 6.35733 7.47545 6.93895
#
# Compressibility (1/GPa) = 0.01694089
#
# Stress axis : x y z
#
# Youngs Moduli (GPa) = 73.09094 211.73323 102.46821
#
# Poissons Ratio (x) = 0.47765 0.23053
# Poissons Ratio (y) = 0.16489 0.11330
# Poissons Ratio (z) = 0.16444 0.23411
#
# Static dielectric constant tensor:
#      x y z
#    x 1.893540 0.000000 0.037910 
#    y 0.000000 2.094990 0.000000 
#    z 0.037910 0.000000 1.897970 
# 
# From -- ./inp_files/27407.got.cif
#   From: 2010.05.17/outbox.cif.g08.bks.cpg/sg13_14_cif.got.tgz:27407.got - 2010.06.03 16:44:36.
