data_PCOD9231163
_publ_section_title
;
Structure prediction by ZEFSAII (Michael W. Deem and Ramdas Pophale) SiO2 
 PCOD9231163
Probable space group: P 2/C
;
_chemical_formula_sum "Si O2"
_cell_formula_units_Z 24
_cell_length_a 18.818117
_cell_length_b 13.011015
_cell_length_c 8.842489
_cell_angle_alpha 90.000000
_cell_angle_beta 32.188536
_cell_angle_gamma 90.000000
_cell_volume 1153.321099
_symmetry_space_group_name_H-M "P 2/C"
_symmetry_group_IT_number 13
_symmetry_cell_setting 'monoclinic'
loop_
_space_group_symop_operation_xyz
x,y,z
-x,y,1/2-z
-x,-y,-z
x,-y,1/2+z
loop_
_atom_site_type_symbol
_atom_site_label
_atom_site_fract_x
_atom_site_fract_y
_atom_site_fract_z
Si Si1 0.490768 0.865499 0.086375
Si Si2 0.102788 0.541782 0.691211
Si Si3 0.222956 0.133225 0.582343
Si Si4 0.149854 0.680688 0.042958
Si Si5 0.253658 0.735748 0.544870
Si Si6 0.774976 0.932128 0.073955
O O1 0.500000 0.893126 0.250000
O O2 0.407881 0.758043 0.232292
O O3 0.381674 0.936361 0.195490
O O4 0.625313 0.854228 0.750433
O O5 0.184329 0.439042 0.500344
O O6 0.194993 0.632280 0.583037
O O7 0.000000 0.579964 0.750000
O O8 0.000000 0.500000 0.000000
O O9 0.157514 0.244257 0.672189
O O10 0.215944 0.094903 0.766960
O O11 0.164294 0.040955 0.583923
O O12 0.000000 0.679586 0.250000
O O13 0.236057 0.732082 0.755792
O O14 0.177593 0.834763 0.610832
#
# Coordination Sequence:
#
# PCOD9231163 Si02
#       6
#     4   4   4   4   4   4
#     4  10  20  38  66  87 128 160 205 256 296 378
#     4  11  22  40  67  89 120 165 209 258 304 375
#     4  12  21  42  61  96 126 168 203 255 317 360
#     4  11  23  40  65  90 124 164 211 253 306 379
#     4  10  22  40  60  96 119 157 217 249 312 353
#     4  10  24  36  67  94 125 164 210 252 308 381
#
# _framework density 20.809470999999998
#
# number of rings (size 3 to 8) (size 9 to 14) (size 15 to 20)
#    1.000    0.333    5.000    3.000    2.333    0.000 
#    0.000    5.000    0.000    0.000    0.000    0.000 
#    0.000    0.000    0.000    0.000    0.000    0.000 
#
# Total GULP energy -133828.791372 kJ/mol
# GULP energy per Si atom -5576.199640 kJ/mol
# Density = 2.076211 g / cm^3
# Si number density = 20.809471 Si / 1000 Ang^3
#
#
#
# Elastic Constant Matrix: (Units=GPa)
#
#
# Indices 1 2 3 4 5 6 
#
# 1 83.2073 29.7704 -8.7054 0.0000 23.9811 0.0000
# 2 29.7704 120.3912 8.7172 0.0000 -2.8339 0.0000
# 3 -8.7054 8.7172 37.2964 0.0000 15.4744 0.0000
# 4 0.0000 0.0000 0.0000 35.3281 0.0000 -1.1818
# 5 23.9811 -2.8339 15.4744 0.0000 27.2832 0.0000
# 6 0.0000 0.0000 0.0000 -1.1818 0.0000 47.0447
#
#
#
# Elastic Compliance Matrix: (Units=1/GPa)
#
#
# Indices 1 2 3 4 5 6 
#
# 1 0.032575 -0.011292 0.029567 0.000000 -0.046575 0.000000
# 2 -0.011292 0.012509 -0.013361 0.000000 0.018803 0.000000
# 3 0.029567 -0.013361 0.063027 0.000000 -0.063124 0.000000
# 4 0.000000 0.000000 0.000000 0.028330 0.000000 0.000712
# 5 -0.046575 0.018803 -0.063124 0.000000 0.115346 0.000000
# 6 0.000000 0.000000 0.000000 0.000712 0.000000 0.021274
#
#
# Mechanical properties :
#
#
# Convention : Reuss Voigt Hill
#
# Bulk Modulus (GPa) = 8.47903 33.38436 20.93169
# Shear Modulus (GPa) = 16.52642 36.00538 26.26590
#
# Velocity S-wave (km/s) = 2.82117 4.16413 3.55661
# Velocity P-wave (km/s) = 3.83347 6.26080 5.19101
#
# Compressibility (1/GPa) = 0.11793808
#
# Stress axis : x y z
#
# Youngs Moduli (GPa) = 30.69813 79.94440 15.86634
#
# Poissons Ratio (x) = 0.90277 -0.46912
# Poissons Ratio (y) = 0.34666 0.21199
# Poissons Ratio (z) = -0.90765 1.06812
#
# Static dielectric constant tensor:
#      x y z
#    x 1.744980 0.000000 -0.027950 
#    y 0.000000 1.857540 0.000000 
#    z -0.027950 0.000000 1.846240 
# 
# From -- ./inp_files/23178.got.cif
#   From: 2010.05.17/outbox.cif.g08.bks.cpg/sg13_12_cif.got.tgz:23178.got - 2010.06.03 16:44:36.
