data_PCOD9231582
_publ_section_title
;
Structure prediction by ZEFSAII (Michael W. Deem and Ramdas Pophale) SiO2 
 PCOD9231582
Probable space group: P 2/C
;
_chemical_formula_sum "Si O2"
_cell_formula_units_Z 20
_cell_length_a 9.376191
_cell_length_b 12.472823
_cell_length_c 17.912175
_cell_angle_alpha 90.000000
_cell_angle_beta 153.818791
_cell_angle_gamma 90.000000
_cell_volume 924.243513
_symmetry_space_group_name_H-M "P 2/C"
_symmetry_group_IT_number 13
_symmetry_cell_setting 'monoclinic'
loop_
_space_group_symop_operation_xyz
x,y,z
-x,y,1/2-z
-x,-y,-z
x,-y,1/2+z
loop_
_atom_site_type_symbol
_atom_site_label
_atom_site_fract_x
_atom_site_fract_y
_atom_site_fract_z
Si Si1 0.885655 0.384873 0.419872
Si Si2 0.891388 0.287578 0.124671
Si Si3 0.030387 0.148853 0.986703
Si Si4 0.280701 0.132988 0.819562
Si Si5 0.717975 0.910090 0.740415
O O1 0.500000 0.381469 0.250000
O O2 0.000988 0.275386 0.513290
O O3 0.000000 0.500000 0.500000
O O4 0.031492 0.366014 0.406665
O O5 0.000000 0.347282 0.250000
O O6 0.149054 0.190931 0.241016
O O7 0.551790 0.223712 0.960120
O O8 0.795070 0.132567 0.806079
O O9 0.034546 0.088086 0.070120
O O10 0.379012 0.120851 0.117054
O O11 0.000000 0.151155 0.750000
O O12 0.343264 0.004702 0.847644
#
# Coordination Sequence:
#
# PCOD9231582 Si02
#       5
#     4   4   4   4   4
#     4  11  25  47  74  97 124 172 225 284 344 398
#     4  11  24  44  68  97 141 179 214 281 338 386
#     4  10  21  41  63  95 138 171 225 279 325 394
#     4  12  25  36  63 104 139 182 228 257 320 408
#     4  10  20  40  64  93 140 184 217 265 325 394
#
# _framework density 21.639319
#
# number of rings (size 3 to 8) (size 9 to 14) (size 15 to 20)
#    0.000    1.200    4.000    3.600    2.800    9.600 
#    0.000    2.000    0.000    0.000    0.000    0.000 
#    0.000    0.000    0.000    0.000    0.000    0.000 
#
# Total GULP energy -111384.124833 kJ/mol
# GULP energy per Si atom -5569.206242 kJ/mol
# Density = 2.159007 g / cm^3
# Si number density = 21.639319 Si / 1000 Ang^3
#
#
#
# Elastic Constant Matrix: (Units=GPa)
#
#
# Indices 1 2 3 4 5 6 
#
# 1 118.8016 61.8853 35.8996 0.0000 -4.2390 0.0000
# 2 61.8853 115.1128 32.7896 0.0000 -9.8293 0.0000
# 3 35.8996 32.7896 70.7991 0.0000 -17.6447 0.0000
# 4 0.0000 0.0000 0.0000 -127.9077 0.0000 58.5631
# 5 -4.2390 -9.8293 -17.6447 0.0000 40.6467 0.0000
# 6 0.0000 0.0000 0.0000 58.5631 0.0000 -13.8357
#
#
#
# Elastic Compliance Matrix: (Units=1/GPa)
#
#
# Indices 1 2 3 4 5 6 
#
# 1 0.012614 -0.005745 -0.004209 0.000000 -0.001901 0.000000
# 2 -0.005745 0.012631 -0.002607 0.000000 0.001324 0.000000
# 3 -0.004209 -0.002607 0.019286 0.000000 0.007303 0.000000
# 4 0.000000 0.000000 0.000000 0.008335 0.000000 0.035280
# 5 -0.001901 0.001324 0.007303 0.000000 0.027894 0.000000
# 6 0.000000 0.000000 0.000000 0.035280 0.000000 0.077055
#
#
# Mechanical properties :
#
#
# Convention : Reuss Voigt Hill
#
# Bulk Modulus (GPa) = 51.52182 62.87361 57.19772
# Shear Modulus (GPa) = 26.39811 -8.61005 8.89403
#
# Velocity S-wave (km/s) = 3.49652 -1.99688 2.02954
# Velocity P-wave (km/s) = 6.33734 4.87869 5.65524
#
# Compressibility (1/GPa) = 0.01940925
#
# Stress axis : x y z
#
# Youngs Moduli (GPa) = 79.27694 79.16925 51.85024
#
# Poissons Ratio (x) = 0.45480 0.21825
# Poissons Ratio (y) = 0.45542 0.13518
# Poissons Ratio (z) = 0.33370 0.20641
#
# Static dielectric constant tensor:
#      x y z
#    x 1.861710 0.000000 -0.124070 
#    y 0.000000 1.876690 0.000000 
#    z -0.124070 0.000000 1.922170 
# 
# From -- ./inp_files/64486.got.cif
#   From: 2010.05.17/outbox.cif.g08.bks.cpg/sg13_33_cif.got.tgz:64486.got - 2010.06.03 16:44:36.
