data_PCOD9231196
_publ_section_title
;
Structure prediction by ZEFSAII (Michael W. Deem and Ramdas Pophale) SiO2 
 PCOD9231196
Probable space group: P 2/C
;
_chemical_formula_sum "Si O2"
_cell_formula_units_Z 22
_cell_length_a 11.979243
_cell_length_b 9.118921
_cell_length_c 15.941520
_cell_angle_alpha 90.000000
_cell_angle_beta 142.578127
_cell_angle_gamma 90.000000
_cell_volume 1058.222115
_symmetry_space_group_name_H-M "P 2/C"
_symmetry_group_IT_number 13
_symmetry_cell_setting 'monoclinic'
loop_
_space_group_symop_operation_xyz
x,y,z
-x,y,1/2-z
-x,-y,-z
x,-y,1/2+z
loop_
_atom_site_type_symbol
_atom_site_label
_atom_site_fract_x
_atom_site_fract_y
_atom_site_fract_z
Si Si1 0.824495 0.999613 0.835904
Si Si2 0.500000 0.874021 0.250000
Si Si3 0.125969 0.689782 0.207726
Si Si4 0.553528 0.156163 0.075802
Si Si5 0.265343 0.347788 0.978201
Si Si6 0.484135 0.356673 0.607632
O O1 0.652359 0.035574 0.792722
O O2 0.852743 0.135317 0.789389
O O3 0.751289 0.863936 0.737618
O O4 0.000000 0.000000 0.000000
O O5 0.586548 0.764777 0.369950
O O6 0.181072 0.642744 0.334119
O O7 0.293567 0.629004 0.251451
O O8 0.911242 0.657395 0.066421
O O9 0.398450 0.206263 0.050535
O O10 0.553543 0.284288 0.005997
O O11 0.500000 0.000000 0.000000
O O12 0.387830 0.490219 0.065021
#
# Coordination Sequence:
#
# PCOD9231196 Si02
#       6
#     4   2   4   4   4   4
#     4  11  24  41  61  95 133 164 211 269 318 376
#     4  10  22  44  60  90 134 162 204 272 326 354
#     4   9  19  38  63  88 124 159 211 268 302 362
#     4  11  19  40  69  89 121 174 211 254 316 382
#     4  10  20  38  68  91 121 166 217 259 313 381
#     4  10  21  42  66  90 129 169 208 267 316 383
#
# _framework density 20.789587999999998
#
# number of rings (size 3 to 8) (size 9 to 14) (size 15 to 20)
#    0.000    1.818    5.455    2.182    2.545    0.000 
#   13.091    1.818    0.000    0.000    0.000    0.000 
#    0.000    0.000    0.000    0.000    0.000    0.000 
#
# Total GULP energy -122594.688286 kJ/mol
# GULP energy per Si atom -5572.485831 kJ/mol
# Density = 2.074227 g / cm^3
# Si number density = 20.789588 Si / 1000 Ang^3
#
#
#
# Elastic Constant Matrix: (Units=GPa)
#
#
# Indices 1 2 3 4 5 6 
#
# 1 57.3650 29.2046 12.7871 0.0000 13.7972 0.0000
# 2 29.2046 71.9661 38.9536 0.0000 31.3897 0.0000
# 3 12.7871 38.9536 97.0427 0.0000 19.2320 0.0000
# 4 0.0000 0.0000 0.0000 24.7577 0.0000 4.5579
# 5 13.7972 31.3897 19.2320 0.0000 29.6649 0.0000
# 6 0.0000 0.0000 0.0000 4.5579 0.0000 13.5058
#
#
#
# Elastic Compliance Matrix: (Units=1/GPa)
#
#
# Indices 1 2 3 4 5 6 
#
# 1 0.022070 -0.008762 0.000925 0.000000 -0.001593 0.000000
# 2 -0.008762 0.032331 -0.006714 0.000000 -0.025783 0.000000
# 3 0.000925 -0.006714 0.013259 0.000000 -0.001922 0.000000
# 4 0.000000 0.000000 0.000000 0.043067 0.000000 -0.014534
# 5 -0.001593 -0.025783 -0.001922 0.000000 0.062979 0.000000
# 6 0.000000 0.000000 0.000000 -0.014534 0.000000 0.078947
#
#
# Mechanical properties :
#
#
# Convention : Reuss Voigt Hill
#
# Bulk Modulus (GPa) = 25.93513 43.14048 34.53781
# Shear Modulus (GPa) = 16.97176 23.28092 20.12634
#
# Velocity S-wave (km/s) = 2.86030 3.35002 3.11480
# Velocity P-wave (km/s) = 4.83845 5.97993 5.43922
#
# Compressibility (1/GPa) = 0.03855774
#
# Stress axis : x y z
#
# Youngs Moduli (GPa) = 45.31048 30.93016 75.42251
#
# Poissons Ratio (x) = 0.27101 -0.06974
# Poissons Ratio (y) = 0.39701 0.50635
# Poissons Ratio (z) = -0.04190 0.20765
#
# Static dielectric constant tensor:
#      x y z
#    x 1.796820 0.000000 -0.034580 
#    y 0.000000 1.737540 0.000000 
#    z -0.034580 0.000000 1.758340 
# 
# From -- ./inp_files/66165.got.cif
#   From: 2010.05.17/outbox.cif.g08.bks.cpg/sg13_34_cif.got.tgz:66165.got - 2010.06.03 16:44:36.
