data_PCOD9231886
_publ_section_title
;
Structure prediction by ZEFSAII (Michael W. Deem and Ramdas Pophale) SiO2 
 PCOD9231886
Probable space group: P 2/C
;
_chemical_formula_sum "Si O2"
_cell_formula_units_Z 22
_cell_length_a 9.906950
_cell_length_b 9.153801
_cell_length_c 10.542734
_cell_angle_alpha 90.000000
_cell_angle_beta 85.601592
_cell_angle_gamma 90.000000
_cell_volume 953.265229
_symmetry_space_group_name_H-M "P 2/C"
_symmetry_group_IT_number 13
_symmetry_cell_setting 'monoclinic'
loop_
_space_group_symop_operation_xyz
x,y,z
-x,y,1/2-z
-x,-y,-z
x,-y,1/2+z
loop_
_atom_site_type_symbol
_atom_site_label
_atom_site_fract_x
_atom_site_fract_y
_atom_site_fract_z
Si Si1 0.717072 0.200512 0.298415
Si Si2 0.431797 0.734237 0.429098
Si Si3 0.000000 0.362378 0.250000
Si Si4 0.167274 0.418364 0.619522
Si Si5 0.706267 0.145721 0.810308
Si Si6 0.331455 0.450948 0.350408
O O1 0.647618 0.251338 0.434295
O O2 0.637192 0.285553 0.192499
O O3 0.869855 0.258248 0.262802
O O4 0.721368 0.026870 0.303723
O O5 0.338010 0.805883 0.327416
O O6 0.577205 0.810597 0.407455
O O7 0.445397 0.565170 0.384804
O O8 0.034195 0.481447 0.138108
O O9 0.169001 0.244937 0.648989
O O10 0.236944 0.442633 0.480234
O O11 0.257325 0.480647 0.731732
#
# Coordination Sequence:
#
# PCOD9231886 Si02
#       6
#     4   4   2   4   4   4
#     4  11  23  42  68  99 130 175 219 274 328 392
#     4  10  21  46  63  98 133 170 219 277 321 405
#     4  10  22  44  66  94 134 170 232 270 312 392
#     4  10  22  41  65  95 132 175 219 268 322 386
#     4  10  24  41  65  97 137 169 216 274 342 384
#     4  10  20  42  66  98 128 172 226 257 327 384
#
# _framework density 23.078571
#
# number of rings (size 3 to 8) (size 9 to 14) (size 15 to 20)
#    0.000    1.818    3.636    0.545    2.545    4.364 
#    6.545    0.909    0.000    0.000    0.000    0.000 
#    0.000    0.000    0.000    0.000    0.000    0.000 
#
# Total GULP energy -122762.579953 kJ/mol
# GULP energy per Si atom -5580.117271 kJ/mol
# Density = 2.302604 g / cm^3
# Si number density = 23.078571 Si / 1000 Ang^3
#
#
#
# Elastic Constant Matrix: (Units=GPa)
#
#
# Indices 1 2 3 4 5 6 
#
# 1 100.2713 65.8091 48.7018 0.0000 -23.9174 0.0000
# 2 65.8091 233.7903 53.6644 0.0000 -14.0339 0.0000
# 3 48.7018 53.6644 201.6631 0.0000 -22.3762 0.0000
# 4 0.0000 0.0000 0.0000 202.3826 0.0000 60.0525
# 5 -23.9174 -14.0339 -22.3762 0.0000 37.2718 0.0000
# 6 0.0000 0.0000 0.0000 60.0525 0.0000 54.8627
#
#
#
# Elastic Compliance Matrix: (Units=1/GPa)
#
#
# Indices 1 2 3 4 5 6 
#
# 1 0.014743 -0.003289 -0.001899 0.000000 0.007082 0.000000
# 2 -0.003289 0.005329 -0.000681 0.000000 -0.000513 0.000000
# 3 -0.001899 -0.000681 0.005823 0.000000 0.002021 0.000000
# 4 0.000000 0.000000 0.000000 0.007318 0.000000 -0.008010
# 5 0.007082 -0.000513 0.002021 0.000000 0.032394 0.000000
# 6 0.000000 0.000000 0.000000 -0.008010 0.000000 0.026995
#
#
# Mechanical properties :
#
#
# Convention : Reuss Voigt Hill
#
# Bulk Modulus (GPa) = 70.63805 96.89724 83.76764
# Shear Modulus (GPa) = 45.84651 83.40672 64.62661
#
# Velocity S-wave (km/s) = 4.46190 6.01820 5.29751
# Velocity P-wave (km/s) = 7.56431 9.50624 8.59033
#
# Compressibility (1/GPa) = 0.01415668
#
# Stress axis : x y z
#
# Youngs Moduli (GPa) = 67.82705 187.66718 171.73853
#
# Poissons Ratio (x) = 0.61723 0.32622
# Poissons Ratio (y) = 0.22308 0.11688
# Poissons Ratio (z) = 0.12884 0.12773
#
# Static dielectric constant tensor:
#      x y z
#    x 1.994190 0.000000 0.019180 
#    y 0.000000 1.916400 0.000000 
#    z 0.019180 0.000000 1.852380 
# 
# From -- ./inp_files/32150.got.cif
#   From: 2010.05.17/outbox.cif.g08.bks.cpg/sg13_17_cif.got.tgz:32150.got - 2010.06.03 16:44:36.
