data_PCOD9231952
_publ_section_title
;
Structure prediction by ZEFSAII (Michael W. Deem and Ramdas Pophale) SiO2 
 PCOD9231952
Probable space group: P 2/C
;
_chemical_formula_sum "Si O2"
_cell_formula_units_Z 20
_cell_length_a 6.681447
_cell_length_b 6.960357
_cell_length_c 16.925700
_cell_angle_alpha 90.000000
_cell_angle_beta 76.892196
_cell_angle_gamma 90.000000
_cell_volume 766.625310
_symmetry_space_group_name_H-M "P 2/C"
_symmetry_group_IT_number 13
_symmetry_cell_setting 'monoclinic'
loop_
_space_group_symop_operation_xyz
x,y,z
-x,y,1/2-z
-x,-y,-z
x,-y,1/2+z
loop_
_atom_site_type_symbol
_atom_site_label
_atom_site_fract_x
_atom_site_fract_y
_atom_site_fract_z
Si Si1 0.752021 0.494957 0.977994
Si Si2 0.813383 0.759519 0.116069
Si Si3 0.661236 0.110578 0.040699
Si Si4 0.500000 0.580516 0.250000
Si Si5 0.295758 0.274946 0.169343
Si Si6 0.000000 0.937591 0.250000
O O1 0.833480 0.587304 0.051693
O O2 0.782634 0.266662 0.978611
O O3 0.500000 0.500000 0.000000
O O4 0.810152 0.623820 0.897317
O O5 0.587456 0.711888 0.172958
O O6 0.945493 0.802305 0.181520
O O7 0.802405 0.955633 0.068786
O O8 0.523719 0.214534 0.119798
O O9 0.500000 0.000000 0.000000
O O10 0.324621 0.438978 0.232239
O O11 0.181088 0.086194 0.209927
#
# Coordination Sequence:
#
# PCOD9231952 Si02
#       6
#     4   4   4   2   4   2
#     4  10  20  42  73 102 132 187 259 299 335 417
#     4  12  24  44  70 104 145 190 242 292 363 432
#     4  11  19  42  77 103 127 187 261 300 330 421
#     4  12  22  44  80  96 144 198 250 296 346 434
#     4  11  23  45  69 106 145 188 243 295 368 429
#     4  12  30  42  66 114 164 188 218 302 400 432
#
# _framework density 26.088360999999999
#
# number of rings (size 3 to 8) (size 9 to 14) (size 15 to 20)
#    0.000    0.800    8.000    2.400    0.000    1.600 
#    0.000    1.000    0.000    0.000    0.000    0.000 
#    0.000    0.000    0.000    0.000    0.000    0.000 
#
# Total GULP energy -112120.783025 kJ/mol
# GULP energy per Si atom -5606.039151 kJ/mol
# Density = 2.602898 g / cm^3
# Si number density = 26.088361 Si / 1000 Ang^3
#
#
#
# Elastic Constant Matrix: (Units=GPa)
#
#
# Indices 1 2 3 4 5 6 
#
# 1 72.6991 39.6495 41.4014 0.0000 13.9666 0.0000
# 2 39.6495 161.4877 76.0553 0.0000 17.0472 0.0000
# 3 41.4014 76.0553 158.3936 0.0000 27.7080 0.0000
# 4 0.0000 0.0000 0.0000 56.3222 0.0000 5.8181
# 5 13.9666 17.0472 27.7080 0.0000 59.6234 0.0000
# 6 0.0000 0.0000 0.0000 5.8181 0.0000 66.1248
#
#
#
# Elastic Compliance Matrix: (Units=1/GPa)
#
#
# Indices 1 2 3 4 5 6 
#
# 1 0.017223 -0.002667 -0.002883 0.000000 -0.001932 0.000000
# 2 -0.002667 0.008431 -0.003308 0.000000 -0.000249 0.000000
# 3 -0.002883 -0.003308 0.009113 0.000000 -0.002614 0.000000
# 4 0.000000 0.000000 0.000000 0.017918 0.000000 -0.001577
# 5 -0.001932 -0.000249 -0.002614 0.000000 0.018510 0.000000
# 6 0.000000 0.000000 0.000000 -0.001577 0.000000 0.015262
#
#
# Mechanical properties :
#
#
# Convention : Reuss Voigt Hill
#
# Bulk Modulus (GPa) = 58.64799 78.53253 68.59026
# Shear Modulus (GPa) = 45.51406 52.11235 48.81321
#
# Velocity S-wave (km/s) = 4.18139 4.47423 4.33028
# Velocity P-wave (km/s) = 6.77062 7.54052 7.16592
#
# Compressibility (1/GPa) = 0.01705088
#
# Stress axis : x y z
#
# Youngs Moduli (GPa) = 58.06206 118.60489 109.73855
#
# Poissons Ratio (x) = 0.31630 0.31641
# Poissons Ratio (y) = 0.15484 0.36300
# Poissons Ratio (z) = 0.16741 0.39233
#
# Static dielectric constant tensor:
#      x y z
#    x 2.216380 0.000000 -0.102040 
#    y 0.000000 2.022560 0.000000 
#    z -0.102040 0.000000 2.130020 
# 
# From -- ./inp_files/62449.got.cif
#   From: 2010.05.17/outbox.cif.g08.bks.cpg/sg13_32_cif.got.tgz:62449.got - 2010.06.03 16:44:36.
