data_PCOD9231840
_publ_section_title
;
Structure prediction by ZEFSAII (Michael W. Deem and Ramdas Pophale) SiO2 
 PCOD9231840
Probable space group: P 2/C
;
_chemical_formula_sum "Si O2"
_cell_formula_units_Z 28
_cell_length_a 8.900694
_cell_length_b 5.157138
_cell_length_c 28.356481
_cell_angle_alpha 90.000000
_cell_angle_beta 64.496913
_cell_angle_gamma 90.000000
_cell_volume 1174.794879
_symmetry_space_group_name_H-M "P 2/C"
_symmetry_group_IT_number 13
_symmetry_cell_setting 'monoclinic'
loop_
_space_group_symop_operation_xyz
x,y,z
-x,y,1/2-z
-x,-y,-z
x,-y,1/2+z
loop_
_atom_site_type_symbol
_atom_site_label
_atom_site_fract_x
_atom_site_fract_y
_atom_site_fract_z
Si Si1 0.000000 0.030481 0.250000
Si Si2 0.951974 0.885580 0.431912
Si Si3 0.184813 0.232699 0.344488
Si Si4 0.683076 0.389644 0.315536
Si Si5 0.500000 0.336237 0.250000
Si Si6 0.201924 0.757875 0.475967
Si Si7 0.637893 0.719942 0.585539
Si Si8 0.933150 0.667138 0.342879
O O1 0.834164 0.200470 0.280685
O O2 0.974830 0.864212 0.205653
O O3 0.860134 0.135893 0.465360
O O4 0.097382 0.980678 0.377075
O O5 0.036100 0.743556 0.464948
O O6 0.856345 0.728890 0.405101
O O7 0.349033 0.175983 0.292603
O O8 0.252831 0.363600 0.383446
O O9 0.055887 0.422989 0.335977
O O10 0.584983 0.482988 0.282217
O O11 0.548042 0.268576 0.369427
O O12 0.774449 0.609356 0.331953
O O13 0.312338 0.501068 0.458696
O O14 0.303822 0.001246 0.440650
#
# Coordination Sequence:
#
# PCOD9231840 Si02
#       8
#     2   4   4   4   2   4   4   4
#     4  12  26  44  66  98 130 186 228 286 344 424
#     4  10  22  38  72 101 138 179 235 278 345 411
#     4  10  21  40  65  99 133 176 226 286 335 415
#     4  11  25  43  66  94 138 176 229 286 348 419
#     4  10  20  42  62  92 126 176 220 286 354 402
#     4  10  22  42  70 108 140 185 230 292 340 405
#     4  10  23  43  70 102 143 176 232 287 348 399
#     4  12  23  42  68  97 135 181 230 285 344 424
#
# _framework density 23.833949
#
# number of rings (size 3 to 8) (size 9 to 14) (size 15 to 20)
#    0.000    1.429    1.429    3.857    4.000    1.714 
#    0.000    2.857    0.000    0.000    0.000    0.000 
#    0.000    0.000    0.000    0.000    0.000    0.000 
#
# Total GULP energy -156350.041855 kJ/mol
# GULP energy per Si atom -5583.930066 kJ/mol
# Density = 2.377970 g / cm^3
# Si number density = 23.833949 Si / 1000 Ang^3
#
#
#
# Elastic Constant Matrix: (Units=GPa)
#
#
# Indices 1 2 3 4 5 6 
#
# 1 84.0319 11.9383 35.4131 0.0000 2.3789 0.0000
# 2 11.9383 52.2053 11.0521 0.0000 8.4873 0.0000
# 3 35.4131 11.0521 115.9750 0.0000 6.8485 0.0000
# 4 0.0000 0.0000 0.0000 44.4515 0.0000 3.5145
# 5 2.3789 8.4873 6.8485 0.0000 36.8058 0.0000
# 6 0.0000 0.0000 0.0000 3.5145 0.0000 10.9147
#
#
#
# Elastic Compliance Matrix: (Units=1/GPa)
#
#
# Indices 1 2 3 4 5 6 
#
# 1 0.013936 -0.002395 -0.004051 0.000000 0.000405 0.000000
# 2 -0.002395 0.020628 -0.000973 0.000000 -0.004421 0.000000
# 3 -0.004051 -0.000973 0.010034 0.000000 -0.001381 0.000000
# 4 0.000000 0.000000 0.000000 0.023084 0.000000 -0.007433
# 5 0.000405 -0.004421 -0.001381 0.000000 0.028420 0.000000
# 6 0.000000 0.000000 0.000000 -0.007433 0.000000 0.094013
#
#
# Mechanical properties :
#
#
# Convention : Reuss Voigt Hill
#
# Bulk Modulus (GPa) = 33.60391 41.00214 37.30303
# Shear Modulus (GPa) = 23.26955 31.35499 27.31227
#
# Velocity S-wave (km/s) = 3.12800 3.63100 3.38885
# Velocity P-wave (km/s) = 5.21303 5.90080 5.56755
#
# Compressibility (1/GPa) = 0.02975844
#
# Stress axis : x y z
#
# Youngs Moduli (GPa) = 71.75508 48.47859 99.66261
#
# Poissons Ratio (x) = 0.11612 0.40375
# Poissons Ratio (y) = 0.17187 0.09700
# Poissons Ratio (z) = 0.29069 0.04719
#
# Static dielectric constant tensor:
#      x y z
#    x 2.019960 0.000000 0.078440 
#    y 0.000000 2.011690 0.000000 
#    z 0.078440 0.000000 1.979120 
# 
# From -- ./inp_files/90812.got.cif
#   From: 2010.05.17/outbox.cif.g08.bks.cpg/sg13_46_cif.got.tgz:90812.got - 2010.06.03 16:44:36.
