data_PCOD9231273
_publ_section_title
;
Structure prediction by ZEFSAII (Michael W. Deem and Ramdas Pophale) SiO2 
 PCOD9231273
Probable space group: P 2/C
;
_chemical_formula_sum "Si O2"
_cell_formula_units_Z 30
_cell_length_a 23.129527
_cell_length_b 6.535712
_cell_length_c 19.046347
_cell_angle_alpha 90.000000
_cell_angle_beta 146.882161
_cell_angle_gamma 90.000000
_cell_volume 1573.085901
_symmetry_space_group_name_H-M "P 2/C"
_symmetry_group_IT_number 13
_symmetry_cell_setting 'monoclinic'
loop_
_space_group_symop_operation_xyz
x,y,z
-x,y,1/2-z
-x,-y,-z
x,-y,1/2+z
loop_
_atom_site_type_symbol
_atom_site_label
_atom_site_fract_x
_atom_site_fract_y
_atom_site_fract_z
Si Si1 0.010545 0.704334 0.967134
Si Si2 0.772009 0.945196 0.075925
Si Si3 0.000000 0.137988 0.750000
Si Si4 0.111096 0.439519 0.955886
Si Si5 0.721057 0.098131 0.322635
Si Si6 0.821196 0.995391 0.283953
Si Si7 0.608109 0.319001 0.319611
Si Si8 0.276868 0.718404 0.066908
O O1 0.058506 0.622679 0.944440
O O2 0.897855 0.812721 0.845386
O O3 0.000000 0.500000 0.000000
O O4 0.096545 0.844839 0.093330
O O5 0.715844 0.156832 0.997446
O O6 0.781311 0.914813 0.168419
O O7 0.627478 0.440335 0.826046
O O8 0.702495 0.774975 0.964679
O O9 0.976190 0.287308 0.661308
O O10 0.889340 0.034818 0.659281
O O11 0.177717 0.564155 0.966555
O O12 0.190888 0.279628 0.075779
O O13 0.619563 0.200243 0.257006
O O14 0.732252 0.045628 0.251967
O O15 0.736189 0.889452 0.384398
O O16 0.500000 0.281679 0.250000
#
# Coordination Sequence:
#
# PCOD9231273 Si02
#       8
#     4   4   2   4   4   4   4   4
#     4  11  22  34  54  81 129 183 207 237 283 368
#     4  11  25  38  59  94 131 158 204 262 305 369
#     4  12  22  36  54  92 134 160 202 252 304 360
#     4  11  21  35  54  85 124 170 211 241 291 356
#     4  10  20  42  60  88 119 158 205 254 303 367
#     4  11  24  35  56  92 128 169 211 242 305 375
#     4  10  23  46  69  88 114 156 212 269 318 370
#     4  10  20  39  61  86 113 162 208 249 307 357
#
# _framework density 19.070793999999999
#
# number of rings (size 3 to 8) (size 9 to 14) (size 15 to 20)
#    0.000    1.333    6.667    0.800    5.600    3.200 
#    0.000    0.667    0.000    1.600    0.000    0.000 
#    0.000    0.000    0.000    0.000    0.000    0.000 
#
# Total GULP energy -167014.020738 kJ/mol
# GULP energy per Si atom -5567.134025 kJ/mol
# Density = 1.902739 g / cm^3
# Si number density = 19.070794 Si / 1000 Ang^3
#
#
#
# Elastic Constant Matrix: (Units=GPa)
#
#
# Indices 1 2 3 4 5 6 
#
# 1 131.6427 25.0318 32.9462 0.0000 3.1735 0.0000
# 2 25.0318 81.3090 8.0455 0.0000 7.4893 0.0000
# 3 32.9462 8.0455 22.0150 0.0000 -3.4769 0.0000
# 4 0.0000 0.0000 0.0000 11.5510 0.0000 -4.8851
# 5 3.1735 7.4893 -3.4769 0.0000 30.2084 0.0000
# 6 0.0000 0.0000 0.0000 -4.8851 0.0000 26.8325
#
#
#
# Elastic Compliance Matrix: (Units=1/GPa)
#
#
# Indices 1 2 3 4 5 6 
#
# 1 0.012737 -0.001768 -0.018901 0.000000 -0.003075 0.000000
# 2 -0.001768 0.013441 -0.002815 0.000000 -0.003471 0.000000
# 3 -0.018901 -0.002815 0.076553 0.000000 0.011495 0.000000
# 4 0.000000 0.000000 0.000000 0.093794 0.000000 0.017076
# 5 -0.003075 -0.003471 0.011495 0.000000 0.035610 0.000000
# 6 0.000000 0.000000 0.000000 0.017076 0.000000 0.040377
#
#
# Mechanical properties :
#
#
# Convention : Reuss Voigt Hill
#
# Bulk Modulus (GPa) = 17.93251 40.77929 29.35590
# Shear Modulus (GPa) = 14.78993 24.98125 19.88559
#
# Velocity S-wave (km/s) = 2.78785 3.62321 3.23263
# Velocity P-wave (km/s) = 4.44819 6.23964 5.41846
#
# Compressibility (1/GPa) = 0.05576465
#
# Stress axis : x y z
#
# Youngs Moduli (GPa) = 78.51203 74.39824 13.06278
#
# Poissons Ratio (x) = 0.13151 0.24690
# Poissons Ratio (y) = 0.13879 0.03677
# Poissons Ratio (z) = 1.48395 0.20942
#
# Static dielectric constant tensor:
#      x y z
#    x 1.681920 0.000000 0.005180 
#    y 0.000000 1.682290 0.000000 
#    z 0.005180 0.000000 1.698620 
# 
# From -- ./inp_files/82363.got.cif
#   From: 2010.05.17/outbox.cif.g08.bks.cpg/sg13_42_cif.got.tgz:82363.got - 2010.06.03 16:44:36.
