data_PCOD9231140
_publ_section_title
;
Structure prediction by ZEFSAII (Michael W. Deem and Ramdas Pophale) SiO2 
 PCOD9231140
Probable space group: P 2/C
;
_chemical_formula_sum "Si O2"
_cell_formula_units_Z 28
_cell_length_a 8.855954
_cell_length_b 18.895586
_cell_length_c 8.161172
_cell_angle_alpha 90.000000
_cell_angle_beta 82.927643
_cell_angle_gamma 90.000000
_cell_volume 1355.286974
_symmetry_space_group_name_H-M "P 2/C"
_symmetry_group_IT_number 13
_symmetry_cell_setting 'monoclinic'
loop_
_space_group_symop_operation_xyz
x,y,z
-x,y,1/2-z
-x,-y,-z
x,-y,1/2+z
loop_
_atom_site_type_symbol
_atom_site_label
_atom_site_fract_x
_atom_site_fract_y
_atom_site_fract_z
Si Si1 0.342215 0.580346 0.324287
Si Si2 0.835164 0.771118 0.686772
Si Si3 0.871362 0.662052 0.393427
Si Si4 0.642869 0.656907 0.849258
Si Si5 0.616555 0.956983 0.100660
Si Si6 0.869728 0.452349 0.147913
Si Si7 0.182337 0.928474 0.730926
O O1 0.500000 0.545223 0.250000
O O2 0.263776 0.624894 0.189648
O O3 0.383686 0.633763 0.463145
O O4 0.231983 0.517443 0.395922
O O5 0.828351 0.726223 0.519582
O O6 0.714406 0.734195 0.822394
O O7 0.804941 0.853993 0.675385
O O8 0.000000 0.762062 0.750000
O O9 0.934435 0.598364 0.498431
O O10 0.000000 0.685285 0.250000
O O11 0.500000 0.652291 0.750000
O O12 0.764639 0.601414 0.762779
O O13 0.500000 0.921049 0.250000
O O14 0.725007 0.010662 0.187310
O O15 0.733435 0.918815 0.957770
O O16 0.500000 0.000000 0.000000
O O17 0.000000 0.478548 0.250000
O O18 0.000000 0.944524 0.750000
#
# Coordination Sequence:
#
# PCOD9231140 Si02
#       7
#     4   4   4   4   4   4   4
#     4  12  24  38  56  83 112 145 197 253 304 362
#     4  10  22  41  62  86 119 160 198 243 304 366
#     4  11  22  39  61  84 113 149 196 249 299 366
#     4  11  23  40  59  81 115 155 193 241 302 367
#     4   9  19  37  61  93 131 166 206 256 307 361
#     4  11  23  39  59  81 110 150 193 246 312 369
#     4  10  20  38  65  95 127 168 212 257 309 366
#
# _framework density 20.659829999999999
#
# number of rings (size 3 to 8) (size 9 to 14) (size 15 to 20)
#    0.000    1.429    0.000    7.286    0.000    5.143 
#    0.000   12.143    0.000    0.000    0.000    0.000 
#    0.000    0.000    0.000    0.000    0.000    0.000 
#
# Total GULP energy -156357.082101 kJ/mol
# GULP energy per Si atom -5584.181504 kJ/mol
# Density = 2.061281 g / cm^3
# Si number density = 20.659830 Si / 1000 Ang^3
#
#
#
# Elastic Constant Matrix: (Units=GPa)
#
#
# Indices 1 2 3 4 5 6 
#
# 1 87.9507 22.1278 14.9430 0.0000 -9.8297 0.0000
# 2 22.1278 80.0199 25.8410 0.0000 -0.9470 0.0000
# 3 14.9430 25.8410 92.0455 0.0000 -10.3371 0.0000
# 4 0.0000 0.0000 0.0000 14.9683 0.0000 7.2198
# 5 -9.8297 -0.9470 -10.3371 0.0000 36.7295 0.0000
# 6 0.0000 0.0000 0.0000 7.2198 0.0000 7.8417
#
#
#
# Elastic Compliance Matrix: (Units=1/GPa)
#
#
# Indices 1 2 3 4 5 6 
#
# 1 0.012657 -0.003202 -0.000810 0.000000 0.003077 0.000000
# 2 -0.003202 0.014573 -0.003744 0.000000 -0.001535 0.000000
# 3 -0.000810 -0.003744 0.012404 0.000000 0.003177 0.000000
# 4 0.000000 0.000000 0.000000 0.120177 0.000000 -0.110647
# 5 0.003077 -0.001535 0.003177 0.000000 0.028904 0.000000
# 6 0.000000 0.000000 0.000000 -0.110647 0.000000 0.229396
#
#
# Mechanical properties :
#
#
# Convention : Reuss Voigt Hill
#
# Bulk Modulus (GPa) = 41.45656 42.87107 42.16382
# Shear Modulus (GPa) = 11.32082 25.04820 18.18451
#
# Velocity S-wave (km/s) = 2.34340 3.48575 2.97001
# Velocity P-wave (km/s) = 5.23754 6.08248 5.67576
#
# Compressibility (1/GPa) = 0.02412164
#
# Stress axis : x y z
#
# Youngs Moduli (GPa) = 79.00675 68.61927 80.62149
#
# Poissons Ratio (x) = 0.21972 0.06533
# Poissons Ratio (y) = 0.25298 0.30183
# Poissons Ratio (z) = 0.06402 0.25690
#
# Static dielectric constant tensor:
#      x y z
#    x 1.753010 0.000000 -0.023650 
#    y 0.000000 1.692010 0.000000 
#    z -0.023650 0.000000 1.803170 
# 
# From -- ./inp_files/13087.got.cif
#   From: 2010.05.17/outbox.cif.g08.bks.cpg/sg13_7_cif.got.tgz:13087.got - 2010.06.03 16:44:36.
