data_PCOD9231558
_publ_section_title
;
Structure prediction by ZEFSAII (Michael W. Deem and Ramdas Pophale) SiO2 
 PCOD9231558
Probable space group: P 2/C
;
_chemical_formula_sum "Si O2"
_cell_formula_units_Z 32
_cell_length_a 18.723961
_cell_length_b 5.252056
_cell_length_c 21.803596
_cell_angle_alpha 90.000000
_cell_angle_beta 48.209520
_cell_angle_gamma 90.000000
_cell_volume 1598.649943
_symmetry_space_group_name_H-M "P 2/C"
_symmetry_group_IT_number 13
_symmetry_cell_setting 'monoclinic'
loop_
_space_group_symop_operation_xyz
x,y,z
-x,y,1/2-z
-x,-y,-z
x,-y,1/2+z
loop_
_atom_site_type_symbol
_atom_site_label
_atom_site_fract_x
_atom_site_fract_y
_atom_site_fract_z
Si Si1 0.879039 0.682657 0.548341
Si Si2 0.386583 0.060770 0.310112
Si Si3 0.768089 0.006017 0.007678
Si Si4 0.082902 0.639247 0.575113
Si Si5 0.895240 0.253880 0.831573
Si Si6 0.914468 0.953114 0.649541
Si Si7 0.303500 0.438739 0.791688
Si Si8 0.812697 0.450885 0.753250
O O1 0.821745 0.834399 0.529405
O O2 0.949491 0.513149 0.467026
O O3 0.910730 0.885036 0.580226
O O4 0.804404 0.495120 0.623613
O O5 0.500000 0.035192 0.250000
O O6 0.339567 0.042172 0.405764
O O7 0.360882 0.322836 0.288536
O O8 0.342000 0.825820 0.296622
O O9 0.815458 0.093336 0.916062
O O10 0.806034 0.717447 0.992824
O O11 0.069421 0.474472 0.642656
O O12 0.020592 0.893732 0.611851
O O13 0.833253 0.379113 0.812037
O O14 0.000000 0.138842 0.750000
O O15 0.851224 0.735392 0.719143
O O16 0.875781 0.227322 0.686357
O O17 0.288360 0.435713 0.726202
#
# Coordination Sequence:
#
# PCOD9231558 Si02
#       8
#     4   4   4   4   4   4   4   4
#     4   9  20  35  54  84 122 157 197 261 311 371
#     4  11  22  42  71  99 122 148 195 264 336 394
#     4  10  22  37  59  86 123 163 207 259 312 368
#     4  11  21  35  54  82 123 165 211 262 294 360
#     4  11  23  39  56  85 125 178 224 252 281 348
#     4  11  23  35  57  84 119 168 214 250 305 351
#     4  10  20  40  63  93 124 155 198 253 324 384
#     4  11  23  40  58  84 123 172 212 254 292 358
#
# _framework density 20.016891000000001
#
# number of rings (size 3 to 8) (size 9 to 14) (size 15 to 20)
#    0.000    1.500    2.500    3.750    5.250    1.000 
#    0.000    0.000    0.000    1.500    0.000    0.000 
#    0.000    0.000    0.000    0.000    0.000    0.000 
#
# Total GULP energy -178383.370434 kJ/mol
# GULP energy per Si atom -5574.480326 kJ/mol
# Density = 1.997133 g / cm^3
# Si number density = 20.016891 Si / 1000 Ang^3
#
#
#
# Elastic Constant Matrix: (Units=GPa)
#
#
# Indices 1 2 3 4 5 6 
#
# 1 74.5658 17.1268 46.0272 0.0000 13.8750 0.0000
# 2 17.1268 74.9212 19.0823 0.0000 0.2612 0.0000
# 3 46.0272 19.0823 102.4649 0.0000 5.3661 0.0000
# 4 0.0000 0.0000 0.0000 18.0535 0.0000 -1.0160
# 5 13.8750 0.2612 5.3661 0.0000 38.5009 0.0000
# 6 0.0000 0.0000 0.0000 -1.0160 0.0000 26.5202
#
#
#
# Elastic Compliance Matrix: (Units=1/GPa)
#
#
# Indices 1 2 3 4 5 6 
#
# 1 0.020254 -0.002491 -0.008314 0.000000 -0.006124 0.000000
# 2 -0.002491 0.014321 -0.001602 0.000000 0.001024 0.000000
# 3 -0.008314 -0.001602 0.013735 0.000000 0.001093 0.000000
# 4 0.000000 0.000000 0.000000 0.055510 0.000000 0.002127
# 5 -0.006124 0.001024 0.001093 0.000000 0.028021 0.000000
# 6 0.000000 0.000000 0.000000 0.002127 0.000000 0.037789
#
#
# Mechanical properties :
#
#
# Convention : Reuss Voigt Hill
#
# Bulk Modulus (GPa) = 42.55764 46.26940 44.41352
# Shear Modulus (GPa) = 24.71867 27.92930 26.32398
#
# Velocity S-wave (km/s) = 3.51791 3.73941 3.63035
# Velocity P-wave (km/s) = 6.14882 6.46603 6.30942
#
# Compressibility (1/GPa) = 0.02349754
#
# Stress axis : x y z
#
# Youngs Moduli (GPa) = 49.37196 69.82644 72.80686
#
# Poissons Ratio (x) = 0.17396 0.60529
# Poissons Ratio (y) = 0.12300 0.11661
# Poissons Ratio (z) = 0.41046 0.11184
#
# Static dielectric constant tensor:
#      x y z
#    x 1.743120 0.000000 0.021300 
#    y 0.000000 1.765330 0.000000 
#    z 0.021300 0.000000 1.810210 
# 
# From -- ./inp_files/80675.got.cif
#   From: 2010.05.17/outbox.cif.g08.bks.cpg/sg13_41_cif.got.tgz:80675.got - 2010.06.03 16:44:36.
