data_PCOD9231725
_publ_section_title
;
Structure prediction by ZEFSAII (Michael W. Deem and Ramdas Pophale) SiO2 
 PCOD9231725
Probable space group: P 2/C
;
_chemical_formula_sum "Si O2"
_cell_formula_units_Z 20
_cell_length_a 7.759748
_cell_length_b 10.337619
_cell_length_c 11.569407
_cell_angle_alpha 90.000000
_cell_angle_beta 103.860296
_cell_angle_gamma 90.000000
_cell_volume 901.044022
_symmetry_space_group_name_H-M "P 2/C"
_symmetry_group_IT_number 13
_symmetry_cell_setting 'monoclinic'
loop_
_space_group_symop_operation_xyz
x,y,z
-x,y,1/2-z
-x,-y,-z
x,-y,1/2+z
loop_
_atom_site_type_symbol
_atom_site_label
_atom_site_fract_x
_atom_site_fract_y
_atom_site_fract_z
Si Si1 0.756842 0.865919 0.650790
Si Si2 0.833864 0.169238 0.645061
Si Si3 0.489774 0.289680 0.542028
Si Si4 0.886148 0.254599 0.389420
Si Si5 0.650757 0.522978 0.871997
O O1 0.592156 0.826423 0.545224
O O2 0.748043 0.820478 0.782510
O O3 0.921133 0.783765 0.625387
O O4 0.803812 0.015944 0.651615
O O5 0.649501 0.239414 0.646874
O O6 0.870860 0.205184 0.517699
O O7 0.000000 0.207819 0.750000
O O8 0.344446 0.375622 0.584831
O O9 0.578151 0.387839 0.464514
O O10 0.832799 0.405329 0.368437
O O11 0.500000 0.530238 0.750000
#
# Coordination Sequence:
#
# PCOD9231725 Si02
#       5
#     4   4   4   4   4
#     4  11  21  40  66  96 127 167 220 258 334 387
#     4  11  23  40  63  95 136 166 212 268 322 391
#     4  10  23  39  63  94 123 169 217 264 319 381
#     4  10  22  39  66  91 127 174 204 272 321 383
#     4  10  20  41  62  87 128 168 214 265 313 381
#
# _framework density 22.196473999999998
#
# number of rings (size 3 to 8) (size 9 to 14) (size 15 to 20)
#    0.000    1.600    4.000    1.200    0.000    2.400 
#    0.000    4.000    0.000    0.000    0.000    0.000 
#    0.000    0.000    0.000    0.000    0.000    0.000 
#
# Total GULP energy -111725.563720 kJ/mol
# GULP energy per Si atom -5586.278186 kJ/mol
# Density = 2.214595 g / cm^3
# Si number density = 22.196474 Si / 1000 Ang^3
#
#
#
# Elastic Constant Matrix: (Units=GPa)
#
#
# Indices 1 2 3 4 5 6 
#
# 1 36.8109 30.4644 23.2245 0.0000 14.9281 0.0000
# 2 30.4644 72.3305 59.5887 0.0000 14.1932 0.0000
# 3 23.2245 59.5887 122.6835 0.0000 25.0886 0.0000
# 4 0.0000 0.0000 0.0000 47.5403 0.0000 -24.1701
# 5 14.9281 14.1932 25.0886 0.0000 40.5803 0.0000
# 6 0.0000 0.0000 0.0000 -24.1701 0.0000 70.4821
#
#
#
# Elastic Compliance Matrix: (Units=1/GPa)
#
#
# Indices 1 2 3 4 5 6 
#
# 1 0.046532 -0.020009 0.003410 0.000000 -0.012228 0.000000
# 2 -0.020009 0.031712 -0.012423 0.000000 0.003949 0.000000
# 3 0.003410 -0.012423 0.014775 0.000000 -0.006044 0.000000
# 4 0.000000 0.000000 0.000000 0.025477 0.000000 0.008737
# 5 -0.012228 0.003949 -0.006044 0.000000 0.031496 0.000000
# 6 0.000000 0.000000 0.000000 0.008737 0.000000 0.017184
#
#
# Mechanical properties :
#
#
# Convention : Reuss Voigt Hill
#
# Bulk Modulus (GPa) = 28.58995 50.93113 39.76054
# Shear Modulus (GPa) = 21.10789 39.62371 30.36580
#
# Velocity S-wave (km/s) = 3.08710 4.22967 3.70272
# Velocity P-wave (km/s) = 5.06116 6.84462 6.01931
#
# Compressibility (1/GPa) = 0.03497732
#
# Stress axis : x y z
#
# Youngs Moduli (GPa) = 21.49052 31.53360 67.67972
#
# Poissons Ratio (x) = 0.63094 -0.23081
# Poissons Ratio (y) = 0.43000 0.84078
# Poissons Ratio (z) = -0.07329 0.39174
#
# Static dielectric constant tensor:
#      x y z
#    x 1.850300 0.000000 -0.023630 
#    y 0.000000 1.799740 0.000000 
#    z -0.023630 0.000000 1.842070 
# 
# From -- ./inp_files/28281.got.cif
#   From: 2010.05.17/outbox.cif.g08.bks.cpg/sg13_15_cif.got.tgz:28281.got - 2010.06.03 16:44:36.
