data_PCOD9231890
_publ_section_title
;
Structure prediction by ZEFSAII (Michael W. Deem and Ramdas Pophale) SiO2 
 PCOD9231890
Probable space group: P 2/C
;
_chemical_formula_sum "Si O2"
_cell_formula_units_Z 26
_cell_length_a 9.092419
_cell_length_b 11.737953
_cell_length_c 22.180729
_cell_angle_alpha 90.000000
_cell_angle_beta 146.201392
_cell_angle_gamma 90.000000
_cell_volume 1316.853609
_symmetry_space_group_name_H-M "P 2/C"
_symmetry_group_IT_number 13
_symmetry_cell_setting 'monoclinic'
loop_
_space_group_symop_operation_xyz
x,y,z
-x,y,1/2-z
-x,-y,-z
x,-y,1/2+z
loop_
_atom_site_type_symbol
_atom_site_label
_atom_site_fract_x
_atom_site_fract_y
_atom_site_fract_z
Si Si1 0.740244 0.340272 0.044786
Si Si2 0.994365 0.258809 0.885970
Si Si3 0.998803 0.216129 0.472194
Si Si4 0.500000 0.921048 0.750000
Si Si5 0.180490 0.448997 0.864391
Si Si6 0.599116 0.877751 0.053356
Si Si7 0.570463 0.881911 0.181854
O O1 0.875166 0.418969 0.140788
O O2 0.911266 0.314129 0.044107
O O3 0.476769 0.416990 0.944757
O O4 0.629710 0.218631 0.028824
O O5 0.097749 0.377304 0.894590
O O6 0.172444 0.163739 0.913276
O O7 0.036657 0.256528 0.971490
O O8 0.702023 0.222429 0.763768
O O9 0.255812 0.134172 0.565143
O O10 0.740571 0.153339 0.358444
O O11 0.392340 0.004779 0.766009
O O12 0.000000 0.403926 0.750000
O O13 0.680993 0.881936 0.151580
O O14 0.500000 0.000000 0.000000
#
# Coordination Sequence:
#
# PCOD9231890 Si02
#       7
#     4   4   4   2   4   4   4
#     4   9  22  41  62  91 123 164 206 260 316 377
#     4  11  21  38  65  92 120 165 214 265 303 380
#     4  11  23  41  60  91 128 163 214 253 324 382
#     4  12  24  38  62  86 136 172 198 272 326 380
#     4  10  20  42  67  91 122 163 211 264 315 371
#     4  10  21  37  60  91 128 162 206 256 314 388
#     4  11  22  38  62  89 121 170 215 251 312 383
#
# _framework density 19.744032000000001
#
# number of rings (size 3 to 8) (size 9 to 14) (size 15 to 20)
#    0.000    1.538    1.538    4.615    4.308    0.615 
#   11.077    0.000    3.385    0.000    0.000    0.000 
#    0.000    0.000    0.000    0.000    0.000    0.000 
#
# Total GULP energy -145042.421687 kJ/mol
# GULP energy per Si atom -5578.554680 kJ/mol
# Density = 1.969909 g / cm^3
# Si number density = 19.744032 Si / 1000 Ang^3
#
#
#
# Elastic Constant Matrix: (Units=GPa)
#
#
# Indices 1 2 3 4 5 6 
#
# 1 124.9253 42.1176 37.3940 0.0000 -14.6321 0.0000
# 2 42.1176 109.1044 28.9570 0.0000 -12.0985 0.0000
# 3 37.3940 28.9570 88.2190 0.0000 -1.8323 0.0000
# 4 0.0000 0.0000 0.0000 21.8198 0.0000 -3.0466
# 5 -14.6321 -12.0985 -1.8323 0.0000 25.3104 0.0000
# 6 0.0000 0.0000 0.0000 -3.0466 0.0000 23.7065
#
#
#
# Elastic Compliance Matrix: (Units=1/GPa)
#
#
# Indices 1 2 3 4 5 6 
#
# 1 0.010460 -0.002609 -0.003483 0.000000 0.004547 0.000000
# 2 -0.002609 0.011248 -0.002509 0.000000 0.003686 0.000000
# 3 -0.003483 -0.002509 0.013589 0.000000 -0.002229 0.000000
# 4 0.000000 0.000000 0.000000 0.046667 0.000000 0.005997
# 5 0.004547 0.003686 -0.002229 0.000000 0.043739 0.000000
# 6 0.000000 0.000000 0.000000 0.005997 0.000000 0.042953
#
#
# Mechanical properties :
#
#
# Convention : Reuss Voigt Hill
#
# Bulk Modulus (GPa) = 55.26777 59.90955 57.58866
# Shear Modulus (GPa) = 26.05670 28.41936 27.23803
#
# Velocity S-wave (km/s) = 3.63674 3.79804 3.71827
# Velocity P-wave (km/s) = 6.75925 7.04574 6.90398
#
# Compressibility (1/GPa) = 0.01809373
#
# Stress axis : x y z
#
# Youngs Moduli (GPa) = 95.60655 88.90863 73.58876
#
# Poissons Ratio (x) = 0.23197 0.25629
# Poissons Ratio (y) = 0.24945 0.18466
# Poissons Ratio (z) = 0.33297 0.22310
#
# Static dielectric constant tensor:
#      x y z
#    x 1.725370 0.000000 0.041790 
#    y 0.000000 1.697280 0.000000 
#    z 0.041790 0.000000 1.746510 
# 
# From -- ./inp_files/76502.got.cif
#   From: 2010.05.17/outbox.cif.g08.bks.cpg/sg13_39_cif.got.tgz:76502.got - 2010.06.03 16:44:36.
