data_PCOD9231399
_publ_section_title
;
Structure prediction by ZEFSAII (Michael W. Deem and Ramdas Pophale) SiO2 
 PCOD9231399
Probable space group: P 2/C
;
_chemical_formula_sum "Si O2"
_cell_formula_units_Z 20
_cell_length_a 20.143833
_cell_length_b 5.604232
_cell_length_c 14.088414
_cell_angle_alpha 90.000000
_cell_angle_beta 31.742695
_cell_angle_gamma 90.000000
_cell_volume 836.745080
_symmetry_space_group_name_H-M "P 2/C"
_symmetry_group_IT_number 13
_symmetry_cell_setting 'monoclinic'
loop_
_space_group_symop_operation_xyz
x,y,z
-x,y,1/2-z
-x,-y,-z
x,-y,1/2+z
loop_
_atom_site_type_symbol
_atom_site_label
_atom_site_fract_x
_atom_site_fract_y
_atom_site_fract_z
Si Si1 0.059886 0.593030 0.822019
Si Si2 0.443705 0.747684 0.029415
Si Si3 0.000000 0.781539 0.250000
Si Si4 0.227317 0.946492 0.560301
Si Si5 0.833326 0.219125 0.671370
Si Si6 0.500000 0.123509 0.250000
O O1 0.128077 0.472459 0.828145
O O2 0.986003 0.389273 0.857276
O O3 0.176376 0.679669 0.616940
O O4 0.963079 0.812666 0.955907
O O5 0.461049 0.739116 0.893375
O O6 0.500000 0.500000 0.000000
O O7 0.294086 0.759643 0.231847
O O8 0.500000 0.000000 0.000000
O O9 0.132758 0.912738 0.106583
O O10 0.195626 0.040120 0.706680
O O11 0.375662 0.977385 0.370134
#
# Coordination Sequence:
#
# PCOD9231399 Si02
#       6
#     4   4   2   4   4   2
#     4  10  20  39  66  91 131 176 227 302 352 435
#     4  11  27  47  73 109 147 200 251 300 378 451
#     4  10  22  34  58  98 122 170 230 278 358 422
#     4  10  21  41  63  93 134 178 230 291 367 426
#     4   9  22  40  64  95 128 176 237 292 362 428
#     4  10  26  48  70 106 148 192 242 318 366 448
#
# _framework density 23.902139999999999
#
# number of rings (size 3 to 8) (size 9 to 14) (size 15 to 20)
#    0.000    2.000    0.000    1.200    8.400    4.000 
#    3.600    0.000    0.000    0.000    0.000    0.000 
#    0.000    0.000    0.000    0.000    0.000    0.000 
#
# Total GULP energy -111604.713438 kJ/mol
# GULP energy per Si atom -5580.235672 kJ/mol
# Density = 2.384774 g / cm^3
# Si number density = 23.902140 Si / 1000 Ang^3
#
#
#
# Elastic Constant Matrix: (Units=GPa)
#
#
# Indices 1 2 3 4 5 6 
#
# 1 134.3140 54.0766 42.8814 0.0000 -36.5715 0.0000
# 2 54.0766 84.4001 18.0190 0.0000 -20.5304 0.0000
# 3 42.8814 18.0190 114.0898 0.0000 -44.8814 0.0000
# 4 0.0000 0.0000 0.0000 18.8652 0.0000 -0.1144
# 5 -36.5715 -20.5304 -44.8814 0.0000 63.0272 0.0000
# 6 0.0000 0.0000 0.0000 -0.1144 0.0000 28.3844
#
#
#
# Elastic Compliance Matrix: (Units=1/GPa)
#
#
# Indices 1 2 3 4 5 6 
#
# 1 0.011432 -0.006111 -0.002091 0.000000 0.003154 0.000000
# 2 -0.006111 0.016158 0.000584 0.000000 0.002133 0.000000
# 3 -0.002091 0.000584 0.012580 0.000000 0.007935 0.000000
# 4 0.000000 0.000000 0.000000 0.053009 0.000000 0.000214
# 5 0.003154 0.002133 0.007935 0.000000 0.024042 0.000000
# 6 0.000000 0.000000 0.000000 0.000214 0.000000 0.035231
#
#
# Mechanical properties :
#
#
# Convention : Reuss Voigt Hill
#
# Bulk Modulus (GPa) = 40.10491 62.52864 51.31677
# Shear Modulus (GPa) = 28.40914 36.57715 32.49314
#
# Velocity S-wave (km/s) = 3.45129 3.91613 3.69104
# Velocity P-wave (km/s) = 5.71814 6.83119 6.29930
#
# Compressibility (1/GPa) = 0.02493460
#
# Stress axis : x y z
#
# Youngs Moduli (GPa) = 87.47437 61.88882 79.48903
#
# Poissons Ratio (x) = 0.37821 0.16621
# Poissons Ratio (y) = 0.53456 -0.04643
# Poissons Ratio (z) = 0.18290 -0.03615
#
# Static dielectric constant tensor:
#      x y z
#    x 1.967850 0.000000 0.104170 
#    y 0.000000 1.923510 0.000000 
#    z 0.104170 0.000000 2.041390 
# 
# From -- ./inp_files/48611.got.cif
#   From: 2010.05.17/outbox.cif.g08.bks.cpg/sg13_25_cif.got.tgz:48611.got - 2010.06.03 16:44:36.
