data_PCOD9231281
_publ_section_title
;
Structure prediction by ZEFSAII (Michael W. Deem and Ramdas Pophale) SiO2 
 PCOD9231281
Probable space group: P 2/C
;
_chemical_formula_sum "Si O2"
_cell_formula_units_Z 24
_cell_length_a 8.158818
_cell_length_b 20.952119
_cell_length_c 8.884875
_cell_angle_alpha 90.000000
_cell_angle_beta 129.899802
_cell_angle_gamma 90.000000
_cell_volume 1165.189712
_symmetry_space_group_name_H-M "P 2/C"
_symmetry_group_IT_number 13
_symmetry_cell_setting 'monoclinic'
loop_
_space_group_symop_operation_xyz
x,y,z
-x,y,1/2-z
-x,-y,-z
x,-y,1/2+z
loop_
_atom_site_type_symbol
_atom_site_label
_atom_site_fract_x
_atom_site_fract_y
_atom_site_fract_z
Si Si1 0.256226 0.430076 0.903232
Si Si2 0.000000 0.014796 0.250000
Si Si3 0.500000 0.467611 0.750000
Si Si4 0.271077 0.175446 0.191835
Si Si5 0.477806 0.197269 0.894848
Si Si6 0.226652 0.710002 0.465233
Si Si7 0.139758 0.910343 0.106580
O O1 0.358344 0.431143 0.794193
O O2 0.304521 0.362330 0.011866
O O3 0.000000 0.437132 0.750000
O O4 0.351255 0.486949 0.059650
O O5 0.145106 0.056862 0.446288
O O6 0.132838 0.968062 0.220486
O O7 0.500000 0.157022 0.250000
O O8 0.311192 0.174458 0.393964
O O9 0.216141 0.248081 0.110193
O O10 0.083683 0.129385 0.024962
O O11 0.500000 0.232004 0.750000
O O12 0.372513 0.245928 0.947238
O O13 0.323536 0.138332 0.763205
O O14 0.000000 0.708834 0.250000
#
# Coordination Sequence:
#
# PCOD9231281 Si02
#       7
#     4   2   2   4   4   4   4
#     4  10  22  39  64  92 128 168 214 253 308 367
#     4  10  22  36  64  78 114 166 186 244 300 374
#     4  10  22  40  64  92 132 176 202 262 298 368
#     4  10  21  37  62  83 114 158 196 245 308 364
#     4  11  23  37  61  89 119 153 196 260 306 355
#     4  10  20  39  61  89 118 162 201 248 304 367
#     4  11  21  42  56  85 120 148 201 245 306 358
#
# _framework density 20.597505000000002
#
# number of rings (size 3 to 8) (size 9 to 14) (size 15 to 20)
#    0.000    1.667    1.667    3.500    4.667    0.000 
#    0.000   16.667    0.000    4.000    0.000    0.000 
#    0.000    0.000    0.000    0.000    0.000    0.000 
#
# Total GULP energy -133915.893904 kJ/mol
# GULP energy per Si atom -5579.828913 kJ/mol
# Density = 2.055062 g / cm^3
# Si number density = 20.597505 Si / 1000 Ang^3
#
#
#
# Elastic Constant Matrix: (Units=GPa)
#
#
# Indices 1 2 3 4 5 6 
#
# 1 60.1967 26.6508 35.7100 0.0000 1.6954 0.0000
# 2 26.6508 100.5971 37.0712 0.0000 7.0782 0.0000
# 3 35.7100 37.0712 123.8817 0.0000 -7.4033 0.0000
# 4 0.0000 0.0000 0.0000 51.0905 0.0000 26.7677
# 5 1.6954 7.0782 -7.4033 0.0000 31.7310 0.0000
# 6 0.0000 0.0000 0.0000 26.7677 0.0000 38.6722
#
#
#
# Elastic Compliance Matrix: (Units=1/GPa)
#
#
# Indices 1 2 3 4 5 6 
#
# 1 0.021322 -0.003645 -0.005147 0.000000 -0.001527 0.000000
# 2 -0.003645 0.012151 -0.002775 0.000000 -0.003163 0.000000
# 3 -0.005147 -0.002775 0.010587 0.000000 0.003364 0.000000
# 4 0.000000 0.000000 0.000000 0.030710 0.000000 -0.021256
# 5 -0.001527 -0.003163 0.003364 0.000000 0.033087 0.000000
# 6 0.000000 0.000000 0.000000 -0.021256 0.000000 0.040571
#
#
# Mechanical properties :
#
#
# Convention : Reuss Voigt Hill
#
# Bulk Modulus (GPa) = 47.78252 53.72661 50.75456
# Shear Modulus (GPa) = 28.00535 36.64832 32.32684
#
# Velocity S-wave (km/s) = 3.69134 4.22270 3.96593
# Velocity P-wave (km/s) = 6.43557 7.06510 6.75767
#
# Compressibility (1/GPa) = 0.02092816
#
# Stress axis : x y z
#
# Youngs Moduli (GPa) = 46.89983 82.29595 94.45366
#
# Poissons Ratio (x) = 0.29994 0.48614
# Poissons Ratio (y) = 0.17093 0.26208
# Poissons Ratio (z) = 0.24139 0.22834
#
# Static dielectric constant tensor:
#      x y z
#    x 1.611640 0.000000 0.043680 
#    y 0.000000 1.732830 0.000000 
#    z 0.043680 0.000000 1.767320 
# 
# From -- ./inp_files/13527.got.cif
#   From: 2010.05.17/outbox.cif.g08.bks.cpg/sg13_7_cif.got.tgz:13527.got - 2010.06.03 16:44:36.
