data_PCOD9231901
_publ_section_title
;
Structure prediction by ZEFSAII (Michael W. Deem and Ramdas Pophale) SiO2 
 PCOD9231901
Probable space group: P 2/C
;
_chemical_formula_sum "Si O2"
_cell_formula_units_Z 26
_cell_length_a 11.543457
_cell_length_b 12.003243
_cell_length_c 12.831846
_cell_angle_alpha 90.000000
_cell_angle_beta 46.417413
_cell_angle_gamma 90.000000
_cell_volume 1287.926042
_symmetry_space_group_name_H-M "P 2/C"
_symmetry_group_IT_number 13
_symmetry_cell_setting 'monoclinic'
loop_
_space_group_symop_operation_xyz
x,y,z
-x,y,1/2-z
-x,-y,-z
x,-y,1/2+z
loop_
_atom_site_type_symbol
_atom_site_label
_atom_site_fract_x
_atom_site_fract_y
_atom_site_fract_z
Si Si1 0.000000 0.173268 0.250000
Si Si2 0.497910 0.595674 0.631003
Si Si3 0.849362 0.378388 0.239859
Si Si4 0.500000 0.846867 0.250000
Si Si5 0.000000 0.570271 0.250000
Si Si6 0.924931 0.668592 0.084103
Si Si7 0.133540 0.913741 0.460880
Si Si8 0.434973 0.348252 0.634326
O O1 0.125874 0.259985 0.221430
O O2 0.913371 0.101467 0.389881
O O3 0.500000 0.630673 0.750000
O O4 0.315592 0.615967 0.713966
O O5 0.528670 0.462469 0.602005
O O6 0.583656 0.657834 0.480255
O O7 0.862160 0.480430 0.311447
O O8 0.988831 0.387665 0.067308
O O9 0.331523 0.915321 0.337292
O O10 0.491147 0.760093 0.354303
O O11 0.014365 0.641361 0.136521
O O12 0.913078 0.799074 0.068062
O O13 0.741200 0.633637 0.209287
O O14 0.000000 0.000000 0.500000
#
# Coordination Sequence:
#
# PCOD9231901 Si02
#       8
#     2   4   4   2   2   4   4   4
#     4   9  20  41  66  86 130 163 212 267 316 392
#     4  11  22  32  51  82 133 174 214 239 295 374
#     4  10  21  35  55  86 120 178 205 245 311 370
#     4  10  20  42  68  92 128 160 216 270 336 384
#     4  11  20  31  56  84 124 155 208 253 296 366
#     4  10  22  35  56  85 121 159 213 256 309 373
#     4  10  22  42  69  94 120 162 218 271 335 388
#     4  10  21  34  51  88 122 170 206 253 305 368
#
# _framework density 20.187494000000001
#
# number of rings (size 3 to 8) (size 9 to 14) (size 15 to 20)
#    0.000    1.846    2.308    1.385    2.154    1.846 
#    0.000    0.769    6.769    0.000    0.000    0.000 
#    0.000    0.000    0.000    0.000    0.000    0.000 
#
# Total GULP energy -144831.758898 kJ/mol
# GULP energy per Si atom -5570.452265 kJ/mol
# Density = 2.014155 g / cm^3
# Si number density = 20.187494 Si / 1000 Ang^3
#
#
#
# Elastic Constant Matrix: (Units=GPa)
#
#
# Indices 1 2 3 4 5 6 
#
# 1 135.0466 31.5417 54.3653 0.0000 -1.4355 0.0000
# 2 31.5417 51.2975 33.5540 0.0000 -11.0468 0.0000
# 3 54.3653 33.5540 134.3398 0.0000 0.2140 0.0000
# 4 0.0000 0.0000 0.0000 2.8061 0.0000 1.2943
# 5 -1.4355 -11.0468 0.2140 0.0000 43.2731 0.0000
# 6 0.0000 0.0000 0.0000 1.2943 0.0000 25.6313
#
#
#
# Elastic Compliance Matrix: (Units=1/GPa)
#
#
# Indices 1 2 3 4 5 6 
#
# 1 0.009498 -0.004165 -0.002802 0.000000 -0.000734 0.000000
# 2 -0.004165 0.026783 -0.005015 0.000000 0.006724 0.000000
# 3 -0.002802 -0.005015 0.009833 0.000000 -0.001422 0.000000
# 4 0.000000 0.000000 0.000000 0.364863 0.000000 -0.018424
# 5 -0.000734 0.006724 -0.001422 0.000000 0.024808 0.000000
# 6 0.000000 0.000000 0.000000 -0.018424 0.000000 0.039945
#
#
# Mechanical properties :
#
#
# Convention : Reuss Voigt Hill
#
# Bulk Modulus (GPa) = 45.14765 62.17845 53.66305
# Shear Modulus (GPa) = 9.86042 27.75697 18.80870
#
# Velocity S-wave (km/s) = 2.21247 3.71207 3.05569
# Velocity P-wave (km/s) = 5.37954 7.01712 6.25217
#
# Compressibility (1/GPa) = 0.02214955
#
# Stress axis : x y z
#
# Youngs Moduli (GPa) = 105.28580 37.33645 101.70263
#
# Poissons Ratio (x) = 0.15552 0.28498
# Poissons Ratio (y) = 0.43855 0.51001
# Poissons Ratio (z) = 0.29502 0.18723
#
# Static dielectric constant tensor:
#      x y z
#    x 1.787770 0.000000 -0.047010 
#    y 0.000000 1.724240 0.000000 
#    z -0.047010 0.000000 1.990480 
# 
# From -- ./inp_files/33784.got.cif
#   From: 2010.05.17/outbox.cif.g08.bks.cpg/sg13_17_cif.got.tgz:33784.got - 2010.06.03 16:44:36.
