data_PCOD9231370
_publ_section_title
;
Structure prediction by ZEFSAII (Michael W. Deem and Ramdas Pophale) SiO2 
 PCOD9231370
Probable space group: P 2/C
;
_chemical_formula_sum "Si O2"
_cell_formula_units_Z 30
_cell_length_a 8.056759
_cell_length_b 22.218048
_cell_length_c 8.067098
_cell_angle_alpha 90.000000
_cell_angle_beta 99.197612
_cell_angle_gamma 90.000000
_cell_volume 1425.488260
_symmetry_space_group_name_H-M "P 2/C"
_symmetry_group_IT_number 13
_symmetry_cell_setting 'monoclinic'
loop_
_space_group_symop_operation_xyz
x,y,z
-x,y,1/2-z
-x,-y,-z
x,-y,1/2+z
loop_
_atom_site_type_symbol
_atom_site_label
_atom_site_fract_x
_atom_site_fract_y
_atom_site_fract_z
Si Si1 0.810038 0.686869 0.657355
Si Si2 0.189278 0.443488 0.351880
Si Si3 0.500000 0.775695 0.250000
Si Si4 0.881641 0.039732 0.599842
Si Si5 0.813155 0.692628 0.261618
Si Si6 0.697573 0.932649 0.760452
Si Si7 0.366056 0.812604 0.875977
Si Si8 0.302766 0.568291 0.241450
O O1 0.741676 0.621238 0.702065
O O2 0.808217 0.685218 0.458521
O O3 0.718541 0.748946 0.682347
O O4 0.000000 0.690169 0.750000
O O5 0.288496 0.503722 0.323846
O O6 0.203382 0.439668 0.552572
O O7 0.000000 0.449227 0.250000
O O8 0.654558 0.735437 0.203265
O O9 0.566686 0.809771 0.424375
O O10 0.771297 0.077423 0.455919
O O11 0.000000 0.073539 0.750000
O O12 0.772074 0.991782 0.685240
O O13 0.000000 0.000000 0.500000
O O14 0.780669 0.625943 0.181908
O O15 0.000000 0.714871 0.250000
O O16 0.500000 0.943000 0.750000
O O17 0.740590 0.873771 0.659199
O O18 0.500000 0.820598 0.750000
O O19 0.500000 0.583132 0.250000
#
# Coordination Sequence:
#
# PCOD9231370 Si02
#       8
#     4   4   2   4   4   4   4   4
#     4   9  21  38  58  87 119 159 215 262 315 394
#     4  10  21  37  54  82 119 158 205 261 331 389
#     4  10  22  46  64  94 132 168 230 278 322 406
#     4   9  19  37  63  96 132 170 210 263 318 374
#     4  10  21  38  65  87 118 166 211 272 340 394
#     4  10  20  39  64  98 130 174 218 261 325 385
#     4  10  23  42  66  91 131 171 215 270 324 382
#     4  11  21  36  55  88 119 154 207 267 331 402
#
# _framework density 21.045421000000001
#
# number of rings (size 3 to 8) (size 9 to 14) (size 15 to 20)
#    0.000    2.133    0.667    1.600    1.867    4.267 
#   10.800    0.000    0.000    0.000    0.000    0.000 
#    0.000    0.000    0.000    0.000    0.000    0.000 
#
# Total GULP energy -167201.739149 kJ/mol
# GULP energy per Si atom -5573.391305 kJ/mol
# Density = 2.099752 g / cm^3
# Si number density = 21.045421 Si / 1000 Ang^3
#
#
#
# Elastic Constant Matrix: (Units=GPa)
#
#
# Indices 1 2 3 4 5 6 
#
# 1 69.9830 13.7503 7.0506 0.0000 6.4135 0.0000
# 2 13.7503 93.9035 32.1197 0.0000 7.7957 0.0000
# 3 7.0506 32.1197 91.3178 0.0000 29.6807 0.0000
# 4 0.0000 0.0000 0.0000 56.4446 0.0000 -10.7697
# 5 6.4135 7.7957 29.6807 0.0000 30.2871 0.0000
# 6 0.0000 0.0000 0.0000 -10.7697 0.0000 -173.1033
#
#
#
# Elastic Compliance Matrix: (Units=1/GPa)
#
#
# Indices 1 2 3 4 5 6 
#
# 1 0.014942 -0.002143 0.000659 0.000000 -0.003259 0.000000
# 2 -0.002143 0.012463 -0.004876 0.000000 0.002024 0.000000
# 3 0.000659 -0.004876 0.017979 0.000000 -0.016504 0.000000
# 4 0.000000 0.000000 0.000000 0.017509 0.000000 -0.001089
# 5 -0.003259 0.002024 -0.016504 0.000000 0.049359 0.000000
# 6 0.000000 0.000000 0.000000 -0.001089 0.000000 -0.005709
#
#
# Mechanical properties :
#
#
# Convention : Reuss Voigt Hill
#
# Bulk Modulus (GPa) = 30.61432 40.11618 35.36525
# Shear Modulus (GPa) = 38.41676 -3.78874 17.31401
#
# Velocity S-wave (km/s) = 4.27713 -1.34320 2.87138
# Velocity P-wave (km/s) = 6.24261 4.08626 5.27578
#
# Compressibility (1/GPa) = 0.03266445
#
# Stress axis : x y z
#
# Youngs Moduli (GPa) = 66.92345 80.23847 55.62004
#
# Poissons Ratio (x) = 0.17195 -0.03666
# Poissons Ratio (y) = 0.14342 0.27121
# Poissons Ratio (z) = -0.04411 0.39126
#
# Static dielectric constant tensor:
#      x y z
#    x 1.748380 0.000000 -0.018810 
#    y 0.000000 1.851450 0.000000 
#    z -0.018810 0.000000 1.730670 
# 
# From -- ./inp_files/13505.got.cif
#   From: 2010.05.17/outbox.cif.g08.bks.cpg/sg13_7_cif.got.tgz:13505.got - 2010.06.03 16:44:36.
