data_PCOD9231072
_publ_section_title
;
Structure prediction by ZEFSAII (Michael W. Deem and Ramdas Pophale) SiO2 
 PCOD9231072
Probable space group: P 2/C
;
_chemical_formula_sum "Si O2"
_cell_formula_units_Z 20
_cell_length_a 11.474617
_cell_length_b 5.060786
_cell_length_c 14.929101
_cell_angle_alpha 90.000000
_cell_angle_beta 91.853805
_cell_angle_gamma 90.000000
_cell_volume 866.487832
_symmetry_space_group_name_H-M "P 2/C"
_symmetry_group_IT_number 13
_symmetry_cell_setting 'monoclinic'
loop_
_space_group_symop_operation_xyz
x,y,z
-x,y,1/2-z
-x,-y,-z
x,-y,1/2+z
loop_
_atom_site_type_symbol
_atom_site_label
_atom_site_fract_x
_atom_site_fract_y
_atom_site_fract_z
Si Si1 0.072899 0.232307 0.570351
Si Si2 0.868782 0.187461 0.267630
Si Si3 0.162860 0.099048 0.914149
Si Si4 0.381711 0.061728 0.047952
Si Si5 0.709752 0.461214 0.861148
O O1 0.094990 0.116414 0.473197
O O2 0.167613 0.462179 0.581516
O O3 0.112585 0.012251 0.646575
O O4 0.940951 0.314712 0.588006
O O5 0.825751 0.004096 0.185433
O O6 0.769378 0.414646 0.273943
O O7 0.000000 0.287861 0.250000
O O8 0.283844 0.120511 0.969331
O O9 0.382040 0.324568 0.107094
O O10 0.500000 0.000000 0.000000
O O11 0.344587 0.820958 0.113289
#
# Coordination Sequence:
#
# PCOD9231072 Si02
#       5
#     4   4   4   4   4
#     4   9  19  39  62  98 132 163 206 274 333 400
#     4  10  20  38  64 101 136 165 207 270 341 397
#     4   9  19  39  66  97 127 175 213 264 335 400
#     4  11  24  45  69  90 128 180 228 273 322 382
#     4  11  21  43  66  92 134 165 216 281 326 390
#
# _framework density 23.081686000000001
#
# number of rings (size 3 to 8) (size 9 to 14) (size 15 to 20)
#    0.000    2.000    4.000    0.600    0.000    3.200 
#   14.400    1.000    4.400    0.000    0.000    0.000 
#    0.000    0.000    0.000    0.000    0.000    0.000 
#
# Total GULP energy -111385.104927 kJ/mol
# GULP energy per Si atom -5569.255246 kJ/mol
# Density = 2.302915 g / cm^3
# Si number density = 23.081686 Si / 1000 Ang^3
#
#
#
# Elastic Constant Matrix: (Units=GPa)
#
#
# Indices 1 2 3 4 5 6 
#
# 1 100.3362 16.8977 -5.8072 0.0000 -36.5786 0.0000
# 2 16.8977 79.0165 20.1890 0.0000 -6.6727 0.0000
# 3 -5.8072 20.1890 82.4299 0.0000 -1.6699 0.0000
# 4 0.0000 0.0000 0.0000 12.5310 0.0000 0.2001
# 5 -36.5786 -6.6727 -1.6699 0.0000 37.6908 0.0000
# 6 0.0000 0.0000 0.0000 0.2001 0.0000 24.6848
#
#
#
# Elastic Compliance Matrix: (Units=1/GPa)
#
#
# Indices 1 2 3 4 5 6 
#
# 1 0.016097 -0.002693 0.002102 0.000000 0.015238 0.000000
# 2 -0.002693 0.014143 -0.003659 0.000000 -0.000271 0.000000
# 3 0.002102 -0.003659 0.013216 0.000000 0.001978 0.000000
# 4 0.000000 0.000000 0.000000 0.079812 0.000000 -0.000647
# 5 0.015238 -0.000271 0.001978 0.000000 0.041360 0.000000
# 6 0.000000 0.000000 0.000000 -0.000647 0.000000 0.040516
#
#
# Mechanical properties :
#
#
# Convention : Reuss Voigt Hill
#
# Bulk Modulus (GPa) = 28.60656 36.03796 32.32226
# Shear Modulus (GPa) = 22.19301 30.34820 26.27061
#
# Velocity S-wave (km/s) = 3.10417 3.62997 3.37732
# Velocity P-wave (km/s) = 5.02676 5.76334 5.40761
#
# Compressibility (1/GPa) = 0.03495701
#
# Stress axis : x y z
#
# Youngs Moduli (GPa) = 62.12355 70.70419 75.66627
#
# Poissons Ratio (x) = 0.19038 -0.15907
# Poissons Ratio (y) = 0.16728 0.27688
# Poissons Ratio (z) = -0.13060 0.25872
#
# Static dielectric constant tensor:
#      x y z
#    x 1.920940 0.000000 0.044580 
#    y 0.000000 2.092090 0.000000 
#    z 0.044580 0.000000 1.980740 
# 
# From -- ./inp_files/48637.got.cif
#   From: 2010.05.17/outbox.cif.g08.bks.cpg/sg13_25_cif.got.tgz:48637.got - 2010.06.03 16:44:36.
