data_PCOD9231268
_publ_section_title
;
Structure prediction by ZEFSAII (Michael W. Deem and Ramdas Pophale) SiO2 
 PCOD9231268
Probable space group: P 2/C
;
_chemical_formula_sum "Si O2"
_cell_formula_units_Z 16
_cell_length_a 21.766628
_cell_length_b 7.034306
_cell_length_c 14.192315
_cell_angle_alpha 90.000000
_cell_angle_beta 17.544695
_cell_angle_gamma 90.000000
_cell_volume 655.059092
_symmetry_space_group_name_H-M "P 2/C"
_symmetry_group_IT_number 13
_symmetry_cell_setting 'monoclinic'
loop_
_space_group_symop_operation_xyz
x,y,z
-x,y,1/2-z
-x,-y,-z
x,-y,1/2+z
loop_
_atom_site_type_symbol
_atom_site_label
_atom_site_fract_x
_atom_site_fract_y
_atom_site_fract_z
Si Si1 0.286144 0.870023 0.379464
Si Si2 0.691578 0.211556 0.027358
Si Si3 0.885223 0.723454 0.058484
Si Si4 0.450871 0.445172 0.965448
O O1 0.254394 0.839761 0.313982
O O2 0.490146 0.774355 0.122578
O O3 0.261899 0.083838 0.450503
O O4 0.106443 0.747811 0.691690
O O5 0.500000 0.126370 0.250000
O O6 0.606512 0.419136 0.180184
O O7 0.867921 0.211613 0.691520
O O8 0.778376 0.515879 0.217083
O O9 0.500000 0.500000 0.000000
#
# Coordination Sequence:
#
# PCOD9231268 Si02
#       4
#     4   4   4   4
#     4  10  20  39  61  81 116 155 183 233 293 330
#     4  10  21  36  57  86 115 149 192 231 277 343
#     4   9  20  38  58  87 117 143 192 240 273 340
#     4   9  20  37  55  80 115 148 186 232 277 331
#
# _framework density 24.425277000000001
#
# number of rings (size 3 to 8) (size 9 to 14) (size 15 to 20)
#    0.000    2.500    0.000    0.750    0.000   13.000 
#    0.000   17.500    0.000    0.000    0.000    0.000 
#    0.000    0.000    0.000    0.000    0.000    0.000 
#
# Total GULP energy -89254.005434 kJ/mol
# GULP energy per Si atom -5578.375340 kJ/mol
# Density = 2.436968 g / cm^3
# Si number density = 24.425277 Si / 1000 Ang^3
#
#
#
# Elastic Constant Matrix: (Units=GPa)
#
#
# Indices 1 2 3 4 5 6 
#
# 1 80.3537 34.2884 10.4278 0.0000 32.7968 0.0000
# 2 34.2884 73.2841 12.5219 0.0000 4.2805 0.0000
# 3 10.4278 12.5219 86.6015 0.0000 22.5873 0.0000
# 4 0.0000 0.0000 0.0000 12.5005 0.0000 14.2150
# 5 32.7968 4.2805 22.5873 0.0000 46.4082 0.0000
# 6 0.0000 0.0000 0.0000 14.2150 0.0000 29.0751
#
#
#
# Elastic Compliance Matrix: (Units=1/GPa)
#
#
# Indices 1 2 3 4 5 6 
#
# 1 0.023577 -0.010569 0.003185 0.000000 -0.017237 0.000000
# 2 -0.010569 0.018734 -0.003360 0.000000 0.007376 0.000000
# 3 0.003185 -0.003360 0.013923 0.000000 -0.008717 0.000000
# 4 0.000000 0.000000 0.000000 0.180159 0.000000 -0.088081
# 5 -0.017237 0.007376 -0.008717 0.000000 0.037292 0.000000
# 6 0.000000 0.000000 0.000000 -0.088081 0.000000 0.077457
#
#
# Mechanical properties :
#
#
# Convention : Reuss Voigt Hill
#
# Bulk Modulus (GPa) = 28.77998 39.41283 34.09641
# Shear Modulus (GPa) = 13.01368 29.79685 21.40527
#
# Velocity S-wave (km/s) = 2.31074 3.49652 2.96354
# Velocity P-wave (km/s) = 4.35061 5.69842 5.06951
#
# Compressibility (1/GPa) = 0.03474637
#
# Stress axis : x y z
#
# Youngs Moduli (GPa) = 42.41438 53.37983 71.82290
#
# Poissons Ratio (x) = 0.56415 -0.22875
# Poissons Ratio (y) = 0.44826 0.24133
# Poissons Ratio (z) = -0.13509 0.17936
#
# Static dielectric constant tensor:
#      x y z
#    x 1.950360 0.000000 -0.000610 
#    y 0.000000 1.949410 0.000000 
#    z -0.000610 0.000000 2.000060 
# 
# From -- ./inp_files/48548.got.cif
#   From: 2010.05.17/outbox.cif.g08.bks.cpg/sg13_25_cif.got.tgz:48548.got - 2010.06.03 16:44:36.
