data_PCOD9231080
_publ_section_title
;
Structure prediction by ZEFSAII (Michael W. Deem and Ramdas Pophale) SiO2 
 PCOD9231080
Probable space group: P 2/C
;
_chemical_formula_sum "Si O2"
_cell_formula_units_Z 32
_cell_length_a 20.100211
_cell_length_b 6.165324
_cell_length_c 16.898175
_cell_angle_alpha 90.000000
_cell_angle_beta 49.667088
_cell_angle_gamma 90.000000
_cell_volume 1596.321448
_symmetry_space_group_name_H-M "P 2/C"
_symmetry_group_IT_number 13
_symmetry_cell_setting 'monoclinic'
loop_
_space_group_symop_operation_xyz
x,y,z
-x,y,1/2-z
-x,-y,-z
x,-y,1/2+z
loop_
_atom_site_type_symbol
_atom_site_label
_atom_site_fract_x
_atom_site_fract_y
_atom_site_fract_z
Si Si1 0.701468 0.140543 0.580743
Si Si2 0.919910 0.462629 0.952628
Si Si3 0.597404 0.534940 0.652486
Si Si4 0.699941 0.228767 0.949743
Si Si5 0.166535 0.401836 0.124646
Si Si6 0.064117 0.189905 0.922511
Si Si7 0.744271 0.234464 0.145230
Si Si8 0.215874 0.918044 0.724805
O O1 0.613080 0.276946 0.646962
O O2 0.772222 0.306378 0.492809
O O3 0.703779 0.945396 0.517069
O O4 0.725697 0.019832 0.642216
O O5 0.916029 0.535214 0.864514
O O6 0.009248 0.340263 0.904840
O O7 0.913060 0.661516 0.019610
O O8 0.836830 0.306653 0.036144
O O9 0.500000 0.597702 0.750000
O O10 0.623618 0.616137 0.543487
O O11 0.666095 0.633981 0.663655
O O12 0.784456 0.383840 0.882182
O O13 0.706981 0.071602 0.868764
O O14 0.169214 0.221305 0.190905
O O15 0.145126 0.074382 0.819165
O O16 0.000000 0.000000 0.000000
O O17 0.751238 0.250565 0.234184
#
# Coordination Sequence:
#
# PCOD9231080 Si02
#       8
#     4   4   4   4   4   4   4   4
#     4   9  17  35  62  90 109 165 204 258 298 381
#     4  11  22  41  67  89 125 174 223 264 318 368
#     4  10  21  38  66  99 125 158 212 268 316 389
#     4   9  20  38  61  91 125 163 202 261 315 384
#     4  10  20  38  64  86 125 162 213 263 319 377
#     4  11  25  40  63  93 130 165 224 279 302 373
#     4  11  21  38  69  92 122 173 219 255 316 391
#     4  11  24  37  64  95 128 174 216 264 327 376
#
# _framework density 20.046087
#
# number of rings (size 3 to 8) (size 9 to 14) (size 15 to 20)
#    0.000    1.750    5.000    0.750    1.750    2.000 
#    0.000    4.375    0.000    7.500    0.000    0.000 
#    0.000    0.000    0.000    0.000    0.000    0.000 
#
# Total GULP energy -178302.123286 kJ/mol
# GULP energy per Si atom -5571.941353 kJ/mol
# Density = 2.000046 g / cm^3
# Si number density = 20.046087 Si / 1000 Ang^3
#
#
#
# Elastic Constant Matrix: (Units=GPa)
#
#
# Indices 1 2 3 4 5 6 
#
# 1 63.5199 17.9184 37.1872 0.0000 0.9398 0.0000
# 2 17.9184 85.0171 20.2273 0.0000 3.6212 0.0000
# 3 37.1872 20.2273 88.1452 0.0000 -0.2323 0.0000
# 4 0.0000 0.0000 0.0000 27.4387 0.0000 6.5540
# 5 0.9398 3.6212 -0.2323 0.0000 26.3258 0.0000
# 6 0.0000 0.0000 0.0000 6.5540 0.0000 22.9015
#
#
#
# Elastic Compliance Matrix: (Units=1/GPa)
#
#
# Indices 1 2 3 4 5 6 
#
# 1 0.021404 -0.002476 -0.008463 0.000000 -0.000498 0.000000
# 2 -0.002476 0.012808 -0.001899 0.000000 -0.001690 0.000000
# 3 -0.008463 -0.001899 0.015353 0.000000 0.000699 0.000000
# 4 0.000000 0.000000 0.000000 0.039119 0.000000 -0.011195
# 5 -0.000498 -0.001690 0.000699 0.000000 0.038242 0.000000
# 6 0.000000 0.000000 0.000000 -0.011195 0.000000 0.046869
#
#
# Mechanical properties :
#
#
# Convention : Reuss Voigt Hill
#
# Bulk Modulus (GPa) = 41.86162 43.03867 42.45014
# Shear Modulus (GPa) = 24.10411 26.08983 25.09697
#
# Velocity S-wave (km/s) = 3.47138 3.61153 3.54215
# Velocity P-wave (km/s) = 6.08238 6.23758 6.16047
#
# Compressibility (1/GPa) = 0.02388823
#
# Stress axis : x y z
#
# Youngs Moduli (GPa) = 46.72118 78.07603 65.13428
#
# Poissons Ratio (x) = 0.19334 0.55123
# Poissons Ratio (y) = 0.11570 0.12368
# Poissons Ratio (z) = 0.39540 0.14826
#
# Static dielectric constant tensor:
#      x y z
#    x 1.749650 0.000000 0.014890 
#    y 0.000000 1.770070 0.000000 
#    z 0.014890 0.000000 1.736820 
# 
# From -- ./inp_files/70283.got.cif
#   From: 2010.05.17/outbox.cif.g08.bks.cpg/sg13_36_cif.got.tgz:70283.got - 2010.06.03 16:44:36.
