data_PCOD9231172
_publ_section_title
;
Structure prediction by ZEFSAII (Michael W. Deem and Ramdas Pophale) SiO2 
 PCOD9231172
Probable space group: P 2/C
;
_chemical_formula_sum "Si O2"
_cell_formula_units_Z 32
_cell_length_a 13.635429
_cell_length_b 18.971987
_cell_length_c 5.585451
_cell_angle_alpha 90.000000
_cell_angle_beta 94.200005
_cell_angle_gamma 90.000000
_cell_volume 1441.026580
_symmetry_space_group_name_H-M "P 2/C"
_symmetry_group_IT_number 13
_symmetry_cell_setting 'monoclinic'
loop_
_space_group_symop_operation_xyz
x,y,z
-x,y,1/2-z
-x,-y,-z
x,-y,1/2+z
loop_
_atom_site_type_symbol
_atom_site_label
_atom_site_fract_x
_atom_site_fract_y
_atom_site_fract_z
Si Si1 0.233636 0.271114 0.966129
Si Si2 0.140623 0.464612 0.343983
Si Si3 0.694052 0.174634 0.901972
Si Si4 0.612579 0.973391 0.492124
Si Si5 0.086056 0.332805 0.592905
Si Si6 0.622477 0.464345 0.097900
Si Si7 0.898215 0.193487 0.174911
Si Si8 0.396580 0.692548 0.841651
O O1 0.285468 0.202334 0.860502
O O2 0.185576 0.322530 0.762712
O O3 0.149017 0.237443 0.114684
O O4 0.313725 0.314854 0.123791
O O5 0.109003 0.505425 0.581638
O O6 0.104910 0.385219 0.379570
O O7 0.258668 0.465744 0.372954
O O8 0.624540 0.108370 0.928732
O O9 0.801753 0.158518 0.037424
O O10 0.646179 0.243920 0.010431
O O11 0.500000 0.000000 0.500000
O O12 0.656370 0.012423 0.264967
O O13 0.066192 0.254308 0.499750
O O14 0.000000 0.357812 0.750000
O O15 0.593198 0.488338 0.362872
O O16 0.591624 0.383816 0.039347
O O17 0.000000 0.152984 0.250000
O O18 0.500000 0.714180 0.750000
#
# Coordination Sequence:
#
# PCOD9231172 Si02
#       8
#     4   4   4   4   4   4   4   4
#     4  10  22  40  64  92 137 165 231 278 352 398
#     4  10  23  37  58  83 119 170 220 281 352 424
#     4  10  24  41  68 105 139 182 228 288 343 410
#     4  10  24  43  72 104 145 189 228 268 336 421
#     4  11  22  36  60  90 124 168 220 283 352 416
#     4  10  23  43  66  87 126 179 238 292 356 419
#     4  10  20  38  66  96 128 173 224 279 338 399
#     4  11  26  41  65  97 132 177 231 295 356 411
#
# _framework density 22.206389000000001
#
# number of rings (size 3 to 8) (size 9 to 14) (size 15 to 20)
#    0.000    1.750    1.250    2.250   14.000    2.500 
#    0.000    0.000    0.000    0.750    0.000    0.000 
#    0.000    0.000    0.000    0.000    0.000    0.000 
#
# Total GULP energy -178784.590549 kJ/mol
# GULP energy per Si atom -5587.018455 kJ/mol
# Density = 2.215585 g / cm^3
# Si number density = 22.206389 Si / 1000 Ang^3
#
#
#
# Elastic Constant Matrix: (Units=GPa)
#
#
# Indices 1 2 3 4 5 6 
#
# 1 96.9589 18.5762 17.7446 0.0000 -2.2083 0.0000
# 2 18.5762 89.3731 22.4804 0.0000 -6.3428 0.0000
# 3 17.7446 22.4804 97.6346 0.0000 -24.9665 0.0000
# 4 0.0000 0.0000 0.0000 20.0887 0.0000 -4.0323
# 5 -2.2083 -6.3428 -24.9665 0.0000 21.1345 0.0000
# 6 0.0000 0.0000 0.0000 -4.0323 0.0000 15.1420
#
#
#
# Elastic Compliance Matrix: (Units=1/GPa)
#
#
# Indices 1 2 3 4 5 6 
#
# 1 0.011008 -0.001907 -0.002026 0.000000 -0.001815 0.000000
# 2 -0.001907 0.012211 -0.002262 0.000000 0.000793 0.000000
# 3 -0.002026 -0.002262 0.015623 0.000000 0.017565 0.000000
# 4 0.000000 0.000000 0.000000 0.052590 0.000000 0.014005
# 5 -0.001815 0.000793 0.017565 0.000000 0.068114 0.000000
# 6 0.000000 0.000000 0.000000 0.014005 0.000000 0.069771
#
#
# Mechanical properties :
#
#
# Convention : Reuss Voigt Hill
#
# Bulk Modulus (GPa) = 37.80468 44.61878 41.21173
# Shear Modulus (GPa) = 19.95808 26.28406 23.12107
#
# Velocity S-wave (km/s) = 3.00117 3.44412 3.23025
# Velocity P-wave (km/s) = 5.39172 5.99603 5.70188
#
# Compressibility (1/GPa) = 0.02645175
#
# Stress axis : x y z
#
# Youngs Moduli (GPa) = 90.83915 81.89488 64.00869
#
# Poissons Ratio (x) = 0.15621 0.12966
# Poissons Ratio (y) = 0.17327 0.14479
# Poissons Ratio (z) = 0.18402 0.18525
#
# Static dielectric constant tensor:
#      x y z
#    x 1.849020 0.000000 0.020280 
#    y 0.000000 1.777190 0.000000 
#    z 0.020280 0.000000 1.890080 
# 
# From -- ./inp_files/5362.got.cif
#   From: 2010.05.17/outbox.cif.g08.bks.cpg/sg13_3_cif.got.tgz:5362.got - 2010.06.03 16:44:36.
