data_PCOD9231308
_publ_section_title
;
Structure prediction by ZEFSAII (Michael W. Deem and Ramdas Pophale) SiO2 
 PCOD9231308
Probable space group: P 2/C
;
_chemical_formula_sum "Si O2"
_cell_formula_units_Z 26
_cell_length_a 9.832742
_cell_length_b 9.221944
_cell_length_c 19.554607
_cell_angle_alpha 90.000000
_cell_angle_beta 43.202545
_cell_angle_gamma 90.000000
_cell_volume 1213.864183
_symmetry_space_group_name_H-M "P 2/C"
_symmetry_group_IT_number 13
_symmetry_cell_setting 'monoclinic'
loop_
_space_group_symop_operation_xyz
x,y,z
-x,y,1/2-z
-x,-y,-z
x,-y,1/2+z
loop_
_atom_site_type_symbol
_atom_site_label
_atom_site_fract_x
_atom_site_fract_y
_atom_site_fract_z
Si Si1 0.772072 0.783841 0.325457
Si Si2 0.416245 0.336106 0.466826
Si Si3 0.818553 0.419732 0.528992
Si Si4 0.500000 0.465398 0.750000
Si Si5 0.945982 0.231597 0.362574
Si Si6 0.237447 0.475505 0.225495
Si Si7 0.685524 0.903210 0.834994
O O1 0.676528 0.720430 0.429378
O O2 0.784043 0.647246 0.270575
O O3 0.000000 0.833646 0.250000
O O4 0.652494 0.926281 0.348748
O O5 0.272845 0.450866 0.483671
O O6 0.626318 0.423338 0.387852
O O7 0.486458 0.191025 0.400991
O O8 0.651580 0.380855 0.646020
O O9 0.000000 0.500000 0.500000
O O10 0.866156 0.279709 0.465400
O O11 0.636079 0.556501 0.752340
O O12 0.035539 0.387235 0.304668
O O13 0.146417 0.135792 0.282647
O O14 0.789236 0.153289 0.369032
#
# Coordination Sequence:
#
# PCOD9231308 Si02
#       7
#     4   4   4   2   4   4   4
#     4  12  23  38  62  95 126 164 208 259 324 389
#     4  10  24  37  62  94 123 166 208 268 323 369
#     4  11  22  39  65  94 124 165 221 271 309 368
#     4  10  22  40  58  98 120 164 210 274 312 360
#     4  10  20  39  62  90 125 162 204 264 323 367
#     4  10  22  37  66  90 126 157 221 261 310 372
#     4  10  23  41  60  92 135 163 199 258 336 392
#
# _framework density 21.4192
#
# number of rings (size 3 to 8) (size 9 to 14) (size 15 to 20)
#    0.000    1.538    3.077    1.846   15.077    0.000 
#    0.000    0.000    3.385    1.846    0.000    0.000 
#    0.000    0.000    0.000    0.000    0.000    0.000 
#
# Total GULP energy -144970.737909 kJ/mol
# GULP energy per Si atom -5575.797612 kJ/mol
# Density = 2.137045 g / cm^3
# Si number density = 21.419200 Si / 1000 Ang^3
#
#
#
# Elastic Constant Matrix: (Units=GPa)
#
#
# Indices 1 2 3 4 5 6 
#
# 1 46.4076 3.6775 8.4638 0.0000 -4.0033 0.0000
# 2 3.6775 124.1711 13.9924 0.0000 11.0015 0.0000
# 3 8.4638 13.9924 145.7706 0.0000 12.4331 0.0000
# 4 0.0000 0.0000 0.0000 3.5046 0.0000 -2.2887
# 5 -4.0033 11.0015 12.4331 0.0000 21.7964 0.0000
# 6 0.0000 0.0000 0.0000 -2.2887 0.0000 11.8780
#
#
#
# Elastic Compliance Matrix: (Units=1/GPa)
#
#
# Indices 1 2 3 4 5 6 
#
# 1 0.022412 -0.000967 -0.001683 0.000000 0.005565 0.000000
# 2 -0.000967 0.008503 -0.000398 0.000000 -0.004242 0.000000
# 3 -0.001683 -0.000398 0.007364 0.000000 -0.004308 0.000000
# 4 0.000000 0.000000 0.000000 0.326414 0.000000 0.062894
# 5 0.005565 -0.004242 -0.004308 0.000000 0.051500 0.000000
# 6 0.000000 0.000000 0.000000 0.062894 0.000000 0.096308
#
#
# Mechanical properties :
#
#
# Convention : Reuss Voigt Hill
#
# Bulk Modulus (GPa) = 31.07389 40.95741 36.01565
# Shear Modulus (GPa) = 9.44602 26.78352 18.11477
#
# Velocity S-wave (km/s) = 2.10229 3.54000 2.91129
# Velocity P-wave (km/s) = 4.52016 5.98933 5.30584
#
# Compressibility (1/GPa) = 0.03218136
#
# Stress axis : x y z
#
# Youngs Moduli (GPa) = 44.61929 117.60873 135.80472
#
# Poissons Ratio (x) = 0.11374 0.22857
# Poissons Ratio (y) = 0.04315 0.05408
# Poissons Ratio (z) = 0.07510 0.04683
#
# Static dielectric constant tensor:
#      x y z
#    x 1.860440 0.000000 0.019890 
#    y 0.000000 1.811010 0.000000 
#    z 0.019890 0.000000 1.867140 
# 
# From -- ./inp_files/78215.got.cif
#   From: 2010.05.17/outbox.cif.g08.bks.cpg/sg13_40_cif.got.tgz:78215.got - 2010.06.03 16:44:36.
