data_PCOD9231669
_publ_section_title
;
Structure prediction by ZEFSAII (Michael W. Deem and Ramdas Pophale) SiO2 
 PCOD9231669
Probable space group: P 2/C
;
_chemical_formula_sum "Si O2"
_cell_formula_units_Z 24
_cell_length_a 8.969826
_cell_length_b 13.278943
_cell_length_c 10.088375
_cell_angle_alpha 90.000000
_cell_angle_beta 83.629207
_cell_angle_gamma 90.000000
_cell_volume 1194.203914
_symmetry_space_group_name_H-M "P 2/C"
_symmetry_group_IT_number 13
_symmetry_cell_setting 'monoclinic'
loop_
_space_group_symop_operation_xyz
x,y,z
-x,y,1/2-z
-x,-y,-z
x,-y,1/2+z
loop_
_atom_site_type_symbol
_atom_site_label
_atom_site_fract_x
_atom_site_fract_y
_atom_site_fract_z
Si Si1 0.597944 0.996880 0.856299
Si Si2 0.022358 0.234090 0.022736
Si Si3 0.663974 0.559846 0.789922
Si Si4 0.072369 0.055822 0.616076
Si Si5 0.756597 0.790462 0.760327
Si Si6 0.840313 0.450006 0.541761
O O1 0.500000 0.047494 0.750000
O O2 0.651241 0.889183 0.784914
O O3 0.751294 0.051292 0.882755
O O4 0.500000 0.000000 0.000000
O O5 0.864302 0.227714 0.121105
O O6 0.137851 0.195192 0.121949
O O7 0.990933 0.166663 0.899353
O O8 0.105824 0.334429 0.965331
O O9 0.500000 0.532019 0.750000
O O10 0.676920 0.681711 0.780392
O O11 0.776140 0.500776 0.680399
O O12 0.719918 0.534456 0.933832
O O13 0.000000 0.005728 0.750000
O O14 0.000000 0.000000 0.500000
O O15 0.000000 0.500000 0.500000
#
# Coordination Sequence:
#
# PCOD9231669 Si02
#       6
#     4   4   4   4   4   4
#     4  12  25  41  67  99 140 176 219 282 344 405
#     4  10  21  39  69  98 123 178 231 282 324 396
#     4  11  23  40  68 101 140 180 222 283 354 411
#     4  12  24  42  67  93 130 175 227 273 328 402
#     4  10  20  40  68  98 131 176 228 271 337 414
#     4  11  22  42  69  98 136 175 236 283 336 406
#
# _framework density 20.097072000000001
#
# number of rings (size 3 to 8) (size 9 to 14) (size 15 to 20)
#    0.000    1.000    3.333    4.500    0.000    1.333 
#    0.000    0.000    7.333    0.000    0.000    0.000 
#    0.000    0.000    0.000    0.000    0.000    0.000 
#
# Total GULP energy -133652.097346 kJ/mol
# GULP energy per Si atom -5568.837389 kJ/mol
# Density = 2.005133 g / cm^3
# Si number density = 20.097072 Si / 1000 Ang^3
#
#
#
# Elastic Constant Matrix: (Units=GPa)
#
#
# Indices 1 2 3 4 5 6 
#
# 1 116.8921 27.6772 31.6762 0.0000 12.7621 0.0000
# 2 27.6772 78.5558 29.7271 0.0000 9.8491 0.0000
# 3 31.6762 29.7271 118.5925 0.0000 13.6345 0.0000
# 4 0.0000 0.0000 0.0000 29.9292 0.0000 0.8504
# 5 12.7621 9.8491 13.6345 0.0000 37.2187 0.0000
# 6 0.0000 0.0000 0.0000 0.8504 0.0000 28.1118
#
#
#
# Elastic Compliance Matrix: (Units=1/GPa)
#
#
# Indices 1 2 3 4 5 6 
#
# 1 0.009860 -0.002550 -0.001757 0.000000 -0.002062 0.000000
# 2 -0.002550 0.014957 -0.002833 0.000000 -0.002046 0.000000
# 3 -0.001757 -0.002833 0.009872 0.000000 -0.002264 0.000000
# 4 0.000000 0.000000 0.000000 0.033441 0.000000 -0.001012
# 5 -0.002062 -0.002046 -0.002264 0.000000 0.028946 0.000000
# 6 0.000000 0.000000 0.000000 -0.001012 0.000000 0.035603
#
#
# Mechanical properties :
#
#
# Convention : Reuss Voigt Hill
#
# Bulk Modulus (GPa) = 49.00011 54.68903 51.84457
# Shear Modulus (GPa) = 32.51770 34.04928 33.28349
#
# Velocity S-wave (km/s) = 4.02684 4.12058 4.07398
# Velocity P-wave (km/s) = 6.78640 7.06473 6.92696
#
# Compressibility (1/GPa) = 0.02040812
#
# Stress axis : x y z
#
# Youngs Moduli (GPa) = 101.41857 66.85908 101.29665
#
# Poissons Ratio (x) = 0.17052 0.17800
# Poissons Ratio (y) = 0.25866 0.28695
# Poissons Ratio (z) = 0.17822 0.18940
#
# Static dielectric constant tensor:
#      x y z
#    x 1.726550 0.000000 -0.029590 
#    y 0.000000 1.648960 0.000000 
#    z -0.029590 0.000000 1.712880 
# 
# From -- ./inp_files/12468.got.cif
#   From: 2010.05.17/outbox.cif.g08.bks.cpg/sg13_7_cif.got.tgz:12468.got - 2010.06.03 16:44:36.
