data_PCOD9231756
_publ_section_title
;
Structure prediction by ZEFSAII (Michael W. Deem and Ramdas Pophale) SiO2 
 PCOD9231756
Probable space group: P 2/C
;
_chemical_formula_sum "Si O2"
_cell_formula_units_Z 30
_cell_length_a 23.227146
_cell_length_b 9.726938
_cell_length_c 8.837400
_cell_angle_alpha 90.000000
_cell_angle_beta 141.844477
_cell_angle_gamma 90.000000
_cell_volume 1233.511290
_symmetry_space_group_name_H-M "P 2/C"
_symmetry_group_IT_number 13
_symmetry_cell_setting 'monoclinic'
loop_
_space_group_symop_operation_xyz
x,y,z
-x,y,1/2-z
-x,-y,-z
x,-y,1/2+z
loop_
_atom_site_type_symbol
_atom_site_label
_atom_site_fract_x
_atom_site_fract_y
_atom_site_fract_z
Si Si1 0.592268 0.636894 0.356536
Si Si2 0.317044 0.826150 0.535823
Si Si3 0.118092 0.244055 0.637077
Si Si4 0.655664 0.085600 0.063813
Si Si5 0.099607 0.532577 0.626085
Si Si6 0.306606 0.531504 0.653801
Si Si7 0.000000 0.039238 0.250000
Si Si8 0.855837 0.800163 0.964323
O O1 0.587826 0.801344 0.352394
O O2 0.675118 0.584903 0.639447
O O3 0.619524 0.581500 0.249511
O O4 0.500000 0.584865 0.250000
O O5 0.209094 0.828920 0.259777
O O6 0.334162 0.894109 0.735482
O O7 0.330957 0.664097 0.596518
O O8 0.366902 0.929482 0.524854
O O9 0.105931 0.393031 0.537631
O O10 0.144736 0.262258 0.867853
O O11 0.029842 0.145523 0.441746
O O12 0.755420 0.143155 0.207216
O O13 0.100253 0.681033 0.548651
O O14 0.000000 0.500000 0.500000
O O15 0.201934 0.525430 0.917260
O O16 0.083260 0.936368 0.394123
#
# Coordination Sequence:
#
# PCOD9231756 Si02
#       8
#     4   4   4   4   4   4   2   4
#     4  11  23  44  72 102 135 175 222 283 347 410
#     4   9  20  40  63  90 130 175 216 277 331 400
#     4  10  23  40  57  87 127 173 225 273 325 390
#     4  10  20  41  64  94 128 172 219 271 339 402
#     4  11  24  43  64  93 133 178 226 275 329 392
#     4  10  23  44  68 100 139 173 226 280 338 407
#     4  12  22  38  58  88 122 172 226 268 322 388
#     4  11  22  40  62  87 129 172 221 275 331 387
#
# _framework density 24.320813999999999
#
# number of rings (size 3 to 8) (size 9 to 14) (size 15 to 20)
#    0.000    1.600    2.667    2.400    0.000    2.667 
#    2.400    3.333    0.000    0.000    0.000    0.000 
#    0.000    0.000    0.000    0.000    0.000    0.000 
#
# Total GULP energy -167399.921571 kJ/mol
# GULP energy per Si atom -5579.997386 kJ/mol
# Density = 2.426546 g / cm^3
# Si number density = 24.320814 Si / 1000 Ang^3
#
#
#
# Elastic Constant Matrix: (Units=GPa)
#
#
# Indices 1 2 3 4 5 6 
#
# 1 28.3553 1.6672 -4.9155 0.0000 12.0290 0.0000
# 2 1.6672 100.2633 14.0822 0.0000 -10.0743 0.0000
# 3 -4.9155 14.0822 16.1807 0.0000 -3.3240 0.0000
# 4 0.0000 0.0000 0.0000 19.2459 0.0000 -5.2539
# 5 12.0290 -10.0743 -3.3240 0.0000 22.1592 0.0000
# 6 0.0000 0.0000 0.0000 -5.2539 0.0000 28.7204
#
#
#
# Elastic Compliance Matrix: (Units=1/GPa)
#
#
# Indices 1 2 3 4 5 6 
#
# 1 0.049689 -0.005590 0.014338 0.000000 -0.027364 0.000000
# 2 -0.005590 0.012310 -0.010977 0.000000 0.006984 0.000000
# 3 0.014338 -0.010977 0.075411 0.000000 -0.001462 0.000000
# 4 0.000000 0.000000 0.000000 0.054690 0.000000 0.010005
# 5 -0.027364 0.006984 -0.001462 0.000000 0.062938 0.000000
# 6 0.000000 0.000000 0.000000 0.010005 0.000000 0.036649
#
#
# Mechanical properties :
#
#
# Convention : Reuss Voigt Hill
#
# Bulk Modulus (GPa) = 7.52140 18.49635 13.00888
# Shear Modulus (GPa) = 14.68590 22.95612 18.82101
#
# Velocity S-wave (km/s) = 2.45998 3.07561 2.78486
# Velocity P-wave (km/s) = 3.34185 4.49824 3.96246
#
# Compressibility (1/GPa) = 0.13295390
#
# Stress axis : x y z
#
# Youngs Moduli (GPa) = 20.12500 81.23358 13.26069
#
# Poissons Ratio (x) = 0.45406 -0.19013
# Poissons Ratio (y) = 0.11249 0.14556
# Poissons Ratio (z) = -0.28856 0.89169
#
# Static dielectric constant tensor:
#      x y z
#    x 1.946630 0.000000 0.014010 
#    y 0.000000 1.960750 0.000000 
#    z 0.014010 0.000000 2.019260 
# 
# From -- ./inp_files/42715.got.cif
#   From: 2010.05.17/outbox.cif.g08.bks.cpg/sg13_22_cif.got.tgz:42715.got - 2010.06.03 16:44:36.
