data_PCOD9231687
_publ_section_title
;
Structure prediction by ZEFSAII (Michael W. Deem and Ramdas Pophale) SiO2 
 PCOD9231687
Probable space group: P 2/C
;
_chemical_formula_sum "Si O2"
_cell_formula_units_Z 18
_cell_length_a 17.969190
_cell_length_b 5.718673
_cell_length_c 8.751106
_cell_angle_alpha 90.000000
_cell_angle_beta 53.437776
_cell_angle_gamma 90.000000
_cell_volume 722.297369
_symmetry_space_group_name_H-M "P 2/C"
_symmetry_group_IT_number 13
_symmetry_cell_setting 'monoclinic'
loop_
_space_group_symop_operation_xyz
x,y,z
-x,y,1/2-z
-x,-y,-z
x,-y,1/2+z
loop_
_atom_site_type_symbol
_atom_site_label
_atom_site_fract_x
_atom_site_fract_y
_atom_site_fract_z
Si Si1 0.000000 0.883980 0.750000
Si Si2 0.122234 0.822903 0.862592
Si Si3 0.721417 0.831517 0.387298
Si Si4 0.287033 0.536569 0.815867
Si Si5 0.559501 0.167480 0.537969
O O1 0.060448 0.052545 0.567020
O O2 0.939829 0.733165 0.702888
O O3 0.184865 0.027135 0.711807
O O4 0.195530 0.649026 0.849882
O O5 0.716551 0.612315 0.505393
O O6 0.715083 0.734519 0.222717
O O7 0.635483 0.997959 0.521067
O O8 0.380849 0.646517 0.630641
O O9 0.500000 0.271679 0.750000
O O10 0.500000 0.000000 0.500000
#
# Coordination Sequence:
#
# PCOD9231687 Si02
#       5
#     2   4   4   4   4
#     4  10  20  40  70  88 118 170 204 262 300 364
#     4  10  22  43  64  89 129 161 210 250 313 362
#     4  11  25  41  64  93 126 166 205 249 313 369
#     4  11  25  41  64  92 127 166 203 253 310 371
#     4  11  24  44  64  90 125 163 210 256 301 361
#
# _framework density 24.920484999999999
#
# number of rings (size 3 to 8) (size 9 to 14) (size 15 to 20)
#    0.000    1.333    4.444    0.000    6.222    1.778 
#    0.000    6.667    0.000    0.000    0.000    0.000 
#    0.000    0.000    0.000    0.000    0.000    0.000 
#
# Total GULP energy -100847.905737 kJ/mol
# GULP energy per Si atom -5602.661430 kJ/mol
# Density = 2.486377 g / cm^3
# Si number density = 24.920485 Si / 1000 Ang^3
#
#
#
# Elastic Constant Matrix: (Units=GPa)
#
#
# Indices 1 2 3 4 5 6 
#
# 1 122.2146 4.6718 50.2223 0.0000 5.2293 0.0000
# 2 4.6718 17.3627 -0.2629 0.0000 2.4808 0.0000
# 3 50.2223 -0.2629 122.4361 0.0000 -5.6943 0.0000
# 4 0.0000 0.0000 0.0000 30.3932 0.0000 15.8268
# 5 5.2293 2.4808 -5.6943 0.0000 39.0035 0.0000
# 6 0.0000 0.0000 0.0000 15.8268 0.0000 20.8293
#
#
#
# Elastic Compliance Matrix: (Units=1/GPa)
#
#
# Indices 1 2 3 4 5 6 
#
# 1 0.010095 -0.002521 -0.004230 0.000000 -0.001811 0.000000
# 2 -0.002521 0.058753 0.001009 0.000000 -0.003252 0.000000
# 3 -0.004230 0.001009 0.009996 0.000000 0.001962 0.000000
# 4 0.000000 0.000000 0.000000 0.054444 0.000000 -0.041369
# 5 -0.001811 -0.003252 0.001962 0.000000 0.026375 0.000000
# 6 0.000000 0.000000 0.000000 -0.041369 0.000000 0.079443
#
#
# Mechanical properties :
#
#
# Convention : Reuss Voigt Hill
#
# Bulk Modulus (GPa) = 14.84591 41.25285 28.04938
# Shear Modulus (GPa) = 18.31209 31.87068 25.09138
#
# Velocity S-wave (km/s) = 2.71370 3.58004 3.17654
# Velocity P-wave (km/s) = 3.97355 5.80333 4.97332
#
# Compressibility (1/GPa) = 0.06735863
#
# Stress axis : x y z
#
# Youngs Moduli (GPa) = 99.06304 17.02039 100.03796
#
# Poissons Ratio (x) = 0.04292 0.42319
# Poissons Ratio (y) = 0.24978 -0.10096
# Poissons Ratio (z) = 0.41907 -0.01718
#
# Static dielectric constant tensor:
#      x y z
#    x 1.998060 0.000000 -0.007210 
#    y 0.000000 1.899050 0.000000 
#    z -0.007210 0.000000 1.951120 
# 
# From -- ./inp_files/17832.got.cif
#   From: 2010.05.17/outbox.cif.g08.bks.cpg/sg13_9_cif.got.tgz:17832.got - 2010.06.03 16:44:36.
