data_PCOD9231019
_publ_section_title
;
Structure prediction by ZEFSAII (Michael W. Deem and Ramdas Pophale) SiO2 
 PCOD9231019
Probable space group: P 2/C
;
_chemical_formula_sum "Si O2"
_cell_formula_units_Z 26
_cell_length_a 9.124390
_cell_length_b 8.068222
_cell_length_c 22.549149
_cell_angle_alpha 90.000000
_cell_angle_beta 128.838581
_cell_angle_gamma 90.000000
_cell_volume 1293.011477
_symmetry_space_group_name_H-M "P 2/C"
_symmetry_group_IT_number 13
_symmetry_cell_setting 'monoclinic'
loop_
_space_group_symop_operation_xyz
x,y,z
-x,y,1/2-z
-x,-y,-z
x,-y,1/2+z
loop_
_atom_site_type_symbol
_atom_site_label
_atom_site_fract_x
_atom_site_fract_y
_atom_site_fract_z
Si Si1 0.368832 0.018553 0.911100
Si Si2 0.168081 0.364154 0.885867
Si Si3 0.789466 0.171388 0.803967
Si Si4 0.142383 0.591698 0.988578
Si Si5 0.999263 0.174612 0.151418
Si Si6 0.562729 0.809308 0.364802
Si Si7 0.000000 0.584268 0.750000
O O1 0.281088 0.201463 0.897070
O O2 0.502124 0.031175 0.887973
O O3 0.203153 0.884761 0.873529
O O4 0.500000 0.000000 0.000000
O O5 0.220764 0.463685 0.958597
O O6 0.153082 0.478089 0.824261
O O7 0.957343 0.301284 0.845412
O O8 0.632835 0.232381 0.717887
O O9 0.700888 0.154892 0.845931
O O10 0.876548 0.990503 0.814329
O O11 0.037051 0.733846 0.921125
O O12 0.320374 0.678214 0.066055
O O13 0.000000 0.500000 0.000000
O O14 0.084331 0.304537 0.219069
#
# Coordination Sequence:
#
# PCOD9231019 Si02
#       7
#     4   4   4   4   4   4   2
#     4  11  22  40  63  95 121 162 214 270 306 371
#     4  10  22  40  65  89 127 174 204 251 332 377
#     4  10  22  41  66  89 123 174 212 260 311 385
#     4  11  22  40  64  96 129 168 207 262 324 383
#     4  10  22  41  68  90 126 168 218 259 321 384
#     4  11  22  38  65  93 127 158 218 264 311 374
#     4  10  20  38  62  92 118 164 208 254 308 386
#
# _framework density 20.108094999999999
#
# number of rings (size 3 to 8) (size 9 to 14) (size 15 to 20)
#    0.000    1.538    3.077    1.846    0.000    4.923 
#    2.769    0.000   20.308    0.000    0.000    0.000 
#    0.000    0.000    0.000    0.000    0.000    0.000 
#
# Total GULP energy -144954.840683 kJ/mol
# GULP energy per Si atom -5575.186180 kJ/mol
# Density = 2.006233 g / cm^3
# Si number density = 20.108095 Si / 1000 Ang^3
#
#
#
# Elastic Constant Matrix: (Units=GPa)
#
#
# Indices 1 2 3 4 5 6 
#
# 1 89.6653 32.1123 54.4553 0.0000 -11.0822 0.0000
# 2 32.1123 90.1318 45.7495 0.0000 -6.1709 0.0000
# 3 54.4553 45.7495 123.4866 0.0000 -15.9149 0.0000
# 4 0.0000 0.0000 0.0000 30.1247 0.0000 -13.2106
# 5 -11.0822 -6.1709 -15.9149 0.0000 31.5666 0.0000
# 6 0.0000 0.0000 0.0000 -13.2106 0.0000 25.2544
#
#
#
# Elastic Compliance Matrix: (Units=1/GPa)
#
#
# Indices 1 2 3 4 5 6 
#
# 1 0.015834 -0.002575 -0.005751 0.000000 0.002156 0.000000
# 2 -0.002575 0.014084 -0.004111 0.000000 -0.000223 0.000000
# 3 -0.005751 -0.004111 0.012613 0.000000 0.003536 0.000000
# 4 0.000000 0.000000 0.000000 0.043077 0.000000 0.022533
# 5 0.002156 -0.000223 0.003536 0.000000 0.034175 0.000000
# 6 0.000000 0.000000 0.000000 0.022533 0.000000 0.051384
#
#
# Mechanical properties :
#
#
# Convention : Reuss Voigt Hill
#
# Bulk Modulus (GPa) = 56.63390 63.10198 59.86794
# Shear Modulus (GPa) = 24.76167 28.78692 26.77430
#
# Velocity S-wave (km/s) = 3.51298 3.78777 3.65296
# Velocity P-wave (km/s) = 6.68435 7.11190 6.90144
#
# Compressibility (1/GPa) = 0.01765727
#
# Stress axis : x y z
#
# Youngs Moduli (GPa) = 63.15695 71.00442 79.28457
#
# Poissons Ratio (x) = 0.18281 0.45593
# Poissons Ratio (y) = 0.16261 0.32595
# Poissons Ratio (z) = 0.36319 0.29191
#
# Static dielectric constant tensor:
#      x y z
#    x 1.708020 0.000000 0.009690 
#    y 0.000000 1.657750 0.000000 
#    z 0.009690 0.000000 1.697330 
# 
# From -- ./inp_files/75982.got.cif
#   From: 2010.05.17/outbox.cif.g08.bks.cpg/sg13_38_cif.got.tgz:75982.got - 2010.06.03 16:44:36.
