data_PCOD9231736
_publ_section_title
;
Structure prediction by ZEFSAII (Michael W. Deem and Ramdas Pophale) SiO2 
 PCOD9231736
Probable space group: P 2/C
;
_chemical_formula_sum "Si O2"
_cell_formula_units_Z 22
_cell_length_a 25.197997
_cell_length_b 6.926023
_cell_length_c 15.211908
_cell_angle_alpha 90.000000
_cell_angle_beta 157.160977
_cell_angle_gamma 90.000000
_cell_volume 1030.447333
_symmetry_space_group_name_H-M "P 2/C"
_symmetry_group_IT_number 13
_symmetry_cell_setting 'monoclinic'
loop_
_space_group_symop_operation_xyz
x,y,z
-x,y,1/2-z
-x,-y,-z
x,-y,1/2+z
loop_
_atom_site_type_symbol
_atom_site_label
_atom_site_fract_x
_atom_site_fract_y
_atom_site_fract_z
Si Si1 0.342854 0.973645 0.339050
Si Si2 0.085225 0.270997 0.463524
Si Si3 0.110787 0.156623 0.193745
Si Si4 0.617673 0.091948 0.803579
Si Si5 0.259138 0.384649 0.266223
Si Si6 0.500000 0.418190 0.750000
O O1 0.485330 0.952845 0.609489
O O2 0.362239 0.890360 0.270614
O O3 0.320727 0.206637 0.304253
O O4 0.207217 0.878453 0.171156
O O5 0.165683 0.469512 0.569827
O O6 0.000000 0.200054 0.250000
O O7 0.971532 0.293073 0.364722
O O8 0.167873 0.279171 0.200387
O O9 0.236504 0.044946 0.432404
O O10 0.000000 0.000000 0.000000
O O11 0.576993 0.282449 0.796146
O O12 0.377944 0.499358 0.502363
#
# Coordination Sequence:
#
# PCOD9231736 Si02
#       6
#     4   4   4   4   4   2
#     4  10  20  41  63  87 120 159 207 246 299 356
#     4  12  24  39  62  91 125 158 202 252 300 358
#     4  11  21  39  63  90 123 161 197 248 307 356
#     4   9  19  37  66  84 118 163 196 248 299 353
#     4  10  22  40  62  88 124 161 200 249 302 354
#     4   8  18  40  60  86 124 156 204 254 292 354
#
# _framework density 21.34995
#
# number of rings (size 3 to 8) (size 9 to 14) (size 15 to 20)
#    0.000    1.818    3.636    0.545    0.000    2.182 
#    3.273    8.182    0.000    0.000    0.000    0.000 
#    0.000    0.000    0.000    0.000    0.000    0.000 
#
# Total GULP energy -122546.975047 kJ/mol
# GULP energy per Si atom -5570.317048 kJ/mol
# Density = 2.130136 g / cm^3
# Si number density = 21.349950 Si / 1000 Ang^3
#
#
#
# Elastic Constant Matrix: (Units=GPa)
#
#
# Indices 1 2 3 4 5 6 
#
# 1 57.4851 -7.5197 0.9297 0.0000 17.1845 0.0000
# 2 -7.5197 41.6076 23.5858 0.0000 4.8381 0.0000
# 3 0.9297 23.5858 178.5161 0.0000 13.3956 0.0000
# 4 0.0000 0.0000 0.0000 4.6967 0.0000 -3.1760
# 5 17.1845 4.8381 13.3956 0.0000 25.4113 0.0000
# 6 0.0000 0.0000 0.0000 -3.1760 0.0000 6.3762
#
#
#
# Elastic Compliance Matrix: (Units=1/GPa)
#
#
# Indices 1 2 3 4 5 6 
#
# 1 0.023277 0.005983 0.000370 0.000000 -0.017075 0.000000
# 2 0.005983 0.027781 -0.003125 0.000000 -0.007688 0.000000
# 3 0.000370 -0.003125 0.006233 0.000000 -0.002941 0.000000
# 4 0.000000 0.000000 0.000000 0.321052 0.000000 0.159918
# 5 -0.017075 -0.007688 -0.002941 0.000000 0.053914 0.000000
# 6 0.000000 0.000000 0.000000 0.159918 0.000000 0.236490
#
#
# Mechanical properties :
#
#
# Convention : Reuss Voigt Hill
#
# Bulk Modulus (GPa) = 15.68728 34.62227 25.15478
# Shear Modulus (GPa) = 7.31487 24.67104 15.99295
#
# Velocity S-wave (km/s) = 1.85300 3.40303 2.73991
# Velocity P-wave (km/s) = 3.45569 5.62962 4.67089
#
# Compressibility (1/GPa) = 0.06374589
#
# Stress axis : x y z
#
# Youngs Moduli (GPa) = 42.96133 35.99646 160.42782
#
# Poissons Ratio (x) = -0.21536 -0.05930
# Poissons Ratio (y) = -0.25703 0.50128
# Poissons Ratio (z) = -0.01588 0.11248
#
# Static dielectric constant tensor:
#      x y z
#    x 1.799950 0.000000 0.023190 
#    y 0.000000 1.788060 0.000000 
#    z 0.023190 0.000000 1.815610 
# 
# From -- ./inp_files/49521.got.cif
#   From: 2010.05.17/outbox.cif.g08.bks.cpg/sg13_25_cif.got.tgz:49521.got - 2010.06.03 16:44:36.
