data_PCOD9231024
_publ_section_title
;
Structure prediction by ZEFSAII (Michael W. Deem and Ramdas Pophale) SiO2 
 PCOD9231024
Probable space group: P 2/C
;
_chemical_formula_sum "Si O2"
_cell_formula_units_Z 32
_cell_length_a 11.276411
_cell_length_b 11.820924
_cell_length_c 20.041367
_cell_angle_alpha 90.000000
_cell_angle_beta 29.474018
_cell_angle_gamma 90.000000
_cell_volume 1314.438320
_symmetry_space_group_name_H-M "P 2/C"
_symmetry_group_IT_number 13
_symmetry_cell_setting 'monoclinic'
loop_
_space_group_symop_operation_xyz
x,y,z
-x,y,1/2-z
-x,-y,-z
x,-y,1/2+z
loop_
_atom_site_type_symbol
_atom_site_label
_atom_site_fract_x
_atom_site_fract_y
_atom_site_fract_z
Si Si1 0.261273 0.018951 0.908906
Si Si2 0.615443 0.301349 0.926330
Si Si3 0.071614 0.327409 0.508092
Si Si4 0.280200 0.767846 0.482832
Si Si5 0.247446 0.718211 0.779385
Si Si6 0.251123 0.828181 0.014199
Si Si7 0.307558 0.456770 0.896064
Si Si8 0.778360 0.536204 0.809239
O O1 0.500000 0.981933 0.750000
O O2 0.310668 0.148511 0.905751
O O3 0.251413 0.954346 0.985389
O O4 0.000000 0.000000 0.000000
O O5 0.755652 0.218412 0.907912
O O6 0.438467 0.387742 0.053852
O O7 0.451410 0.218294 0.961919
O O8 0.762893 0.400111 0.816123
O O9 0.216558 0.276669 0.373980
O O10 0.034248 0.230392 0.579147
O O11 0.205798 0.430659 0.478863
O O12 0.860451 0.388974 0.573290
O O13 0.353438 0.639548 0.426678
O O14 0.992398 0.773243 0.636047
O O15 0.494387 0.775792 0.637048
O O16 0.215721 0.589471 0.767809
O O17 0.500000 0.501335 0.750000
O O18 0.000000 0.563162 0.750000
#
# Coordination Sequence:
#
# PCOD9231024 Si02
#       8
#     4   4   4   4   4   4   4   4
#     4  12  26  49  76 102 134 183 234 300 354 406
#     4  10  24  38  61  97 133 182 221 280 334 413
#     4  10  21  34  56  89 119 159 216 267 324 399
#     4  11  23  40  63  97 134 169 230 277 346 405
#     4  10  20  38  65  94 124 180 228 279 333 413
#     4  11  23  41  65  90 131 173 234 278 338 406
#     4  10  21  34  54  84 123 161 198 266 338 390
#     4  10  20  38  62  92 138 178 226 263 340 416
#
# _framework density 24.344999000000001
#
# number of rings (size 3 to 8) (size 9 to 14) (size 15 to 20)
#    0.000    1.500    1.250    4.500    7.000    1.500 
#    2.250    0.000    0.000    1.500    0.000    0.000 
#    0.000    0.000    0.000    0.000    0.000    0.000 
#
# Total GULP energy -178580.497345 kJ/mol
# GULP energy per Si atom -5580.640542 kJ/mol
# Density = 2.428959 g / cm^3
# Si number density = 24.344999 Si / 1000 Ang^3
#
#
#
# Elastic Constant Matrix: (Units=GPa)
#
#
# Indices 1 2 3 4 5 6 
#
# 1 135.8658 17.0744 12.7627 0.0000 -16.5789 0.0000
# 2 17.0744 67.9897 -2.3054 0.0000 2.2084 0.0000
# 3 12.7627 -2.3054 51.6352 0.0000 -4.0134 0.0000
# 4 0.0000 0.0000 0.0000 22.6275 0.0000 2.0612
# 5 -16.5789 2.2084 -4.0134 0.0000 18.5150 0.0000
# 6 0.0000 0.0000 0.0000 2.0612 0.0000 33.3880
#
#
#
# Elastic Compliance Matrix: (Units=1/GPa)
#
#
# Indices 1 2 3 4 5 6 
#
# 1 0.008786 -0.002517 -0.001678 0.000000 0.007804 0.000000
# 2 -0.002517 0.015501 0.001012 0.000000 -0.003883 0.000000
# 3 -0.001678 0.001012 0.020038 0.000000 0.002721 0.000000
# 4 0.000000 0.000000 0.000000 0.044444 0.000000 -0.002744
# 5 0.007804 -0.003883 0.002721 0.000000 0.062051 0.000000
# 6 0.000000 0.000000 0.000000 -0.002744 0.000000 0.030120
#
#
# Mechanical properties :
#
#
# Convention : Reuss Voigt Hill
#
# Bulk Modulus (GPa) = 26.34295 34.50600 30.42448
# Shear Modulus (GPa) = 25.00522 30.10336 27.55429
#
# Velocity S-wave (km/s) = 3.20835 3.52025 3.36791
# Velocity P-wave (km/s) = 4.95670 5.54323 5.25815
#
# Compressibility (1/GPa) = 0.03796082
#
# Stress axis : x y z
#
# Youngs Moduli (GPa) = 113.81250 64.51346 49.90534
#
# Poissons Ratio (x) = 0.16237 0.08372
# Poissons Ratio (y) = 0.28646 -0.05052
# Poissons Ratio (z) = 0.19092 -0.06531
#
# Static dielectric constant tensor:
#      x y z
#    x 1.975180 0.000000 -0.022880 
#    y 0.000000 1.940470 0.000000 
#    z -0.022880 0.000000 2.154970 
# 
# From -- ./inp_files/86579.got.cif
#   From: 2010.05.17/outbox.cif.g08.bks.cpg/sg13_44_cif.got.tgz:86579.got - 2010.06.03 16:44:36.
