data_PCOD9231906
_publ_section_title
;
Structure prediction by ZEFSAII (Michael W. Deem and Ramdas Pophale) SiO2 
 PCOD9231906
Probable space group: P 2/C
;
_chemical_formula_sum "Si O2"
_cell_formula_units_Z 28
_cell_length_a 5.026846
_cell_length_b 13.813498
_cell_length_c 17.161648
_cell_angle_alpha 90.000000
_cell_angle_beta 69.870103
_cell_angle_gamma 90.000000
_cell_volume 1118.882357
_symmetry_space_group_name_H-M "P 2/C"
_symmetry_group_IT_number 13
_symmetry_cell_setting 'monoclinic'
loop_
_space_group_symop_operation_xyz
x,y,z
-x,y,1/2-z
-x,-y,-z
x,-y,1/2+z
loop_
_atom_site_type_symbol
_atom_site_label
_atom_site_fract_x
_atom_site_fract_y
_atom_site_fract_z
Si Si1 0.542326 0.249212 0.122087
Si Si2 0.014793 0.378035 0.843415
Si Si3 0.500000 0.098078 0.250000
Si Si4 0.500000 0.744210 0.250000
Si Si5 0.803325 0.425483 0.194189
Si Si6 0.317464 0.807164 0.115206
Si Si7 0.842884 0.823228 0.958982
Si Si8 0.001952 0.004403 0.844670
O O1 0.388545 0.178630 0.200074
O O2 0.679073 0.339671 0.153633
O O3 0.304684 0.260095 0.080259
O O4 0.828152 0.199718 0.058803
O O5 0.309627 0.322373 0.824570
O O6 0.026666 0.489129 0.867404
O O7 0.000000 0.383908 0.750000
O O8 0.787518 0.300920 0.896200
O O9 0.674445 0.027179 0.176594
O O10 0.323259 0.807395 0.208692
O O11 0.500000 0.472730 0.250000
O O12 0.000000 0.397410 0.250000
O O13 0.624735 0.830643 0.051151
O O14 0.101805 0.892527 0.116864
O O15 0.837273 0.922167 0.909612
O O16 0.000000 0.992888 0.750000
#
# Coordination Sequence:
#
# PCOD9231906 Si02
#       8
#     4   4   2   2   4   4   4   4
#     4  11  23  43  68  98 137 178 222 282 341 406
#     4   9  20  39  64  98 133 169 230 289 337 400
#     4  10  22  40  66  96 134 168 223 285 326 406
#     4  10  20  42  68  94 128 178 231 291 334 396
#     4  11  21  38  72 105 132 173 232 285 343 404
#     4  11  25  43  67  95 138 183 230 282 347 410
#     4  11  26  46  65  99 142 184 222 280 346 412
#     4  11  22  43  68  98 130 177 232 280 338 405
#
# _framework density 25.024972999999999
#
# number of rings (size 3 to 8) (size 9 to 14) (size 15 to 20)
#    0.000    1.429    2.857    2.571    2.000    2.286 
#    0.000    3.571    0.000    0.000    0.000    0.000 
#    0.000    0.000    0.000    0.000    0.000    0.000 
#
# Total GULP energy -156203.514746 kJ/mol
# GULP energy per Si atom -5578.696955 kJ/mol
# Density = 2.496801 g / cm^3
# Si number density = 25.024973 Si / 1000 Ang^3
#
#
#
# Elastic Constant Matrix: (Units=GPa)
#
#
# Indices 1 2 3 4 5 6 
#
# 1 96.4226 18.3988 4.1043 0.0000 -7.5616 0.0000
# 2 18.3988 147.7547 28.6620 0.0000 -3.4798 0.0000
# 3 4.1043 28.6620 63.7114 0.0000 -16.1709 0.0000
# 4 0.0000 0.0000 0.0000 21.6715 0.0000 -4.6970
# 5 -7.5616 -3.4798 -16.1709 0.0000 33.7548 0.0000
# 6 0.0000 0.0000 0.0000 -4.6970 0.0000 26.4714
#
#
#
# Elastic Compliance Matrix: (Units=1/GPa)
#
#
# Indices 1 2 3 4 5 6 
#
# 1 0.010814 -0.001399 0.000582 0.000000 0.002557 0.000000
# 2 -0.001399 0.007623 -0.003665 0.000000 -0.001283 0.000000
# 3 0.000582 -0.003665 0.019631 0.000000 0.009157 0.000000
# 4 0.000000 0.000000 0.000000 0.047989 0.000000 0.008515
# 5 0.002557 -0.001283 0.009157 0.000000 0.034453 0.000000
# 6 0.000000 0.000000 0.000000 0.008515 0.000000 0.039287
#
#
# Mechanical properties :
#
#
# Convention : Reuss Voigt Hill
#
# Bulk Modulus (GPa) = 34.36030 45.57987 39.97009
# Shear Modulus (GPa) = 28.01698 33.49444 30.75571
#
# Velocity S-wave (km/s) = 3.34961 3.66244 3.50951
# Velocity P-wave (km/s) = 5.35911 6.01148 5.69465
#
# Compressibility (1/GPa) = 0.02910335
#
# Stress axis : x y z
#
# Youngs Moduli (GPa) = 92.47488 131.18326 50.93902
#
# Poissons Ratio (x) = 0.18355 -0.02964
# Poissons Ratio (y) = 0.12939 0.18669
# Poissons Ratio (z) = -0.05380 0.48078
#
# Static dielectric constant tensor:
#      x y z
#    x 2.217960 0.000000 0.005830 
#    y 0.000000 1.999560 0.000000 
#    z 0.005830 0.000000 2.016560 
# 
# From -- ./inp_files/61336.got.cif
#   From: 2010.05.17/outbox.cif.g08.bks.cpg/sg13_31_cif.got.tgz:61336.got - 2010.06.03 16:44:36.
