data_PCOD9231745
_publ_section_title
;
Structure prediction by ZEFSAII (Michael W. Deem and Ramdas Pophale) SiO2 
 PCOD9231745
Probable space group: P 2/C
;
_chemical_formula_sum "Si O2"
_cell_formula_units_Z 26
_cell_length_a 5.243503
_cell_length_b 8.651585
_cell_length_c 26.325649
_cell_angle_alpha 90.000000
_cell_angle_beta 72.748671
_cell_angle_gamma 90.000000
_cell_volume 1140.527076
_symmetry_space_group_name_H-M "P 2/C"
_symmetry_group_IT_number 13
_symmetry_cell_setting 'monoclinic'
loop_
_space_group_symop_operation_xyz
x,y,z
-x,y,1/2-z
-x,-y,-z
x,-y,1/2+z
loop_
_atom_site_type_symbol
_atom_site_label
_atom_site_fract_x
_atom_site_fract_y
_atom_site_fract_z
Si Si1 0.749708 0.643286 0.101005
Si Si2 0.000000 0.971541 0.250000
Si Si3 0.232747 0.097580 0.833349
Si Si4 0.248568 0.775922 0.503087
Si Si5 0.397580 0.142377 0.150754
Si Si6 0.751422 0.558239 0.900256
Si Si7 0.251547 0.051190 0.567062
O O1 0.609092 0.767264 0.147259
O O2 0.509213 0.546217 0.090744
O O3 0.970472 0.537496 0.116243
O O4 0.874655 0.724542 0.043164
O O5 0.187209 0.876764 0.276877
O O6 0.173737 0.072701 0.201177
O O7 0.960138 0.118399 0.881171
O O8 0.338022 0.922645 0.836441
O O9 0.245461 0.642981 0.545260
O O10 0.548098 0.833647 0.472148
O O11 0.120690 0.926335 0.537195
O O12 0.302213 0.312142 0.140189
O O13 0.424986 0.056104 0.095058
#
# Coordination Sequence:
#
# PCOD9231745 Si02
#       7
#     4   2   4   4   4   4   4
#     4  12  25  44  65 101 147 186 221 281 345 412
#     4  10  24  44  80  96 118 166 238 288 350 406
#     4  11  23  43  74  96 133 171 236 289 348 403
#     4  10  20  41  64 100 140 191 236 266 329 407
#     4  10  22  45  70  99 125 175 228 293 338 416
#     4  11  27  42  68  99 148 184 227 274 346 411
#     4   9  20  38  65 102 133 177 235 291 319 382
#
# _framework density 22.796476999999999
#
# number of rings (size 3 to 8) (size 9 to 14) (size 15 to 20)
#    0.000    1.538    1.538    2.308    8.615    1.846 
#    2.769    0.769    0.000    0.000    0.000    0.000 
#    0.000    0.000    0.000    0.000    0.000    0.000 
#
# Total GULP energy -145041.150173 kJ/mol
# GULP energy per Si atom -5578.505776 kJ/mol
# Density = 2.274459 g / cm^3
# Si number density = 22.796477 Si / 1000 Ang^3
#
#
#
# Elastic Constant Matrix: (Units=GPa)
#
#
# Indices 1 2 3 4 5 6 
#
# 1 74.1663 24.5728 20.0006 0.0000 12.9969 0.0000
# 2 24.5728 100.8879 43.4037 0.0000 17.7195 0.0000
# 3 20.0006 43.4037 128.0280 0.0000 23.3152 0.0000
# 4 0.0000 0.0000 0.0000 26.0454 0.0000 7.7094
# 5 12.9969 17.7195 23.3152 0.0000 45.4812 0.0000
# 6 0.0000 0.0000 0.0000 7.7094 0.0000 25.1437
#
#
#
# Elastic Compliance Matrix: (Units=1/GPa)
#
#
# Indices 1 2 3 4 5 6 
#
# 1 0.015145 -0.002812 -0.000909 0.000000 -0.002766 0.000000
# 2 -0.002812 0.012450 -0.003358 0.000000 -0.002326 0.000000
# 3 -0.000909 -0.003358 0.009712 0.000000 -0.003411 0.000000
# 4 0.000000 0.000000 0.000000 0.042227 0.000000 -0.012947
# 5 -0.002766 -0.002326 -0.003411 0.000000 0.025432 0.000000
# 6 0.000000 0.000000 0.000000 -0.012947 0.000000 0.043741
#
#
# Mechanical properties :
#
#
# Convention : Reuss Voigt Hill
#
# Bulk Modulus (GPa) = 43.19717 53.22626 48.21172
# Shear Modulus (GPa) = 29.31155 33.67439 31.49297
#
# Velocity S-wave (km/s) = 3.58969 3.84757 3.72086
# Velocity P-wave (km/s) = 6.01426 6.56792 6.29718
#
# Compressibility (1/GPa) = 0.02314966
#
# Stress axis : x y z
#
# Youngs Moduli (GPa) = 66.02961 80.32146 102.96171
#
# Poissons Ratio (x) = 0.22585 0.09358
# Poissons Ratio (y) = 0.18567 0.34574
# Poissons Ratio (z) = 0.06001 0.26972
#
# Static dielectric constant tensor:
#      x y z
#    x 1.954810 0.000000 0.044550 
#    y 0.000000 1.982930 0.000000 
#    z 0.044550 0.000000 1.827640 
# 
# From -- ./inp_files/90221.got.cif
#   From: 2010.05.17/outbox.cif.g08.bks.cpg/sg13_46_cif.got.tgz:90221.got - 2010.06.03 16:44:36.
