data_PCOD9231254
_publ_section_title
;
Structure prediction by ZEFSAII (Michael W. Deem and Ramdas Pophale) SiO2 
 PCOD9231254
Probable space group: P 2/C
;
_chemical_formula_sum "Si O2"
_cell_formula_units_Z 20
_cell_length_a 18.889992
_cell_length_b 7.778330
_cell_length_c 8.813567
_cell_angle_alpha 90.000000
_cell_angle_beta 40.608077
_cell_angle_gamma 90.000000
_cell_volume 842.891369
_symmetry_space_group_name_H-M "P 2/C"
_symmetry_group_IT_number 13
_symmetry_cell_setting 'monoclinic'
loop_
_space_group_symop_operation_xyz
x,y,z
-x,y,1/2-z
-x,-y,-z
x,-y,1/2+z
loop_
_atom_site_type_symbol
_atom_site_label
_atom_site_fract_x
_atom_site_fract_y
_atom_site_fract_z
Si Si1 0.199388 0.173296 0.616837
Si Si2 0.399354 0.712028 0.324323
Si Si3 0.183743 0.139898 0.302439
Si Si4 0.116253 0.533992 0.064178
Si Si5 0.339030 0.634685 0.101633
O O1 0.222773 0.105053 0.410525
O O2 0.139569 0.353805 0.678329
O O3 0.306861 0.217032 0.537054
O O4 0.132733 0.030100 0.815425
O O5 0.500000 0.793355 0.250000
O O6 0.288463 0.814607 0.532805
O O7 0.414312 0.683784 0.120650
O O8 0.380137 0.528909 0.440393
O O9 0.114138 0.312492 0.440528
O O10 0.000000 0.445301 0.250000
O O11 0.222732 0.421603 0.864315
#
# Coordination Sequence:
#
# PCOD9231254 Si02
#       5
#     4   4   4   4   4
#     4  10  20  39  60  83 123 156 190 245 292 335
#     4  11  21  38  61  87 116 157 197 239 296 351
#     4   9  21  39  56  84 120 152 197 240 288 342
#     4   9  21  37  59  88 117 155 199 234 296 347
#     4  11  20  39  59  88 123 150 195 249 286 349
#
# _framework density 23.727848999999999
#
# number of rings (size 3 to 8) (size 9 to 14) (size 15 to 20)
#    1.200    0.800    2.000    1.800    0.000    1.600 
#    0.000    6.000    0.000    0.000    0.000    0.000 
#    0.000    0.000    0.000    0.000    0.000    0.000 
#
# Total GULP energy -111616.029480 kJ/mol
# GULP energy per Si atom -5580.801474 kJ/mol
# Density = 2.367384 g / cm^3
# Si number density = 23.727849 Si / 1000 Ang^3
#
#
#
# Elastic Constant Matrix: (Units=GPa)
#
#
# Indices 1 2 3 4 5 6 
#
# 1 64.8449 10.1371 27.4206 0.0000 22.3457 0.0000
# 2 10.1371 49.2878 12.0835 0.0000 18.4097 0.0000
# 3 27.4206 12.0835 37.5157 0.0000 4.0933 0.0000
# 4 0.0000 0.0000 0.0000 19.9889 0.0000 23.2382
# 5 22.3457 18.4097 4.0933 0.0000 43.2583 0.0000
# 6 0.0000 0.0000 0.0000 23.2382 0.0000 16.7778
#
#
#
# Elastic Compliance Matrix: (Units=1/GPa)
#
#
# Indices 1 2 3 4 5 6 
#
# 1 0.028584 0.004758 -0.020808 0.000000 -0.014822 0.000000
# 2 0.004758 0.026717 -0.010685 0.000000 -0.012817 0.000000
# 3 -0.020808 -0.010685 0.044092 0.000000 0.011124 0.000000
# 4 0.000000 0.000000 0.000000 -0.081986 0.000000 0.113555
# 5 -0.014822 -0.012817 0.011124 0.000000 0.035175 0.000000
# 6 0.000000 0.000000 0.000000 0.113555 0.000000 -0.097677
#
#
# Mechanical properties :
#
#
# Convention : Reuss Voigt Hill
#
# Bulk Modulus (GPa) = 21.77482 27.88122 24.82802
# Shear Modulus (GPa) = 211.12963 22.80547 116.96755
#
# Velocity S-wave (km/s) = 9.44314 3.10357 7.02869
# Velocity P-wave (km/s) = 11.31786 4.96173 8.73821
#
# Compressibility (1/GPa) = 0.04592461
#
# Stress axis : x y z
#
# Youngs Moduli (GPa) = 34.98459 37.42904 22.67984
#
# Poissons Ratio (x) = -0.17810 0.47192
# Poissons Ratio (y) = -0.16647 0.24233
# Poissons Ratio (z) = 0.72795 0.39993
#
# Static dielectric constant tensor:
#      x y z
#    x 1.924840 0.000000 0.032270 
#    y 0.000000 1.952280 0.000000 
#    z 0.032270 0.000000 1.904050 
# 
# From -- ./inp_files/17983.got.cif
#   From: 2010.05.17/outbox.cif.g08.bks.cpg/sg13_9_cif.got.tgz:17983.got - 2010.06.03 16:44:36.
