data_PCOD9231868
_publ_section_title
;
Structure prediction by ZEFSAII (Michael W. Deem and Ramdas Pophale) SiO2 
 PCOD9231868
Probable space group: P 2/C
;
_chemical_formula_sum "Si O2"
_cell_formula_units_Z 28
_cell_length_a 16.103686
_cell_length_b 5.310209
_cell_length_c 16.101520
_cell_angle_alpha 90.000000
_cell_angle_beta 119.126862
_cell_angle_gamma 90.000000
_cell_volume 1202.786730
_symmetry_space_group_name_H-M "P 2/C"
_symmetry_group_IT_number 13
_symmetry_cell_setting 'monoclinic'
loop_
_space_group_symop_operation_xyz
x,y,z
-x,y,1/2-z
-x,-y,-z
x,-y,1/2+z
loop_
_atom_site_type_symbol
_atom_site_label
_atom_site_fract_x
_atom_site_fract_y
_atom_site_fract_z
Si Si1 0.809182 0.153939 0.347953
Si Si2 0.925387 0.492948 0.775356
Si Si3 0.626499 0.553969 0.741704
Si Si4 0.607287 0.043904 0.015524
Si Si5 0.409810 0.449013 0.093237
Si Si6 0.753004 0.205750 0.697561
Si Si7 0.964527 0.749537 0.030591
O O1 0.871577 0.317433 0.312417
O O2 0.698917 0.219199 0.289077
O O3 0.852373 0.218269 0.458331
O O4 0.808901 0.877257 0.309135
O O5 0.836586 0.348531 0.689645
O O6 0.000000 0.625122 0.750000
O O7 0.994101 0.297610 0.858474
O O8 0.624404 0.447006 0.834106
O O9 0.520793 0.611176 0.662850
O O10 0.671073 0.383777 0.692214
O O11 0.605444 0.322848 0.977345
O O12 0.303994 0.989986 0.878286
O O13 0.372951 0.183667 0.040107
O O14 0.500000 0.000000 0.000000
O O15 0.000000 0.500000 0.000000
O O16 0.000000 0.000000 0.000000
#
# Coordination Sequence:
#
# PCOD9231868 Si02
#       7
#     4   4   4   4   4   4   4
#     4  10  22  41  68  93 128 179 225 278 339 403
#     4  10  23  42  63  97 131 173 223 282 341 398
#     4  10  24  42  68  96 134 177 229 278 332 401
#     4  12  25  43  69 101 142 179 222 274 346 401
#     4  11  26  44  67 101 138 181 226 278 330 406
#     4  11  23  41  69  94 134 180 224 279 342 407
#     4  10  20  42  65  90 123 167 213 264 327 393
#
# _framework density 23.279271000000001
#
# number of rings (size 3 to 8) (size 9 to 14) (size 15 to 20)
#    0.000    1.429    2.857    1.286    6.000    2.857 
#    0.000    0.000    0.000    0.000    0.000    0.000 
#    0.000    0.000    0.000    0.000    0.000    0.000 
#
# Total GULP energy -156102.586289 kJ/mol
# GULP energy per Si atom -5575.092367 kJ/mol
# Density = 2.322629 g / cm^3
# Si number density = 23.279271 Si / 1000 Ang^3
#
#
#
# Elastic Constant Matrix: (Units=GPa)
#
#
# Indices 1 2 3 4 5 6 
#
# 1 87.0524 1.1357 15.0627 0.0000 1.7837 0.0000
# 2 1.1357 73.0361 10.4751 0.0000 0.3648 0.0000
# 3 15.0627 10.4751 93.7851 0.0000 11.9206 0.0000
# 4 0.0000 0.0000 0.0000 43.3374 0.0000 4.3373
# 5 1.7837 0.3648 11.9206 0.0000 21.3726 0.0000
# 6 0.0000 0.0000 0.0000 4.3373 0.0000 14.3343
#
#
#
# Elastic Compliance Matrix: (Units=1/GPa)
#
#
# Indices 1 2 3 4 5 6 
#
# 1 0.011816 0.000091 -0.001918 0.000000 0.000082 0.000000
# 2 0.000091 0.013925 -0.001656 0.000000 0.000678 0.000000
# 3 -0.001918 -0.001656 0.011981 0.000000 -0.006494 0.000000
# 4 0.000000 0.000000 0.000000 0.023795 0.000000 -0.007200
# 5 0.000082 0.000678 -0.006494 0.000000 0.050393 0.000000
# 6 0.000000 0.000000 0.000000 -0.007200 0.000000 0.071941
#
#
# Mechanical properties :
#
#
# Convention : Reuss Voigt Hill
#
# Bulk Modulus (GPa) = 32.51498 34.13564 33.32531
# Shear Modulus (GPa) = 24.86692 30.95553 27.91122
#
# Velocity S-wave (km/s) = 3.27188 3.65052 3.46638
# Velocity P-wave (km/s) = 5.31707 5.69770 5.51067
#
# Compressibility (1/GPa) = 0.03075506
#
# Stress axis : x y z
#
# Youngs Moduli (GPa) = 84.62804 71.81546 83.46394
#
# Poissons Ratio (x) = -0.00654 0.16012
# Poissons Ratio (y) = -0.00770 0.13823
# Poissons Ratio (z) = 0.16235 0.11894
#
# Static dielectric constant tensor:
#      x y z
#    x 1.952410 0.000000 -0.024760 
#    y 0.000000 1.816590 0.000000 
#    z -0.024760 0.000000 2.001840 
# 
# From -- ./inp_files/67631.got.cif
#   From: 2010.05.17/outbox.cif.g08.bks.cpg/sg13_34_cif.got.tgz:67631.got - 2010.06.03 16:44:36.
