data_PCOD9231693
_publ_section_title
;
Structure prediction by ZEFSAII (Michael W. Deem and Ramdas Pophale) SiO2 
 PCOD9231693
Probable space group: P 2/C
;
_chemical_formula_sum "Si O2"
_cell_formula_units_Z 22
_cell_length_a 8.279980
_cell_length_b 4.921407
_cell_length_c 21.335265
_cell_angle_alpha 90.000000
_cell_angle_beta 67.050711
_cell_angle_gamma 90.000000
_cell_volume 800.581693
_symmetry_space_group_name_H-M "P 2/C"
_symmetry_group_IT_number 13
_symmetry_cell_setting 'monoclinic'
loop_
_space_group_symop_operation_xyz
x,y,z
-x,y,1/2-z
-x,-y,-z
x,-y,1/2+z
loop_
_atom_site_type_symbol
_atom_site_label
_atom_site_fract_x
_atom_site_fract_y
_atom_site_fract_z
Si Si1 0.323328 0.340429 0.517855
Si Si2 0.000000 0.380852 0.250000
Si Si3 0.328633 0.251214 0.742689
Si Si4 0.499915 0.045262 0.901381
Si Si5 0.177849 0.754873 0.390606
Si Si6 0.027758 0.236492 0.105584
O O1 0.500000 0.500000 0.500000
O O2 0.370232 0.183940 0.447213
O O3 0.177817 0.566659 0.553774
O O4 0.350203 0.118034 0.570389
O O5 0.824880 0.563064 0.263548
O O6 0.956709 0.222358 0.321107
O O7 0.500000 0.390376 0.750000
O O8 0.242614 0.111064 0.815732
O O9 0.398702 0.042935 0.679858
O O10 0.343342 0.256948 0.910687
O O11 0.129371 0.448003 0.383416
O O12 0.009620 0.954301 0.426089
#
# Coordination Sequence:
#
# PCOD9231693 Si02
#       6
#     4   2   4   4   4   4
#     4  11  26  41  68  97 135 190 227 276 349 418
#     4  10  20  40  70  98 142 176 228 296 350 414
#     4   9  19  42  69 101 135 180 231 289 353 416
#     4  10  23  46  65  97 141 180 232 287 343 422
#     4  10  25  44  71 102 135 176 234 290 353 403
#     4  11  25  44  68 103 133 183 231 285 350 416
#
# _framework density 27.480015999999999
#
# number of rings (size 3 to 8) (size 9 to 14) (size 15 to 20)
#    0.000    1.818    1.818    0.000    7.636    5.818 
#    0.000    7.273    0.000    0.000    0.000    0.000 
#    0.000    0.000    0.000    0.000    0.000    0.000 
#
# Total GULP energy -122723.653751 kJ/mol
# GULP energy per Si atom -5578.347898 kJ/mol
# Density = 2.741747 g / cm^3
# Si number density = 27.480016 Si / 1000 Ang^3
#
#
#
# Elastic Constant Matrix: (Units=GPa)
#
#
# Indices 1 2 3 4 5 6 
#
# 1 153.5931 10.2077 11.6825 0.0000 20.6994 0.0000
# 2 10.2077 87.4902 16.0232 0.0000 21.9485 0.0000
# 3 11.6825 16.0232 149.2604 0.0000 -0.3096 0.0000
# 4 0.0000 0.0000 0.0000 22.4847 0.0000 2.9122
# 5 20.6994 21.9485 -0.3096 0.0000 24.7783 0.0000
# 6 0.0000 0.0000 0.0000 2.9122 0.0000 43.1097
#
#
#
# Elastic Compliance Matrix: (Units=1/GPa)
#
#
# Indices 1 2 3 4 5 6 
#
# 1 0.007462 0.001062 -0.000713 0.000000 -0.007184 0.000000
# 2 0.001062 0.015241 -0.001749 0.000000 -0.014410 0.000000
# 3 -0.000713 -0.001749 0.006948 0.000000 0.002232 0.000000
# 4 0.000000 0.000000 0.000000 0.044867 0.000000 -0.003031
# 5 -0.007184 -0.014410 0.002232 0.000000 0.059151 0.000000
# 6 0.000000 0.000000 0.000000 -0.003031 0.000000 0.023401
#
#
# Mechanical properties :
#
#
# Convention : Reuss Voigt Hill
#
# Bulk Modulus (GPa) = 37.24188 51.79672 44.51930
# Shear Modulus (GPa) = 29.61700 41.56990 35.59345
#
# Velocity S-wave (km/s) = 3.28649 3.89361 3.60286
# Velocity P-wave (km/s) = 5.28991 6.25327 5.79165
#
# Compressibility (1/GPa) = 0.02685149
#
# Stress axis : x y z
#
# Youngs Moduli (GPa) = 134.00340 65.61149 143.92821
#
# Poissons Ratio (x) = -0.06969 0.10262
# Poissons Ratio (y) = -0.14232 0.25176
# Poissons Ratio (z) = 0.09554 0.11477
#
# Static dielectric constant tensor:
#      x y z
#    x 2.165310 0.000000 -0.211290 
#    y 0.000000 1.957370 0.000000 
#    z -0.211290 0.000000 1.572510 
# 
# From -- ./inp_files/74466.got.cif
#   From: 2010.05.17/outbox.cif.g08.bks.cpg/sg13_38_cif.got.tgz:74466.got - 2010.06.03 16:44:36.
