data_PCOD9231170
_publ_section_title
;
Structure prediction by ZEFSAII (Michael W. Deem and Ramdas Pophale) SiO2 
 PCOD9231170
Probable space group: P 2/C
;
_chemical_formula_sum "Si O2"
_cell_formula_units_Z 16
_cell_length_a 7.587245
_cell_length_b 20.972041
_cell_length_c 7.671134
_cell_angle_alpha 90.000000
_cell_angle_beta 38.062889
_cell_angle_gamma 90.000000
_cell_volume 752.550763
_symmetry_space_group_name_H-M "P 2/C"
_symmetry_group_IT_number 13
_symmetry_cell_setting 'monoclinic'
loop_
_space_group_symop_operation_xyz
x,y,z
-x,y,1/2-z
-x,-y,-z
x,-y,1/2+z
loop_
_atom_site_type_symbol
_atom_site_label
_atom_site_fract_x
_atom_site_fract_y
_atom_site_fract_z
Si Si1 0.500000 0.744350 0.250000
Si Si2 0.110218 0.568949 0.359325
Si Si3 0.301876 0.051586 0.063917
Si Si4 0.000000 0.169316 0.250000
Si Si5 0.611438 0.356598 0.363774
O O1 0.216819 0.787906 0.471790
O O2 0.463817 0.701659 0.451966
O O3 0.000000 0.577004 0.250000
O O4 0.000000 0.500000 0.500000
O O5 0.942195 0.623390 0.596653
O O6 0.444124 0.583479 0.082710
O O7 0.000000 0.018379 0.250000
O O8 0.181792 0.119155 0.228695
O O9 0.500000 0.072275 0.750000
O O10 0.500000 0.000000 0.000000
O O11 0.500000 0.347395 0.250000
#
# Coordination Sequence:
#
# PCOD9231170 Si02
#       5
#     2   4   4   2   4
#     4  12  22  40  66  82 130 170 216 258 318 396
#     4  10  21  36  57  84 119 147 204 266 322 393
#     4  10  20  38  66  94 135 167 209 265 332 375
#     4  10  22  38  64  96 122 168 224 254 316 394
#     4  10  23  39  57  86 116 164 204 261 323 380
#
# _framework density 21.261022000000001
#
# number of rings (size 3 to 8) (size 9 to 14) (size 15 to 20)
#    0.750    1.000    1.250    3.000    3.500    0.000 
#    0.000    1.250    5.500    0.000    0.000    0.000 
#    0.000    0.000    0.000    0.000    0.000    0.000 
#
# Total GULP energy -89091.593267 kJ/mol
# GULP energy per Si atom -5568.224579 kJ/mol
# Density = 2.121263 g / cm^3
# Si number density = 21.261022 Si / 1000 Ang^3
#
#
#
# Elastic Constant Matrix: (Units=GPa)
#
#
# Indices 1 2 3 4 5 6 
#
# 1 53.6327 32.3243 40.2206 0.0000 10.3666 0.0000
# 2 32.3243 135.3050 66.5548 0.0000 9.3636 0.0000
# 3 40.2206 66.5548 158.3504 0.0000 -10.1555 0.0000
# 4 0.0000 0.0000 0.0000 139.8135 0.0000 36.9579
# 5 10.3666 9.3636 -10.1555 0.0000 35.5789 0.0000
# 6 0.0000 0.0000 0.0000 36.9579 0.0000 37.2310
#
#
#
# Elastic Compliance Matrix: (Units=1/GPa)
#
#
# Indices 1 2 3 4 5 6 
#
# 1 0.026621 -0.002705 -0.006190 0.000000 -0.008811 0.000000
# 2 -0.002705 0.010078 -0.003736 0.000000 -0.002931 0.000000
# 3 -0.006190 -0.003736 0.009816 0.000000 0.005589 0.000000
# 4 0.000000 0.000000 0.000000 0.009697 0.000000 -0.009626
# 5 -0.008811 -0.002931 0.005589 0.000000 0.033040 0.000000
# 6 0.000000 0.000000 0.000000 -0.009626 0.000000 0.036414
#
#
# Mechanical properties :
#
#
# Convention : Reuss Voigt Hill
#
# Bulk Modulus (GPa) = 47.05503 69.49861 58.27682
# Shear Modulus (GPa) = 31.64300 56.40390 44.02345
#
# Velocity S-wave (km/s) = 3.86205 5.15624 4.55534
# Velocity P-wave (km/s) = 6.48593 8.25884 7.42549
#
# Compressibility (1/GPa) = 0.02125171
#
# Stress axis : x y z
#
# Youngs Moduli (GPa) = 37.56475 99.22863 101.87316
#
# Poissons Ratio (x) = 0.26844 0.63056
# Poissons Ratio (y) = 0.10162 0.38065
# Poissons Ratio (z) = 0.23251 0.37077
#
# Static dielectric constant tensor:
#      x y z
#    x 1.825410 0.000000 0.005720 
#    y 0.000000 1.849030 0.000000 
#    z 0.005720 0.000000 1.825510 
# 
# From -- ./inp_files/13723.got.cif
#   From: 2010.05.17/outbox.cif.g08.bks.cpg/sg13_7_cif.got.tgz:13723.got - 2010.06.03 16:44:36.
