data_PCOD9231313
_publ_section_title
;
Structure prediction by ZEFSAII (Michael W. Deem and Ramdas Pophale) SiO2 
 PCOD9231313
Probable space group: P 2/C
;
_chemical_formula_sum "Si O2"
_cell_formula_units_Z 22
_cell_length_a 12.322027
_cell_length_b 14.500071
_cell_length_c 11.039741
_cell_angle_alpha 90.000000
_cell_angle_beta 28.670486
_cell_angle_gamma 90.000000
_cell_volume 946.336753
_symmetry_space_group_name_H-M "P 2/C"
_symmetry_group_IT_number 13
_symmetry_cell_setting 'monoclinic'
loop_
_space_group_symop_operation_xyz
x,y,z
-x,y,1/2-z
-x,-y,-z
x,-y,1/2+z
loop_
_atom_site_type_symbol
_atom_site_label
_atom_site_fract_x
_atom_site_fract_y
_atom_site_fract_z
Si Si1 0.162670 0.413539 0.971261
Si Si2 0.685004 0.779000 0.226616
Si Si3 0.000000 0.905408 0.750000
Si Si4 0.046715 0.809148 0.067237
Si Si5 0.675545 0.072846 0.376848
Si Si6 0.873264 0.611704 0.505595
O O1 0.327040 0.325858 0.806267
O O2 0.020276 0.402888 0.984885
O O3 0.268246 0.516571 0.864604
O O4 0.000000 0.406870 0.250000
O O5 0.455068 0.835450 0.452027
O O6 0.810200 0.783215 0.233833
O O7 0.858910 0.837418 0.974415
O O8 0.176644 0.961876 0.656255
O O9 0.206587 0.717192 0.902136
O O10 0.000000 0.829241 0.250000
O O11 0.160391 0.893895 0.889039
O O12 0.500000 0.000000 0.500000
O O13 0.000000 0.613781 0.250000
#
# Coordination Sequence:
#
# PCOD9231313 Si02
#       6
#     4   4   2   4   4   4
#     4   9  15  28  57  92 128 172 216 263 325 388
#     4  10  20  39  62  95 127 166 213 268 326 387
#     4  10  22  44  68  90 132 164 206 280 332 390
#     4   9  20  40  63  91 134 176 212 266 324 392
#     4  11  25  45  66  98 127 167 226 275 333 396
#     4   8  15  29  54  89 129 176 214 257 326 390
#
# _framework density 23.247539
#
# number of rings (size 3 to 8) (size 9 to 14) (size 15 to 20)
#    0.000    2.545    0.909    0.545    0.000    3.636 
#    9.818    0.909    0.000    0.000    4.727    0.000 
#    0.000    1.455    0.000    0.000    0.000    0.000 
#
# Total GULP energy -122795.295854 kJ/mol
# GULP energy per Si atom -5581.604357 kJ/mol
# Density = 2.319463 g / cm^3
# Si number density = 23.247539 Si / 1000 Ang^3
#
#
#
# Elastic Constant Matrix: (Units=GPa)
#
#
# Indices 1 2 3 4 5 6 
#
# 1 173.6088 47.1827 41.4104 0.0000 8.0626 0.0000
# 2 47.1827 123.2071 12.8747 0.0000 -19.5377 0.0000
# 3 41.4104 12.8747 34.6183 0.0000 -0.9256 0.0000
# 4 0.0000 0.0000 0.0000 35.4022 0.0000 2.8374
# 5 8.0626 -19.5377 -0.9256 0.0000 30.6641 0.0000
# 6 0.0000 0.0000 0.0000 2.8374 0.0000 13.7743
#
#
#
# Elastic Compliance Matrix: (Units=1/GPa)
#
#
# Indices 1 2 3 4 5 6 
#
# 1 0.009251 -0.003263 -0.009982 0.000000 -0.004813 0.000000
# 2 -0.003263 0.010550 0.000182 0.000000 0.007585 0.000000
# 3 -0.009982 0.000182 0.040865 0.000000 0.003974 0.000000
# 4 0.000000 0.000000 0.000000 0.028721 0.000000 -0.005916
# 5 -0.004813 0.007585 0.003974 0.000000 0.038830 0.000000
# 6 0.000000 0.000000 0.000000 -0.005916 0.000000 0.073818
#
#
# Mechanical properties :
#
#
# Convention : Reuss Voigt Hill
#
# Bulk Modulus (GPa) = 28.95046 59.37439 44.16242
# Shear Modulus (GPa) = 20.86184 31.29922 26.08053
#
# Velocity S-wave (km/s) = 2.99888 3.67324 3.35305
# Velocity P-wave (km/s) = 4.94684 6.60195 5.83339
#
# Compressibility (1/GPa) = 0.03454177
#
# Stress axis : x y z
#
# Youngs Moduli (GPa) = 108.09356 94.78901 24.47094
#
# Poissons Ratio (x) = 0.30929 0.24426
# Poissons Ratio (y) = 0.35270 -0.00447
# Poissons Ratio (z) = 1.07894 -0.01730
#
# Static dielectric constant tensor:
#      x y z
#    x 1.915290 0.000000 -0.021110 
#    y 0.000000 1.930160 0.000000 
#    z -0.021110 0.000000 1.855130 
# 
# From -- ./inp_files/34528.got.cif
#   From: 2010.05.17/outbox.cif.g08.bks.cpg/sg13_18_cif.got.tgz:34528.got - 2010.06.03 16:44:36.
