data_PCOD9231503
_publ_section_title
;
Structure prediction by ZEFSAII (Michael W. Deem and Ramdas Pophale) SiO2 
 PCOD9231503
Probable space group: P 2/C
;
_chemical_formula_sum "Si O2"
_cell_formula_units_Z 30
_cell_length_a 11.447614
_cell_length_b 14.086395
_cell_length_c 15.909745
_cell_angle_alpha 90.000000
_cell_angle_beta 147.999769
_cell_angle_gamma 90.000000
_cell_volume 1359.535550
_symmetry_space_group_name_H-M "P 2/C"
_symmetry_group_IT_number 13
_symmetry_cell_setting 'monoclinic'
loop_
_space_group_symop_operation_xyz
x,y,z
-x,y,1/2-z
-x,-y,-z
x,-y,1/2+z
loop_
_atom_site_type_symbol
_atom_site_label
_atom_site_fract_x
_atom_site_fract_y
_atom_site_fract_z
Si Si1 0.600448 0.361593 0.622882
Si Si2 0.687959 0.707242 0.995197
Si Si3 0.665455 0.157763 0.284806
Si Si4 0.833296 0.980348 0.318956
Si Si5 0.995300 0.532125 0.146282
Si Si6 0.835307 0.791709 0.380688
Si Si7 0.720763 0.639204 0.436707
Si Si8 0.000000 0.877926 0.250000
O O1 0.605596 0.344195 0.528449
O O2 0.739123 0.279088 0.753303
O O3 0.362893 0.359891 0.519002
O O4 0.755214 0.452010 0.731880
O O5 0.845106 0.628618 0.046737
O O6 0.818984 0.802690 0.104550
O O7 0.469671 0.748471 0.820043
O O8 0.500000 0.107986 0.250000
O O9 0.903075 0.188392 0.466272
O O10 0.707854 0.080559 0.237505
O O11 0.710398 0.889575 0.283911
O O12 0.924657 0.942539 0.284524
O O13 0.000000 0.000000 0.500000
O O14 0.000000 0.515773 0.250000
O O15 0.893895 0.444169 0.035617
O O16 0.796708 0.739703 0.445724
O O17 0.500000 0.614807 0.250000
#
# Coordination Sequence:
#
# PCOD9231503 Si02
#       8
#     4   4   4   4   4   4   4   2
#     4  10  20  40  61  86 121 175 217 261 339 405
#     4  11  21  39  65  94 123 174 226 270 330 412
#     4  11  24  39  64 100 129 170 227 277 335 401
#     4  10  22  42  65  96 133 177 221 281 336 404
#     4  10  21  38  61  88 129 171 215 283 336 399
#     4  10  21  44  61  87 135 170 210 278 341 392
#     4  10  24  38  61  94 124 175 221 271 340 403
#     4  12  20  44  70  90 138 180 222 274 346 406
#
# _framework density 22.066358999999999
#
# number of rings (size 3 to 8) (size 9 to 14) (size 15 to 20)
#    0.000    1.600    3.333    2.400    0.000   10.133 
#    4.800    0.000    0.000    0.000    0.000    0.000 
#    0.000    0.000    0.000    0.000    0.000    0.000 
#
# Total GULP energy -167167.803015 kJ/mol
# GULP energy per Si atom -5572.260100 kJ/mol
# Density = 2.201613 g / cm^3
# Si number density = 22.066359 Si / 1000 Ang^3
#
#
#
# Elastic Constant Matrix: (Units=GPa)
#
#
# Indices 1 2 3 4 5 6 
#
# 1 102.9490 45.2673 -1.3284 0.0000 5.5011 0.0000
# 2 45.2673 85.1209 20.2591 0.0000 1.5153 0.0000
# 3 -1.3284 20.2591 53.4337 0.0000 4.4035 0.0000
# 4 0.0000 0.0000 0.0000 18.4202 0.0000 -2.0594
# 5 5.5011 1.5153 4.4035 0.0000 16.8971 0.0000
# 6 0.0000 0.0000 0.0000 -2.0594 0.0000 15.6774
#
#
#
# Elastic Compliance Matrix: (Units=1/GPa)
#
#
# Indices 1 2 3 4 5 6 
#
# 1 0.013532 -0.008008 0.003757 0.000000 -0.004667 0.000000
# 2 -0.008008 0.017652 -0.007129 0.000000 0.002882 0.000000
# 3 0.003757 -0.007129 0.022033 0.000000 -0.006326 0.000000
# 4 0.000000 0.000000 0.000000 0.055097 0.000000 0.007238
# 5 -0.004667 0.002882 -0.006326 0.000000 0.062091 0.000000
# 6 0.000000 0.000000 0.000000 0.007238 0.000000 0.064737
#
#
# Mechanical properties :
#
#
# Convention : Reuss Voigt Hill
#
# Bulk Modulus (GPa) = 32.83289 41.09993 36.96641
# Shear Modulus (GPa) = 18.65293 22.01931 20.33612
#
# Velocity S-wave (km/s) = 2.91058 3.16233 3.03906
# Velocity P-wave (km/s) = 5.11925 5.65684 5.39475
#
# Compressibility (1/GPa) = 0.03045726
#
# Stress axis : x y z
#
# Youngs Moduli (GPa) = 73.89669 56.65104 45.38748
#
# Poissons Ratio (x) = 0.45364 -0.17052
# Poissons Ratio (y) = 0.59174 0.32358
# Poissons Ratio (z) = -0.27764 0.40388
#
# Static dielectric constant tensor:
#      x y z
#    x 1.928070 0.000000 -0.007050 
#    y 0.000000 1.876550 0.000000 
#    z -0.007050 0.000000 1.882270 
# 
# From -- ./inp_files/66856.got.cif
#   From: 2010.05.17/outbox.cif.g08.bks.cpg/sg13_34_cif.got.tgz:66856.got - 2010.06.03 16:44:36.
