data_PCOD9231918
_publ_section_title
;
Structure prediction by ZEFSAII (Michael W. Deem and Ramdas Pophale) SiO2 
 PCOD9231918
Probable space group: P 2/C
;
_chemical_formula_sum "Si O2"
_cell_formula_units_Z 28
_cell_length_a 9.077391
_cell_length_b 17.438082
_cell_length_c 13.503781
_cell_angle_alpha 90.000000
_cell_angle_beta 150.207303
_cell_angle_gamma 90.000000
_cell_volume 1062.067472
_symmetry_space_group_name_H-M "P 2/C"
_symmetry_group_IT_number 13
_symmetry_cell_setting 'monoclinic'
loop_
_space_group_symop_operation_xyz
x,y,z
-x,y,1/2-z
-x,-y,-z
x,-y,1/2+z
loop_
_atom_site_type_symbol
_atom_site_label
_atom_site_fract_x
_atom_site_fract_y
_atom_site_fract_z
Si Si1 0.579759 0.671734 0.445786
Si Si2 0.137223 0.345320 0.981738
Si Si3 0.000000 0.536689 0.250000
Si Si4 0.862408 0.400037 0.299397
Si Si5 0.000000 0.034120 0.250000
Si Si6 0.957803 0.933928 0.396631
Si Si7 0.700460 0.815115 0.010040
Si Si8 0.581343 0.840271 0.448053
O O1 0.199938 0.592111 0.433326
O O2 0.705682 0.656947 0.629851
O O3 0.668631 0.756817 0.462684
O O4 0.779126 0.613449 0.499475
O O5 0.287122 0.264082 0.042951
O O6 0.775618 0.334091 0.765519
O O7 0.211210 0.380338 0.131545
O O8 0.170196 0.483549 0.269654
O O9 0.195443 0.089988 0.430493
O O10 0.168072 0.977798 0.273726
O O11 0.720486 0.867929 0.279987
O O12 0.249845 0.888518 0.531099
O O13 0.000000 0.000000 0.500000
O O14 0.461725 0.828128 0.957182
O O15 0.000000 0.810143 0.250000
#
# Coordination Sequence:
#
# PCOD9231918 Si02
#       8
#     4   4   2   4   2   4   4   4
#     4  10  21  43  65  96 142 181 232 297 346 418
#     4  12  20  43  74  93 134 196 233 288 361 413
#     4  10  22  42  66 100 146 182 232 302 352 416
#     4  10  25  39  62 109 142 175 242 290 352 433
#     4  12  24  42  66  90 144 182 208 296 358 400
#     4  11  24  42  66 100 130 174 232 282 348 424
#     4  10  20  42  69  93 129 178 233 285 342 418
#     4  11  22  45  69  94 139 182 224 286 357 409
#
# _framework density 26.363675000000001
#
# number of rings (size 3 to 8) (size 9 to 14) (size 15 to 20)
#    0.000    1.429    5.714    2.143    0.000    5.143 
#    2.571    7.143    0.000    0.000    0.000    0.000 
#    0.000    0.000    0.000    0.000    0.000    0.000 
#
# Total GULP energy -156752.957662 kJ/mol
# GULP energy per Si atom -5598.319916 kJ/mol
# Density = 2.630367 g / cm^3
# Si number density = 26.363675 Si / 1000 Ang^3
#
#
#
# Elastic Constant Matrix: (Units=GPa)
#
#
# Indices 1 2 3 4 5 6 
#
# 1 125.3203 54.0955 24.8514 0.0000 -28.0086 0.0000
# 2 54.0955 175.4146 27.2115 0.0000 -26.4648 0.0000
# 3 24.8514 27.2115 99.6540 0.0000 -22.8208 0.0000
# 4 0.0000 0.0000 0.0000 28.3678 0.0000 -1.9578
# 5 -28.0086 -26.4648 -22.8208 0.0000 51.8220 0.0000
# 6 0.0000 0.0000 0.0000 -1.9578 0.0000 45.7408
#
#
#
# Elastic Compliance Matrix: (Units=1/GPa)
#
#
# Indices 1 2 3 4 5 6 
#
# 1 0.010046 -0.002374 -0.000991 0.000000 0.003781 0.000000
# 2 -0.002374 0.006842 -0.000856 0.000000 0.001834 0.000000
# 3 -0.000991 -0.000856 0.011447 0.000000 0.004068 0.000000
# 4 0.000000 0.000000 0.000000 0.035356 0.000000 0.001513
# 5 0.003781 0.001834 0.004068 0.000000 0.024068 0.000000
# 6 0.000000 0.000000 0.000000 0.001513 0.000000 0.021927
#
#
# Mechanical properties :
#
#
# Convention : Reuss Voigt Hill
#
# Bulk Modulus (GPa) = 50.26967 68.07841 59.17404
# Shear Modulus (GPa) = 40.07686 44.80148 42.43917
#
# Velocity S-wave (km/s) = 3.90315 4.12681 4.01653
# Velocity P-wave (km/s) = 6.27869 6.97038 6.63356
#
# Compressibility (1/GPa) = 0.01989271
#
# Stress axis : x y z
#
# Youngs Moduli (GPa) = 99.54436 146.14743 87.35674
#
# Poissons Ratio (x) = 0.34693 0.08659
# Poissons Ratio (y) = 0.23630 0.07481
# Poissons Ratio (z) = 0.09867 0.12516
#
# Static dielectric constant tensor:
#      x y z
#    x 2.193770 0.000000 0.067110 
#    y 0.000000 1.994030 0.000000 
#    z 0.067110 0.000000 2.118270 
# 
# From -- ./inp_files/48125.got.cif
#   From: 2010.05.17/outbox.cif.g08.bks.cpg/sg13_25_cif.got.tgz:48125.got - 2010.06.03 16:44:36.
