data_PCOD9231708
_publ_section_title
;
Structure prediction by ZEFSAII (Michael W. Deem and Ramdas Pophale) SiO2 
 PCOD9231708
Probable space group: P 2/C
;
_chemical_formula_sum "Si O2"
_cell_formula_units_Z 22
_cell_length_a 18.262462
_cell_length_b 9.389905
_cell_length_c 14.568179
_cell_angle_alpha 90.000000
_cell_angle_beta 157.733692
_cell_angle_gamma 90.000000
_cell_volume 946.594975
_symmetry_space_group_name_H-M "P 2/C"
_symmetry_group_IT_number 13
_symmetry_cell_setting 'monoclinic'
loop_
_space_group_symop_operation_xyz
x,y,z
-x,y,1/2-z
-x,-y,-z
x,-y,1/2+z
loop_
_atom_site_type_symbol
_atom_site_label
_atom_site_fract_x
_atom_site_fract_y
_atom_site_fract_z
Si Si1 0.500000 0.321416 0.750000
Si Si2 0.094371 0.346697 0.586938
Si Si3 0.275022 0.136737 0.345154
Si Si4 0.208852 0.479018 0.537746
Si Si5 0.202789 0.156512 0.863829
Si Si6 0.747355 0.800628 0.876987
O O1 0.420418 0.222676 0.577248
O O2 0.338583 0.419229 0.607674
O O3 0.923868 0.229720 0.381209
O O4 0.000000 0.500000 0.500000
O O5 0.195449 0.369329 0.606610
O O6 0.228732 0.291842 0.826234
O O7 0.343513 0.131891 0.319068
O O8 0.239890 0.983453 0.347984
O O9 0.277261 0.630598 0.655242
O O10 0.000000 0.503303 0.250000
O O11 0.975441 0.164930 0.627521
O O12 0.309114 0.154794 0.085614
#
# Coordination Sequence:
#
# PCOD9231708 Si02
#       6
#     2   4   4   4   4   4
#     4  12  30  42  68 112 146 190 240 284 356 424
#     4  11  19  40  76 103 132 186 237 293 354 409
#     4  11  24  43  63 102 149 180 236 291 350 429
#     4  12  22  44  73 106 144 182 241 298 349 418
#     4  10  21  38  70 105 134 180 241 281 356 426
#     4  10  20  40  74 101 135 188 234 293 361 409
#
# _framework density 23.241199000000002
#
# number of rings (size 3 to 8) (size 9 to 14) (size 15 to 20)
#    0.000    1.091    7.273    2.182    0.000    5.091 
#    0.000    4.545    0.000    0.000    0.000    0.000 
#    0.000    0.000    0.000    0.000    0.000    0.000 
#
# Total GULP energy -123139.688945 kJ/mol
# GULP energy per Si atom -5597.258588 kJ/mol
# Density = 2.318830 g / cm^3
# Si number density = 23.241199 Si / 1000 Ang^3
#
#
#
# Elastic Constant Matrix: (Units=GPa)
#
#
# Indices 1 2 3 4 5 6 
#
# 1 160.6239 70.5742 50.2117 0.0000 -53.1088 0.0000
# 2 70.5742 147.1548 28.9408 0.0000 -19.4787 0.0000
# 3 50.2117 28.9408 56.6733 0.0000 -23.1188 0.0000
# 4 0.0000 0.0000 0.0000 -248.0189 0.0000 -167.0132
# 5 -53.1088 -19.4787 -23.1188 0.0000 47.6006 0.0000
# 6 0.0000 0.0000 0.0000 -167.0132 0.0000 -65.1656
#
#
#
# Elastic Compliance Matrix: (Units=1/GPa)
#
#
# Indices 1 2 3 4 5 6 
#
# 1 0.012988 -0.003809 -0.005346 0.000000 0.010336 0.000000
# 2 -0.003809 0.008761 -0.001708 0.000000 -0.001495 0.000000
# 3 -0.005346 -0.001708 0.025609 0.000000 0.005775 0.000000
# 4 0.000000 0.000000 0.000000 0.005555 0.000000 -0.014237
# 5 0.010336 -0.001495 0.005775 0.000000 0.034733 0.000000
# 6 0.000000 0.000000 0.000000 -0.014237 0.000000 0.021142
#
#
# Mechanical properties :
#
#
# Convention : Reuss Voigt Hill
#
# Bulk Modulus (GPa) = 39.01549 73.76726 56.39138
# Shear Modulus (GPa) = 35.95618 -38.80176 -1.42279
#
# Velocity S-wave (km/s) = 3.93757 -4.09041 -0.78327
# Velocity P-wave (km/s) = 6.12342 3.08223 4.84749
#
# Compressibility (1/GPa) = 0.02563085
#
# Stress axis : x y z
#
# Youngs Moduli (GPa) = 76.99425 114.14663 39.04847
#
# Poissons Ratio (x) = 0.43484 0.20873
# Poissons Ratio (y) = 0.29331 0.06671
# Poissons Ratio (z) = 0.41157 0.19502
#
# Static dielectric constant tensor:
#      x y z
#    x 1.889840 0.000000 -0.018450 
#    y 0.000000 1.819720 0.000000 
#    z -0.018450 0.000000 1.901090 
# 
# From -- ./inp_files/55120.got.cif
#   From: 2010.05.17/outbox.cif.g08.bks.cpg/sg13_28_cif.got.tgz:55120.got - 2010.06.03 16:44:36.
