data_PCOD9231232
_publ_section_title
;
Structure prediction by ZEFSAII (Michael W. Deem and Ramdas Pophale) SiO2 
 PCOD9231232
Probable space group: P 2/C
;
_chemical_formula_sum "Si O2"
_cell_formula_units_Z 28
_cell_length_a 17.837683
_cell_length_b 8.775236
_cell_length_c 8.690774
_cell_angle_alpha 90.000000
_cell_angle_beta 86.285247
_cell_angle_gamma 90.000000
_cell_volume 1357.507623
_symmetry_space_group_name_H-M "P 2/C"
_symmetry_group_IT_number 13
_symmetry_cell_setting 'monoclinic'
loop_
_space_group_symop_operation_xyz
x,y,z
-x,y,1/2-z
-x,-y,-z
x,-y,1/2+z
loop_
_atom_site_type_symbol
_atom_site_label
_atom_site_fract_x
_atom_site_fract_y
_atom_site_fract_z
Si Si1 0.361242 0.929254 0.473014
Si Si2 0.982982 0.322683 0.523131
Si Si3 0.603759 0.381972 0.936925
Si Si4 0.893426 0.822729 0.277190
Si Si5 0.718753 0.182721 0.816389
Si Si6 0.000000 0.099217 0.250000
Si Si7 0.581911 0.303734 0.286777
Si Si8 0.500000 0.154751 0.750000
O O1 0.303823 0.867468 0.352606
O O2 0.374325 0.818600 0.617061
O O3 0.439899 0.934443 0.365805
O O4 0.326971 0.080054 0.553626
O O5 0.911065 0.298019 0.640825
O O6 0.000000 0.500000 0.500000
O O7 0.055198 0.242840 0.593013
O O8 0.970253 0.215610 0.380225
O O9 0.684656 0.349847 0.848903
O O10 0.575105 0.548730 0.896687
O O11 0.547416 0.263009 0.859409
O O12 0.612631 0.357774 0.117687
O O13 0.806875 0.834565 0.327058
O O14 0.931837 0.982687 0.220882
O O15 0.500000 0.245302 0.250000
#
# Coordination Sequence:
#
# PCOD9231232 Si02
#       8
#     4   4   4   4   4   2   4   2
#     4  11  25  42  64  91 132 169 228 280 335 403
#     4  10  21  42  70 105 133 171 224 275 316 397
#     4  11  22  40  65  92 129 163 223 274 337 404
#     4  10  22  42  68  96 140 176 220 265 331 412
#     4  11  26  44  60  97 137 171 216 277 340 402
#     4  10  20  38  74 100 128 180 224 260 324 394
#     4  12  22  43  69  91 120 173 225 282 338 399
#     4  10  20  40  64  94 118 178 216 288 324 392
#
# _framework density 20.626035999999999
#
# number of rings (size 3 to 8) (size 9 to 14) (size 15 to 20)
#    0.000    1.429    2.143    5.571    4.000    2.286 
#   11.571    0.000    0.000    0.000    0.000    0.000 
#    0.000    0.000    0.000    0.000    0.000    0.000 
#
# Total GULP energy -156325.609206 kJ/mol
# GULP energy per Si atom -5583.057472 kJ/mol
# Density = 2.057909 g / cm^3
# Si number density = 20.626036 Si / 1000 Ang^3
#
#
#
# Elastic Constant Matrix: (Units=GPa)
#
#
# Indices 1 2 3 4 5 6 
#
# 1 99.4024 24.2897 7.7467 0.0000 -14.6252 0.0000
# 2 24.2897 101.9519 24.1851 0.0000 -12.8323 0.0000
# 3 7.7467 24.1851 96.3230 0.0000 0.7363 0.0000
# 4 0.0000 0.0000 0.0000 238.9492 0.0000 -10.7217
# 5 -14.6252 -12.8323 0.7363 0.0000 19.2721 0.0000
# 6 0.0000 0.0000 0.0000 -10.7217 0.0000 12.4263
#
#
#
# Elastic Compliance Matrix: (Units=1/GPa)
#
#
# Indices 1 2 3 4 5 6 
#
# 1 0.011653 -0.001662 -0.000579 0.000000 0.007758 0.000000
# 2 -0.001662 0.011720 -0.002860 0.000000 0.006652 0.000000
# 3 -0.000579 -0.002860 0.011168 0.000000 -0.002770 0.000000
# 4 0.000000 0.000000 0.000000 0.004354 0.000000 0.003756
# 5 0.007758 0.006652 -0.002770 0.000000 0.062311 0.000000
# 6 0.000000 0.000000 0.000000 0.003756 0.000000 0.083716
#
#
# Mechanical properties :
#
#
# Convention : Reuss Voigt Hill
#
# Bulk Modulus (GPa) = 41.08798 45.56892 43.32845
# Shear Modulus (GPa) = 24.60188 70.22656 47.41422
#
# Velocity S-wave (km/s) = 3.45738 5.84136 4.79974
# Velocity P-wave (km/s) = 5.99180 8.22412 7.19506
#
# Compressibility (1/GPa) = 0.02433802
#
# Stress axis : x y z
#
# Youngs Moduli (GPa) = 85.81505 85.32237 89.54503
#
# Poissons Ratio (x) = 0.14184 0.05185
# Poissons Ratio (y) = 0.14266 0.25609
# Poissons Ratio (z) = 0.04969 0.24401
#
# Static dielectric constant tensor:
#      x y z
#    x 1.884070 0.000000 1.261840 
#    y 0.000000 1.758960 0.000000 
#    z 1.261840 0.000000 11.946740 
# 
# From -- ./inp_files/21191.got.cif
#   From: 2010.05.17/outbox.cif.g08.bks.cpg/sg13_11_cif.got.tgz:21191.got - 2010.06.03 16:44:36.
