data_PCOD9231797
_publ_section_title
;
Structure prediction by ZEFSAII (Michael W. Deem and Ramdas Pophale) SiO2 
 PCOD9231797
Probable space group: P 2/C
;
_chemical_formula_sum "Si O2"
_cell_formula_units_Z 32
_cell_length_a 8.465171
_cell_length_b 5.538044
_cell_length_c 30.350359
_cell_angle_alpha 90.000000
_cell_angle_beta 94.403040
_cell_angle_gamma 90.000000
_cell_volume 1418.640431
_symmetry_space_group_name_H-M "P 2/C"
_symmetry_group_IT_number 13
_symmetry_cell_setting 'monoclinic'
loop_
_space_group_symop_operation_xyz
x,y,z
-x,y,1/2-z
-x,-y,-z
x,-y,1/2+z
loop_
_atom_site_type_symbol
_atom_site_label
_atom_site_fract_x
_atom_site_fract_y
_atom_site_fract_z
Si Si1 0.194491 0.088023 0.161184
Si Si2 0.696586 0.578719 0.189807
Si Si3 0.851656 0.473143 0.416236
Si Si4 0.314066 0.087779 0.258771
Si Si5 0.913139 0.785378 0.118680
Si Si6 0.646257 0.995497 0.065442
Si Si7 0.609409 0.699651 0.978307
Si Si8 0.434268 0.247511 0.628819
O O1 0.151307 0.293450 0.125364
O O2 0.209176 0.135403 0.213021
O O3 0.368195 0.988893 0.151413
O O4 0.059299 0.889962 0.149515
O O5 0.722884 0.314495 0.210233
O O6 0.811498 0.632748 0.151251
O O7 0.516106 0.588927 0.167361
O O8 0.713711 0.818131 0.221511
O O9 0.775804 0.365482 0.458823
O O10 0.715486 0.660571 0.400476
O O11 0.017160 0.613699 0.418388
O O12 0.500000 0.101005 0.250000
O O13 0.815589 0.002766 0.092898
O O14 0.562247 0.799778 0.094379
O O15 0.515505 0.205251 0.061056
O O16 0.653360 0.900364 0.015776
O O17 0.500000 0.500000 0.000000
#
# Coordination Sequence:
#
# PCOD9231797 Si02
#       8
#     4   4   4   4   4   4   4   4
#     4  11  24  43  66  96 139 185 228 284 360 424
#     4  11  26  45  71 103 141 184 241 297 359 422
#     4  11  23  42  69  97 135 182 235 284 359 429
#     4  12  25  44  74 106 137 183 245 306 345 419
#     4  10  27  45  65 101 143 189 227 290 370 436
#     4  10  22  42  67 101 136 173 234 289 358 428
#     4  11  22  40  72 103 129 176 233 296 351 429
#     4  10  20  41  68  98 131 180 232 288 347 427
#
# _framework density 22.556806999999999
#
# number of rings (size 3 to 8) (size 9 to 14) (size 15 to 20)
#    0.000    1.250    3.750    1.125    5.250    2.000 
#    0.000    1.250    0.000    0.000    0.000    0.000 
#    0.000    0.000    0.000    0.000    0.000    0.000 
#
# Total GULP energy -178459.890871 kJ/mol
# GULP energy per Si atom -5576.871590 kJ/mol
# Density = 2.250547 g / cm^3
# Si number density = 22.556807 Si / 1000 Ang^3
#
#
#
# Elastic Constant Matrix: (Units=GPa)
#
#
# Indices 1 2 3 4 5 6 
#
# 1 74.1313 -1.8227 29.1750 0.0000 -7.8876 0.0000
# 2 -1.8227 34.6155 11.9372 0.0000 -6.7023 0.0000
# 3 29.1750 11.9372 78.2516 0.0000 -3.2427 0.0000
# 4 0.0000 0.0000 0.0000 35.3333 0.0000 -0.4178
# 5 -7.8876 -6.7023 -3.2427 0.0000 29.2003 0.0000
# 6 0.0000 0.0000 0.0000 -0.4178 0.0000 0.8510
#
#
#
# Elastic Compliance Matrix: (Units=1/GPa)
#
#
# Indices 1 2 3 4 5 6 
#
# 1 0.016713 0.004089 -0.006659 0.000000 0.004713 0.000000
# 2 0.004089 0.032778 -0.006196 0.000000 0.007940 0.000000
# 3 -0.006659 -0.006196 0.016148 0.000000 -0.001428 0.000000
# 4 0.000000 0.000000 0.000000 0.028467 0.000000 0.013978
# 5 0.004713 0.007940 -0.001428 0.000000 0.037183 0.000000
# 6 0.000000 0.000000 0.000000 0.013978 0.000000 1.182015
#
#
# Mechanical properties :
#
#
# Convention : Reuss Voigt Hill
#
# Bulk Modulus (GPa) = 20.78724 29.50862 25.14793
# Shear Modulus (GPa) = 3.71231 22.92418 13.31824
#
# Velocity S-wave (km/s) = 1.28426 3.19138 2.43252
# Velocity P-wave (km/s) = 3.38151 5.16626 4.36605
#
# Compressibility (1/GPa) = 0.04810645
#
# Stress axis : x y z
#
# Youngs Moduli (GPa) = 59.83542 30.50819 61.92642
#
# Poissons Ratio (x) = -0.12475 0.41240
# Poissons Ratio (y) = -0.24468 0.38368
# Poissons Ratio (z) = 0.39847 0.18902
#
# Static dielectric constant tensor:
#      x y z
#    x 1.978820 0.000000 -0.054330 
#    y 0.000000 1.933510 0.000000 
#    z -0.054330 0.000000 1.956750 
# 
# From -- ./inp_files/95668.got.cif
#   From: 2010.05.17/outbox.cif.g08.bks.cpg/sg13_48_cif.got.tgz:95668.got - 2010.06.03 16:44:36.
