data_PCOD9231142
_publ_section_title
;
Structure prediction by ZEFSAII (Michael W. Deem and Ramdas Pophale) SiO2 
 PCOD9231142
Probable space group: P 2/C
;
_chemical_formula_sum "Si O2"
_cell_formula_units_Z 20
_cell_length_a 12.036210
_cell_length_b 4.944420
_cell_length_c 24.649740
_cell_angle_alpha 90.000000
_cell_angle_beta 39.778698
_cell_angle_gamma 90.000000
_cell_volume 938.594469
_symmetry_space_group_name_H-M "P 2/C"
_symmetry_group_IT_number 13
_symmetry_cell_setting 'monoclinic'
loop_
_space_group_symop_operation_xyz
x,y,z
-x,y,1/2-z
-x,-y,-z
x,-y,1/2+z
loop_
_atom_site_type_symbol
_atom_site_label
_atom_site_fract_x
_atom_site_fract_y
_atom_site_fract_z
Si Si1 0.563351 0.151885 0.845642
Si Si2 0.626814 0.755148 0.440278
Si Si3 0.373908 0.658353 0.748861
Si Si4 0.811144 0.983122 0.966638
Si Si5 0.991683 0.472725 0.567762
O O1 0.664079 0.241972 0.862323
O O2 0.539053 0.416240 0.818084
O O3 0.658382 0.915223 0.777365
O O4 0.377047 0.029925 0.933701
O O5 0.500000 0.500000 0.500000
O O6 0.783187 0.851190 0.420589
O O7 0.500000 0.000000 0.500000
O O8 0.500000 0.746334 0.750000
O O9 0.198847 0.539293 0.839383
O O10 0.949998 0.167032 0.944551
O O11 0.881388 0.677457 0.946343
O O12 0.000000 0.500000 0.500000
#
# Coordination Sequence:
#
# PCOD9231142 Si02
#       5
#     4   4   4   4   4
#     4  11  22  41  66  93 124 165 213 264 317 386
#     4  10  20  38  65  96 125 162 209 256 313 386
#     4  12  25  42  62  91 127 168 213 266 327 389
#     4  11  22  41  66  93 124 165 213 264 316 385
#     4  12  25  42  62  91 127 168 213 266 326 386
#
# _framework density 21.308457000000001
#
# number of rings (size 3 to 8) (size 9 to 14) (size 15 to 20)
#    0.000    0.800    0.000   10.800    0.000    0.000 
#    0.000    6.000    0.000    0.000    0.000    0.000 
#    0.000    0.000    0.000    0.000    0.000    0.000 
#
# Total GULP energy -111613.426653 kJ/mol
# GULP energy per Si atom -5580.671333 kJ/mol
# Density = 2.125996 g / cm^3
# Si number density = 21.308457 Si / 1000 Ang^3
#
#
#
# Elastic Constant Matrix: (Units=GPa)
#
#
# Indices 1 2 3 4 5 6 
#
# 1 76.7125 6.6810 35.6155 0.0000 22.8912 0.0000
# 2 6.6810 125.3495 11.1136 0.0000 21.1797 0.0000
# 3 35.6155 11.1136 70.9783 0.0000 16.6368 0.0000
# 4 0.0000 0.0000 0.0000 43.2232 0.0000 -5.0802
# 5 22.8912 21.1797 16.6368 0.0000 35.0339 0.0000
# 6 0.0000 0.0000 0.0000 -5.0802 0.0000 38.3594
#
#
#
# Elastic Compliance Matrix: (Units=1/GPa)
#
#
# Indices 1 2 3 4 5 6 
#
# 1 0.019403 0.001306 -0.007633 0.000000 -0.009842 0.000000
# 2 0.001306 0.008975 -0.000662 0.000000 -0.005964 0.000000
# 3 -0.007633 -0.000662 0.018859 0.000000 -0.003568 0.000000
# 4 0.000000 0.000000 0.000000 0.023502 0.000000 0.003112
# 5 -0.009842 -0.005964 -0.003568 0.000000 0.040274 0.000000
# 6 0.000000 0.000000 0.000000 0.003112 0.000000 0.026481
#
#
# Mechanical properties :
#
#
# Convention : Reuss Voigt Hill
#
# Bulk Modulus (GPa) = 30.06973 42.20673 36.13823
# Shear Modulus (GPa) = 30.75790 37.96532 34.36161
#
# Velocity S-wave (km/s) = 3.80341 4.22560 4.02005
# Velocity P-wave (km/s) = 5.78188 6.60743 6.20839
#
# Compressibility (1/GPa) = 0.03325604
#
# Stress axis : x y z
#
# Youngs Moduli (GPa) = 51.53859 111.42605 53.02485
#
# Poissons Ratio (x) = -0.14548 0.40476
# Poissons Ratio (y) = -0.06729 0.03512
# Poissons Ratio (z) = 0.39342 0.07381
#
# Static dielectric constant tensor:
#      x y z
#    x 1.962650 0.000000 0.067930 
#    y 0.000000 1.724910 0.000000 
#    z 0.067930 0.000000 1.770660 
# 
# From -- ./inp_files/85726.got.cif
#   From: 2010.05.17/outbox.cif.g08.bks.cpg/sg13_43_cif.got.tgz:85726.got - 2010.06.03 16:44:36.
