data_PCOD9231331
_publ_section_title
;
Structure prediction by ZEFSAII (Michael W. Deem and Ramdas Pophale) SiO2 
 PCOD9231331
Probable space group: P 2/C
;
_chemical_formula_sum "Si O2"
_cell_formula_units_Z 24
_cell_length_a 18.411739
_cell_length_b 6.451329
_cell_length_c 13.689122
_cell_angle_alpha 90.000000
_cell_angle_beta 141.231220
_cell_angle_gamma 90.000000
_cell_volume 1018.164937
_symmetry_space_group_name_H-M "P 2/C"
_symmetry_group_IT_number 13
_symmetry_cell_setting 'monoclinic'
loop_
_space_group_symop_operation_xyz
x,y,z
-x,y,1/2-z
-x,-y,-z
x,-y,1/2+z
loop_
_atom_site_type_symbol
_atom_site_label
_atom_site_fract_x
_atom_site_fract_y
_atom_site_fract_z
Si Si1 0.069550 0.829273 0.692669
Si Si2 0.640765 0.764741 0.660177
Si Si3 0.875717 0.847447 0.978777
Si Si4 0.500000 0.263649 0.750000
Si Si5 0.413716 0.601360 0.513341
Si Si6 0.000000 0.467673 0.750000
Si Si7 0.692600 0.016793 0.517604
O O1 0.093304 0.799140 0.602493
O O2 0.170711 0.976131 0.841953
O O3 0.072400 0.617685 0.754898
O O4 0.944993 0.940472 0.572258
O O5 0.737000 0.840877 0.837094
O O6 0.512142 0.743227 0.567469
O O7 0.663452 0.528803 0.644290
O O8 0.656045 0.917033 0.584571
O O9 0.923774 0.674439 0.100491
O O10 0.481014 0.419266 0.640542
O O11 0.387924 0.115811 0.639308
O O12 0.341143 0.743750 0.510173
#
# Coordination Sequence:
#
# PCOD9231331 Si02
#       7
#     4   4   4   2   4   2   4
#     4  10  24  44  65  95 133 173 224 268 338 393
#     4   9  21  39  65  92 120 163 216 256 319 387
#     4  10  23  44  67  96 132 174 216 280 329 382
#     4  10  22  36  56  96 120 166 204 248 324 376
#     4  10  20  39  63  93 125 163 210 258 314 387
#     4  12  24  42  66 100 126 176 226 272 324 396
#     4  10  21  40  61  89 128 164 205 269 320 381
#
# _framework density 23.571819000000001
#
# number of rings (size 3 to 8) (size 9 to 14) (size 15 to 20)
#    0.000    2.000    0.000    2.000    2.333    8.000 
#    9.000    0.000    0.000    0.000    0.000    0.000 
#    0.000    0.000    0.000    0.000    0.000    0.000 
#
# Total GULP energy -134219.217013 kJ/mol
# GULP energy per Si atom -5592.467376 kJ/mol
# Density = 2.351817 g / cm^3
# Si number density = 23.571819 Si / 1000 Ang^3
#
#
#
# Elastic Constant Matrix: (Units=GPa)
#
#
# Indices 1 2 3 4 5 6 
#
# 1 79.5730 29.2622 18.7409 0.0000 -0.0287 0.0000
# 2 29.2622 96.3515 50.6367 0.0000 3.2358 0.0000
# 3 18.7409 50.6367 127.4938 0.0000 5.2739 0.0000
# 4 0.0000 0.0000 0.0000 30.0108 0.0000 -9.8829
# 5 -0.0287 3.2358 5.2739 0.0000 22.0023 0.0000
# 6 0.0000 0.0000 0.0000 -9.8829 0.0000 37.8469
#
#
#
# Elastic Compliance Matrix: (Units=1/GPa)
#
#
# Indices 1 2 3 4 5 6 
#
# 1 0.014181 -0.004070 -0.000499 0.000000 0.000737 0.000000
# 2 -0.004070 0.014295 -0.005042 0.000000 -0.000899 0.000000
# 3 -0.000499 -0.005042 0.009988 0.000000 -0.001653 0.000000
# 4 0.000000 0.000000 0.000000 0.036456 0.000000 0.009520
# 5 0.000737 -0.000899 -0.001653 0.000000 0.045979 0.000000
# 6 0.000000 0.000000 0.000000 0.009520 0.000000 0.028908
#
#
# Mechanical properties :
#
#
# Convention : Reuss Voigt Hill
#
# Bulk Modulus (GPa) = 51.96665 55.63310 53.79988
# Shear Modulus (GPa) = 28.49940 31.62388 30.06164
#
# Velocity S-wave (km/s) = 3.48091 3.66676 3.57504
# Velocity P-wave (km/s) = 6.18462 6.44822 6.31780
#
# Compressibility (1/GPa) = 0.01924311
#
# Stress axis : x y z
#
# Youngs Moduli (GPa) = 70.51516 69.95665 100.12266
#
# Poissons Ratio (x) = 0.28469 0.04994
# Poissons Ratio (y) = 0.28696 0.50482
# Poissons Ratio (z) = 0.03517 0.35272
#
# Static dielectric constant tensor:
#      x y z
#    x 1.975260 0.000000 -0.032550 
#    y 0.000000 1.852500 0.000000 
#    z -0.032550 0.000000 1.920850 
# 
# From -- ./inp_files/56481.got.cif
#   From: 2010.05.17/outbox.cif.g08.bks.cpg/sg13_29_cif.got.tgz:56481.got - 2010.06.03 16:44:36.
