data_PCOD9231940
_publ_section_title
;
Structure prediction by ZEFSAII (Michael W. Deem and Ramdas Pophale) SiO2 
 PCOD9231940
Probable space group: P 2/C
;
_chemical_formula_sum "Si O2"
_cell_formula_units_Z 28
_cell_length_a 8.810356
_cell_length_b 13.407926
_cell_length_c 18.889833
_cell_angle_alpha 90.000000
_cell_angle_beta 149.651547
_cell_angle_gamma 90.000000
_cell_volume 1127.446709
_symmetry_space_group_name_H-M "P 2/C"
_symmetry_group_IT_number 13
_symmetry_cell_setting 'monoclinic'
loop_
_space_group_symop_operation_xyz
x,y,z
-x,y,1/2-z
-x,-y,-z
x,-y,1/2+z
loop_
_atom_site_type_symbol
_atom_site_label
_atom_site_fract_x
_atom_site_fract_y
_atom_site_fract_z
Si Si1 0.973135 0.751738 0.493036
Si Si2 0.594128 0.773718 0.146169
Si Si3 0.575611 0.895726 0.891749
Si Si4 0.656251 0.278910 0.102231
Si Si5 0.955184 0.974691 0.311982
Si Si6 0.845561 0.443249 0.372798
Si Si7 0.043901 0.378508 0.877131
O O1 0.641595 0.777883 0.384813
O O2 0.182206 0.846645 0.563269
O O3 0.088799 0.673627 0.598810
O O4 0.984005 0.685854 0.425622
O O5 0.823495 0.864186 0.246973
O O6 0.796401 0.674278 0.228585
O O7 0.409093 0.775050 0.999025
O O8 0.427204 0.801902 0.871764
O O9 0.303429 0.961863 0.754428
O O10 0.753837 0.962012 0.022131
O O11 0.000000 0.310109 0.250000
O O12 0.394640 0.362026 0.003127
O O13 0.000000 0.015986 0.250000
O O14 0.500000 0.457091 0.250000
O O15 0.000000 0.500000 0.500000
O O16 0.959498 0.506347 0.352552
#
# Coordination Sequence:
#
# PCOD9231940 Si02
#       7
#     4   4   4   4   4   4   4
#     4  10  23  41  67 104 138 181 229 300 361 423
#     4  12  22  41  71 102 143 193 236 290 360 424
#     4  11  25  43  68 100 142 185 251 288 358 425
#     4  11  24  42  67 103 145 190 240 298 352 421
#     4  12  23  42  70 102 140 194 241 293 353 430
#     4  10  21  41  70 101 137 179 232 289 359 426
#     4  10  20  42  71 101 135 186 241 287 355 438
#
# _framework density 24.834878
#
# number of rings (size 3 to 8) (size 9 to 14) (size 15 to 20)
#    0.000    1.143    4.286    3.429    2.000    4.000 
#    0.000    0.714    0.000    4.286    0.000    0.000 
#    0.000    0.000    0.000    0.000    0.000    0.000 
#
# Total GULP energy -156803.204946 kJ/mol
# GULP energy per Si atom -5600.114462 kJ/mol
# Density = 2.477835 g / cm^3
# Si number density = 24.834878 Si / 1000 Ang^3
#
#
#
# Elastic Constant Matrix: (Units=GPa)
#
#
# Indices 1 2 3 4 5 6 
#
# 1 90.5655 16.0721 29.7795 0.0000 24.3480 0.0000
# 2 16.0721 57.9224 22.3468 0.0000 -1.0263 0.0000
# 3 29.7795 22.3468 113.6440 0.0000 26.4781 0.0000
# 4 0.0000 0.0000 0.0000 -7.7197 0.0000 -11.8656
# 5 24.3480 -1.0263 26.4781 0.0000 44.2913 0.0000
# 6 0.0000 0.0000 0.0000 -11.8656 0.0000 22.9021
#
#
#
# Elastic Compliance Matrix: (Units=1/GPa)
#
#
# Indices 1 2 3 4 5 6 
#
# 1 0.013974 -0.003476 -0.001359 0.000000 -0.006950 0.000000
# 2 -0.003476 0.019909 -0.004132 0.000000 0.004843 0.000000
# 3 -0.001359 -0.004132 0.011405 0.000000 -0.006167 0.000000
# 4 0.000000 0.000000 0.000000 -0.072112 0.000000 -0.037361
# 5 -0.006950 0.004843 -0.006167 0.000000 0.030197 0.000000
# 6 0.000000 0.000000 0.000000 -0.037361 0.000000 0.024307
#
#
# Mechanical properties :
#
#
# Convention : Reuss Voigt Hill
#
# Bulk Modulus (GPa) = 36.55909 44.28098 40.42003
# Shear Modulus (GPa) = 91.35241 24.82362 58.08802
#
# Velocity S-wave (km/s) = 6.07155 3.16499 4.84154
# Velocity P-wave (km/s) = 7.99403 5.58794 6.89672
#
# Compressibility (1/GPa) = 0.02735298
#
# Stress axis : x y z
#
# Youngs Moduli (GPa) = 71.56166 50.22821 87.68201
#
# Poissons Ratio (x) = 0.17461 0.11915
# Poissons Ratio (y) = 0.24877 0.36232
# Poissons Ratio (z) = 0.09724 0.20756
#
# Static dielectric constant tensor:
#      x y z
#    x 2.027650 0.000000 -0.067310 
#    y 0.000000 1.998440 0.000000 
#    z -0.067310 0.000000 1.940750 
# 
# From -- ./inp_files/76764.got.cif
#   From: 2010.05.17/outbox.cif.g08.bks.cpg/sg13_39_cif.got.tgz:76764.got - 2010.06.03 16:44:36.
