data_PCOD9231989
_publ_section_title
;
Structure prediction by ZEFSAII (Michael W. Deem and Ramdas Pophale) SiO2 
 PCOD9231989
Probable space group: P 2/C
;
_chemical_formula_sum "Si O2"
_cell_formula_units_Z 28
_cell_length_a 17.598462
_cell_length_b 5.523560
_cell_length_c 13.704322
_cell_angle_alpha 90.000000
_cell_angle_beta 119.171234
_cell_angle_gamma 90.000000
_cell_volume 1163.184511
_symmetry_space_group_name_H-M "P 2/C"
_symmetry_group_IT_number 13
_symmetry_cell_setting 'monoclinic'
loop_
_space_group_symop_operation_xyz
x,y,z
-x,y,1/2-z
-x,-y,-z
x,-y,1/2+z
loop_
_atom_site_type_symbol
_atom_site_label
_atom_site_fract_x
_atom_site_fract_y
_atom_site_fract_z
Si Si1 0.480893 0.250766 0.048081
Si Si2 0.344065 0.777711 0.772608
Si Si3 0.700316 0.469847 0.565625
Si Si4 0.975168 0.355038 0.618909
Si Si5 0.788673 0.133442 0.761346
Si Si6 0.209765 0.471582 0.562280
Si Si7 0.044769 0.146847 0.170466
O O1 0.553229 0.239870 0.178916
O O2 0.500000 0.500000 0.000000
O O3 0.380173 0.292913 0.013252
O O4 0.500000 0.000000 0.000000
O O5 0.329215 0.644529 0.866541
O O6 0.278153 0.651283 0.657021
O O7 0.307335 0.044702 0.767613
O O8 0.776118 0.308460 0.661924
O O9 0.737172 0.620654 0.498304
O O10 0.875008 0.399038 0.532830
O O11 0.000000 0.342830 0.750000
O O12 0.026739 0.591841 0.614382
O O13 0.001752 0.092230 0.598606
O O14 0.818941 0.275187 0.876332
O O15 0.853252 0.918579 0.771147
O O16 0.000000 0.163292 0.250000
#
# Coordination Sequence:
#
# PCOD9231989 Si02
#       7
#     4   4   4   4   4   4   4
#     4  10  20  43  72 104 137 186 233 281 355 430
#     4  10  24  42  69 102 142 179 235 301 361 435
#     4  10  22  43  73  97 139 194 233 289 366 445
#     4  10  23  43  64  95 135 186 240 297 354 432
#     4  11  24  42  68 101 142 184 237 308 361 434
#     4  11  26  42  68 104 139 185 247 298 368 432
#     4  10  23  40  67  93 133 186 240 291 359 428
#
# _framework density 24.071847999999999
#
# number of rings (size 3 to 8) (size 9 to 14) (size 15 to 20)
#    0.000    1.714    1.429    1.714   10.000    2.857 
#    0.000    0.000    0.000    0.000    0.000    0.000 
#    0.000    0.000    0.000    0.000    0.000    0.000 
#
# Total GULP energy -156426.766553 kJ/mol
# GULP energy per Si atom -5586.670234 kJ/mol
# Density = 2.401706 g / cm^3
# Si number density = 24.071848 Si / 1000 Ang^3
#
#
#
# Elastic Constant Matrix: (Units=GPa)
#
#
# Indices 1 2 3 4 5 6 
#
# 1 104.3966 22.8553 61.9220 0.0000 -4.0764 0.0000
# 2 22.8553 122.3762 28.3377 0.0000 -5.9858 0.0000
# 3 61.9220 28.3377 133.3473 0.0000 18.4395 0.0000
# 4 0.0000 0.0000 0.0000 14.7805 0.0000 14.9179
# 5 -4.0764 -5.9858 18.4395 0.0000 33.7471 0.0000
# 6 0.0000 0.0000 0.0000 14.9179 0.0000 31.8804
#
#
#
# Elastic Compliance Matrix: (Units=1/GPa)
#
#
# Indices 1 2 3 4 5 6 
#
# 1 0.014238 -0.000715 -0.007226 0.000000 0.005541 0.000000
# 2 -0.000715 0.008869 -0.001902 0.000000 0.002526 0.000000
# 3 -0.007226 -0.001902 0.012360 0.000000 -0.007964 0.000000
# 4 0.000000 0.000000 0.000000 0.128206 0.000000 -0.059992
# 5 0.005541 0.002526 -0.007964 0.000000 0.035101 0.000000
# 6 0.000000 0.000000 0.000000 -0.059992 0.000000 0.059439
#
#
# Mechanical properties :
#
#
# Convention : Reuss Voigt Hill
#
# Bulk Modulus (GPa) = 63.36629 65.15001 64.25815
# Shear Modulus (GPa) = 17.65790 32.54861 25.10325
#
# Velocity S-wave (km/s) = 2.71135 3.68114 3.23282
# Velocity P-wave (km/s) = 6.01522 6.72245 6.37864
#
# Compressibility (1/GPa) = 0.01578126
#
# Stress axis : x y z
#
# Youngs Moduli (GPa) = 70.23626 112.75162 80.90537
#
# Poissons Ratio (x) = 0.08059 0.58461
# Poissons Ratio (y) = 0.05020 0.15389
# Poissons Ratio (z) = 0.50752 0.21447
#
# Static dielectric constant tensor:
#      x y z
#    x 2.000660 0.000000 0.031360 
#    y 0.000000 1.932140 0.000000 
#    z 0.031360 0.000000 1.936480 
# 
# From -- ./inp_files/54704.got.cif
#   From: 2010.05.17/outbox.cif.g08.bks.cpg/sg13_28_cif.got.tgz:54704.got - 2010.06.03 16:44:36.
