data_PCOD9231744
_publ_section_title
;
Structure prediction by ZEFSAII (Michael W. Deem and Ramdas Pophale) SiO2 
 PCOD9231744
Probable space group: P 2/C
;
_chemical_formula_sum "Si O2"
_cell_formula_units_Z 28
_cell_length_a 5.299912
_cell_length_b 10.028901
_cell_length_c 29.990959
_cell_angle_alpha 90.000000
_cell_angle_beta 130.393417
_cell_angle_gamma 90.000000
_cell_volume 1214.077952
_symmetry_space_group_name_H-M "P 2/C"
_symmetry_group_IT_number 13
_symmetry_cell_setting 'monoclinic'
loop_
_space_group_symop_operation_xyz
x,y,z
-x,y,1/2-z
-x,-y,-z
x,-y,1/2+z
loop_
_atom_site_type_symbol
_atom_site_label
_atom_site_fract_x
_atom_site_fract_y
_atom_site_fract_z
Si Si1 0.462667 0.330495 0.363381
Si Si2 0.604714 0.472003 0.712142
Si Si3 0.717144 0.568721 0.097103
Si Si4 0.261110 0.234252 0.821631
Si Si5 0.564995 0.051078 0.375759
Si Si6 0.666456 0.099334 0.053167
Si Si7 0.825911 0.375754 0.029893
O O1 0.546113 0.396349 0.325723
O O2 0.256111 0.440529 0.366888
O O3 0.346854 0.182488 0.338897
O O4 0.800262 0.324990 0.430013
O O5 0.500000 0.451558 0.750000
O O6 0.492845 0.346066 0.670082
O O7 0.000000 0.486001 0.750000
O O8 0.834722 0.693937 0.141829
O O9 0.833959 0.507789 0.062408
O O10 0.344562 0.603891 0.037490
O O11 0.000000 0.222312 0.750000
O O12 0.416314 0.090695 0.845947
O O13 0.531628 0.064920 0.424920
O O14 0.937233 0.068185 0.399338
O O15 0.642147 0.253261 0.034420
O O16 0.500000 0.000000 0.000000
#
# Coordination Sequence:
#
# PCOD9231744 Si02
#       7
#     4   4   4   4   4   4   4
#     4  10  22  39  66  92 138 169 224 274 340 404
#     4  10  24  42  67  95 128 173 226 280 339 399
#     4  10  20  41  63  99 133 173 224 279 340 403
#     4  10  24  44  68  95 135 180 234 283 345 405
#     4  11  24  43  63  96 131 178 221 276 329 406
#     4  11  23  42  66  96 138 176 218 270 341 408
#     4  10  21  37  67  99 132 173 224 275 340 409
#
# _framework density 23.062768999999999
#
# number of rings (size 3 to 8) (size 9 to 14) (size 15 to 20)
#    0.000    1.714    1.429    1.714    6.000    4.000 
#   12.857    0.714    0.000    0.000    0.000    0.000 
#    0.000    0.000    0.000    0.000    0.000    0.000 
#
# Total GULP energy -155942.496388 kJ/mol
# GULP energy per Si atom -5569.374871 kJ/mol
# Density = 2.301028 g / cm^3
# Si number density = 23.062769 Si / 1000 Ang^3
#
#
#
# Elastic Constant Matrix: (Units=GPa)
#
#
# Indices 1 2 3 4 5 6 
#
# 1 63.4723 -1.8910 27.9247 0.0000 -6.8043 0.0000
# 2 -1.8910 176.1605 55.0100 0.0000 -4.4264 0.0000
# 3 27.9247 55.0100 99.0565 0.0000 -11.0109 0.0000
# 4 0.0000 0.0000 0.0000 12.2463 0.0000 2.0952
# 5 -6.8043 -4.4264 -11.0109 0.0000 34.8634 0.0000
# 6 0.0000 0.0000 0.0000 2.0952 0.0000 10.8567
#
#
#
# Elastic Compliance Matrix: (Units=1/GPa)
#
#
# Indices 1 2 3 4 5 6 
#
# 1 0.018812 0.002225 -0.006321 0.000000 0.001958 0.000000
# 2 0.002225 0.007135 -0.004602 0.000000 -0.000113 0.000000
# 3 -0.006321 -0.004602 0.014749 0.000000 0.002840 0.000000
# 4 0.000000 0.000000 0.000000 0.084445 0.000000 -0.016297
# 5 0.001958 -0.000113 0.002840 0.000000 0.029948 0.000000
# 6 0.000000 0.000000 0.000000 -0.016297 0.000000 0.095254
#
#
# Mechanical properties :
#
#
# Convention : Reuss Voigt Hill
#
# Bulk Modulus (GPa) = 42.92042 55.64185 49.28113
# Shear Modulus (GPa) = 18.14843 28.76967 23.45905
#
# Velocity S-wave (km/s) = 2.80824 3.53576 3.19279
# Velocity P-wave (km/s) = 5.40052 6.39120 5.91663
#
# Compressibility (1/GPa) = 0.02329893
#
# Stress axis : x y z
#
# Youngs Moduli (GPa) = 53.15720 140.15827 67.80261
#
# Poissons Ratio (x) = -0.31187 0.42860
# Poissons Ratio (y) = -0.11828 0.31203
# Poissons Ratio (z) = 0.33603 0.64502
#
# Static dielectric constant tensor:
#      x y z
#    x 2.008710 0.000000 0.016650 
#    y 0.000000 1.937800 0.000000 
#    z 0.016650 0.000000 1.933100 
# 
# From -- ./inp_files/95122.got.cif
#   From: 2010.05.17/outbox.cif.g08.bks.cpg/sg13_48_cif.got.tgz:95122.got - 2010.06.03 16:44:36.
