data_PCOD9231013
_publ_section_title
;
Structure prediction by ZEFSAII (Michael W. Deem and Ramdas Pophale) SiO2 
 PCOD9231013
Probable space group: P 2/C
;
_chemical_formula_sum "Si O2"
_cell_formula_units_Z 18
_cell_length_a 6.196732
_cell_length_b 12.275065
_cell_length_c 9.970799
_cell_angle_alpha 90.000000
_cell_angle_beta 106.564115
_cell_angle_gamma 90.000000
_cell_volume 726.957781
_symmetry_space_group_name_H-M "P 2/C"
_symmetry_group_IT_number 13
_symmetry_cell_setting 'monoclinic'
loop_
_space_group_symop_operation_xyz
x,y,z
-x,y,1/2-z
-x,-y,-z
x,-y,1/2+z
loop_
_atom_site_type_symbol
_atom_site_label
_atom_site_fract_x
_atom_site_fract_y
_atom_site_fract_z
Si Si1 0.687822 0.066989 0.899368
Si Si2 0.928170 0.659974 0.886142
Si Si3 0.352979 0.175851 0.005093
Si Si4 0.349793 0.447344 0.597147
Si Si5 0.000000 0.823783 0.250000
O O1 0.500000 0.057196 0.750000
O O2 0.603712 0.154254 0.994851
O O3 0.899167 0.107150 0.853952
O O4 0.706443 0.949090 0.968312
O O5 0.795860 0.546575 0.869568
O O6 0.000000 0.686249 0.750000
O O7 0.741294 0.748917 0.895714
O O8 0.158344 0.637963 0.012326
O O9 0.214537 0.229927 0.856191
O O10 0.500000 0.408303 0.750000
O O11 0.500000 0.500000 0.500000
#
# Coordination Sequence:
#
# PCOD9231013 Si02
#       5
#     4   4   4   4   2
#     4   9  20  40  63  95 138 183 227 294 363 417
#     4  11  25  44  72 108 141 187 251 294 366 447
#     4  10  22  39  63  98 137 176 235 294 350 432
#     4  11  24  47  73 102 148 193 234 310 379 433
#     4  10  20  38  62  90 132 184 226 278 360 424
#
# _framework density 24.760724
#
# number of rings (size 3 to 8) (size 9 to 14) (size 15 to 20)
#    0.000    1.778    2.222    0.667    1.556    4.444 
#    0.000    2.222    0.000    0.000    0.000    0.000 
#    0.000    0.000    0.000    0.000    0.000    0.000 
#
# Total GULP energy -100427.098469 kJ/mol
# GULP energy per Si atom -5579.283248 kJ/mol
# Density = 2.470437 g / cm^3
# Si number density = 24.760724 Si / 1000 Ang^3
#
#
#
# Elastic Constant Matrix: (Units=GPa)
#
#
# Indices 1 2 3 4 5 6 
#
# 1 142.0219 70.0066 70.9040 0.0000 -27.9892 0.0000
# 2 70.0066 115.0323 33.1200 0.0000 -24.1801 0.0000
# 3 70.9040 33.1200 116.4247 0.0000 -9.4072 0.0000
# 4 0.0000 0.0000 0.0000 15.7091 0.0000 13.7683
# 5 -27.9892 -24.1801 -9.4072 0.0000 59.0267 0.0000
# 6 0.0000 0.0000 0.0000 13.7683 0.0000 -219.4718
#
#
#
# Elastic Compliance Matrix: (Units=1/GPa)
#
#
# Indices 1 2 3 4 5 6 
#
# 1 0.013774 -0.005869 -0.006469 0.000000 0.003096 0.000000
# 2 -0.005869 0.012739 0.000149 0.000000 0.002459 0.000000
# 3 -0.006469 0.000149 0.012403 0.000000 -0.001029 0.000000
# 4 0.000000 0.000000 0.000000 0.060340 0.000000 0.003785
# 5 0.003096 0.002459 -0.001029 0.000000 0.019253 0.000000
# 6 0.000000 0.000000 0.000000 0.003785 0.000000 -0.004319
#
#
# Mechanical properties :
#
#
# Convention : Reuss Voigt Hill
#
# Bulk Modulus (GPa) = 68.78209 80.17113 74.47661
# Shear Modulus (GPa) = 34.86418 -15.65065 9.60676
#
# Velocity S-wave (km/s) = 3.75646 -2.51684 1.97187
# Velocity P-wave (km/s) = 6.83035 4.89925 5.94375
#
# Compressibility (1/GPa) = 0.01453867
#
# Stress axis : x y z
#
# Youngs Moduli (GPa) = 72.60089 78.49814 80.62500
#
# Poissons Ratio (x) = 0.46073 0.52153
# Poissons Ratio (y) = 0.42612 -0.01203
# Poissons Ratio (z) = 0.46963 -0.01171
#
# Static dielectric constant tensor:
#      x y z
#    x 2.151070 0.000000 0.088040 
#    y 0.000000 1.929130 0.000000 
#    z 0.088040 0.000000 2.056780 
# 
# From -- ./inp_files/25860.got.cif
#   From: 2010.05.17/outbox.cif.g08.bks.cpg/sg13_13_cif.got.tgz:25860.got - 2010.06.03 16:44:36.
