data_PCOD9231455
_publ_section_title
;
Structure prediction by ZEFSAII (Michael W. Deem and Ramdas Pophale) SiO2 
 PCOD9231455
Probable space group: P 2/C
;
_chemical_formula_sum "Si O2"
_cell_formula_units_Z 32
_cell_length_a 11.162166
_cell_length_b 15.249501
_cell_length_c 17.478010
_cell_angle_alpha 90.000000
_cell_angle_beta 147.376768
_cell_angle_gamma 90.000000
_cell_volume 1603.892886
_symmetry_space_group_name_H-M "P 2/C"
_symmetry_group_IT_number 13
_symmetry_cell_setting 'monoclinic'
loop_
_space_group_symop_operation_xyz
x,y,z
-x,y,1/2-z
-x,-y,-z
x,-y,1/2+z
loop_
_atom_site_type_symbol
_atom_site_label
_atom_site_fract_x
_atom_site_fract_y
_atom_site_fract_z
Si Si1 0.041152 0.251102 0.036758
Si Si2 0.573780 0.989044 0.402121
Si Si3 0.524627 0.180445 0.154409
Si Si4 0.683454 0.360733 0.415563
Si Si5 0.178547 0.074917 0.609636
Si Si6 0.264455 0.133399 0.394137
Si Si7 0.733742 0.506132 0.573760
Si Si8 0.830948 0.301109 0.086245
O O1 0.275423 0.202113 0.180119
O O2 0.095317 0.332685 0.011413
O O3 0.950776 0.283845 0.069987
O O4 0.894822 0.174785 0.921116
O O5 0.690509 0.930918 0.400065
O O6 0.318839 0.962325 0.255401
O O7 0.656936 0.956953 0.527582
O O8 0.604827 0.090672 0.397993
O O9 0.389499 0.270561 0.081019
O O10 0.637550 0.156885 0.134753
O O11 0.500000 0.381011 0.250000
O O12 0.710514 0.435173 0.493392
O O13 0.000000 0.000000 0.500000
O O14 0.321313 0.216694 0.478780
O O15 0.000000 0.126741 0.250000
O O16 0.500000 0.500000 0.500000
O O17 0.723397 0.603812 0.532943
O O18 0.000000 0.497645 0.750000
O O19 0.000000 0.301877 0.250000
#
# Coordination Sequence:
#
# PCOD9231455 Si02
#       8
#     4   4   4   4   4   4   4   4
#     4  11  20  40  64  92 132 179 221 277 335 409
#     4  11  23  34  57  92 121 174 224 269 330 396
#     4  11  20  38  62  88 128 175 221 273 336 404
#     4  10  25  43  69 103 137 175 232 284 348 425
#     4  11  21  36  56  83 130 171 217 270 323 392
#     4  11  20  38  60  87 123 166 228 270 325 411
#     4  11  26  50  77 107 140 183 230 287 362 428
#     4  10  20  39  71  92 125 178 221 269 343 421
#
# _framework density 19.951457999999999
#
# number of rings (size 3 to 8) (size 9 to 14) (size 15 to 20)
#    0.000    1.250    5.000    1.875    8.750    0.500 
#    4.500    0.625    0.000    0.000    0.000    0.000 
#    0.000    0.000    0.000    0.000    0.000    0.000 
#
# Total GULP energy -178228.529288 kJ/mol
# GULP energy per Si atom -5569.641540 kJ/mol
# Density = 1.990605 g / cm^3
# Si number density = 19.951458 Si / 1000 Ang^3
#
#
#
# Elastic Constant Matrix: (Units=GPa)
#
#
# Indices 1 2 3 4 5 6 
#
# 1 103.2523 32.7651 20.8010 0.0000 -7.5635 0.0000
# 2 32.7651 136.3545 39.7800 0.0000 -9.2542 0.0000
# 3 20.8010 39.7800 60.7131 0.0000 -2.3941 0.0000
# 4 0.0000 0.0000 0.0000 34.2204 0.0000 -10.3068
# 5 -7.5635 -9.2542 -2.3941 0.0000 20.7383 0.0000
# 6 0.0000 0.0000 0.0000 -10.3068 0.0000 47.5478
#
#
#
# Elastic Compliance Matrix: (Units=1/GPa)
#
#
# Indices 1 2 3 4 5 6 
#
# 1 0.010947 -0.001694 -0.002524 0.000000 0.002945 0.000000
# 2 -0.001694 0.009571 -0.005572 0.000000 0.003010 0.000000
# 3 -0.002524 -0.005572 0.020947 0.000000 -0.000989 0.000000
# 4 0.000000 0.000000 0.000000 0.031263 0.000000 0.006777
# 5 0.002945 0.003010 -0.000989 0.000000 0.050523 0.000000
# 6 0.000000 0.000000 0.000000 0.006777 0.000000 0.022500
#
#
# Mechanical properties :
#
#
# Convention : Reuss Voigt Hill
#
# Bulk Modulus (GPa) = 45.69427 54.11243 49.90335
# Shear Modulus (GPa) = 28.96414 34.29955 31.63185
#
# Velocity S-wave (km/s) = 3.81429 4.15076 3.98608
# Velocity P-wave (km/s) = 6.50775 7.08186 6.80087
#
# Compressibility (1/GPa) = 0.02188458
#
# Stress axis : x y z
#
# Youngs Moduli (GPa) = 91.35002 104.48596 47.73847
#
# Poissons Ratio (x) = 0.17701 0.12051
# Poissons Ratio (y) = 0.15476 0.26598
# Poissons Ratio (z) = 0.23060 0.58217
#
# Static dielectric constant tensor:
#      x y z
#    x 1.782500 0.000000 0.022980 
#    y 0.000000 1.724030 0.000000 
#    z 0.022980 0.000000 1.746090 
# 
# From -- ./inp_files/66932.got.cif
#   From: 2010.05.17/outbox.cif.g08.bks.cpg/sg13_34_cif.got.tgz:66932.got - 2010.06.03 16:44:36.
