data_PCOD9231830
_publ_section_title
;
Structure prediction by ZEFSAII (Michael W. Deem and Ramdas Pophale) SiO2 
 PCOD9231830
Probable space group: P 2/C
;
_chemical_formula_sum "Si O2"
_cell_formula_units_Z 26
_cell_length_a 12.391286
_cell_length_b 7.866176
_cell_length_c 14.804142
_cell_angle_alpha 90.000000
_cell_angle_beta 57.295500
_cell_angle_gamma 90.000000
_cell_volume 1214.230303
_symmetry_space_group_name_H-M "P 2/C"
_symmetry_group_IT_number 13
_symmetry_cell_setting 'monoclinic'
loop_
_space_group_symop_operation_xyz
x,y,z
-x,y,1/2-z
-x,-y,-z
x,-y,1/2+z
loop_
_atom_site_type_symbol
_atom_site_label
_atom_site_fract_x
_atom_site_fract_y
_atom_site_fract_z
Si Si1 0.459784 0.235341 0.503926
Si Si2 0.943660 0.474838 0.424414
Si Si3 0.668943 0.577139 0.993608
Si Si4 0.000000 0.756092 0.250000
Si Si5 0.215720 0.579647 0.759608
Si Si6 0.759883 0.181869 0.762552
Si Si7 0.386266 0.120935 0.232003
O O1 0.410851 0.401010 0.469116
O O2 0.555488 0.285181 0.543341
O O3 0.331134 0.175783 0.608815
O O4 0.540931 0.125925 0.397679
O O5 0.796820 0.411064 0.495660
O O6 0.936851 0.634272 0.356322
O O7 0.000000 0.500000 0.500000
O O8 0.065181 0.373400 0.327736
O O9 0.727272 0.593229 0.866377
O O10 0.898416 0.861823 0.239520
O O11 0.231399 0.378275 0.774118
O O12 0.298713 0.710464 0.780031
O O13 0.703352 0.044254 0.720820
O O14 0.500000 0.118974 0.250000
#
# Coordination Sequence:
#
# PCOD9231830 Si02
#       7
#     4   4   4   2   4   4   4
#     4   9  18  35  61  80 114 161 196 238 301 350
#     4  11  19  33  63  92 118 161 201 249 300 354
#     4   9  16  34  59  89 113 153 202 240 296 366
#     4  10  20  42  60  82 130 158 200 254 294 362
#     4   9  20  39  61  84 120 159 198 245 304 349
#     4  10  20  42  63  83 117 166 198 239 308 354
#     4  11  24  37  58  93 122 151 201 255 297 357
#
# _framework density 21.412742000000001
#
# number of rings (size 3 to 8) (size 9 to 14) (size 15 to 20)
#    0.000    2.154    4.615    1.385    2.154    0.615 
#   11.077    0.000    0.000    4.615    0.000    0.000 
#    0.000    0.000    0.000    0.000    0.000    0.000 
#
# Total GULP energy -144747.580656 kJ/mol
# GULP energy per Si atom -5567.214641 kJ/mol
# Density = 2.136401 g / cm^3
# Si number density = 21.412742 Si / 1000 Ang^3
#
#
#
# Elastic Constant Matrix: (Units=GPa)
#
#
# Indices 1 2 3 4 5 6 
#
# 1 197.8207 53.2047 -5.3365 0.0000 -9.6778 0.0000
# 2 53.2047 67.2079 -9.0522 0.0000 3.9946 0.0000
# 3 -5.3365 -9.0522 32.3158 0.0000 -6.0346 0.0000
# 4 0.0000 0.0000 0.0000 1.2989 0.0000 -0.2576
# 5 -9.6778 3.9946 -6.0346 0.0000 38.8956 0.0000
# 6 0.0000 0.0000 0.0000 -0.2576 0.0000 28.7175
#
#
#
# Elastic Compliance Matrix: (Units=1/GPa)
#
#
# Indices 1 2 3 4 5 6 
#
# 1 0.006603 -0.005358 -0.000001 0.000000 0.002193 0.000000
# 2 -0.005358 0.019844 0.004165 0.000000 -0.002725 0.000000
# 3 -0.000001 0.004165 0.032987 0.000000 0.004690 0.000000
# 4 0.000000 0.000000 0.000000 0.771246 0.000000 0.006918
# 5 0.002193 -0.002725 0.004690 0.000000 0.027263 0.000000
# 6 0.000000 0.000000 0.000000 0.006918 0.000000 0.034884
#
#
# Mechanical properties :
#
#
# Convention : Reuss Voigt Hill
#
# Bulk Modulus (GPa) = 17.52964 41.66403 29.59683
# Shear Modulus (GPa) = 5.46908 31.01764 18.24336
#
# Velocity S-wave (km/s) = 1.59990 3.81012 2.92205
# Velocity P-wave (km/s) = 3.40840 6.23345 5.02360
#
# Compressibility (1/GPa) = 0.05704624
#
# Stress axis : x y z
#
# Youngs Moduli (GPa) = 151.43682 50.39367 30.31502
#
# Poissons Ratio (x) = 0.27001 0.00003
# Poissons Ratio (y) = 0.81140 -0.12626
# Poissons Ratio (z) = 0.00013 -0.20989
#
# Static dielectric constant tensor:
#      x y z
#    x 1.849350 0.000000 -0.047080 
#    y 0.000000 1.851710 0.000000 
#    z -0.047080 0.000000 1.848250 
# 
# From -- ./inp_files/49907.got.cif
#   From: 2010.05.17/outbox.cif.g08.bks.cpg/sg13_25_cif.got.tgz:49907.got - 2010.06.03 16:44:36.
