data_PCOD9231301
_publ_section_title
;
Structure prediction by ZEFSAII (Michael W. Deem and Ramdas Pophale) SiO2 
 PCOD9231301
Probable space group: P 2/C
;
_chemical_formula_sum "Si O2"
_cell_formula_units_Z 28
_cell_length_a 13.137520
_cell_length_b 8.980567
_cell_length_c 19.273203
_cell_angle_alpha 90.000000
_cell_angle_beta 147.980619
_cell_angle_gamma 90.000000
_cell_volume 1205.634759
_symmetry_space_group_name_H-M "P 2/C"
_symmetry_group_IT_number 13
_symmetry_cell_setting 'monoclinic'
loop_
_space_group_symop_operation_xyz
x,y,z
-x,y,1/2-z
-x,-y,-z
x,-y,1/2+z
loop_
_atom_site_type_symbol
_atom_site_label
_atom_site_fract_x
_atom_site_fract_y
_atom_site_fract_z
Si Si1 0.642547 0.790356 0.270378
Si Si2 0.570734 0.745999 0.980690
Si Si3 0.129178 0.562546 0.263202
Si Si4 0.261292 0.040674 0.279667
Si Si5 0.907505 0.134338 0.599792
Si Si6 0.669992 0.546904 0.751556
Si Si7 0.900419 0.784761 0.946146
O O1 0.500000 0.837314 0.250000
O O2 0.637004 0.899230 0.199932
O O3 0.598843 0.618664 0.226137
O O4 0.868575 0.782631 0.422386
O O5 0.502621 0.650095 0.874872
O O6 0.393918 0.849075 0.900206
O O7 0.674459 0.633552 0.092751
O O8 0.729073 0.862446 0.046506
O O9 0.186734 0.463289 0.231864
O O10 0.000000 0.493785 0.250000
O O11 0.005172 0.702847 0.165122
O O12 0.074353 0.981514 0.210075
O O13 0.183640 0.133290 0.168944
O O14 0.847582 0.126315 0.485099
O O15 0.793329 0.625276 0.883092
#
# Coordination Sequence:
#
# PCOD9231301 Si02
#       7
#     4   4   4   4   4   4   4
#     4  11  23  34  58  93 126 152 194 250 311 357
#     4  10  24  37  65  86 120 164 211 242 297 370
#     4  10  21  40  62  85 118 166 203 248 302 355
#     4  10  22  39  59  89 120 164 197 254 298 364
#     4  10  20  39  62  87 121 164 197 247 313 358
#     4  11  22  40  60  92 121 159 200 253 302 360
#     4  10  22  38  61  86 124 156 197 247 306 369
#
# _framework density 23.224281000000001
#
# number of rings (size 3 to 8) (size 9 to 14) (size 15 to 20)
#    0.000    1.714    2.857    2.571    6.000    2.857 
#    0.000    0.000    0.000    3.429    0.000    0.000 
#    0.000    0.000    0.000    0.000    0.000    0.000 
#
# Total GULP energy -156516.068708 kJ/mol
# GULP energy per Si atom -5589.859597 kJ/mol
# Density = 2.317142 g / cm^3
# Si number density = 23.224281 Si / 1000 Ang^3
#
#
#
# Elastic Constant Matrix: (Units=GPa)
#
#
# Indices 1 2 3 4 5 6 
#
# 1 30.9278 -15.1664 -9.6030 0.0000 -3.8391 0.0000
# 2 -15.1664 68.7062 17.3765 0.0000 7.6296 0.0000
# 3 -9.6030 17.3765 80.1400 0.0000 -9.4781 0.0000
# 4 0.0000 0.0000 0.0000 22.5983 0.0000 3.0346
# 5 -3.8391 7.6296 -9.4781 0.0000 17.9795 0.0000
# 6 0.0000 0.0000 0.0000 3.0346 0.0000 19.9391
#
#
#
# Elastic Compliance Matrix: (Units=1/GPa)
#
#
# Indices 1 2 3 4 5 6 
#
# 1 0.037668 0.006488 0.003981 0.000000 0.007388 0.000000
# 2 0.006488 0.017960 -0.004111 0.000000 -0.008403 0.000000
# 3 0.003981 -0.004111 0.015094 0.000000 0.010551 0.000000
# 4 0.000000 0.000000 0.000000 0.045174 0.000000 -0.006875
# 5 0.007388 -0.008403 0.010551 0.000000 0.066324 0.000000
# 6 0.000000 0.000000 0.000000 -0.006875 0.000000 0.051199
#
#
# Mechanical properties :
#
#
# Convention : Reuss Voigt Hill
#
# Bulk Modulus (GPa) = 11.98498 18.33203 15.15851
# Shear Modulus (GPa) = 20.11941 24.58118 22.35029
#
# Velocity S-wave (km/s) = 2.94651 3.25688 3.10557
# Velocity P-wave (km/s) = 4.09238 4.69613 4.40461
#
# Compressibility (1/GPa) = 0.08343776
#
# Stress axis : x y z
#
# Youngs Moduli (GPa) = 26.54778 55.68072 66.24996
#
# Poissons Ratio (x) = -0.36124 -0.26373
# Poissons Ratio (y) = -0.17223 0.27232
# Poissons Ratio (z) = -0.10568 0.22888
#
# Static dielectric constant tensor:
#      x y z
#    x 1.879700 0.000000 -0.005830 
#    y 0.000000 1.899850 0.000000 
#    z -0.005830 0.000000 1.891440 
# 
# From -- ./inp_files/80029.got.cif
#   From: 2010.05.17/outbox.cif.g08.bks.cpg/sg13_41_cif.got.tgz:80029.got - 2010.06.03 16:44:36.
