data_PCOD9231128
_publ_section_title
;
Structure prediction by ZEFSAII (Michael W. Deem and Ramdas Pophale) SiO2 
 PCOD9231128
Probable space group: P 2/C
;
_chemical_formula_sum "Si O2"
_cell_formula_units_Z 24
_cell_length_a 6.039783
_cell_length_b 17.111425
_cell_length_c 12.189869
_cell_angle_alpha 90.000000
_cell_angle_beta 68.402578
_cell_angle_gamma 90.000000
_cell_volume 1171.366628
_symmetry_space_group_name_H-M "P 2/C"
_symmetry_group_IT_number 13
_symmetry_cell_setting 'monoclinic'
loop_
_space_group_symop_operation_xyz
x,y,z
-x,y,1/2-z
-x,-y,-z
x,-y,1/2+z
loop_
_atom_site_type_symbol
_atom_site_label
_atom_site_fract_x
_atom_site_fract_y
_atom_site_fract_z
Si Si1 0.000000 0.567943 0.750000
Si Si2 0.451490 0.202581 0.549934
Si Si3 0.173344 0.089944 0.945918
Si Si4 0.000000 0.140498 0.750000
Si Si5 0.740810 0.497756 0.101040
Si Si6 0.336985 0.075180 0.386707
Si Si7 0.417178 0.622835 0.529470
O O1 0.190953 0.516747 0.784820
O O2 0.161674 0.618435 0.637899
O O3 0.680691 0.169159 0.570427
O O4 0.220092 0.191899 0.667667
O O5 0.420599 0.142036 0.454884
O O6 0.493216 0.290223 0.504471
O O7 0.074902 0.088128 0.839845
O O8 0.339171 0.014272 0.929607
O O9 0.949578 0.088518 0.069127
O O10 0.599227 0.425767 0.072595
O O11 0.612357 0.575632 0.079790
O O12 0.000000 0.500000 0.000000
O O13 0.500000 0.079478 0.250000
#
# Coordination Sequence:
#
# PCOD9231128 Si02
#       7
#     2   4   4   2   4   4   4
#     4  10  20  38  65  85 118 164 196 240 300 363
#     4  11  23  40  62  90 122 159 199 249 305 356
#     4  10  22  41  61  85 122 164 202 249 301 351
#     4  10  22  40  61  85 120 162 206 250 296 355
#     4   9  20  40  61  85 117 157 196 241 295 357
#     4  10  22  37  61  92 120 157 207 249 293 357
#     4  10  22  39  60  91 124 153 198 248 301 360
#
# _framework density 20.488889
#
# number of rings (size 3 to 8) (size 9 to 14) (size 15 to 20)
#    0.000    2.000    0.000    2.500    0.000   11.333 
#    0.000   20.000    0.000    1.000    0.000    0.000 
#    0.000    0.000    0.000    0.000    0.000    0.000 
#
# Total GULP energy -133917.516929 kJ/mol
# GULP energy per Si atom -5579.896539 kJ/mol
# Density = 2.044225 g / cm^3
# Si number density = 20.488889 Si / 1000 Ang^3
#
#
#
# Elastic Constant Matrix: (Units=GPa)
#
#
# Indices 1 2 3 4 5 6 
#
# 1 93.3401 50.6026 58.7246 0.0000 3.3020 0.0000
# 2 50.6026 150.5394 53.5653 0.0000 3.1252 0.0000
# 3 58.7246 53.5653 133.5837 0.0000 -28.8520 0.0000
# 4 0.0000 0.0000 0.0000 21.7421 0.0000 -7.9790
# 5 3.3020 3.1252 -28.8520 0.0000 42.3578 0.0000
# 6 0.0000 0.0000 0.0000 -7.9790 0.0000 14.9936
#
#
#
# Elastic Compliance Matrix: (Units=1/GPa)
#
#
# Indices 1 2 3 4 5 6 
#
# 1 0.017538 -0.002929 -0.007954 0.000000 -0.006569 0.000000
# 2 -0.002929 0.008614 -0.002643 0.000000 -0.002208 0.000000
# 3 -0.007954 -0.002643 0.014326 0.000000 0.010574 0.000000
# 4 0.000000 0.000000 0.000000 0.057156 0.000000 0.030416
# 5 -0.006569 -0.002208 0.010574 0.000000 0.031486 0.000000
# 6 0.000000 0.000000 0.000000 0.030416 0.000000 0.082881
#
#
# Mechanical properties :
#
#
# Convention : Reuss Voigt Hill
#
# Bulk Modulus (GPa) = 74.48548 78.13868 76.31208
# Shear Modulus (GPa) = 20.53147 30.12343 25.32745
#
# Velocity S-wave (km/s) = 3.16900 3.83852 3.51971
# Velocity P-wave (km/s) = 7.05855 7.60694 7.33787
#
# Compressibility (1/GPa) = 0.01342543
#
# Stress axis : x y z
#
# Youngs Moduli (GPa) = 57.01883 116.09572 69.80092
#
# Poissons Ratio (x) = 0.33999 0.55523
# Poissons Ratio (y) = 0.16698 0.18451
# Poissons Ratio (z) = 0.45355 0.30688
#
# Static dielectric constant tensor:
#      x y z
#    x 1.786380 0.000000 0.016940 
#    y 0.000000 1.685360 0.000000 
#    z 0.016940 0.000000 1.762890 
# 
# From -- ./inp_files/26502.got.cif
#   From: 2010.05.17/outbox.cif.g08.bks.cpg/sg13_14_cif.got.tgz:26502.got - 2010.06.03 16:44:36.
