data_PCOD9231442
_publ_section_title
;
Structure prediction by ZEFSAII (Michael W. Deem and Ramdas Pophale) SiO2 
 PCOD9231442
Probable space group: P 2/C
;
_chemical_formula_sum "Si O2"
_cell_formula_units_Z 20
_cell_length_a 10.551907
_cell_length_b 11.120090
_cell_length_c 10.599594
_cell_angle_alpha 90.000000
_cell_angle_beta 140.093262
_cell_angle_gamma 90.000000
_cell_volume 797.906721
_symmetry_space_group_name_H-M "P 2/C"
_symmetry_group_IT_number 13
_symmetry_cell_setting 'monoclinic'
loop_
_space_group_symop_operation_xyz
x,y,z
-x,y,1/2-z
-x,-y,-z
x,-y,1/2+z
loop_
_atom_site_type_symbol
_atom_site_label
_atom_site_fract_x
_atom_site_fract_y
_atom_site_fract_z
Si Si1 0.092176 0.234606 0.637919
Si Si2 0.366320 0.079318 0.994015
Si Si3 0.667371 0.726580 0.687405
Si Si4 0.128538 0.503094 0.225462
Si Si5 0.217114 0.145753 0.474126
O O1 0.164284 0.120745 0.771706
O O2 0.160677 0.354704 0.762962
O O3 0.206850 0.220526 0.593431
O O4 0.862980 0.241601 0.420577
O O5 0.305049 0.987368 0.057005
O O6 0.485566 0.201983 0.108142
O O7 0.500000 0.000000 0.000000
O O8 0.691802 0.585174 0.673856
O O9 0.673964 0.782847 0.552388
O O10 0.000000 0.461210 0.250000
O O11 0.000000 0.500000 0.000000
O O12 0.000000 0.133060 0.250000
#
# Coordination Sequence:
#
# PCOD9231442 Si02
#       5
#     4   4   4   4   4
#     4  10  21  39  62  87 125 168 208 263 325 380
#     4  10  22  37  58  90 122 163 218 260 312 385
#     4   9  19  37  62  93 124 160 211 266 321 384
#     4  10  20  39  68  97 129 170 216 267 327 393
#     4   9  19  37  60  86 124 169 210 261 323 382
#
# _framework density 25.065587000000001
#
# number of rings (size 3 to 8) (size 9 to 14) (size 15 to 20)
#    0.000    2.400    0.000    3.000    0.000   12.000 
#    0.000   10.000    0.000    9.600    0.000    0.000 
#    0.000    0.000    0.000    0.000    0.000    0.000 
#
# Total GULP energy -111695.362948 kJ/mol
# GULP energy per Si atom -5584.768147 kJ/mol
# Density = 2.500854 g / cm^3
# Si number density = 25.065587 Si / 1000 Ang^3
#
#
#
# Elastic Constant Matrix: (Units=GPa)
#
#
# Indices 1 2 3 4 5 6 
#
# 1 89.9279 27.2066 28.4676 0.0000 -17.2076 0.0000
# 2 27.2066 122.9343 30.4772 0.0000 7.4143 0.0000
# 3 28.4676 30.4772 96.4653 0.0000 8.5234 0.0000
# 4 0.0000 0.0000 0.0000 1131.8252 0.0000 46.5915
# 5 -17.2076 7.4143 8.5234 0.0000 26.9114 0.0000
# 6 0.0000 0.0000 0.0000 46.5915 0.0000 47.4790
#
#
#
# Elastic Compliance Matrix: (Units=1/GPa)
#
#
# Indices 1 2 3 4 5 6 
#
# 1 0.016015 -0.003101 -0.004863 0.000000 0.012635 0.000000
# 2 -0.003101 0.009493 -0.001726 0.000000 -0.004051 0.000000
# 3 -0.004863 -0.001726 0.012942 0.000000 -0.006733 0.000000
# 4 0.000000 0.000000 0.000000 0.000921 0.000000 -0.000904
# 5 0.012635 -0.004051 -0.006733 0.000000 0.048487 0.000000
# 6 0.000000 0.000000 0.000000 -0.000904 0.000000 0.021949
#
#
# Mechanical properties :
#
#
# Convention : Reuss Voigt Hill
#
# Bulk Modulus (GPa) = 52.43790 53.51449 52.97620
# Shear Modulus (GPa) = 36.88886 256.12152 146.50519
#
# Velocity S-wave (km/s) = 3.84043 10.11941 7.65347
# Velocity P-wave (km/s) = 6.37423 12.56712 9.96402
#
# Compressibility (1/GPa) = 0.01907018
#
# Stress axis : x y z
#
# Youngs Moduli (GPa) = 62.44066 105.34140 77.26922
#
# Poissons Ratio (x) = 0.32664 0.37576
# Poissons Ratio (y) = 0.19361 0.13338
# Poissons Ratio (z) = 0.30364 0.18184
#
# Static dielectric constant tensor:
#      x y z
#    x 2.414450 0.000000 0.120980 
#    y 0.000000 2.051830 0.000000 
#    z 0.120980 0.000000 2.091430 
# 
# From -- ./inp_files/34013.got.cif
#   From: 2010.05.17/outbox.cif.g08.bks.cpg/sg13_18_cif.got.tgz:34013.got - 2010.06.03 16:44:36.
