data_PCOD9231683
_publ_section_title
;
Structure prediction by ZEFSAII (Michael W. Deem and Ramdas Pophale) SiO2 
 PCOD9231683
Probable space group: P 2/C
;
_chemical_formula_sum "Si O2"
_cell_formula_units_Z 22
_cell_length_a 11.644371
_cell_length_b 4.991151
_cell_length_c 23.753930
_cell_angle_alpha 90.000000
_cell_angle_beta 139.460823
_cell_angle_gamma 90.000000
_cell_volume 897.313253
_symmetry_space_group_name_H-M "P 2/C"
_symmetry_group_IT_number 13
_symmetry_cell_setting 'monoclinic'
loop_
_space_group_symop_operation_xyz
x,y,z
-x,y,1/2-z
-x,-y,-z
x,-y,1/2+z
loop_
_atom_site_type_symbol
_atom_site_label
_atom_site_fract_x
_atom_site_fract_y
_atom_site_fract_z
Si Si1 0.105857 0.284369 0.577934
Si Si2 0.314020 0.837689 0.929770
Si Si3 0.433527 0.311293 0.362935
Si Si4 0.261403 0.228127 0.753456
Si Si5 0.766933 0.050953 0.980615
Si Si6 0.000000 0.840846 0.250000
O O1 0.207130 0.342382 0.672850
O O2 0.000000 0.500000 0.500000
O O3 0.963355 0.071554 0.548857
O O4 0.246071 0.168745 0.586327
O O5 0.361600 0.627449 0.899182
O O6 0.150547 0.996438 0.840513
O O7 0.500000 0.000000 0.000000
O O8 0.256219 0.771548 0.971697
O O9 0.428273 0.595308 0.332213
O O10 0.625933 0.183803 0.435964
O O11 0.312763 0.083092 0.285838
O O12 0.105637 0.304109 0.739440
#
# Coordination Sequence:
#
# PCOD9231683 Si02
#       6
#     4   4   4   4   4   2
#     4  11  26  42  69  98 137 195 230 282 349 427
#     4   9  19  42  71 102 139 181 234 294 358 418
#     4  10  25  45  72 105 137 180 232 297 355 413
#     4  11  25  45  69 106 136 183 235 285 358 418
#     4  10  23  47  66 100 143 181 237 289 352 423
#     4  10  20  40  70 102 142 178 228 300 352 422
#
# _framework density 24.517637000000001
#
# number of rings (size 3 to 8) (size 9 to 14) (size 15 to 20)
#    0.000    1.818    1.818    0.000    7.636    5.091 
#    0.000    8.182    0.000    0.000    0.000    0.000 
#    0.000    0.000    0.000    0.000    0.000    0.000 
#
# Total GULP energy -122728.919262 kJ/mol
# GULP energy per Si atom -5578.587239 kJ/mol
# Density = 2.446183 g / cm^3
# Si number density = 24.517637 Si / 1000 Ang^3
#
#
#
# Elastic Constant Matrix: (Units=GPa)
#
#
# Indices 1 2 3 4 5 6 
#
# 1 205.9836 32.1657 58.9302 0.0000 -25.9961 0.0000
# 2 32.1657 55.0993 13.0128 0.0000 -8.9830 0.0000
# 3 58.9302 13.0128 119.3512 0.0000 -24.6030 0.0000
# 4 0.0000 0.0000 0.0000 31.7770 0.0000 -1.2612
# 5 -25.9961 -8.9830 -24.6030 0.0000 54.0008 0.0000
# 6 0.0000 0.0000 0.0000 -1.2612 0.0000 5.2990
#
#
#
# Elastic Compliance Matrix: (Units=1/GPa)
#
#
# Indices 1 2 3 4 5 6 
#
# 1 0.006169 -0.002795 -0.002455 0.000000 0.001386 0.000000
# 2 -0.002795 0.020181 -0.000448 0.000000 0.001808 0.000000
# 3 -0.002455 -0.000448 0.010353 0.000000 0.003460 0.000000
# 4 0.000000 0.000000 0.000000 0.031769 0.000000 0.007561
# 5 0.001386 0.001808 0.003460 0.000000 0.021063 0.000000
# 6 0.000000 0.000000 0.000000 0.007561 0.000000 0.190516
#
#
# Mechanical properties :
#
#
# Convention : Reuss Voigt Hill
#
# Bulk Modulus (GPa) = 39.51528 65.40573 52.46050
# Shear Modulus (GPa) = 16.67319 36.63704 26.65511
#
# Velocity S-wave (km/s) = 2.61060 3.86983 3.30082
# Velocity P-wave (km/s) = 5.02385 6.83391 5.99756
#
# Compressibility (1/GPa) = 0.02530667
#
# Stress axis : x y z
#
# Youngs Moduli (GPa) = 162.11099 49.55092 96.58945
#
# Poissons Ratio (x) = 0.13851 0.23716
# Poissons Ratio (y) = 0.45314 0.04323
# Poissons Ratio (z) = 0.39803 0.02218
#
# Static dielectric constant tensor:
#      x y z
#    x 1.952810 0.000000 0.009360 
#    y 0.000000 2.129320 0.000000 
#    z 0.009360 0.000000 2.046870 
# 
# From -- ./inp_files/65088.got.cif
#   From: 2010.05.17/outbox.cif.g08.bks.cpg/sg13_33_cif.got.tgz:65088.got - 2010.06.03 16:44:36.
