data_PCOD9231169
_publ_section_title
;
Structure prediction by ZEFSAII (Michael W. Deem and Ramdas Pophale) SiO2 
 PCOD9231169
Probable space group: P 2/C
;
_chemical_formula_sum "Si O2"
_cell_formula_units_Z 20
_cell_length_a 8.711241
_cell_length_b 6.807594
_cell_length_c 20.102225
_cell_angle_alpha 90.000000
_cell_angle_beta 124.994843
_cell_angle_gamma 90.000000
_cell_volume 976.584198
_symmetry_space_group_name_H-M "P 2/C"
_symmetry_group_IT_number 13
_symmetry_cell_setting 'monoclinic'
loop_
_space_group_symop_operation_xyz
x,y,z
-x,y,1/2-z
-x,-y,-z
x,-y,1/2+z
loop_
_atom_site_type_symbol
_atom_site_label
_atom_site_fract_x
_atom_site_fract_y
_atom_site_fract_z
Si Si1 0.182035 0.961032 0.445520
Si Si2 0.207380 0.950922 0.300345
Si Si3 0.611122 0.074838 0.872517
Si Si4 0.076188 0.607664 0.084852
Si Si5 0.177384 0.208774 0.166596
O O1 0.248653 0.996750 0.387195
O O2 0.330076 0.001445 0.539585
O O3 0.090867 0.744650 0.429064
O O4 0.008191 0.109736 0.411915
O O5 0.000000 0.852377 0.250000
O O6 0.396066 0.854249 0.318574
O O7 0.183165 0.133978 0.243889
O O8 0.657415 0.891732 0.835277
O O9 0.752264 0.247810 0.888388
O O10 0.152023 0.439036 0.152254
O O11 0.000000 0.500000 0.000000
#
# Coordination Sequence:
#
# PCOD9231169 Si02
#       5
#     4   4   4   4   4
#     4  10  20  38  66  93 129 161 206 262 316 379
#     4  10  23  41  57  85 133 171 201 255 324 362
#     4  11  20  38  67  92 123 168 216 256 308 385
#     4  11  19  38  71  98 117 156 216 265 314 371
#     4  10  20  40  63  93 126 161 210 259 313 380
#
# _framework density 20.479545999999999
#
# number of rings (size 3 to 8) (size 9 to 14) (size 15 to 20)
#    0.000    1.600    4.000    2.400    0.000    0.000 
#    0.000   32.000    0.000    0.000    0.000    0.000 
#    0.000    0.000    0.000    0.000    0.000    0.000 
#
# Total GULP energy -111551.821466 kJ/mol
# GULP energy per Si atom -5577.591073 kJ/mol
# Density = 2.043293 g / cm^3
# Si number density = 20.479546 Si / 1000 Ang^3
#
#
#
# Elastic Constant Matrix: (Units=GPa)
#
#
# Indices 1 2 3 4 5 6 
#
# 1 108.7587 22.7269 45.3769 0.0000 21.2717 0.0000
# 2 22.7269 104.2481 43.3573 0.0000 2.1641 0.0000
# 3 45.3769 43.3573 118.3548 0.0000 -18.2335 0.0000
# 4 0.0000 0.0000 0.0000 24.4247 0.0000 -5.2590
# 5 21.2717 2.1641 -18.2335 0.0000 36.4685 0.0000
# 6 0.0000 0.0000 0.0000 -5.2590 0.0000 6.2456
#
#
#
# Elastic Compliance Matrix: (Units=1/GPa)
#
#
# Indices 1 2 3 4 5 6 
#
# 1 0.014791 0.000227 -0.007676 0.000000 -0.012479 0.000000
# 2 0.000227 0.011626 -0.004846 0.000000 -0.003245 0.000000
# 3 -0.007676 -0.004846 0.015062 0.000000 0.012296 0.000000
# 4 0.000000 0.000000 0.000000 0.050009 0.000000 0.042109
# 5 -0.012479 -0.003245 0.012296 0.000000 0.041040 0.000000
# 6 0.000000 0.000000 0.000000 0.042109 0.000000 0.195570
#
#
# Mechanical properties :
#
#
# Convention : Reuss Voigt Hill
#
# Bulk Modulus (GPa) = 59.21403 61.58711 60.40057
# Shear Modulus (GPa) = 13.95415 28.08778 21.02097
#
# Velocity S-wave (km/s) = 2.61314 3.70740 3.20728
# Velocity P-wave (km/s) = 6.17099 6.96162 6.57820
#
# Compressibility (1/GPa) = 0.01688789
#
# Stress axis : x y z
#
# Youngs Moduli (GPa) = 67.61032 86.01552 66.39320
#
# Poissons Ratio (x) = -0.01954 0.50966
# Poissons Ratio (y) = -0.01536 0.32174
# Poissons Ratio (z) = 0.51900 0.41683
#
# Static dielectric constant tensor:
#      x y z
#    x 1.772560 0.000000 0.011570 
#    y 0.000000 1.696240 0.000000 
#    z 0.011570 0.000000 1.760960 
# 
# From -- ./inp_files/62467.got.cif
#   From: 2010.05.17/outbox.cif.g08.bks.cpg/sg13_32_cif.got.tgz:62467.got - 2010.06.03 16:44:36.
