data_PCOD9231245
_publ_section_title
;
Structure prediction by ZEFSAII (Michael W. Deem and Ramdas Pophale) SiO2 
 PCOD9231245
Probable space group: P 2/C
;
_chemical_formula_sum "Si O2"
_cell_formula_units_Z 22
_cell_length_a 10.608326
_cell_length_b 11.485655
_cell_length_c 9.202271
_cell_angle_alpha 90.000000
_cell_angle_beta 69.298474
_cell_angle_gamma 90.000000
_cell_volume 1048.844440
_symmetry_space_group_name_H-M "P 2/C"
_symmetry_group_IT_number 13
_symmetry_cell_setting 'monoclinic'
loop_
_space_group_symop_operation_xyz
x,y,z
-x,y,1/2-z
-x,-y,-z
x,-y,1/2+z
loop_
_atom_site_type_symbol
_atom_site_label
_atom_site_fract_x
_atom_site_fract_y
_atom_site_fract_z
Si Si1 0.971219 0.119302 0.930714
Si Si2 0.691213 0.589624 0.407958
Si Si3 0.238525 0.731291 0.845321
Si Si4 0.000000 0.629105 0.750000
Si Si5 0.160556 0.662871 0.426167
Si Si6 0.404540 0.674875 0.528265
O O1 0.000000 0.103004 0.750000
O O2 0.070484 0.223320 0.939361
O O3 0.821702 0.164872 0.033203
O O4 0.000000 0.000000 0.000000
O O5 0.733870 0.626995 0.552516
O O6 0.807818 0.606690 0.242022
O O7 0.561603 0.671722 0.428654
O O8 0.636539 0.458950 0.417423
O O9 0.120638 0.699933 0.778260
O O10 0.366050 0.747548 0.687779
O O11 0.081006 0.581720 0.575990
O O12 0.303068 0.700288 0.438356
#
# Coordination Sequence:
#
# PCOD9231245 Si02
#       6
#     4   4   4   2   4   4
#     4  11  24  41  66  87 110 154 202 253 317 370
#     4  11  20  37  62  90 122 167 212 228 283 359
#     4  10  20  39  58  89 124 152 201 251 294 353
#     4   8  20  34  52  78 116 158 182 242 302 332
#     4  10  20  39  58  89 124 152 201 251 294 353
#     4  10  22  36  61  90 124 169 198 240 287 351
#
# _framework density 20.975465
#
# number of rings (size 3 to 8) (size 9 to 14) (size 15 to 20)
#    0.000    1.818    1.818    2.182    7.636    2.909 
#    0.000   38.182    0.000    6.545    0.000    0.000 
#    0.000    0.000    0.000    0.000    0.000    0.000 
#
# Total GULP energy -122701.444272 kJ/mol
# GULP energy per Si atom -5577.338376 kJ/mol
# Density = 2.092772 g / cm^3
# Si number density = 20.975465 Si / 1000 Ang^3
#
#
#
# Elastic Constant Matrix: (Units=GPa)
#
#
# Indices 1 2 3 4 5 6 
#
# 1 63.6592 8.2827 28.9341 0.0000 -0.0876 0.0000
# 2 8.2827 57.2793 30.6568 0.0000 -7.3587 0.0000
# 3 28.9341 30.6568 169.6633 0.0000 -5.6650 0.0000
# 4 0.0000 0.0000 0.0000 23.0006 0.0000 12.7227
# 5 -0.0876 -7.3587 -5.6650 0.0000 39.1203 0.0000
# 6 0.0000 0.0000 0.0000 12.7227 0.0000 10.9621
#
#
#
# Elastic Compliance Matrix: (Units=1/GPa)
#
#
# Indices 1 2 3 4 5 6 
#
# 1 0.017093 -0.001078 -0.002739 0.000000 -0.000561 0.000000
# 2 -0.001078 0.019788 -0.003283 0.000000 0.003244 0.000000
# 3 -0.002739 -0.003283 0.006967 0.000000 0.000385 0.000000
# 4 0.000000 0.000000 0.000000 0.121438 0.000000 -0.140941
# 5 -0.000561 0.003244 0.000385 0.000000 0.026227 0.000000
# 6 0.000000 0.000000 0.000000 -0.140941 0.000000 0.254800
#
#
# Mechanical properties :
#
#
# Convention : Reuss Voigt Hill
#
# Bulk Modulus (GPa) = 33.72896 47.37211 40.55053
# Shear Modulus (GPa) = 10.62934 29.46516 20.04725
#
# Velocity S-wave (km/s) = 2.25356 3.75206 3.09487
# Velocity P-wave (km/s) = 4.78398 6.43460 5.66968
#
# Compressibility (1/GPa) = 0.02964811
#
# Stress axis : x y z
#
# Youngs Moduli (GPa) = 58.50333 50.53489 143.52794
#
# Poissons Ratio (x) = 0.05447 0.39312
# Poissons Ratio (y) = 0.06306 0.47127
# Poissons Ratio (z) = 0.16024 0.16593
#
# Static dielectric constant tensor:
#      x y z
#    x 1.802010 0.000000 -0.020570 
#    y 0.000000 1.738100 0.000000 
#    z -0.020570 0.000000 1.822140 
# 
# From -- ./inp_files/15770.got.cif
#   From: 2010.05.17/outbox.cif.g08.bks.cpg/sg13_8_cif.got.tgz:15770.got - 2010.06.03 16:44:36.
