data_PCOD9231912
_publ_section_title
;
Structure prediction by ZEFSAII (Michael W. Deem and Ramdas Pophale) SiO2 
 PCOD9231912
Probable space group: P 2/C
;
_chemical_formula_sum "Si O2"
_cell_formula_units_Z 28
_cell_length_a 9.696114
_cell_length_b 25.272475
_cell_length_c 8.860014
_cell_angle_alpha 90.000000
_cell_angle_beta 41.572998
_cell_angle_gamma 90.000000
_cell_volume 1440.685136
_symmetry_space_group_name_H-M "P 2/C"
_symmetry_group_IT_number 13
_symmetry_cell_setting 'monoclinic'
loop_
_space_group_symop_operation_xyz
x,y,z
-x,y,1/2-z
-x,-y,-z
x,-y,1/2+z
loop_
_atom_site_type_symbol
_atom_site_label
_atom_site_fract_x
_atom_site_fract_y
_atom_site_fract_z
Si Si1 0.499563 0.651550 0.928497
Si Si2 0.031293 0.660308 0.888236
Si Si3 0.826261 0.846435 0.267328
Si Si4 0.500000 0.095981 0.250000
Si Si5 0.792665 0.568770 0.198834
Si Si6 0.683556 0.741233 0.226184
Si Si7 0.000000 0.512349 0.750000
Si Si8 0.929845 0.946358 0.480613
O O1 0.500000 0.640601 0.750000
O O2 0.730025 0.667983 0.782797
O O3 0.420107 0.600170 0.088411
O O4 0.373536 0.703244 0.085456
O O5 0.000000 0.635416 0.750000
O O6 0.953374 0.618009 0.074296
O O7 0.890455 0.712165 0.998737
O O8 0.632879 0.870047 0.521134
O O9 0.742323 0.799211 0.234427
O O10 0.000000 0.828842 0.250000
O O11 0.943088 0.893169 0.077857
O O12 0.318184 0.063059 0.314713
O O13 0.849871 0.524723 0.273060
O O14 0.845661 0.542083 0.994385
O O15 0.500000 0.739932 0.250000
O O16 0.000000 0.951469 0.250000
O O17 0.000000 0.000000 0.500000
#
# Coordination Sequence:
#
# PCOD9231912 Si02
#       8
#     4   4   4   2   4   4   2   4
#     4  11  25  41  67  96 123 173 215 253 314 394
#     4  11  22  43  65  87 130 165 203 261 314 377
#     4   9  21  38  61  89 127 167 211 259 316 383
#     4   8  18  38  60  82 126 168 204 256 316 372
#     4  10  22  41  66  93 129 164 213 252 324 374
#     4  11  24  41  61  96 128 161 212 264 326 376
#     4  10  20  42  68  96 130 166 204 274 310 376
#     4   9  19  38  59  89 121 165 214 257 311 372
#
# _framework density 19.435196999999999
#
# number of rings (size 3 to 8) (size 9 to 14) (size 15 to 20)
#    0.000    2.286    2.143    0.857    3.000    4.571 
#    3.857    7.857    0.000    0.000    0.000    0.000 
#    0.000    0.000    0.000    0.000    0.000    0.000 
#
# Total GULP energy -155917.703948 kJ/mol
# GULP energy per Si atom -5568.489427 kJ/mol
# Density = 1.939096 g / cm^3
# Si number density = 19.435197 Si / 1000 Ang^3
#
#
#
# Elastic Constant Matrix: (Units=GPa)
#
#
# Indices 1 2 3 4 5 6 
#
# 1 80.2159 64.7001 60.7060 0.0000 -9.3497 0.0000
# 2 64.7001 143.1200 59.7194 0.0000 -3.8021 0.0000
# 3 60.7060 59.7194 115.0497 0.0000 -21.9247 0.0000
# 4 0.0000 0.0000 0.0000 15.8067 0.0000 -0.5956
# 5 -9.3497 -3.8021 -21.9247 0.0000 33.2965 0.0000
# 6 0.0000 0.0000 0.0000 -0.5956 0.0000 33.3030
#
#
#
# Elastic Compliance Matrix: (Units=1/GPa)
#
#
# Indices 1 2 3 4 5 6 
#
# 1 0.026069 -0.007718 -0.009745 0.000000 0.000022 0.000000
# 2 -0.007718 0.011364 -0.002278 0.000000 -0.002369 0.000000
# 3 -0.009745 -0.002278 0.016518 0.000000 0.007880 0.000000
# 4 0.000000 0.000000 0.000000 0.063307 0.000000 0.001132
# 5 0.000022 -0.002369 0.007880 0.000000 0.034958 0.000000
# 6 0.000000 0.000000 0.000000 0.001132 0.000000 0.030048
#
#
# Mechanical properties :
#
#
# Convention : Reuss Voigt Hill
#
# Bulk Modulus (GPa) = 69.11252 78.73738 73.92495
# Shear Modulus (GPa) = 22.06857 26.69858 24.38358
#
# Velocity S-wave (km/s) = 3.37337 3.71040 3.54589
# Velocity P-wave (km/s) = 7.12815 7.67833 7.40835
#
# Compressibility (1/GPa) = 0.01446916
#
# Stress axis : x y z
#
# Youngs Moduli (GPa) = 38.35992 87.99909 60.54146
#
# Poissons Ratio (x) = 0.67919 0.58996
# Poissons Ratio (y) = 0.29607 0.13789
# Poissons Ratio (z) = 0.37380 0.20043
#
# Static dielectric constant tensor:
#      x y z
#    x 1.683150 0.000000 0.013450 
#    y 0.000000 1.717500 0.000000 
#    z 0.013450 0.000000 1.744180 
# 
# From -- ./inp_files/13935.got.cif
#   From: 2010.05.17/outbox.cif.g08.bks.cpg/sg13_7_cif.got.tgz:13935.got - 2010.06.03 16:44:36.
