data_PCOD9231412
_publ_section_title
;
Structure prediction by ZEFSAII (Michael W. Deem and Ramdas Pophale) SiO2 
 PCOD9231412
Probable space group: P 2/C
;
_chemical_formula_sum "Si O2"
_cell_formula_units_Z 22
_cell_length_a 22.374002
_cell_length_b 8.970035
_cell_length_c 14.724337
_cell_angle_alpha 90.000000
_cell_angle_beta 161.187246
_cell_angle_gamma 90.000000
_cell_volume 952.953063
_symmetry_space_group_name_H-M "P 2/C"
_symmetry_group_IT_number 13
_symmetry_cell_setting 'monoclinic'
loop_
_space_group_symop_operation_xyz
x,y,z
-x,y,1/2-z
-x,-y,-z
x,-y,1/2+z
loop_
_atom_site_type_symbol
_atom_site_label
_atom_site_fract_x
_atom_site_fract_y
_atom_site_fract_z
Si Si1 0.357385 0.692534 0.937720
Si Si2 0.000000 0.304490 0.250000
Si Si3 0.288091 0.634950 0.305920
Si Si4 0.600911 0.845446 0.675167
Si Si5 0.719699 0.143907 0.545270
Si Si6 0.762343 0.818434 0.567887
O O1 0.392707 0.517715 0.978635
O O2 0.288197 0.772791 0.748068
O O3 0.549162 0.783276 0.231715
O O4 0.217633 0.703688 0.820724
O O5 0.127492 0.397298 0.502070
O O6 0.116966 0.204536 0.347676
O O7 0.430172 0.739609 0.456706
O O8 0.220265 0.728213 0.297290
O O9 0.500000 0.000000 0.500000
O O10 0.726324 0.841662 0.945855
O O11 0.792111 0.976267 0.660165
O O12 0.500000 0.135327 0.250000
#
# Coordination Sequence:
#
# PCOD9231412 Si02
#       6
#     4   2   4   4   4   4
#     4  11  22  40  67 100 125 178 233 275 321 397
#     4  12  26  44  62  96 144 184 214 276 352 398
#     4  11  25  39  67  99 137 176 223 278 335 403
#     4  11  19  38  67 102 128 166 225 288 323 385
#     4  10  20  39  67 104 126 168 229 285 325 392
#     4  11  23  41  68  96 135 173 222 284 333 398
#
# _framework density 23.086133
#
# number of rings (size 3 to 8) (size 9 to 14) (size 15 to 20)
#    0.000    1.091    5.455    1.636    7.636    1.455 
#    0.000    0.000    0.000    3.273    0.000    0.000 
#    0.000    0.000    0.000    0.000    0.000    0.000 
#
# Total GULP energy -122659.631677 kJ/mol
# GULP energy per Si atom -5575.437803 kJ/mol
# Density = 2.303359 g / cm^3
# Si number density = 23.086133 Si / 1000 Ang^3
#
#
#
# Elastic Constant Matrix: (Units=GPa)
#
#
# Indices 1 2 3 4 5 6 
#
# 1 164.5980 45.4393 16.2028 0.0000 -20.3080 0.0000
# 2 45.4393 121.4043 9.8730 0.0000 -15.8482 0.0000
# 3 16.2028 9.8730 57.8857 0.0000 -9.9128 0.0000
# 4 0.0000 0.0000 0.0000 5.1877 0.0000 -20.6719
# 5 -20.3080 -15.8482 -9.9128 0.0000 37.7528 0.0000
# 6 0.0000 0.0000 0.0000 -20.6719 0.0000 -50.7777
#
#
#
# Elastic Compliance Matrix: (Units=1/GPa)
#
#
# Indices 1 2 3 4 5 6 
#
# 1 0.007127 -0.002234 -0.001171 0.000000 0.002588 0.000000
# 2 -0.002234 0.009460 -0.000538 0.000000 0.002628 0.000000
# 3 -0.001171 -0.000538 0.018375 0.000000 0.003969 0.000000
# 4 0.000000 0.000000 0.000000 0.073511 0.000000 -0.029927
# 5 0.002588 0.002628 0.003969 0.000000 0.030026 0.000000
# 6 0.000000 0.000000 0.000000 -0.029927 0.000000 -0.007510
#
#
# Mechanical properties :
#
#
# Convention : Reuss Voigt Hill
#
# Bulk Modulus (GPa) = 36.93364 54.10199 45.51782
# Shear Modulus (GPa) = 33.80676 16.59074 25.19875
#
# Velocity S-wave (km/s) = 3.83087 2.68366 3.30739
# Velocity P-wave (km/s) = 5.96660 5.75226 5.86041
#
# Compressibility (1/GPa) = 0.02707558
#
# Stress axis : x y z
#
# Youngs Moduli (GPa) = 140.31547 105.70779 54.42309
#
# Poissons Ratio (x) = 0.23619 0.06370
# Poissons Ratio (y) = 0.31351 0.02928
# Poissons Ratio (z) = 0.16424 0.05687
#
# Static dielectric constant tensor:
#      x y z
#    x 1.930720 0.000000 -0.053880 
#    y 0.000000 1.900490 0.000000 
#    z -0.053880 0.000000 1.961350 
# 
# From -- ./inp_files/58636.got.cif
#   From: 2010.05.17/outbox.cif.g08.bks.cpg/sg13_30_cif.got.tgz:58636.got - 2010.06.03 16:44:36.
