data_PCOD9231242
_publ_section_title
;
Structure prediction by ZEFSAII (Michael W. Deem and Ramdas Pophale) SiO2 
 PCOD9231242
Probable space group: P 2/C
;
_chemical_formula_sum "Si O2"
_cell_formula_units_Z 28
_cell_length_a 26.652432
_cell_length_b 8.637807
_cell_length_c 8.800134
_cell_angle_alpha 90.000000
_cell_angle_beta 141.831025
_cell_angle_gamma 90.000000
_cell_volume 1252.004799
_symmetry_space_group_name_H-M "P 2/C"
_symmetry_group_IT_number 13
_symmetry_cell_setting 'monoclinic'
loop_
_space_group_symop_operation_xyz
x,y,z
-x,y,1/2-z
-x,-y,-z
x,-y,1/2+z
loop_
_atom_site_type_symbol
_atom_site_label
_atom_site_fract_x
_atom_site_fract_y
_atom_site_fract_z
Si Si1 0.657767 0.168724 0.811567
Si Si2 0.474763 0.339290 0.865739
Si Si3 0.388800 0.843050 0.650268
Si Si4 0.222401 0.220205 0.849565
Si Si5 0.182703 0.059301 0.444063
Si Si6 0.923944 0.578476 0.453565
Si Si7 0.030994 0.760596 0.491244
O O1 0.619070 0.304430 0.819591
O O2 0.618016 0.167181 0.547696
O O3 0.633345 0.013623 0.843665
O O4 0.753674 0.161675 0.004254
O O5 0.500000 0.334268 0.750000
O O6 0.500000 0.500000 0.000000
O O7 0.526908 0.210374 0.079494
O O8 0.316198 0.739509 0.549280
O O9 0.199074 0.104815 0.656065
O O10 0.161511 0.362625 0.690722
O O11 0.207244 0.116166 0.962721
O O12 0.090215 0.105453 0.189208
O O13 0.918935 0.402289 0.385693
O O14 0.953426 0.707924 0.404001
O O15 0.000000 0.576050 0.750000
O O16 0.000000 0.796899 0.250000
#
# Coordination Sequence:
#
# PCOD9231242 Si02
#       7
#     4   4   4   4   4   4   4
#     4  10  21  40  64  88 120 159 196 245 292 353
#     4  12  25  42  63  92 123 155 196 240 291 350
#     4  10  21  40  63  90 120 157 199 239 297 351
#     4  10  22  38  60  87 117 152 192 245 289 344
#     4  10  22  39  58  87 119 150 196 240 292 343
#     4  10  20  39  58  78 115 154 198 242 294 345
#     4  10  22  37  56  83 112 157 199 242 293 352
#
# _framework density 22.364129999999999
#
# number of rings (size 3 to 8) (size 9 to 14) (size 15 to 20)
#    0.000    1.714    1.429    2.571    2.000    3.429 
#    0.000    0.000    0.000    0.000    0.000    0.000 
#    0.000    0.000    0.000    0.000    0.000    0.000 
#
# Total GULP energy -156430.742072 kJ/mol
# GULP energy per Si atom -5586.812217 kJ/mol
# Density = 2.231323 g / cm^3
# Si number density = 22.364130 Si / 1000 Ang^3
#
#
#
# Elastic Constant Matrix: (Units=GPa)
#
#
# Indices 1 2 3 4 5 6 
#
# 1 74.5719 12.4007 8.9319 0.0000 1.4022 0.0000
# 2 12.4007 35.7445 -12.5707 0.0000 12.9635 0.0000
# 3 8.9319 -12.5707 44.5249 0.0000 7.2082 0.0000
# 4 0.0000 0.0000 0.0000 23.2899 0.0000 6.5719
# 5 1.4022 12.9635 7.2082 0.0000 38.4703 0.0000
# 6 0.0000 0.0000 0.0000 6.5719 0.0000 24.7033
#
#
#
# Elastic Compliance Matrix: (Units=1/GPa)
#
#
# Indices 1 2 3 4 5 6 
#
# 1 0.015564 -0.008887 -0.006213 0.000000 0.003592 0.000000
# 2 -0.008887 0.043294 0.016826 0.000000 -0.017418 0.000000
# 3 -0.006213 0.016826 0.030255 0.000000 -0.011112 0.000000
# 4 0.000000 0.000000 0.000000 0.046422 0.000000 -0.012350
# 5 0.003592 -0.017418 -0.011112 0.000000 0.033814 0.000000
# 6 0.000000 0.000000 0.000000 -0.012350 0.000000 0.043766
#
#
# Mechanical properties :
#
#
# Convention : Reuss Voigt Hill
#
# Bulk Modulus (GPa) = 10.80329 19.15166 14.97747
# Shear Modulus (GPa) = 20.78839 27.03132 23.90985
#
# Velocity S-wave (km/s) = 3.05215 3.48040 3.27328
# Velocity P-wave (km/s) = 4.15475 4.97323 4.58230
#
# Compressibility (1/GPa) = 0.09256438
#
# Stress axis : x y z
#
# Youngs Moduli (GPa) = 64.24940 23.09807 33.05235
#
# Poissons Ratio (x) = 0.20528 0.20535
# Poissons Ratio (y) = 0.57099 -0.55613
# Poissons Ratio (z) = 0.39917 -0.38864
#
# Static dielectric constant tensor:
#      x y z
#    x 1.886300 0.000000 0.033360 
#    y 0.000000 1.833220 0.000000 
#    z 0.033360 0.000000 1.833710 
# 
# From -- ./inp_files/24613.got.cif
#   From: 2010.05.17/outbox.cif.g08.bks.cpg/sg13_13_cif.got.tgz:24613.got - 2010.06.03 16:44:36.
