data_PCOD9231869
_publ_section_title
;
Structure prediction by ZEFSAII (Michael W. Deem and Ramdas Pophale) SiO2 
 PCOD9231869
Probable space group: P 2/C
;
_chemical_formula_sum "Si O2"
_cell_formula_units_Z 30
_cell_length_a 12.203444
_cell_length_b 9.308601
_cell_length_c 14.483355
_cell_angle_alpha 90.000000
_cell_angle_beta 109.276287
_cell_angle_gamma 90.000000
_cell_volume 1553.028113
_symmetry_space_group_name_H-M "P 2/C"
_symmetry_group_IT_number 13
_symmetry_cell_setting 'monoclinic'
loop_
_space_group_symop_operation_xyz
x,y,z
-x,y,1/2-z
-x,-y,-z
x,-y,1/2+z
loop_
_atom_site_type_symbol
_atom_site_label
_atom_site_fract_x
_atom_site_fract_y
_atom_site_fract_z
Si Si1 0.562134 0.092554 0.593171
Si Si2 0.748662 0.811095 0.867207
Si Si3 0.491613 0.424910 0.898187
Si Si4 0.199357 0.904079 0.406930
Si Si5 0.960542 0.004750 0.881800
Si Si6 0.500000 0.067796 0.250000
Si Si7 0.114485 0.303050 0.736429
Si Si8 0.691939 0.510253 0.309779
O O1 0.548307 0.263055 0.588820
O O2 0.693487 0.039649 0.621196
O O3 0.500000 0.000000 0.500000
O O4 0.503649 0.039448 0.667621
O O5 0.855371 0.891637 0.845043
O O6 0.620188 0.847503 0.793318
O O7 0.748895 0.639506 0.857725
O O8 0.762346 0.866522 0.977575
O O9 0.397341 0.497295 0.802555
O O10 0.612115 0.430025 0.872367
O O11 0.500000 0.500000 0.000000
O O12 0.172481 0.757360 0.345665
O O13 0.087088 0.006618 0.368975
O O14 0.919590 0.161519 0.833913
O O15 0.000000 0.000000 0.000000
O O16 0.203184 0.391852 0.699053
O O17 0.000000 0.375785 0.750000
#
# Coordination Sequence:
#
# PCOD9231869 Si02
#       8
#     4   4   4   4   4   2   4   4
#     4  12  24  38  66  98 126 169 220 271 332 397
#     4  11  23  40  65  97 132 174 223 273 335 388
#     4  11  25  43  64  96 136 175 222 272 343 406
#     4  10  20  42  65  93 128 170 215 277 331 393
#     4   9  21  40  69  92 126 167 215 276 328 389
#     4  12  24  38  62  96 136 160 222 280 314 400
#     4  10  21  42  68  91 127 175 222 273 339 397
#     4  11  24  41  68  93 135 184 214 275 337 405
#
# _framework density 19.317101000000001
#
# number of rings (size 3 to 8) (size 9 to 14) (size 15 to 20)
#    0.000    1.333    2.667    3.200    3.733    0.000 
#    0.000    9.333    2.933    0.000    0.000    0.000 
#    0.000    0.000    0.000    0.000    0.000    0.000 
#
# Total GULP energy -167009.360750 kJ/mol
# GULP energy per Si atom -5566.978692 kJ/mol
# Density = 1.927313 g / cm^3
# Si number density = 19.317101 Si / 1000 Ang^3
#
#
#
# Elastic Constant Matrix: (Units=GPa)
#
#
# Indices 1 2 3 4 5 6 
#
# 1 139.4869 47.7757 -0.1833 0.0000 1.1777 0.0000
# 2 47.7757 61.4773 23.7262 0.0000 -0.6951 0.0000
# 3 -0.1833 23.7262 81.8465 0.0000 -9.8958 0.0000
# 4 0.0000 0.0000 0.0000 18.2655 0.0000 -1.6531
# 5 1.1777 -0.6951 -9.8958 0.0000 37.0381 0.0000
# 6 0.0000 0.0000 0.0000 -1.6531 0.0000 29.2756
#
#
#
# Elastic Compliance Matrix: (Units=1/GPa)
#
#
# Indices 1 2 3 4 5 6 
#
# 1 0.010249 -0.008986 0.002654 0.000000 0.000215 0.000000
# 2 -0.008986 0.026239 -0.007784 0.000000 -0.001301 0.000000
# 3 0.002654 -0.007784 0.014935 0.000000 0.003760 0.000000
# 4 0.000000 0.000000 0.000000 0.055029 0.000000 0.003107
# 5 0.000215 -0.001301 0.003760 0.000000 0.027972 0.000000
# 6 0.000000 0.000000 0.000000 0.003107 0.000000 0.034334
#
#
# Mechanical properties :
#
#
# Convention : Reuss Voigt Hill
#
# Bulk Modulus (GPa) = 43.12174 47.27200 45.19687
# Shear Modulus (GPa) = 24.42349 31.01531 27.71940
#
# Velocity S-wave (km/s) = 3.55962 4.01133 3.79221
# Velocity P-wave (km/s) = 6.26627 6.78078 6.52860
#
# Compressibility (1/GPa) = 0.02319016
#
# Stress axis : x y z
#
# Youngs Moduli (GPa) = 97.57293 38.11108 66.95698
#
# Poissons Ratio (x) = 0.34248 -0.17770
# Poissons Ratio (y) = 0.87683 0.52118
# Poissons Ratio (z) = -0.25895 0.29665
#
# Static dielectric constant tensor:
#      x y z
#    x 1.702200 0.000000 -0.010940 
#    y 0.000000 3.121350 0.000000 
#    z -0.010940 0.000000 1.668130 
# 
# From -- ./inp_files/50306.got.cif
#   From: 2010.05.17/outbox.cif.g08.bks.cpg/sg13_26_cif.got.tgz:50306.got - 2010.06.03 16:44:36.
