data_PCOD9231297
_publ_section_title
;
Structure prediction by ZEFSAII (Michael W. Deem and Ramdas Pophale) SiO2 
 PCOD9231297
Probable space group: P 2/C
;
_chemical_formula_sum "Si O2"
_cell_formula_units_Z 22
_cell_length_a 19.359059
_cell_length_b 6.406949
_cell_length_c 8.318665
_cell_angle_alpha 90.000000
_cell_angle_beta 74.936364
_cell_angle_gamma 90.000000
_cell_volume 996.330420
_symmetry_space_group_name_H-M "P 2/C"
_symmetry_group_IT_number 13
_symmetry_cell_setting 'monoclinic'
loop_
_space_group_symop_operation_xyz
x,y,z
-x,y,1/2-z
-x,-y,-z
x,-y,1/2+z
loop_
_atom_site_type_symbol
_atom_site_label
_atom_site_fract_x
_atom_site_fract_y
_atom_site_fract_z
Si Si1 0.726014 0.326500 0.864728
Si Si2 0.721587 0.068810 0.198439
Si Si3 0.397838 0.661738 0.576085
Si Si4 0.055173 0.427149 0.599336
Si Si5 0.154489 0.671498 0.764444
Si Si6 0.500000 0.407785 0.750000
O O1 0.659531 0.480898 0.930797
O O2 0.794848 0.468349 0.785824
O O3 0.717365 0.179268 0.713926
O O4 0.729895 0.183408 0.022196
O O5 0.649245 0.155153 0.321839
O O6 0.789663 0.139397 0.267031
O O7 0.450944 0.557461 0.671640
O O8 0.446734 0.721386 0.395363
O O9 0.093717 0.620639 0.668634
O O10 0.115802 0.313891 0.460586
O O11 0.000000 0.306878 0.750000
O O12 0.000000 0.500000 0.500000
#
# Coordination Sequence:
#
# PCOD9231297 Si02
#       6
#     4   4   4   4   4   2
#     4  11  24  38  61  90 118 152 199 245 289 345
#     4  11  24  38  61  90 118 153 198 245 291 341
#     4  10  22  42  62  85 120 151 199 239 298 346
#     4   9  18  34  62  89 112 157 197 234 290 349
#     4  10  20  39  62  86 118 154 197 241 292 342
#     4  10  20  40  66  80 114 164 188 242 294 356
#
# _framework density 22.081029000000001
#
# number of rings (size 3 to 8) (size 9 to 14) (size 15 to 20)
#    0.000    1.818    3.636    0.000    5.091    0.000 
#    0.000    5.455    0.000   21.818    0.000    0.000 
#    0.000    0.000    0.000    0.000    0.000    0.000 
#
# Total GULP energy -122719.601074 kJ/mol
# GULP energy per Si atom -5578.163685 kJ/mol
# Density = 2.203077 g / cm^3
# Si number density = 22.081029 Si / 1000 Ang^3
#
#
#
# Elastic Constant Matrix: (Units=GPa)
#
#
# Indices 1 2 3 4 5 6 
#
# 1 117.6328 11.3957 43.7933 0.0000 -13.3682 0.0000
# 2 11.3957 45.4534 14.3968 0.0000 -6.9487 0.0000
# 3 43.7933 14.3968 119.7850 0.0000 -37.6876 0.0000
# 4 0.0000 0.0000 0.0000 20.4584 0.0000 -0.8896
# 5 -13.3682 -6.9487 -37.6876 0.0000 47.7811 0.0000
# 6 0.0000 0.0000 0.0000 -0.8896 0.0000 8.9340
#
#
#
# Elastic Compliance Matrix: (Units=1/GPa)
#
#
# Indices 1 2 3 4 5 6 
#
# 1 0.009926 -0.001404 -0.003526 0.000000 -0.000208 0.000000
# 2 -0.001404 0.023155 -0.001774 0.000000 0.001575 0.000000
# 3 -0.003526 -0.001774 0.012581 0.000000 0.008679 0.000000
# 4 0.000000 0.000000 0.000000 0.049092 0.000000 0.004888
# 5 -0.000208 0.001575 0.008679 0.000000 0.027945 0.000000
# 6 0.000000 0.000000 0.000000 0.004888 0.000000 0.112418
#
#
# Mechanical properties :
#
#
# Convention : Reuss Voigt Hill
#
# Bulk Modulus (GPa) = 31.00254 46.89364 38.94809
# Shear Modulus (GPa) = 19.28440 29.65372 24.46906
#
# Velocity S-wave (km/s) = 2.95845 3.66860 3.33250
# Velocity P-wave (km/s) = 5.07353 6.26323 5.69951
#
# Compressibility (1/GPa) = 0.03225542
#
# Stress axis : x y z
#
# Youngs Moduli (GPa) = 100.74622 43.18674 79.48396
#
# Poissons Ratio (x) = 0.06062 0.28023
# Poissons Ratio (y) = 0.14141 0.14102
# Poissons Ratio (z) = 0.35519 0.07662
#
# Static dielectric constant tensor:
#      x y z
#    x 1.893750 0.000000 -0.206060 
#    y 0.000000 1.776780 0.000000 
#    z -0.206060 0.000000 2.586480 
# 
# From -- ./inp_files/22214.got.cif
#   From: 2010.05.17/outbox.cif.g08.bks.cpg/sg13_12_cif.got.tgz:22214.got - 2010.06.03 16:44:36.
