data_PCOD9231010
_publ_section_title
;
Structure prediction by ZEFSAII (Michael W. Deem and Ramdas Pophale) SiO2 
 PCOD9231010
Probable space group: P 2/C
;
_chemical_formula_sum "Si O2"
_cell_formula_units_Z 18
_cell_length_a 13.334850
_cell_length_b 6.168771
_cell_length_c 15.735208
_cell_angle_alpha 90.000000
_cell_angle_beta 32.223800
_cell_angle_gamma 90.000000
_cell_volume 690.195299
_symmetry_space_group_name_H-M "P 2/C"
_symmetry_group_IT_number 13
_symmetry_cell_setting 'monoclinic'
loop_
_space_group_symop_operation_xyz
x,y,z
-x,y,1/2-z
-x,-y,-z
x,-y,1/2+z
loop_
_atom_site_type_symbol
_atom_site_label
_atom_site_fract_x
_atom_site_fract_y
_atom_site_fract_z
Si Si1 0.409206 0.356240 0.140900
Si Si2 0.014920 0.267287 0.086253
Si Si3 0.651558 0.979150 0.209342
Si Si4 0.727157 0.634738 0.526084
Si Si5 0.000000 0.067418 0.750000
O O1 0.183101 0.367802 0.299715
O O2 0.428856 0.092835 0.147831
O O3 0.500000 0.500000 0.000000
O O4 0.529068 0.450418 0.133752
O O5 0.163186 0.166028 0.912099
O O6 0.134929 0.447932 0.047152
O O7 0.979276 0.082898 0.182455
O O8 0.500000 0.884916 0.250000
O O9 0.715371 0.189590 0.109085
O O10 0.822436 0.774160 0.382983
#
# Coordination Sequence:
#
# PCOD9231010 Si02
#       5
#     4   4   4   4   2
#     4  11  22  39  66  99 132 172 224 280 340 405
#     4  11  22  40  66  93 131 179 224 275 342 405
#     4   9  22  42  64  93 131 175 224 277 334 405
#     4  10  22  41  61  91 133 172 219 276 334 396
#     4  10  20  38  62  90 128 172 220 278 334 398
#
# _framework density 26.079575999999999
#
# number of rings (size 3 to 8) (size 9 to 14) (size 15 to 20)
#    0.000    1.778    0.000    4.000    0.000    4.444 
#    0.000   20.000    0.000    0.000    0.000    0.000 
#    0.000    0.000    0.000    0.000    0.000    0.000 
#
# Total GULP energy -100469.127938 kJ/mol
# GULP energy per Si atom -5581.618219 kJ/mol
# Density = 2.602022 g / cm^3
# Si number density = 26.079576 Si / 1000 Ang^3
#
#
#
# Elastic Constant Matrix: (Units=GPa)
#
#
# Indices 1 2 3 4 5 6 
#
# 1 209.8191 66.2355 65.4741 0.0000 -54.6671 0.0000
# 2 66.2355 118.3882 69.6875 0.0000 -9.8743 0.0000
# 3 65.4741 69.6875 125.8922 0.0000 -22.9702 0.0000
# 4 0.0000 0.0000 0.0000 71.8526 0.0000 -3.8117
# 5 -54.6671 -9.8743 -22.9702 0.0000 57.4236 0.0000
# 6 0.0000 0.0000 0.0000 -3.8117 0.0000 20.7407
#
#
#
# Elastic Compliance Matrix: (Units=1/GPa)
#
#
# Indices 1 2 3 4 5 6 
#
# 1 0.007788 -0.003155 -0.001133 0.000000 0.006418 0.000000
# 2 -0.003155 0.013831 -0.006612 0.000000 -0.003270 0.000000
# 3 -0.001133 -0.006612 0.012716 0.000000 0.002871 0.000000
# 4 0.000000 0.000000 0.000000 0.014054 0.000000 0.002583
# 5 0.006418 -0.003270 0.002871 0.000000 0.024111 0.000000
# 6 0.000000 0.000000 0.000000 0.002583 0.000000 0.048689
#
#
# Mechanical properties :
#
#
# Convention : Reuss Voigt Hill
#
# Bulk Modulus (GPa) = 79.77144 95.21043 87.49094
# Shear Modulus (GPa) = 33.97480 46.85021 40.41250
#
# Velocity S-wave (km/s) = 3.61326 4.24303 3.94075
# Velocity P-wave (km/s) = 6.93265 7.78404 7.37065
#
# Compressibility (1/GPa) = 0.01253581
#
# Stress axis : x y z
#
# Youngs Moduli (GPa) = 128.40839 72.29984 78.63807
#
# Poissons Ratio (x) = 0.22810 0.08908
# Poissons Ratio (y) = 0.40512 0.51997
# Poissons Ratio (z) = 0.14545 0.47806
#
# Static dielectric constant tensor:
#      x y z
#    x 2.061560 0.000000 0.013590 
#    y 0.000000 2.040740 0.000000 
#    z 0.013590 0.000000 2.214940 
# 
# From -- ./inp_files/52006.got.cif
#   From: 2010.05.17/outbox.cif.g08.bks.cpg/sg13_27_cif.got.tgz:52006.got - 2010.06.03 16:44:36.
