data_PCOD9231515
_publ_section_title
;
Structure prediction by ZEFSAII (Michael W. Deem and Ramdas Pophale) SiO2 
 PCOD9231515
Probable space group: P 2/C
;
_chemical_formula_sum "Si O2"
_cell_formula_units_Z 24
_cell_length_a 10.804915
_cell_length_b 10.905395
_cell_length_c 16.983908
_cell_angle_alpha 90.000000
_cell_angle_beta 142.758554
_cell_angle_gamma 90.000000
_cell_volume 1211.104073
_symmetry_space_group_name_H-M "P 2/C"
_symmetry_group_IT_number 13
_symmetry_cell_setting 'monoclinic'
loop_
_space_group_symop_operation_xyz
x,y,z
-x,y,1/2-z
-x,-y,-z
x,-y,1/2+z
loop_
_atom_site_type_symbol
_atom_site_label
_atom_site_fract_x
_atom_site_fract_y
_atom_site_fract_z
Si Si1 0.579040 0.621256 0.377000
Si Si2 0.514751 0.198239 0.962537
Si Si3 0.430131 0.623181 0.868237
Si Si4 0.037286 0.626860 0.567055
Si Si5 0.309552 0.186213 0.104517
Si Si6 0.796267 0.967114 0.096923
O O1 0.500000 0.587704 0.250000
O O2 0.456424 0.734682 0.352228
O O3 0.545516 0.505215 0.416742
O O4 0.815742 0.658035 0.489422
O O5 0.339123 0.123996 0.917878
O O6 0.582286 0.306170 0.055977
O O7 0.688649 0.098283 0.036207
O O8 0.204952 0.603127 0.719179
O O9 0.562137 0.713089 0.879520
O O10 0.142095 0.736657 0.569485
O O11 0.000000 0.500000 0.500000
O O12 0.500000 0.125827 0.250000
O O13 0.201456 0.094793 0.988289
O O14 0.000000 0.981630 0.250000
#
# Coordination Sequence:
#
# PCOD9231515 Si02
#       6
#     4   4   4   4   4   4
#     4  12  23  37  61  94 127 152 194 255 310 366
#     4  10  25  43  60  87 123 159 205 255 299 361
#     4  10  20  40  62  86 123 159 200 247 308 364
#     4  11  20  35  62  92 125 158 195 244 311 375
#     4   9  19  39  64  90 122 165 201 249 307 363
#     4  10  23  43  66  85 119 165 214 252 298 355
#
# _framework density 19.816628999999999
#
# number of rings (size 3 to 8) (size 9 to 14) (size 15 to 20)
#    0.000    1.667    3.333    1.000    4.667    0.667 
#    0.000    0.833    0.000    0.000    0.000    0.000 
#    0.000    0.000    0.000    0.000    0.000    0.000 
#
# Total GULP energy -133827.477138 kJ/mol
# GULP energy per Si atom -5576.144881 kJ/mol
# Density = 1.977153 g / cm^3
# Si number density = 19.816629 Si / 1000 Ang^3
#
#
#
# Elastic Constant Matrix: (Units=GPa)
#
#
# Indices 1 2 3 4 5 6 
#
# 1 61.0057 81.9013 70.6979 0.0000 0.6946 0.0000
# 2 81.9013 223.6503 239.2423 0.0000 -24.0928 0.0000
# 3 70.6979 239.2423 384.4483 0.0000 -3.4108 0.0000
# 4 0.0000 0.0000 0.0000 -9.6044 0.0000 0.2851
# 5 0.6946 -24.0928 -3.4108 0.0000 22.0835 0.0000
# 6 0.0000 0.0000 0.0000 0.2851 0.0000 23.9709
#
#
#
# Elastic Compliance Matrix: (Units=1/GPa)
#
#
# Indices 1 2 3 4 5 6 
#
# 1 0.053095 -0.039381 0.014366 0.000000 -0.042415 0.000000
# 2 -0.039381 0.048119 -0.022256 0.000000 0.050298 0.000000
# 3 0.014366 -0.022256 0.013608 0.000000 -0.022631 0.000000
# 4 0.000000 0.000000 0.000000 -0.104082 0.000000 0.001238
# 5 -0.042415 0.050298 -0.022631 0.000000 0.097995 0.000000
# 6 0.000000 0.000000 0.000000 0.001238 0.000000 0.041702
#
#
# Mechanical properties :
#
#
# Convention : Reuss Voigt Hill
#
# Bulk Modulus (GPa) = 49.30605 161.42081 105.36343
# Shear Modulus (GPa) = 19.86183 25.77420 22.81802
#
# Velocity S-wave (km/s) = 3.16932 3.61034 3.39700
# Velocity P-wave (km/s) = 6.19096 9.95055 8.28678
#
# Compressibility (1/GPa) = 0.02028149
#
# Stress axis : x y z
#
# Youngs Moduli (GPa) = 18.83405 20.78199 73.48410
#
# Poissons Ratio (x) = 0.81841 -1.05570
# Poissons Ratio (y) = 0.74170 1.63547
# Poissons Ratio (z) = -0.27058 0.46253
#
# Static dielectric constant tensor:
#      x y z
#    x 1.716210 0.000000 -0.024280 
#    y 0.000000 1.675710 0.000000 
#    z -0.024280 0.000000 1.697420 
# 
# From -- ./inp_files/66707.got.cif
#   From: 2010.05.17/outbox.cif.g08.bks.cpg/sg13_34_cif.got.tgz:66707.got - 2010.06.03 16:44:36.
