data_PCOD9231361
_publ_section_title
;
Structure prediction by ZEFSAII (Michael W. Deem and Ramdas Pophale) SiO2 
 PCOD9231361
Probable space group: P 2/C
;
_chemical_formula_sum "Si O2"
_cell_formula_units_Z 20
_cell_length_a 5.396484
_cell_length_b 9.663059
_cell_length_c 18.394819
_cell_angle_alpha 90.000000
_cell_angle_beta 106.010334
_cell_angle_gamma 90.000000
_cell_volume 922.019725
_symmetry_space_group_name_H-M "P 2/C"
_symmetry_group_IT_number 13
_symmetry_cell_setting 'monoclinic'
loop_
_space_group_symop_operation_xyz
x,y,z
-x,y,1/2-z
-x,-y,-z
x,-y,1/2+z
loop_
_atom_site_type_symbol
_atom_site_label
_atom_site_fract_x
_atom_site_fract_y
_atom_site_fract_z
Si Si1 0.799035 0.076050 0.799623
Si Si2 0.278815 0.439983 0.037213
Si Si3 0.881415 0.061566 0.062667
Si Si4 0.568277 0.795540 0.036750
Si Si5 0.610427 0.353072 0.839082
O O1 0.500000 0.060245 0.750000
O O2 0.808580 0.223385 0.844260
O O3 0.000000 0.085785 0.750000
O O4 0.900689 0.950554 0.858318
O O5 0.325736 0.497349 0.121979
O O6 0.500000 0.500000 0.000000
O O7 0.273127 0.280024 0.013948
O O8 0.000000 0.500000 0.000000
O O9 0.668095 0.945912 0.067868
O O10 0.713724 0.191726 0.023709
O O11 0.000000 0.000000 0.000000
O O12 0.567000 0.709697 0.111228
O O13 0.500000 0.370905 0.750000
#
# Coordination Sequence:
#
# PCOD9231361 Si02
#       5
#     4   4   4   4   4
#     4  11  23  38  61  95 130 164 214 275 327 383
#     4  10  22  39  61  89 124 162 205 255 316 379
#     4  11  21  37  65  91 127 174 218 262 326 397
#     4  10  22  38  62  95 128 169 219 268 322 396
#     4  10  20  39  64  94 121 159 206 271 324 375
#
# _framework density 21.691509
#
# number of rings (size 3 to 8) (size 9 to 14) (size 15 to 20)
#    0.000    1.600    2.000    3.600    5.600    3.200 
#    0.000    0.000    4.400    0.000    0.000    0.000 
#    0.000    0.000    0.000    0.000    0.000    0.000 
#
# Total GULP energy -111368.253418 kJ/mol
# GULP energy per Si atom -5568.412671 kJ/mol
# Density = 2.164214 g / cm^3
# Si number density = 21.691509 Si / 1000 Ang^3
#
#
#
# Elastic Constant Matrix: (Units=GPa)
#
#
# Indices 1 2 3 4 5 6 
#
# 1 117.1254 14.5989 37.5375 0.0000 12.4565 0.0000
# 2 14.5989 45.0246 38.4992 0.0000 9.6045 0.0000
# 3 37.5375 38.4992 155.1891 0.0000 5.8798 0.0000
# 4 0.0000 0.0000 0.0000 34.1095 0.0000 -6.3911
# 5 12.4565 9.6045 5.8798 0.0000 31.3125 0.0000
# 6 0.0000 0.0000 0.0000 -6.3911 0.0000 38.5792
#
#
#
# Elastic Compliance Matrix: (Units=1/GPa)
#
#
# Indices 1 2 3 4 5 6 
#
# 1 0.009619 -0.000691 -0.002033 0.000000 -0.003233 0.000000
# 2 -0.000691 0.030044 -0.006997 0.000000 -0.007627 0.000000
# 3 -0.002033 -0.006997 0.008621 0.000000 0.001336 0.000000
# 4 0.000000 0.000000 0.000000 0.030257 0.000000 0.005012
# 5 -0.003233 -0.007627 0.001336 0.000000 0.035311 0.000000
# 6 0.000000 0.000000 0.000000 0.005012 0.000000 0.026751
#
#
# Mechanical properties :
#
#
# Convention : Reuss Voigt Hill
#
# Bulk Modulus (GPa) = 34.67188 55.40115 45.03652
# Shear Modulus (GPa) = 29.47096 35.91381 32.69239
#
# Velocity S-wave (km/s) = 3.68997 4.07340 3.88642
# Velocity P-wave (km/s) = 5.84579 6.90792 6.39893
#
# Compressibility (1/GPa) = 0.02884181
#
# Stress axis : x y z
#
# Youngs Moduli (GPa) = 103.95738 33.28439 116.00012
#
# Poissons Ratio (x) = 0.02301 0.23580
# Poissons Ratio (y) = 0.07185 0.81167
# Poissons Ratio (z) = 0.21132 0.23290
#
# Static dielectric constant tensor:
#      x y z
#    x 1.879140 0.000000 0.080880 
#    y 0.000000 1.955370 0.000000 
#    z 0.080880 0.000000 1.810110 
# 
# From -- ./inp_files/60943.got.cif
#   From: 2010.05.17/outbox.cif.g08.bks.cpg/sg13_31_cif.got.tgz:60943.got - 2010.06.03 16:44:36.
