data_PCOD9231730
_publ_section_title
;
Structure prediction by ZEFSAII (Michael W. Deem and Ramdas Pophale) SiO2 
 PCOD9231730
Probable space group: P 2/C
;
_chemical_formula_sum "Si O2"
_cell_formula_units_Z 28
_cell_length_a 21.271083
_cell_length_b 7.492792
_cell_length_c 23.357900
_cell_angle_alpha 90.000000
_cell_angle_beta 19.912892
_cell_angle_gamma 90.000000
_cell_volume 1267.944916
_symmetry_space_group_name_H-M "P 2/C"
_symmetry_group_IT_number 13
_symmetry_cell_setting 'monoclinic'
loop_
_space_group_symop_operation_xyz
x,y,z
-x,y,1/2-z
-x,-y,-z
x,-y,1/2+z
loop_
_atom_site_type_symbol
_atom_site_label
_atom_site_fract_x
_atom_site_fract_y
_atom_site_fract_z
Si Si1 0.808952 0.283610 0.394619
Si Si2 0.703808 0.020812 0.903423
Si Si3 0.043158 0.179235 0.908374
Si Si4 0.224575 0.375069 0.443450
Si Si5 0.304075 0.230294 0.893114
Si Si6 0.639776 0.338655 0.046441
Si Si7 0.290529 0.073914 0.781363
O O1 0.799481 0.149926 0.350681
O O2 0.775191 0.156868 0.479714
O O3 0.677452 0.453812 0.497634
O O4 0.000000 0.370118 0.250000
O O5 0.817584 0.058816 0.748758
O O6 0.486836 0.969792 0.085394
O O7 0.703700 0.195353 0.944796
O O8 0.179071 0.232691 0.844145
O O9 0.950654 0.306868 0.941066
O O10 0.861447 0.082561 0.089457
O O11 0.204605 0.588140 0.462259
O O12 0.419368 0.324600 0.246269
O O13 0.255617 0.310833 0.482301
O O14 0.500000 0.292584 0.750000
O O15 0.322202 0.113343 0.821547
#
# Coordination Sequence:
#
# PCOD9231730 Si02
#       7
#     4   4   4   4   4   4   4
#     4  11  24  38  61 105 133 159 220 279 331 400
#     4  12  24  41  69  92 131 178 214 266 343 383
#     4  11  26  41  63  95 127 175 224 264 317 405
#     4  10  20  41  62  97 129 164 219 265 337 390
#     4  11  20  40  67  91 123 172 213 273 336 383
#     4  10  22  38  65  96 132 168 207 281 330 387
#     4  11  24  45  64  88 133 173 222 270 319 391
#
# _framework density 22.082979000000002
#
# number of rings (size 3 to 8) (size 9 to 14) (size 15 to 20)
#    0.000    1.143    5.714    1.286    8.000    0.571 
#    0.000    0.000    0.000    2.571    0.000    0.000 
#    0.000    0.000    0.000    0.000    0.000    0.000 
#
# Total GULP energy -156085.517102 kJ/mol
# GULP energy per Si atom -5574.482754 kJ/mol
# Density = 2.203272 g / cm^3
# Si number density = 22.082979 Si / 1000 Ang^3
#
#
#
# Elastic Constant Matrix: (Units=GPa)
#
#
# Indices 1 2 3 4 5 6 
#
# 1 70.3083 18.1935 9.9511 0.0000 -1.6765 0.0000
# 2 18.1935 45.5932 6.4067 0.0000 -12.5366 0.0000
# 3 9.9511 6.4067 77.5001 0.0000 -3.1424 0.0000
# 4 0.0000 0.0000 0.0000 9.3203 0.0000 -22.4399
# 5 -1.6765 -12.5366 -3.1424 0.0000 25.1584 0.0000
# 6 0.0000 0.0000 0.0000 -22.4399 0.0000 -15.1659
#
#
#
# Elastic Compliance Matrix: (Units=1/GPa)
#
#
# Indices 1 2 3 4 5 6 
#
# 1 0.016186 -0.006943 -0.001609 0.000000 -0.002582 0.000000
# 2 -0.006943 0.028591 -0.000918 0.000000 0.013670 0.000000
# 3 -0.001609 -0.000918 0.013230 0.000000 0.001088 0.000000
# 4 0.000000 0.000000 0.000000 0.023517 0.000000 -0.034796
# 5 -0.002582 0.013670 0.001088 0.000000 0.046524 0.000000
# 6 0.000000 0.000000 0.000000 -0.034796 0.000000 -0.014452
#
#
# Mechanical properties :
#
#
# Convention : Reuss Voigt Hill
#
# Bulk Modulus (GPa) = 25.59650 29.16712 27.38181
# Shear Modulus (GPa) = 34.35090 14.45258 24.40174
#
# Velocity S-wave (km/s) = 3.94831 2.56103 3.32776
# Velocity P-wave (km/s) = 5.69225 4.68848 5.21457
#
# Compressibility (1/GPa) = 0.03906784
#
# Stress axis : x y z
#
# Youngs Moduli (GPa) = 61.78268 34.97571 75.58697
#
# Poissons Ratio (x) = 0.24282 0.12162
# Poissons Ratio (y) = 0.42893 0.06938
# Poissons Ratio (z) = 0.09941 0.03210
#
# Static dielectric constant tensor:
#      x y z
#    x 1.856920 0.000000 0.037880 
#    y 0.000000 1.815030 0.000000 
#    z 0.037880 0.000000 1.946430 
# 
# From -- ./inp_files/88453.got.cif
#   From: 2010.05.17/outbox.cif.g08.bks.cpg/sg13_45_cif.got.tgz:88453.got - 2010.06.03 16:44:36.
