data_PCOD9231641
_publ_section_title
;
Structure prediction by ZEFSAII (Michael W. Deem and Ramdas Pophale) SiO2 
 PCOD9231641
Probable space group: P 2/C
;
_chemical_formula_sum "Si O2"
_cell_formula_units_Z 30
_cell_length_a 15.596079
_cell_length_b 6.218072
_cell_length_c 14.768121
_cell_angle_alpha 90.000000
_cell_angle_beta 71.322507
_cell_angle_gamma 90.000000
_cell_volume 1356.752168
_symmetry_space_group_name_H-M "P 2/C"
_symmetry_group_IT_number 13
_symmetry_cell_setting 'monoclinic'
loop_
_space_group_symop_operation_xyz
x,y,z
-x,y,1/2-z
-x,-y,-z
x,-y,1/2+z
loop_
_atom_site_type_symbol
_atom_site_label
_atom_site_fract_x
_atom_site_fract_y
_atom_site_fract_z
Si Si1 0.684550 0.306008 0.359262
Si Si2 0.669203 0.487168 0.038957
Si Si3 0.500000 0.904086 0.250000
Si Si4 0.139222 0.401682 0.475541
Si Si5 0.814991 0.055666 0.198417
Si Si6 0.328548 0.685614 0.265394
Si Si7 0.037708 0.193981 0.924157
Si Si8 0.485875 0.845411 0.919361
O O1 0.671441 0.312380 0.470765
O O2 0.701359 0.538350 0.307918
O O3 0.586216 0.232858 0.356263
O O4 0.768235 0.161815 0.300631
O O5 0.769822 0.392834 0.997133
O O6 0.663140 0.548029 0.145856
O O7 0.585121 0.342797 0.036713
O O8 0.429799 0.767984 0.215505
O O9 0.552680 0.039499 0.157220
O O10 0.107269 0.636847 0.449196
O O11 0.053238 0.325211 0.562576
O O12 0.161514 0.242804 0.382820
O O13 0.738280 0.884291 0.194493
O O14 0.906493 0.917796 0.174670
O O15 0.000000 0.000000 0.000000
O O16 0.500000 0.000000 0.000000
#
# Coordination Sequence:
#
# PCOD9231641 Si02
#       8
#     4   4   2   4   4   4   4   4
#     4  12  25  42  63  97 141 178 227 284 343 401
#     4  12  24  41  67  97 138 182 232 279 343 423
#     4  12  22  38  68  88 128 182 230 272 340 408
#     4  10  20  40  67 104 129 173 229 278 350 419
#     4  11  20  41  67  96 132 176 220 282 346 407
#     4  12  23  43  64  99 131 177 228 284 343 405
#     4   9  19  37  71  99 132 167 219 290 350 407
#     4  12  25  44  63 100 135 184 233 286 342 407
#
# _framework density 22.111628
#
# number of rings (size 3 to 8) (size 9 to 14) (size 15 to 20)
#    0.000    0.800    4.000    4.400    0.000    0.000 
#    0.000    0.000    0.000   19.200    0.000    0.000 
#    0.000    0.000    0.000    0.000    0.000    0.000 
#
# Total GULP energy -167414.453258 kJ/mol
# GULP energy per Si atom -5580.481775 kJ/mol
# Density = 2.206130 g / cm^3
# Si number density = 22.111628 Si / 1000 Ang^3
#
#
#
# Elastic Constant Matrix: (Units=GPa)
#
#
# Indices 1 2 3 4 5 6 
#
# 1 51.3663 15.5989 29.1945 0.0000 -35.3007 0.0000
# 2 15.5989 80.1344 28.2010 0.0000 -18.5835 0.0000
# 3 29.1945 28.2010 78.9286 0.0000 -13.6066 0.0000
# 4 0.0000 0.0000 0.0000 39.2890 0.0000 -22.4139
# 5 -35.3007 -18.5835 -13.6066 0.0000 38.9867 0.0000
# 6 0.0000 0.0000 0.0000 -22.4139 0.0000 45.3655
#
#
#
# Elastic Compliance Matrix: (Units=1/GPa)
#
#
# Indices 1 2 3 4 5 6 
#
# 1 0.066762 0.006343 -0.017044 0.000000 0.057525 0.000000
# 2 0.006343 0.016006 -0.006128 0.000000 0.011234 0.000000
# 3 -0.017044 -0.006128 0.019152 0.000000 -0.011669 0.000000
# 4 0.000000 0.000000 0.000000 0.035442 0.000000 0.017511
# 5 0.057525 0.011234 -0.011669 0.000000 0.079018 0.000000
# 6 0.000000 0.000000 0.000000 0.017511 0.000000 0.030695
#
#
# Mechanical properties :
#
#
# Convention : Reuss Voigt Hill
#
# Bulk Modulus (GPa) = 14.64962 39.60202 27.12582
# Shear Modulus (GPa) = 16.47506 33.89055 25.18280
#
# Velocity S-wave (km/s) = 2.73259 3.91922 3.37841
# Velocity P-wave (km/s) = 4.07379 6.19914 5.24524
#
# Compressibility (1/GPa) = 0.06826117
#
# Stress axis : x y z
#
# Youngs Moduli (GPa) = 14.97850 62.47556 52.21417
#
# Poissons Ratio (x) = -0.39625 0.88993
# Poissons Ratio (y) = -0.09500 0.31999
# Poissons Ratio (z) = 0.25529 0.38288
#
# Static dielectric constant tensor:
#      x y z
#    x 1.819040 0.000000 -0.040250 
#    y 0.000000 1.935250 0.000000 
#    z -0.040250 0.000000 1.785850 
# 
# From -- ./inp_files/54644.got.cif
#   From: 2010.05.17/outbox.cif.g08.bks.cpg/sg13_28_cif.got.tgz:54644.got - 2010.06.03 16:44:36.
