data_PCOD9231518
_publ_section_title
;
Structure prediction by ZEFSAII (Michael W. Deem and Ramdas Pophale) SiO2 
 PCOD9231518
Probable space group: P 2/C
;
_chemical_formula_sum "Si O2"
_cell_formula_units_Z 22
_cell_length_a 8.565245
_cell_length_b 7.317077
_cell_length_c 19.141368
_cell_angle_alpha 90.000000
_cell_angle_beta 44.051477
_cell_angle_gamma 90.000000
_cell_volume 834.113885
_symmetry_space_group_name_H-M "P 2/C"
_symmetry_group_IT_number 13
_symmetry_cell_setting 'monoclinic'
loop_
_space_group_symop_operation_xyz
x,y,z
-x,y,1/2-z
-x,-y,-z
x,-y,1/2+z
loop_
_atom_site_type_symbol
_atom_site_label
_atom_site_fract_x
_atom_site_fract_y
_atom_site_fract_z
Si Si1 0.069499 0.373448 0.070814
Si Si2 0.502224 0.000947 0.320442
Si Si3 0.000000 0.380393 0.250000
Si Si4 0.943424 0.774068 0.067474
Si Si5 0.401698 0.347634 0.624449
Si Si6 0.632320 0.149253 0.000726
O O1 0.955176 0.572220 0.097355
O O2 0.057037 0.297133 0.154337
O O3 0.332001 0.390077 0.960865
O O4 0.970804 0.251227 0.039715
O O5 0.500000 0.115305 0.250000
O O6 0.641823 0.835631 0.314489
O O7 0.291554 0.873460 0.363365
O O8 0.488396 0.149439 0.386308
O O9 0.781970 0.501410 0.300665
O O10 0.115334 0.893541 0.057423
O O11 0.358242 0.311626 0.556208
O O12 0.500000 0.000000 0.000000
#
# Coordination Sequence:
#
# PCOD9231518 Si02
#       6
#     4   4   2   4   4   4
#     4  10  22  38  63  91 122 160 198 260 313 367
#     4  10  21  38  61  91 116 160 212 250 298 367
#     4  12  20  36  64  94 116 164 214 250 302 386
#     4  10  20  40  62  86 125 159 197 254 318 356
#     4  10  22  39  63  88 126 158 204 254 308 367
#     4  10  21  39  62  84 123 164 198 249 309 354
#
# _framework density 26.375292999999999
#
# number of rings (size 3 to 8) (size 9 to 14) (size 15 to 20)
#    0.000    1.818    1.818    2.182    0.000    0.000 
#    3.273    0.000    0.000    0.000    0.000    0.000 
#    0.000    0.000    0.000    0.000    0.000    0.000 
#
# Total GULP energy -122603.009681 kJ/mol
# GULP energy per Si atom -5572.864076 kJ/mol
# Density = 2.631526 g / cm^3
# Si number density = 26.375293 Si / 1000 Ang^3
#
#
#
# Elastic Constant Matrix: (Units=GPa)
#
#
# Indices 1 2 3 4 5 6 
#
# 1 180.7275 25.0567 40.6638 0.0000 28.8844 0.0000
# 2 25.0567 37.0188 3.1256 0.0000 -5.2068 0.0000
# 3 40.6638 3.1256 68.2263 0.0000 27.9286 0.0000
# 4 0.0000 0.0000 0.0000 24.7763 0.0000 10.8062
# 5 28.8844 -5.2068 27.9286 0.0000 72.7986 0.0000
# 6 0.0000 0.0000 0.0000 10.8062 0.0000 32.7080
#
#
#
# Elastic Compliance Matrix: (Units=1/GPa)
#
#
# Indices 1 2 3 4 5 6 
#
# 1 0.007274 -0.004922 -0.003303 0.000000 -0.001971 0.000000
# 2 -0.004922 0.030962 -0.000227 0.000000 0.004254 0.000000
# 3 -0.003303 -0.000227 0.019107 0.000000 -0.006036 0.000000
# 4 0.000000 0.000000 0.000000 0.047156 0.000000 -0.015580
# 5 -0.001971 0.004254 -0.006036 0.000000 0.017138 0.000000
# 6 0.000000 0.000000 0.000000 -0.015580 0.000000 0.035721
#
#
# Mechanical properties :
#
#
# Convention : Reuss Voigt Hill
#
# Bulk Modulus (GPa) = 24.72774 47.07384 35.90079
# Shear Modulus (GPa) = 26.63249 40.53168 33.58208
#
# Velocity S-wave (km/s) = 3.18111 3.92437 3.57212
# Velocity P-wave (km/s) = 4.78417 6.19844 5.53665
#
# Compressibility (1/GPa) = 0.04044042
#
# Stress axis : x y z
#
# Youngs Moduli (GPa) = 137.48144 32.29755 52.33706
#
# Poissons Ratio (x) = 0.15896 0.17287
# Poissons Ratio (y) = 0.67663 0.01186
# Poissons Ratio (z) = 0.45410 0.00732
#
# Static dielectric constant tensor:
#      x y z
#    x 2.055260 0.000000 0.049110 
#    y 0.000000 2.139030 0.000000 
#    z 0.049110 0.000000 2.522790 
# 
# From -- ./inp_files/75550.got.cif
#   From: 2010.05.17/outbox.cif.g08.bks.cpg/sg13_38_cif.got.tgz:75550.got - 2010.06.03 16:44:36.
