data_PCOD9231431
_publ_section_title
;
Structure prediction by ZEFSAII (Michael W. Deem and Ramdas Pophale) SiO2 
 PCOD9231431
Probable space group: P 2/C
;
_chemical_formula_sum "Si O2"
_cell_formula_units_Z 16
_cell_length_a 12.091489
_cell_length_b 4.856710
_cell_length_c 13.156720
_cell_angle_alpha 90.000000
_cell_angle_beta 56.148191
_cell_angle_gamma 90.000000
_cell_volume 641.651695
_symmetry_space_group_name_H-M "P 2/C"
_symmetry_group_IT_number 13
_symmetry_cell_setting 'monoclinic'
loop_
_space_group_symop_operation_xyz
x,y,z
-x,y,1/2-z
-x,-y,-z
x,-y,1/2+z
loop_
_atom_site_type_symbol
_atom_site_label
_atom_site_fract_x
_atom_site_fract_y
_atom_site_fract_z
Si Si1 0.179924 0.269132 0.048007
Si Si2 0.698788 0.802888 0.225620
Si Si3 0.996646 0.810221 0.399706
Si Si4 0.611791 0.328601 0.382648
O O1 0.086434 0.523944 0.057460
O O2 0.266906 0.344170 0.100052
O O3 0.088366 0.014197 0.125256
O O4 0.274387 0.157448 0.907839
O O5 0.635815 0.505816 0.269823
O O6 0.613095 0.019924 0.335689
O O7 0.847160 0.775143 0.197890
O O8 0.000000 0.000000 0.500000
O O9 0.500000 0.500000 0.500000
#
# Coordination Sequence:
#
# PCOD9231431 Si02
#       4
#     4   4   4   4
#     4  11  23  42  68  99 133 168 211 273 334 388
#     4  11  23  43  67  94 133 171 209 274 331 378
#     4  10  20  39  68 101 130 163 212 266 336 404
#     4  12  27  44  64  96 131 176 231 260 307 397
#
# _framework density 24.935646999999999
#
# number of rings (size 3 to 8) (size 9 to 14) (size 15 to 20)
#    0.000    1.000    0.000    9.750    0.000    7.000 
#    0.000    5.000    0.000    0.000    0.000    0.000 
#    0.000    0.000    0.000    0.000    0.000    0.000 
#
# Total GULP energy -89276.624245 kJ/mol
# GULP energy per Si atom -5579.789015 kJ/mol
# Density = 2.487889 g / cm^3
# Si number density = 24.935647 Si / 1000 Ang^3
#
#
#
# Elastic Constant Matrix: (Units=GPa)
#
#
# Indices 1 2 3 4 5 6 
#
# 1 37.6159 21.2247 -0.6295 0.0000 1.8302 0.0000
# 2 21.2247 159.9579 17.6446 0.0000 -8.0755 0.0000
# 3 -0.6295 17.6446 106.0358 0.0000 11.3675 0.0000
# 4 0.0000 0.0000 0.0000 27.6529 0.0000 -11.1304
# 5 1.8302 -8.0755 11.3675 0.0000 32.8815 0.0000
# 6 0.0000 0.0000 0.0000 -11.1304 0.0000 28.0715
#
#
#
# Elastic Compliance Matrix: (Units=1/GPa)
#
#
# Indices 1 2 3 4 5 6 
#
# 1 0.029092 -0.004145 0.001189 0.000000 -0.003048 0.000000
# 2 -0.004145 0.007089 -0.001470 0.000000 0.002480 0.000000
# 3 0.001189 -0.001470 0.010103 0.000000 -0.003920 0.000000
# 4 0.000000 0.000000 0.000000 0.043030 0.000000 0.017061
# 5 -0.003048 0.002480 -0.003920 0.000000 0.032546 0.000000
# 6 0.000000 0.000000 0.000000 0.017061 0.000000 0.042388
#
#
# Mechanical properties :
#
#
# Convention : Reuss Voigt Hill
#
# Bulk Modulus (GPa) = 26.71561 42.23213 34.47387
# Shear Modulus (GPa) = 26.94300 35.41248 31.17774
#
# Velocity S-wave (km/s) = 3.29066 3.77258 3.53983
# Velocity P-wave (km/s) = 5.01747 5.99581 5.52833
#
# Compressibility (1/GPa) = 0.03743130
#
# Stress axis : x y z
#
# Youngs Moduli (GPa) = 34.37410 141.06281 98.98343
#
# Poissons Ratio (x) = 0.58474 -0.11772
# Poissons Ratio (y) = 0.14249 0.14552
# Poissons Ratio (z) = -0.04088 0.20738
#
# Static dielectric constant tensor:
#      x y z
#    x 2.031720 0.000000 -0.042320 
#    y 0.000000 0.788620 0.000000 
#    z -0.042320 0.000000 2.012750 
# 
# From -- ./inp_files/31209.got.cif
#   From: 2010.05.17/outbox.cif.g08.bks.cpg/sg13_16_cif.got.tgz:31209.got - 2010.06.03 16:44:36.
