data_PCOD9231277
_publ_section_title
;
Structure prediction by ZEFSAII (Michael W. Deem and Ramdas Pophale) SiO2 
 PCOD9231277
Probable space group: P 2/C
;
_chemical_formula_sum "Si O2"
_cell_formula_units_Z 30
_cell_length_a 8.062330
_cell_length_b 14.369997
_cell_length_c 12.854903
_cell_angle_alpha 90.000000
_cell_angle_beta 108.074819
_cell_angle_gamma 90.000000
_cell_volume 1415.818882
_symmetry_space_group_name_H-M "P 2/C"
_symmetry_group_IT_number 13
_symmetry_cell_setting 'monoclinic'
loop_
_space_group_symop_operation_xyz
x,y,z
-x,y,1/2-z
-x,-y,-z
x,-y,1/2+z
loop_
_atom_site_type_symbol
_atom_site_label
_atom_site_fract_x
_atom_site_fract_y
_atom_site_fract_z
Si Si1 0.000000 0.054409 0.750000
Si Si2 0.340480 0.593353 0.535079
Si Si3 0.525617 0.599785 0.373578
Si Si4 0.612773 0.743919 0.675581
Si Si5 0.715183 0.221077 0.981438
Si Si6 0.139877 0.918191 0.493341
Si Si7 0.094785 0.725910 0.605154
Si Si8 0.312991 0.040390 0.661100
O O1 0.165423 0.009702 0.718735
O O2 0.897496 0.102381 0.634429
O O3 0.356277 0.603362 0.414340
O O4 0.357858 0.484689 0.560751
O O5 0.507391 0.650593 0.617268
O O6 0.176072 0.642735 0.553733
O O7 0.500000 0.577438 0.250000
O O8 0.608704 0.700383 0.401745
O O9 0.500000 0.783156 0.750000
O O10 0.624619 0.805228 0.573654
O O11 0.800288 0.725173 0.765700
O O12 0.741100 0.137519 0.905720
O O13 0.887795 0.272301 0.057966
O O14 0.132765 0.824167 0.556372
O O15 0.314730 0.967947 0.566091
O O16 0.000000 0.000000 0.500000
O O17 0.500000 0.050267 0.750000
#
# Coordination Sequence:
#
# PCOD9231277 Si02
#       8
#     2   4   4   4   4   4   4   4
#     4  10  22  44  66  90 132 170 210 272 334 382
#     4   9  21  39  61  90 124 164 213 265 321 385
#     4  10  20  39  61  86 126 168 210 262 321 388
#     4   9  20  37  62  90 120 162 209 260 323 381
#     4  11  22  37  59  97 126 164 213 262 322 386
#     4  10  22  42  62  90 124 173 212 266 335 378
#     4  11  20  38  64  90 124 160 210 269 322 382
#     4  11  25  44  65  96 131 173 221 269 322 399
#
# _framework density 21.189152
#
# number of rings (size 3 to 8) (size 9 to 14) (size 15 to 20)
#    0.000    1.867    2.667    2.000    0.000    9.067 
#    0.000    0.000    0.000    0.000    0.000    0.000 
#    0.000    0.000    0.000    0.000    0.000    0.000 
#
# Total GULP energy -167002.898987 kJ/mol
# GULP energy per Si atom -5566.763300 kJ/mol
# Density = 2.114092 g / cm^3
# Si number density = 21.189152 Si / 1000 Ang^3
#
#
#
# Elastic Constant Matrix: (Units=GPa)
#
#
# Indices 1 2 3 4 5 6 
#
# 1 62.0566 0.3186 23.0660 0.0000 -0.6999 0.0000
# 2 0.3186 47.1883 7.3556 0.0000 -19.6827 0.0000
# 3 23.0660 7.3556 100.4491 0.0000 -16.5118 0.0000
# 4 0.0000 0.0000 0.0000 -15.2533 0.0000 35.3910
# 5 -0.6999 -19.6827 -16.5118 0.0000 24.1059 0.0000
# 6 0.0000 0.0000 0.0000 35.3910 0.0000 -26.1882
#
#
#
# Elastic Compliance Matrix: (Units=1/GPa)
#
#
# Indices 1 2 3 4 5 6 
#
# 1 0.017775 -0.000752 -0.004556 0.000000 -0.003219 0.000000
# 2 -0.000752 0.032609 0.002432 0.000000 0.028270 0.000000
# 3 -0.004556 0.002432 0.012540 0.000000 0.010443 0.000000
# 4 0.000000 0.000000 0.000000 0.030699 0.000000 0.041487
# 5 -0.003219 0.028270 0.010443 0.000000 0.071626 0.000000
# 6 0.000000 0.000000 0.000000 0.041487 0.000000 0.017880
#
#
# Mechanical properties :
#
#
# Convention : Reuss Voigt Hill
#
# Bulk Modulus (GPa) = 17.49113 30.13047 23.81080
# Shear Modulus (GPa) = 24.04549 8.46314 16.25432
#
# Velocity S-wave (km/s) = 3.37234 2.00069 2.77267
# Velocity P-wave (km/s) = 4.84110 4.42579 4.63810
#
# Compressibility (1/GPa) = 0.05717184
#
# Stress axis : x y z
#
# Youngs Moduli (GPa) = 56.25814 30.66611 79.74536
#
# Poissons Ratio (x) = 0.02308 0.36330
# Poissons Ratio (y) = 0.04233 -0.19393
# Poissons Ratio (z) = 0.25629 -0.07458
#
# Static dielectric constant tensor:
#      x y z
#    x 1.913560 0.000000 0.041940 
#    y 0.000000 1.722460 0.000000 
#    z 0.041940 0.000000 1.833890 
# 
# From -- ./inp_files/30444.got.cif
#   From: 2010.05.17/outbox.cif.g08.bks.cpg/sg13_16_cif.got.tgz:30444.got - 2010.06.03 16:44:36.
