data_PCOD9231046
_publ_section_title
;
Structure prediction by ZEFSAII (Michael W. Deem and Ramdas Pophale) SiO2 
 PCOD9231046
Probable space group: P 2/C
;
_chemical_formula_sum "Si O2"
_cell_formula_units_Z 30
_cell_length_a 9.299793
_cell_length_b 8.039243
_cell_length_c 24.811370
_cell_angle_alpha 90.000000
_cell_angle_beta 140.408045
_cell_angle_gamma 90.000000
_cell_volume 1182.207921
_symmetry_space_group_name_H-M "P 2/C"
_symmetry_group_IT_number 13
_symmetry_cell_setting 'monoclinic'
loop_
_space_group_symop_operation_xyz
x,y,z
-x,y,1/2-z
-x,-y,-z
x,-y,1/2+z
loop_
_atom_site_type_symbol
_atom_site_label
_atom_site_fract_x
_atom_site_fract_y
_atom_site_fract_z
Si Si1 0.494051 0.600044 0.164519
Si Si2 0.722244 0.684834 0.846739
Si Si3 0.332301 0.396889 0.377603
Si Si4 0.652185 0.723811 0.051108
Si Si5 0.500000 0.846614 0.250000
Si Si6 0.216085 0.975089 0.843566
Si Si7 0.329515 0.029139 0.097272
Si Si8 0.795286 0.775595 0.512770
O O1 0.323692 0.505021 0.154236
O O2 0.650048 0.469397 0.177889
O O3 0.620861 0.731334 0.239376
O O4 0.329327 0.679720 0.072424
O O5 0.500000 0.739797 0.750000
O O6 0.719745 0.782543 0.902330
O O7 0.970329 0.712500 0.896178
O O8 0.261311 0.561323 0.391418
O O9 0.583674 0.343253 0.472506
O O10 0.196778 0.224968 0.343628
O O11 0.765439 0.900195 0.099429
O O12 0.400493 0.764792 0.000533
O O13 0.347458 0.947904 0.162863
O O14 0.432518 0.992013 0.866144
O O15 0.000000 0.038662 0.750000
O O16 0.163849 0.950894 0.005251
#
# Coordination Sequence:
#
# PCOD9231046 Si02
#       8
#     4   4   4   4   2   4   4   4
#     4  10  20  38  63  87 125 165 214 257 328 394
#     4  12  21  35  60  92 126 156 214 270 321 389
#     4  10  20  41  67  89 127 176 218 274 324 396
#     4   9  21  42  65  91 130 174 229 272 326 396
#     4  10  20  40  62  90 128 174 204 280 324 392
#     4  11  23  40  65  98 133 174 224 281 337 390
#     4  10  21  40  59  86 132 170 214 265 331 393
#     4   9  21  38  61  86 122 173 210 259 325 390
#
# _framework density 25.376248
#
# number of rings (size 3 to 8) (size 9 to 14) (size 15 to 20)
#    0.000    1.867    2.667    2.000    0.000    1.600 
#    0.000    6.667    0.000    0.000    0.000    0.000 
#    0.000    0.000    0.000    0.000    0.000    0.000 
#
# Total GULP energy -167123.958851 kJ/mol
# GULP energy per Si atom -5570.798628 kJ/mol
# Density = 2.531849 g / cm^3
# Si number density = 25.376248 Si / 1000 Ang^3
#
#
#
# Elastic Constant Matrix: (Units=GPa)
#
#
# Indices 1 2 3 4 5 6 
#
# 1 54.8597 9.0314 21.6297 0.0000 -16.5721 0.0000
# 2 9.0314 117.5415 14.5400 0.0000 -22.0259 0.0000
# 3 21.6297 14.5400 85.8981 0.0000 -13.2342 0.0000
# 4 0.0000 0.0000 0.0000 22.8872 0.0000 -14.1921
# 5 -16.5721 -22.0259 -13.2342 0.0000 27.4259 0.0000
# 6 0.0000 0.0000 0.0000 -14.1921 0.0000 28.2734
#
#
#
# Elastic Compliance Matrix: (Units=1/GPa)
#
#
# Indices 1 2 3 4 5 6 
#
# 1 0.023661 0.001175 -0.004115 0.000000 0.013255 0.000000
# 2 0.001175 0.010092 -0.000698 0.000000 0.008478 0.000000
# 3 -0.004115 -0.000698 0.013317 0.000000 0.003379 0.000000
# 4 0.000000 0.000000 0.000000 0.063438 0.000000 0.031843
# 5 0.013255 0.008478 0.003379 0.000000 0.052911 0.000000
# 6 0.000000 0.000000 0.000000 0.031843 0.000000 0.051353
#
#
# Mechanical properties :
#
#
# Convention : Reuss Voigt Hill
#
# Bulk Modulus (GPa) = 25.12885 38.74460 31.93672
# Shear Modulus (GPa) = 21.24829 29.92386 25.58607
#
# Velocity S-wave (km/s) = 2.89680 3.43768 3.17877
# Velocity P-wave (km/s) = 4.59485 5.57298 5.10738
#
# Compressibility (1/GPa) = 0.03979490
#
# Stress axis : x y z
#
# Youngs Moduli (GPa) = 42.26286 99.08380 75.09459
#
# Poissons Ratio (x) = -0.11641 0.30899
# Poissons Ratio (y) = -0.04965 0.05241
# Poissons Ratio (z) = 0.17390 0.06915
#
# Static dielectric constant tensor:
#      x y z
#    x 2.061760 0.000000 -0.028020 
#    y 0.000000 2.157670 0.000000 
#    z -0.028020 0.000000 2.072170 
# 
# From -- ./inp_files/96638.got.cif
#   From: 2010.05.17/outbox.cif.g08.bks.cpg/sg13_49_cif.got.tgz:96638.got - 2010.06.03 16:44:36.
