data_PCOD9231919
_publ_section_title
;
Structure prediction by ZEFSAII (Michael W. Deem and Ramdas Pophale) SiO2 
 PCOD9231919
Probable space group: P 2/C
;
_chemical_formula_sum "Si O2"
_cell_formula_units_Z 28
_cell_length_a 13.687529
_cell_length_b 8.187108
_cell_length_c 13.073948
_cell_angle_alpha 90.000000
_cell_angle_beta 129.373547
_cell_angle_gamma 90.000000
_cell_volume 1132.548294
_symmetry_space_group_name_H-M "P 2/C"
_symmetry_group_IT_number 13
_symmetry_cell_setting 'monoclinic'
loop_
_space_group_symop_operation_xyz
x,y,z
-x,y,1/2-z
-x,-y,-z
x,-y,1/2+z
loop_
_atom_site_type_symbol
_atom_site_label
_atom_site_fract_x
_atom_site_fract_y
_atom_site_fract_z
Si Si1 0.590325 0.813704 0.222395
Si Si2 0.051143 0.828551 0.577606
Si Si3 0.246540 0.019997 0.824652
Si Si4 0.198085 0.799665 0.974127
Si Si5 0.284612 0.543440 0.868153
Si Si6 0.937291 0.330619 0.816841
Si Si7 0.497796 0.563124 0.864397
O O1 0.500000 0.889199 0.250000
O O2 0.723923 0.789635 0.369237
O O3 0.530378 0.635125 0.159295
O O4 0.626492 0.917901 0.146730
O O5 0.949052 0.790254 0.597397
O O6 0.035232 0.703060 0.473404
O O7 0.184182 0.873755 0.715621
O O8 0.000000 0.000000 0.500000
O O9 0.244343 0.955893 0.939354
O O10 0.145341 0.166856 0.753994
O O11 0.234864 0.652562 0.926145
O O12 0.167332 0.467719 0.730558
O O13 0.383140 0.625906 0.856466
O O14 0.372109 0.412935 0.988298
O O15 0.000000 0.369239 0.750000
O O16 0.500000 0.621825 0.750000
#
# Coordination Sequence:
#
# PCOD9231919 Si02
#       7
#     4   4   4   4   4   4   4
#     4  11  21  42  69  97 131 187 222 281 347 409
#     4  10  20  42  69  94 129 186 224 272 345 408
#     4  11  23  41  69  99 134 176 230 278 343 409
#     4  12  22  40  69  97 137 171 230 280 341 411
#     4  11  23  40  68 103 129 180 228 278 341 405
#     4  11  23  41  67  99 133 177 229 278 340 410
#     4  10  20  43  70  91 133 185 226 265 342 413
#
# _framework density 24.723008
#
# number of rings (size 3 to 8) (size 9 to 14) (size 15 to 20)
#    0.000    1.143    7.143    2.143    0.000    1.714 
#    2.571    2.143    0.000    0.000    0.000    0.000 
#    0.000    0.000    0.000    0.000    0.000    0.000 
#
# Total GULP energy -156630.997310 kJ/mol
# GULP energy per Si atom -5593.964190 kJ/mol
# Density = 2.466674 g / cm^3
# Si number density = 24.723008 Si / 1000 Ang^3
#
#
#
# Elastic Constant Matrix: (Units=GPa)
#
#
# Indices 1 2 3 4 5 6 
#
# 1 146.0749 23.3883 10.1757 0.0000 -17.3048 0.0000
# 2 23.3883 37.2550 14.6346 0.0000 5.4036 0.0000
# 3 10.1757 14.6346 93.5971 0.0000 -10.8123 0.0000
# 4 0.0000 0.0000 0.0000 28.5828 0.0000 1.5503
# 5 -17.3048 5.4036 -10.8123 0.0000 41.4087 0.0000
# 6 0.0000 0.0000 0.0000 1.5503 0.0000 33.7078
#
#
#
# Elastic Compliance Matrix: (Units=1/GPa)
#
#
# Indices 1 2 3 4 5 6 
#
# 1 0.008301 -0.006068 0.000555 0.000000 0.004406 0.000000
# 2 -0.006068 0.034098 -0.005649 0.000000 -0.008461 0.000000
# 3 0.000555 -0.005649 0.011980 0.000000 0.004097 0.000000
# 4 0.000000 0.000000 0.000000 0.035074 0.000000 -0.001613
# 5 0.004406 -0.008461 0.004097 0.000000 0.028165 0.000000
# 6 0.000000 0.000000 0.000000 -0.001613 0.000000 0.029741
#
#
# Mechanical properties :
#
#
# Convention : Reuss Voigt Hill
#
# Bulk Modulus (GPa) = 31.19653 41.48046 36.33850
# Shear Modulus (GPa) = 27.72128 35.98842 31.85485
#
# Velocity S-wave (km/s) = 3.35218 3.81946 3.59342
# Velocity P-wave (km/s) = 5.25629 6.02209 5.65217
#
# Compressibility (1/GPa) = 0.03205485
#
# Stress axis : x y z
#
# Youngs Moduli (GPa) = 120.47266 29.32737 83.47014
#
# Poissons Ratio (x) = 0.17796 -0.04635
# Poissons Ratio (y) = 0.73105 0.47153
# Poissons Ratio (z) = -0.06690 0.16567
#
# Static dielectric constant tensor:
#      x y z
#    x 1.694360 0.000000 -0.161150 
#    y 0.000000 2.048190 0.000000 
#    z -0.161150 0.000000 1.874380 
# 
# From -- ./inp_files/53133.got.cif
#   From: 2010.05.17/outbox.cif.g08.bks.cpg/sg13_27_cif.got.tgz:53133.got - 2010.06.03 16:44:36.
