data_PCOD9231973
_publ_section_title
;
Structure prediction by ZEFSAII (Michael W. Deem and Ramdas Pophale) SiO2 
 PCOD9231973
Probable space group: P 2/C
;
_chemical_formula_sum "Si O2"
_cell_formula_units_Z 32
_cell_length_a 17.294116
_cell_length_b 4.966483
_cell_length_c 15.435615
_cell_angle_alpha 90.000000
_cell_angle_beta 80.748570
_cell_angle_gamma 90.000000
_cell_volume 1308.534107
_symmetry_space_group_name_H-M "P 2/C"
_symmetry_group_IT_number 13
_symmetry_cell_setting 'monoclinic'
loop_
_space_group_symop_operation_xyz
x,y,z
-x,y,1/2-z
-x,-y,-z
x,-y,1/2+z
loop_
_atom_site_type_symbol
_atom_site_label
_atom_site_fract_x
_atom_site_fract_y
_atom_site_fract_z
Si Si1 0.389352 0.671295 0.429237
Si Si2 0.237129 0.770916 0.682580
Si Si3 0.722556 0.610558 0.649771
Si Si4 0.474364 0.955015 0.655963
Si Si5 0.387374 0.560546 0.108580
Si Si6 0.867164 0.746293 0.117161
Si Si7 0.077313 0.725719 0.792689
Si Si8 0.230769 0.006483 0.004110
O O1 0.364439 0.500421 0.349271
O O2 0.456037 0.892500 0.407643
O O3 0.403905 0.462457 0.503631
O O4 0.309487 0.827675 0.467032
O O5 0.269779 0.823245 0.774131
O O6 0.300777 0.553055 0.639803
O O7 0.149596 0.663625 0.714912
O O8 0.228670 0.990956 0.608154
O O9 0.782494 0.372263 0.661523
O O10 0.755658 0.737384 0.554505
O O11 0.500000 0.972754 0.750000
O O12 0.401257 0.146679 0.644523
O O13 0.448783 0.653813 0.637908
O O14 0.923135 0.496424 0.130572
O O15 0.845625 0.850776 0.024670
O O16 0.899319 0.993472 0.166886
O O17 0.000000 0.737051 0.750000
#
# Coordination Sequence:
#
# PCOD9231973 Si02
#       8
#     4   4   4   4   4   4   4   4
#     4  10  24  39  66  91 133 173 223 276 335 380
#     4  10  23  43  69  98 132 171 225 268 326 404
#     4  10  21  41  69  95 134 175 222 271 328 384
#     4  12  26  42  63  93 132 172 224 276 331 389
#     4  11  26  42  63  95 126 176 221 273 334 391
#     4  10  20  43  65  96 134 172 214 268 322 392
#     4  11  23  43  71  99 133 175 214 269 333 390
#     4  10  21  41  67 102 129 179 222 272 323 387
#
# _framework density 24.454847000000001
#
# number of rings (size 3 to 8) (size 9 to 14) (size 15 to 20)
#    0.000    1.500    2.500    2.250    7.000    2.000 
#    9.000    1.250    0.000    0.000    0.000    0.000 
#    0.000    0.000    0.000    0.000    0.000    0.000 
#
# Total GULP energy -178901.095920 kJ/mol
# GULP energy per Si atom -5590.659247 kJ/mol
# Density = 2.439919 g / cm^3
# Si number density = 24.454847 Si / 1000 Ang^3
#
#
#
# Elastic Constant Matrix: (Units=GPa)
#
#
# Indices 1 2 3 4 5 6 
#
# 1 109.0855 13.6266 39.4628 0.0000 35.3191 0.0000
# 2 13.6266 114.4233 23.8994 0.0000 27.2765 0.0000
# 3 39.4628 23.8994 93.0400 0.0000 30.7174 0.0000
# 4 0.0000 0.0000 0.0000 27.2863 0.0000 14.3224
# 5 35.3191 27.2765 30.7174 0.0000 34.6112 0.0000
# 6 0.0000 0.0000 0.0000 14.3224 0.0000 29.1437
#
#
#
# Elastic Compliance Matrix: (Units=1/GPa)
#
#
# Indices 1 2 3 4 5 6 
#
# 1 0.014310 0.002182 -0.001756 0.000000 -0.014764 0.000000
# 2 0.002182 0.011094 -0.000217 0.000000 -0.010777 0.000000
# 3 -0.001756 -0.000217 0.015418 0.000000 -0.011721 0.000000
# 4 0.000000 0.000000 0.000000 0.049388 0.000000 -0.024271
# 5 -0.014764 -0.010777 -0.011721 0.000000 0.062854 0.000000
# 6 0.000000 0.000000 0.000000 -0.024271 0.000000 0.046241
#
#
# Mechanical properties :
#
#
# Convention : Reuss Voigt Hill
#
# Bulk Modulus (GPa) = 24.24806 52.28070 38.26438
# Shear Modulus (GPa) = 23.51468 34.17892 28.84680
#
# Velocity S-wave (km/s) = 3.10426 3.74255 3.43825
# Velocity P-wave (km/s) = 4.77342 6.33249 5.60740
#
# Compressibility (1/GPa) = 0.04124041
#
# Stress axis : x y z
#
# Youngs Moduli (GPa) = 69.88177 90.13877 64.85843
#
# Poissons Ratio (x) = -0.19668 0.11387
# Poissons Ratio (y) = -0.15248 0.01409
# Poissons Ratio (z) = 0.12269 0.01958
#
# Static dielectric constant tensor:
#      x y z
#    x 1.948180 0.000000 -0.005620 
#    y 0.000000 1.954040 0.000000 
#    z -0.005620 0.000000 2.011630 
# 
# From -- ./inp_files/54659.got.cif
#   From: 2010.05.17/outbox.cif.g08.bks.cpg/sg13_28_cif.got.tgz:54659.got - 2010.06.03 16:44:36.
