data_PCOD9231985
_publ_section_title
;
Structure prediction by ZEFSAII (Michael W. Deem and Ramdas Pophale) SiO2 
 PCOD9231985
Probable space group: P 2/C
;
_chemical_formula_sum "Si O2"
_cell_formula_units_Z 24
_cell_length_a 7.776980
_cell_length_b 4.869017
_cell_length_c 26.180793
_cell_angle_alpha 90.000000
_cell_angle_beta 104.651566
_cell_angle_gamma 90.000000
_cell_volume 959.130996
_symmetry_space_group_name_H-M "P 2/C"
_symmetry_group_IT_number 13
_symmetry_cell_setting 'monoclinic'
loop_
_space_group_symop_operation_xyz
x,y,z
-x,y,1/2-z
-x,-y,-z
x,-y,1/2+z
loop_
_atom_site_type_symbol
_atom_site_label
_atom_site_fract_x
_atom_site_fract_y
_atom_site_fract_z
Si Si1 0.007811 0.933383 0.695575
Si Si2 0.621133 0.651884 0.810187
Si Si3 0.146225 0.529432 0.362524
Si Si4 0.352403 0.877122 0.111775
Si Si5 0.592564 0.701376 0.046311
Si Si6 0.981074 0.332321 0.550486
O O1 0.193687 0.791381 0.695754
O O2 0.000000 0.065508 0.750000
O O3 0.874972 0.676806 0.684516
O O4 0.929884 0.170095 0.654324
O O5 0.500000 0.614309 0.750000
O O6 0.641234 0.375273 0.845741
O O7 0.569188 0.879256 0.848113
O O8 0.217056 0.802008 0.461202
O O9 0.033575 0.444869 0.404181
O O10 0.456369 0.895626 0.064943
O O11 0.148336 0.857765 0.076030
O O12 0.657441 0.537702 0.101638
O O13 0.500000 0.500000 0.000000
O O14 0.000000 0.500000 0.500000
#
# Coordination Sequence:
#
# PCOD9231985 Si02
#       6
#     4   4   4   4   4   4
#     4  12  24  44  67  96 128 176 217 266 329 387
#     4  12  26  42  67  96 131 173 218 270 325 381
#     4  10  24  42  67  95 132 170 215 264 328 383
#     4  12  24  46  65  98 136 169 217 270 320 391
#     4  10  22  41  70 100 130 173 218 267 325 385
#     4  10  20  43  70  97 133 174 214 267 328 386
#
# _framework density 25.022651
#
# number of rings (size 3 to 8) (size 9 to 14) (size 15 to 20)
#    1.000    0.000    5.000    1.000    4.667    0.000 
#    0.000   10.000    0.000    0.000    0.000    0.000 
#    0.000    0.000    0.000    0.000    0.000    0.000 
#
# Total GULP energy -133726.949304 kJ/mol
# GULP energy per Si atom -5571.956221 kJ/mol
# Density = 2.496570 g / cm^3
# Si number density = 25.022651 Si / 1000 Ang^3
#
#
#
# Elastic Constant Matrix: (Units=GPa)
#
#
# Indices 1 2 3 4 5 6 
#
# 1 126.2993 20.6521 42.8728 0.0000 13.2109 0.0000
# 2 20.6521 110.6992 22.2818 0.0000 15.8191 0.0000
# 3 42.8728 22.2818 74.7704 0.0000 15.4691 0.0000
# 4 0.0000 0.0000 0.0000 19.8949 0.0000 -0.0540
# 5 13.2109 15.8191 15.4691 0.0000 50.4579 0.0000
# 6 0.0000 0.0000 0.0000 -0.0540 0.0000 13.1987
#
#
#
# Elastic Compliance Matrix: (Units=1/GPa)
#
#
# Indices 1 2 3 4 5 6 
#
# 1 0.009915 -0.000669 -0.005330 0.000000 -0.000752 0.000000
# 2 -0.000669 0.009907 -0.002095 0.000000 -0.002288 0.000000
# 3 -0.005330 -0.002095 0.017757 0.000000 -0.003391 0.000000
# 4 0.000000 0.000000 0.000000 0.050265 0.000000 0.000206
# 5 -0.000752 -0.002288 -0.003391 0.000000 0.021773 0.000000
# 6 0.000000 0.000000 0.000000 0.000206 0.000000 0.075766
#
#
# Mechanical properties :
#
#
# Convention : Reuss Voigt Hill
#
# Bulk Modulus (GPa) = 46.75211 53.70916 50.23063
# Shear Modulus (GPa) = 23.95768 31.77443 27.86605
#
# Velocity S-wave (km/s) = 3.09761 3.56733 3.34073
# Velocity P-wave (km/s) = 5.61409 6.20311 5.91594
#
# Compressibility (1/GPa) = 0.02138941
#
# Stress axis : x y z
#
# Youngs Moduli (GPa) = 100.85532 100.93775 56.31732
#
# Poissons Ratio (x) = 0.06757 0.30018
# Poissons Ratio (y) = 0.06752 0.11799
# Poissons Ratio (z) = 0.53758 0.21147
#
# Static dielectric constant tensor:
#      x y z
#    x 2.361150 0.000000 0.091870 
#    y 0.000000 1.999090 0.000000 
#    z 0.091870 0.000000 2.047330 
# 
# From -- ./inp_files/84341.got.cif
#   From: 2010.05.17/outbox.cif.g08.bks.cpg/sg13_43_cif.got.tgz:84341.got - 2010.06.03 16:44:36.
