data_PCOD9231524
_publ_section_title
;
Structure prediction by ZEFSAII (Michael W. Deem and Ramdas Pophale) SiO2 
 PCOD9231524
Probable space group: P 2/C
;
_chemical_formula_sum "Si O2"
_cell_formula_units_Z 22
_cell_length_a 14.425358
_cell_length_b 5.135340
_cell_length_c 14.440742
_cell_angle_alpha 90.000000
_cell_angle_beta 112.967728
_cell_angle_gamma 90.000000
_cell_volume 984.952183
_symmetry_space_group_name_H-M "P 2/C"
_symmetry_group_IT_number 13
_symmetry_cell_setting 'monoclinic'
loop_
_space_group_symop_operation_xyz
x,y,z
-x,y,1/2-z
-x,-y,-z
x,-y,1/2+z
loop_
_atom_site_type_symbol
_atom_site_label
_atom_site_fract_x
_atom_site_fract_y
_atom_site_fract_z
Si Si1 0.089457 0.701361 0.012534
Si Si2 0.039468 0.018990 0.175920
Si Si3 0.748917 0.751743 0.728271
Si Si4 0.545597 0.751371 0.567962
Si Si5 0.500000 0.533401 0.750000
Si Si6 0.290998 0.260401 0.670486
O O1 0.208968 0.654681 0.060878
O O2 0.079056 0.875938 0.100503
O O3 0.000000 0.500000 0.000000
O O4 0.054416 0.827046 0.903716
O O5 0.134467 0.190694 0.243764
O O6 0.000000 0.864903 0.250000
O O7 0.666833 0.781746 0.615837
O O8 0.738968 0.454726 0.757429
O O9 0.717117 0.962885 0.796527
O O10 0.500000 0.500000 0.500000
O O11 0.518975 0.707092 0.666145
O O12 0.500000 0.000000 0.500000
O O13 0.403913 0.349096 0.692537
#
# Coordination Sequence:
#
# PCOD9231524 Si02
#       6
#     4   4   4   4   2   4
#     4  10  20  40  62  89 129 163 209 268 319 372
#     4  10  22  39  61  92 124 168 213 258 321 390
#     4  10  21  41  62  91 132 165 206 274 323 363
#     4  11  24  42  64  94 129 166 216 268 317 382
#     4  10  24  44  68  96 130 174 220 256 334 386
#     4  10  21  39  67  92 126 172 209 264 321 384
#
# _framework density 22.336112
#
# number of rings (size 3 to 8) (size 9 to 14) (size 15 to 20)
#    0.000    1.818    1.818    2.182    0.000    8.727 
#    3.273    0.000    0.000    0.000    0.000    0.000 
#    0.000    0.000    0.000    0.000    0.000    0.000 
#
# Total GULP energy -122592.360532 kJ/mol
# GULP energy per Si atom -5572.380024 kJ/mol
# Density = 2.228527 g / cm^3
# Si number density = 22.336112 Si / 1000 Ang^3
#
#
#
# Elastic Constant Matrix: (Units=GPa)
#
#
# Indices 1 2 3 4 5 6 
#
# 1 93.1822 -0.9304 68.8833 0.0000 26.4592 0.0000
# 2 -0.9304 68.2388 39.6336 0.0000 4.1201 0.0000
# 3 68.8833 39.6336 155.3126 0.0000 41.5246 0.0000
# 4 0.0000 0.0000 0.0000 31.8740 0.0000 14.9519
# 5 26.4592 4.1201 41.5246 0.0000 69.7666 0.0000
# 6 0.0000 0.0000 0.0000 14.9519 0.0000 21.5303
#
#
#
# Elastic Compliance Matrix: (Units=1/GPa)
#
#
# Indices 1 2 3 4 5 6 
#
# 1 0.017819 0.005469 -0.008807 0.000000 -0.001839 0.000000
# 2 0.005469 0.019097 -0.007662 0.000000 0.001358 0.000000
# 3 -0.008807 -0.007662 0.013422 0.000000 -0.004196 0.000000
# 4 0.000000 0.000000 0.000000 0.046532 0.000000 -0.032315
# 5 -0.001839 0.001358 -0.004196 0.000000 0.017448 0.000000
# 6 0.000000 0.000000 0.000000 -0.032315 0.000000 0.068887
#
#
# Mechanical properties :
#
#
# Convention : Reuss Voigt Hill
#
# Bulk Modulus (GPa) = 35.28854 59.10074 47.19464
# Shear Modulus (GPa) = 23.29363 38.57733 30.93548
#
# Velocity S-wave (km/s) = 3.23285 4.16038 3.72559
# Velocity P-wave (km/s) = 5.45603 7.04241 6.29936
#
# Compressibility (1/GPa) = 0.02833781
#
# Stress axis : x y z
#
# Youngs Moduli (GPa) = 56.12075 52.36376 74.50638
#
# Poissons Ratio (x) = -0.28638 0.65616
# Poissons Ratio (y) = -0.30693 0.57088
# Poissons Ratio (z) = 0.49424 0.40122
#
# Static dielectric constant tensor:
#      x y z
#    x 2.112780 0.000000 0.079280 
#    y 0.000000 1.863790 0.000000 
#    z 0.079280 0.000000 1.910910 
# 
# From -- ./inp_files/52089.got.cif
#   From: 2010.05.17/outbox.cif.g08.bks.cpg/sg13_27_cif.got.tgz:52089.got - 2010.06.03 16:44:36.
