data_PCOD9231548
_publ_section_title
;
Structure prediction by ZEFSAII (Michael W. Deem and Ramdas Pophale) SiO2 
 PCOD9231548
Probable space group: P 2/C
;
_chemical_formula_sum "Si O2"
_cell_formula_units_Z 24
_cell_length_a 11.798144
_cell_length_b 6.350458
_cell_length_c 16.351622
_cell_angle_alpha 90.000000
_cell_angle_beta 66.134802
_cell_angle_gamma 90.000000
_cell_volume 1120.374535
_symmetry_space_group_name_H-M "P 2/C"
_symmetry_group_IT_number 13
_symmetry_cell_setting 'monoclinic'
loop_
_space_group_symop_operation_xyz
x,y,z
-x,y,1/2-z
-x,-y,-z
x,-y,1/2+z
loop_
_atom_site_type_symbol
_atom_site_label
_atom_site_fract_x
_atom_site_fract_y
_atom_site_fract_z
Si Si1 0.861293 0.581035 0.955301
Si Si2 0.529837 0.320963 0.653953
Si Si3 0.092264 0.477267 0.290681
Si Si4 0.722734 0.689535 0.368811
Si Si5 0.266926 0.654875 0.867712
Si Si6 0.727212 0.027955 0.508430
O O1 0.758397 0.496922 0.921080
O O2 0.988735 0.480094 0.888839
O O3 0.821606 0.496663 0.053892
O O4 0.850143 0.831560 0.960790
O O5 0.500000 0.210640 0.750000
O O6 0.402258 0.354510 0.643643
O O7 0.602674 0.533767 0.659614
O O8 0.617381 0.184813 0.568521
O O9 0.162174 0.675374 0.228683
O O10 0.203711 0.341155 0.297171
O O11 0.000000 0.374817 0.250000
O O12 0.708630 0.893183 0.431109
O O13 0.264213 0.870672 0.917510
#
# Coordination Sequence:
#
# PCOD9231548 Si02
#       6
#     4   4   4   4   4   4
#     4   9  21  40  63  93 122 164 214 258 316 383
#     4  11  22  40  64  98 131 168 215 260 311 384
#     4  10  20  40  63  88 122 168 210 258 314 378
#     4  10  21  41  65  93 133 170 206 260 320 373
#     4  10  21  40  63  88 126 168 206 265 325 369
#     4  10  23  40  64  96 129 167 212 262 318 377
#
# _framework density 21.421406999999999
#
# number of rings (size 3 to 8) (size 9 to 14) (size 15 to 20)
#    0.000    2.000    1.667    1.000    0.000    8.667 
#    6.000   15.833    0.000    0.000    0.000    0.000 
#    0.000    0.000    0.000    0.000    0.000    0.000 
#
# Total GULP energy -133640.227391 kJ/mol
# GULP energy per Si atom -5568.342808 kJ/mol
# Density = 2.137265 g / cm^3
# Si number density = 21.421407 Si / 1000 Ang^3
#
#
#
# Elastic Constant Matrix: (Units=GPa)
#
#
# Indices 1 2 3 4 5 6 
#
# 1 159.1502 44.0183 54.2727 0.0000 19.8349 0.0000
# 2 44.0183 73.8054 28.8737 0.0000 -6.7794 0.0000
# 3 54.2727 28.8737 103.0302 0.0000 -20.7856 0.0000
# 4 0.0000 0.0000 0.0000 24.6015 0.0000 -8.0661
# 5 19.8349 -6.7794 -20.7856 0.0000 34.3473 0.0000
# 6 0.0000 0.0000 0.0000 -8.0661 0.0000 -3.8716
#
#
#
# Elastic Compliance Matrix: (Units=1/GPa)
#
#
# Indices 1 2 3 4 5 6 
#
# 1 0.011678 -0.005295 -0.007107 0.000000 -0.012090 0.000000
# 2 -0.005295 0.017626 -0.000947 0.000000 0.005964 0.000000
# 3 -0.007107 -0.000947 0.016522 0.000000 0.013916 0.000000
# 4 0.000000 0.000000 0.000000 0.024151 0.000000 -0.050316
# 5 -0.012090 0.005964 0.013916 0.000000 0.045694 0.000000
# 6 0.000000 0.000000 0.000000 -0.050316 0.000000 -0.153464
#
#
# Mechanical properties :
#
#
# Convention : Reuss Voigt Hill
#
# Bulk Modulus (GPa) = 52.27915 65.59057 58.93486
# Shear Modulus (GPa) = -1059.70516 24.93684 -517.38416
#
# Velocity S-wave (km/s) = -22.26586 3.41560 -15.55799
# Velocity P-wave (km/s) = 25.23027 6.80006 17.18030
#
# Compressibility (1/GPa) = 0.01912808
#
# Stress axis : x y z
#
# Youngs Moduli (GPa) = 85.62945 56.73573 60.52448
#
# Poissons Ratio (x) = 0.30043 0.43013
# Poissons Ratio (y) = 0.45343 0.05731
# Poissons Ratio (z) = 0.60855 0.05373
#
# Static dielectric constant tensor:
#      x y z
#    x 1.823290 0.000000 0.011080 
#    y 0.000000 1.769670 0.000000 
#    z 0.011080 0.000000 1.889330 
# 
# From -- ./inp_files/65290.got.cif
#   From: 2010.05.17/outbox.cif.g08.bks.cpg/sg13_33_cif.got.tgz:65290.got - 2010.06.03 16:44:36.
