data_PCOD9231841
_publ_section_title
;
Structure prediction by ZEFSAII (Michael W. Deem and Ramdas Pophale) SiO2 
 PCOD9231841
Probable space group: P 2/C
;
_chemical_formula_sum "Si O2"
_cell_formula_units_Z 32
_cell_length_a 12.470747
_cell_length_b 5.284893
_cell_length_c 22.609739
_cell_angle_alpha 90.000000
_cell_angle_beta 114.897231
_cell_angle_gamma 90.000000
_cell_volume 1351.643998
_symmetry_space_group_name_H-M "P 2/C"
_symmetry_group_IT_number 13
_symmetry_cell_setting 'monoclinic'
loop_
_space_group_symop_operation_xyz
x,y,z
-x,y,1/2-z
-x,-y,-z
x,-y,1/2+z
loop_
_atom_site_type_symbol
_atom_site_label
_atom_site_fract_x
_atom_site_fract_y
_atom_site_fract_z
Si Si1 0.512343 0.042060 0.185661
Si Si2 0.883441 0.172948 0.510559
Si Si3 0.586640 0.738932 0.585848
Si Si4 0.257915 0.154158 0.610094
Si Si5 0.337709 0.249545 0.957324
Si Si6 0.895935 0.618091 0.771552
Si Si7 0.078063 0.483378 0.095406
Si Si8 0.760578 0.098722 0.760478
O O1 0.500000 0.142368 0.250000
O O2 0.551998 0.242747 0.146255
O O3 0.395502 0.903197 0.134311
O O4 0.623342 0.855080 0.216244
O O5 0.773651 0.272731 0.524424
O O6 0.936053 0.296265 0.462400
O O7 0.996833 0.261748 0.576106
O O8 0.817829 0.930812 0.464687
O O9 0.657218 0.488451 0.584995
O O10 0.459721 0.739341 0.522827
O O11 0.656021 0.986809 0.577664
O O12 0.214800 0.435204 0.616111
O O13 0.231493 0.027969 0.667760
O O14 0.947995 0.650437 0.849541
O O15 0.831149 0.349165 0.761023
O O16 0.000000 0.608821 0.750000
O O17 0.810875 0.853808 0.739196
#
# Coordination Sequence:
#
# PCOD9231841 Si02
#       8
#     4   4   4   4   4   4   4   4
#     4  10  22  42  69  98 130 176 222 273 332 392
#     4  11  21  40  64  97 125 174 220 271 329 389
#     4  10  22  42  60  95 129 166 216 259 325 394
#     4  10  20  42  62  92 130 172 210 278 326 384
#     4  10  23  39  65  89 130 173 205 267 327 386
#     4  11  23  45  67  93 133 175 211 273 330 387
#     4  10  24  38  65  96 128 167 225 272 322 398
#     4  10  23  42  64  99 127 168 225 265 322 392
#
# _framework density 23.674873999999999
#
# number of rings (size 3 to 8) (size 9 to 14) (size 15 to 20)
#    0.000    1.750    2.500    0.750    1.750    4.000 
#    2.250    3.750    0.000    0.000    0.000    0.000 
#    0.000    0.000    0.000    0.000    0.000    0.000 
#
# Total GULP energy -178424.817079 kJ/mol
# GULP energy per Si atom -5575.775534 kJ/mol
# Density = 2.362099 g / cm^3
# Si number density = 23.674874 Si / 1000 Ang^3
#
#
#
# Elastic Constant Matrix: (Units=GPa)
#
#
# Indices 1 2 3 4 5 6 
#
# 1 143.4492 30.6536 34.9193 0.0000 -3.1082 0.0000
# 2 30.6536 67.6738 10.5933 0.0000 5.2356 0.0000
# 3 34.9193 10.5933 65.5239 0.0000 -10.1513 0.0000
# 4 0.0000 0.0000 0.0000 -29.0325 0.0000 -8.3541
# 5 -3.1082 5.2356 -10.1513 0.0000 29.7068 0.0000
# 6 0.0000 0.0000 0.0000 -8.3541 0.0000 21.2972
#
#
#
# Elastic Compliance Matrix: (Units=1/GPa)
#
#
# Indices 1 2 3 4 5 6 
#
# 1 0.008669 -0.003297 -0.004072 0.000000 0.000097 0.000000
# 2 -0.003297 0.016811 -0.001556 0.000000 -0.003839 0.000000
# 3 -0.004072 -0.001556 0.018647 0.000000 0.006220 0.000000
# 4 0.000000 0.000000 0.000000 -0.030951 0.000000 -0.012141
# 5 0.000097 -0.003839 0.006220 0.000000 0.036475 0.000000
# 6 0.000000 0.000000 0.000000 -0.012141 0.000000 0.042192
#
#
# Mechanical properties :
#
#
# Convention : Reuss Voigt Hill
#
# Bulk Modulus (GPa) = 38.05523 47.66439 42.85981
# Shear Modulus (GPa) = 42.21188 17.75969 29.98579
#
# Velocity S-wave (km/s) = 4.22712 2.74186 3.56275
# Velocity P-wave (km/s) = 6.31931 5.49548 5.92174
#
# Compressibility (1/GPa) = 0.02627760
#
# Stress axis : x y z
#
# Youngs Moduli (GPa) = 115.35497 59.48627 53.62861
#
# Poissons Ratio (x) = 0.19611 0.21837
# Poissons Ratio (y) = 0.38030 0.08343
# Poissons Ratio (z) = 0.46971 0.09254
#
# Static dielectric constant tensor:
#      x y z
#    x 1.930170 0.000000 0.245820 
#    y 0.000000 1.976560 0.000000 
#    z 0.245820 0.000000 2.667550 
# 
# From -- ./inp_files/86010.got.cif
#   From: 2010.05.17/outbox.cif.g08.bks.cpg/sg13_44_cif.got.tgz:86010.got - 2010.06.03 16:44:36.
