data_PCOD9231883
_publ_section_title
;
Structure prediction by ZEFSAII (Michael W. Deem and Ramdas Pophale) SiO2 
 PCOD9231883
Probable space group: P 2/C
;
_chemical_formula_sum "Si O2"
_cell_formula_units_Z 28
_cell_length_a 16.322097
_cell_length_b 5.273079
_cell_length_c 25.671398
_cell_angle_alpha 90.000000
_cell_angle_beta 31.107362
_cell_angle_gamma 90.000000
_cell_volume 1141.512295
_symmetry_space_group_name_H-M "P 2/C"
_symmetry_group_IT_number 13
_symmetry_cell_setting 'monoclinic'
loop_
_space_group_symop_operation_xyz
x,y,z
-x,y,1/2-z
-x,-y,-z
x,-y,1/2+z
loop_
_atom_site_type_symbol
_atom_site_label
_atom_site_fract_x
_atom_site_fract_y
_atom_site_fract_z
Si Si1 0.440185 0.352272 0.166809
Si Si2 0.000000 0.009811 0.750000
Si Si3 0.925925 0.123632 0.946836
Si Si4 0.500000 0.503695 0.750000
Si Si5 0.795306 0.034839 0.269045
Si Si6 0.137107 0.624816 0.462518
Si Si7 0.489107 0.303256 0.553921
Si Si8 0.726772 0.060034 0.960842
O O1 0.478825 0.344165 0.206744
O O2 0.280700 0.227080 0.231214
O O3 0.443572 0.626811 0.138903
O O4 0.579203 0.228263 0.056668
O O5 0.914648 0.863104 0.748905
O O6 0.865859 0.177452 0.850766
O O7 0.806042 0.992780 0.971853
O O8 0.094543 0.143608 0.826547
O O9 0.922640 0.907752 0.992675
O O10 0.865428 0.404212 0.992273
O O11 0.673315 0.362485 0.654964
O O12 0.652169 0.897363 0.377668
O O13 0.000000 0.500000 0.500000
O O14 0.500000 0.500000 0.500000
O O15 0.660088 0.182577 0.467998
#
# Coordination Sequence:
#
# PCOD9231883 Si02
#       8
#     4   2   4   2   4   4   4   4
#     4  11  23  45  68 103 148 191 261 315 394 478
#     4  10  20  42  66  96 134 190 242 314 398 466
#     4  11  25  48  70 105 150 197 254 322 389 465
#     4  12  26  46  78 112 152 218 260 328 404 476
#     4  10  24  42  71 101 144 195 247 321 394 473
#     4  12  27  48  74 110 151 203 265 328 385 470
#     4  11  23  41  70 105 141 195 252 331 396 481
#     4  10  22  43  66  99 143 188 248 314 386 474
#
# _framework density 24.528865
#
# number of rings (size 3 to 8) (size 9 to 14) (size 15 to 20)
#    0.000    1.143    1.429    3.857    4.000    2.857 
#    2.571    1.429    0.000    0.000    0.000    0.000 
#    0.000    0.000    0.000    0.000    0.000    0.000 
#
# Total GULP energy -155965.815164 kJ/mol
# GULP energy per Si atom -5570.207684 kJ/mol
# Density = 2.447304 g / cm^3
# Si number density = 24.528865 Si / 1000 Ang^3
#
#
#
# Elastic Constant Matrix: (Units=GPa)
#
#
# Indices 1 2 3 4 5 6 
#
# 1 182.9265 23.0147 34.4380 0.0000 -1.5183 0.0000
# 2 23.0147 48.5667 9.9957 0.0000 8.5743 0.0000
# 3 34.4380 9.9957 105.3823 0.0000 -4.9000 0.0000
# 4 0.0000 0.0000 0.0000 20.8048 0.0000 6.2250
# 5 -1.5183 8.5743 -4.9000 0.0000 39.3817 0.0000
# 6 0.0000 0.0000 0.0000 6.2250 0.0000 29.3676
#
#
#
# Elastic Compliance Matrix: (Units=1/GPa)
#
#
# Indices 1 2 3 4 5 6 
#
# 1 0.006130 -0.002656 -0.001723 0.000000 0.000600 0.000000
# 2 -0.002656 0.023114 -0.001572 0.000000 -0.005330 0.000000
# 3 -0.001723 -0.001572 0.010274 0.000000 0.001554 0.000000
# 4 0.000000 0.000000 0.000000 0.051321 0.000000 -0.010878
# 5 0.000600 -0.005330 0.001554 0.000000 0.026770 0.000000
# 6 0.000000 0.000000 0.000000 -0.010878 0.000000 0.036357
#
#
# Mechanical properties :
#
#
# Convention : Reuss Voigt Hill
#
# Bulk Modulus (GPa) = 36.21359 52.41916 44.31637
# Shear Modulus (GPa) = 28.55943 35.87263 32.21603
#
# Velocity S-wave (km/s) = 3.41591 3.82837 3.62801
# Velocity P-wave (km/s) = 5.50942 6.39990 5.97128
#
# Compressibility (1/GPa) = 0.02761395
#
# Stress axis : x y z
#
# Youngs Moduli (GPa) = 163.12371 43.26453 97.33433
#
# Poissons Ratio (x) = 0.11492 0.16775
# Poissons Ratio (y) = 0.43330 0.15303
# Poissons Ratio (z) = 0.28114 0.06802
#
# Static dielectric constant tensor:
#      x y z
#    x 2.073180 0.000000 -0.004020 
#    y 0.000000 2.145960 0.000000 
#    z -0.004020 0.000000 2.045050 
# 
# From -- ./inp_files/93157.got.cif
#   From: 2010.05.17/outbox.cif.g08.bks.cpg/sg13_47_cif.got.tgz:93157.got - 2010.06.03 16:44:36.
