data_PCOD9231147
_publ_section_title
;
Structure prediction by ZEFSAII (Michael W. Deem and Ramdas Pophale) SiO2 
 PCOD9231147
Probable space group: P 2/C
;
_chemical_formula_sum "Si O2"
_cell_formula_units_Z 26
_cell_length_a 16.699278
_cell_length_b 9.556057
_cell_length_c 16.516413
_cell_angle_alpha 90.000000
_cell_angle_beta 152.811050
_cell_angle_gamma 90.000000
_cell_volume 1204.310295
_symmetry_space_group_name_H-M "P 2/C"
_symmetry_group_IT_number 13
_symmetry_cell_setting 'monoclinic'
loop_
_space_group_symop_operation_xyz
x,y,z
-x,y,1/2-z
-x,-y,-z
x,-y,1/2+z
loop_
_atom_site_type_symbol
_atom_site_label
_atom_site_fract_x
_atom_site_fract_y
_atom_site_fract_z
Si Si1 0.265841 0.128494 0.797195
Si Si2 0.412195 0.399267 0.307459
Si Si3 0.469573 0.697223 0.046734
Si Si4 0.374849 0.158023 0.069438
Si Si5 0.000000 0.955201 0.250000
Si Si6 0.871675 0.143815 0.277326
Si Si7 0.974165 0.341906 0.507877
O O1 0.126467 0.254521 0.690792
O O2 0.188567 0.976070 0.713128
O O3 0.382576 0.186210 0.830406
O O4 0.377323 0.100890 0.979503
O O5 0.456169 0.563157 0.339721
O O6 0.438075 0.357374 0.425688
O O7 0.549664 0.312595 0.378448
O O8 0.211883 0.350261 0.112772
O O9 0.289591 0.772361 0.908972
O O10 0.500000 0.092059 0.250000
O O11 0.174840 0.136195 0.915089
O O12 0.977015 0.056629 0.306202
O O13 0.967246 0.255393 0.418218
O O14 0.000000 0.500000 0.500000
#
# Coordination Sequence:
#
# PCOD9231147 Si02
#       7
#     4   4   4   4   2   4   4
#     4  10  20  38  65  98 126 173 214 275 337 387
#     4   9  19  35  61  93 128 167 215 268 327 383
#     4   9  17  36  60  90 125 160 213 271 328 376
#     4  10  23  41  65  91 130 178 223 271 317 401
#     4  10  24  48  60  92 132 188 220 262 332 400
#     4  10  22  38  64  92 133 171 221 270 329 400
#     4  11  21  38  66 102 135 167 217 286 337 398
#
# _framework density 21.589120999999999
#
# number of rings (size 3 to 8) (size 9 to 14) (size 15 to 20)
#    0.000    2.154    1.538    0.923    6.462    1.231 
#    8.308    2.308    0.000    0.000    0.000    0.000 
#    0.000    0.000    0.000    0.000    0.000    0.000 
#
# Total GULP energy -144903.350594 kJ/mol
# GULP energy per Si atom -5573.205792 kJ/mol
# Density = 2.153998 g / cm^3
# Si number density = 21.589121 Si / 1000 Ang^3
#
#
#
# Elastic Constant Matrix: (Units=GPa)
#
#
# Indices 1 2 3 4 5 6 
#
# 1 69.2428 34.7840 34.4881 0.0000 22.8942 0.0000
# 2 34.7840 111.0600 27.6184 0.0000 4.5460 0.0000
# 3 34.4881 27.6184 102.0463 0.0000 10.5542 0.0000
# 4 0.0000 0.0000 0.0000 29.4072 0.0000 6.5820
# 5 22.8942 4.5460 10.5542 0.0000 29.1877 0.0000
# 6 0.0000 0.0000 0.0000 6.5820 0.0000 24.3383
#
#
#
# Elastic Compliance Matrix: (Units=1/GPa)
#
#
# Indices 1 2 3 4 5 6 
#
# 1 0.025912 -0.006082 -0.005306 0.000000 -0.017459 0.000000
# 2 -0.006082 0.011091 -0.001310 0.000000 0.003517 0.000000
# 3 -0.005306 -0.001310 0.011942 0.000000 0.000047 0.000000
# 4 0.000000 0.000000 0.000000 0.036196 0.000000 -0.009789
# 5 -0.017459 0.003517 0.000047 0.000000 0.047391 0.000000
# 6 0.000000 0.000000 0.000000 -0.009789 0.000000 0.043735
#
#
# Mechanical properties :
#
#
# Convention : Reuss Voigt Hill
#
# Bulk Modulus (GPa) = 42.46174 52.90334 47.68254
# Shear Modulus (GPa) = 23.86494 28.95054 26.40774
#
# Velocity S-wave (km/s) = 3.32839 3.66591 3.50122
# Velocity P-wave (km/s) = 5.87211 6.51739 6.20315
#
# Compressibility (1/GPa) = 0.02355061
#
# Stress axis : x y z
#
# Youngs Moduli (GPa) = 38.59153 90.16528 83.73619
#
# Poissons Ratio (x) = 0.54835 0.44428
# Poissons Ratio (y) = 0.23470 0.10969
# Poissons Ratio (z) = 0.20476 0.11812
#
# Static dielectric constant tensor:
#      x y z
#    x 1.796440 0.000000 0.020630 
#    y 0.000000 1.824090 0.000000 
#    z 0.020630 0.000000 1.909790 
# 
# From -- ./inp_files/69712.got.cif
#   From: 2010.05.17/outbox.cif.g08.bks.cpg/sg13_35_cif.got.tgz:69712.got - 2010.06.03 16:44:36.
