data_PCOD9231327
_publ_section_title
;
Structure prediction by ZEFSAII (Michael W. Deem and Ramdas Pophale) SiO2 
 PCOD9231327
Probable space group: P 2/C
;
_chemical_formula_sum "Si O2"
_cell_formula_units_Z 20
_cell_length_a 8.437677
_cell_length_b 5.929730
_cell_length_c 16.262501
_cell_angle_alpha 90.000000
_cell_angle_beta 87.999716
_cell_angle_gamma 90.000000
_cell_volume 813.168291
_symmetry_space_group_name_H-M "P 2/C"
_symmetry_group_IT_number 13
_symmetry_cell_setting 'monoclinic'
loop_
_space_group_symop_operation_xyz
x,y,z
-x,y,1/2-z
-x,-y,-z
x,-y,1/2+z
loop_
_atom_site_type_symbol
_atom_site_label
_atom_site_fract_x
_atom_site_fract_y
_atom_site_fract_z
Si Si1 0.337309 0.254202 0.711526
Si Si2 0.089208 0.124332 0.828958
Si Si3 0.156718 0.555146 0.073871
Si Si4 0.695242 0.183625 0.060822
Si Si5 0.667326 0.851877 0.904245
O O1 0.500000 0.305027 0.750000
O O2 0.203639 0.301888 0.780778
O O3 0.306565 0.389719 0.629853
O O4 0.330393 0.996986 0.679310
O O5 0.000000 0.024720 0.750000
O O6 0.973987 0.270569 0.889921
O O7 0.201655 0.948395 0.873512
O O8 0.167831 0.289165 0.088793
O O9 0.203802 0.610563 0.979706
O O10 0.514471 0.242227 0.088350
O O11 0.677886 0.013652 0.983772
#
# Coordination Sequence:
#
# PCOD9231327 Si02
#       5
#     4   4   4   4   4
#     4  10  20  40  63  87 132 176 220 268 331 403
#     4  10  21  40  62  90 131 174 217 277 339 393
#     4  10  22  38  61  96 127 167 227 278 331 392
#     4  10  20  39  63  90 131 173 220 274 332 404
#     4  10  21  38  65  93 124 175 229 271 329 399
#
# _framework density 24.595151999999999
#
# number of rings (size 3 to 8) (size 9 to 14) (size 15 to 20)
#    0.000    2.000    2.000    1.200    0.000    1.600 
#    0.000   17.000    0.000    0.000    0.000    0.000 
#    0.000    0.000    0.000    0.000    0.000    0.000 
#
# Total GULP energy -111513.859542 kJ/mol
# GULP energy per Si atom -5575.692977 kJ/mol
# Density = 2.453917 g / cm^3
# Si number density = 24.595152 Si / 1000 Ang^3
#
#
#
# Elastic Constant Matrix: (Units=GPa)
#
#
# Indices 1 2 3 4 5 6 
#
# 1 115.7426 10.8472 62.6044 0.0000 8.3767 0.0000
# 2 10.8472 23.2215 16.4196 0.0000 -7.4386 0.0000
# 3 62.6044 16.4196 88.7420 0.0000 1.2159 0.0000
# 4 0.0000 0.0000 0.0000 14.9584 0.0000 -0.6823
# 5 8.3767 -7.4386 1.2159 0.0000 52.9724 0.0000
# 6 0.0000 0.0000 0.0000 -0.6823 0.0000 26.5169
#
#
#
# Elastic Compliance Matrix: (Units=1/GPa)
#
#
# Indices 1 2 3 4 5 6 
#
# 1 0.014184 -0.000262 -0.009930 0.000000 -0.002052 0.000000
# 2 -0.000262 0.052431 -0.009621 0.000000 0.007625 0.000000
# 3 -0.009930 -0.009621 0.020057 0.000000 -0.000241 0.000000
# 4 0.000000 0.000000 0.000000 0.066931 0.000000 0.001722
# 5 -0.002052 0.007625 -0.000241 0.000000 0.020278 0.000000
# 6 0.000000 0.000000 0.000000 0.001722 0.000000 0.037756
#
#
# Mechanical properties :
#
#
# Convention : Reuss Voigt Hill
#
# Bulk Modulus (GPa) = 21.25516 45.27205 33.26360
# Shear Modulus (GPa) = 18.73051 28.07853 23.40452
#
# Velocity S-wave (km/s) = 2.76262 3.38247 3.08813
# Velocity P-wave (km/s) = 4.34014 5.80531 5.12535
#
# Compressibility (1/GPa) = 0.04704741
#
# Stress axis : x y z
#
# Youngs Moduli (GPa) = 70.50338 19.07261 49.85780
#
# Poissons Ratio (x) = 0.00499 0.49507
# Poissons Ratio (y) = 0.01845 0.47968
# Poissons Ratio (z) = 0.70007 0.18350
#
# Static dielectric constant tensor:
#      x y z
#    x 2.078950 0.000000 -0.012070 
#    y 0.000000 2.126260 0.000000 
#    z -0.012070 0.000000 1.965180 
# 
# From -- ./inp_files/62334.got.cif
#   From: 2010.05.17/outbox.cif.g08.bks.cpg/sg13_32_cif.got.tgz:62334.got - 2010.06.03 16:44:36.
