data_PCOD9231707
_publ_section_title
;
Structure prediction by ZEFSAII (Michael W. Deem and Ramdas Pophale) SiO2 
 PCOD9231707
Probable space group: P 2/C
;
_chemical_formula_sum "Si O2"
_cell_formula_units_Z 30
_cell_length_a 13.573471
_cell_length_b 14.000814
_cell_length_c 18.792362
_cell_angle_alpha 90.000000
_cell_angle_beta 24.574856
_cell_angle_gamma 90.000000
_cell_volume 1485.235856
_symmetry_space_group_name_H-M "P 2/C"
_symmetry_group_IT_number 13
_symmetry_cell_setting 'monoclinic'
loop_
_space_group_symop_operation_xyz
x,y,z
-x,y,1/2-z
-x,-y,-z
x,-y,1/2+z
loop_
_atom_site_type_symbol
_atom_site_label
_atom_site_fract_x
_atom_site_fract_y
_atom_site_fract_z
Si Si1 0.094468 0.363465 0.894147
Si Si2 0.500000 0.045449 0.750000
Si Si3 0.352645 0.168280 0.711095
Si Si4 0.237599 0.743722 0.635849
Si Si5 0.105132 0.082468 0.482046
Si Si6 0.547585 0.538987 0.047880
Si Si7 0.806121 0.355913 0.936628
Si Si8 0.713055 0.734649 0.728687
O O1 0.257538 0.270516 0.799311
O O2 0.295923 0.444154 0.753137
O O3 0.951018 0.356878 0.914507
O O4 0.884675 0.351139 0.088847
O O5 0.432696 0.109710 0.727335
O O6 0.708893 0.972943 0.592672
O O7 0.561451 0.182774 0.519659
O O8 0.120926 0.122099 0.828620
O O9 0.323002 0.639844 0.551129
O O10 0.224704 0.745979 0.729255
O O11 0.000000 0.767113 0.750000
O O12 0.218952 0.170044 0.361614
O O13 0.000000 0.000000 0.500000
O O14 0.710903 0.462206 0.980339
O O15 0.500000 0.500000 0.000000
O O16 0.000000 0.326710 0.750000
O O17 0.564814 0.292857 0.097230
#
# Coordination Sequence:
#
# PCOD9231707 Si02
#       8
#     4   2   4   4   4   4   4   4
#     4  10  23  40  66  95 133 178 223 288 330 409
#     4  10  20  40  74 100 122 176 216 294 348 434
#     4   9  21  41  67  93 130 168 225 268 355 413
#     4  11  24  40  67  93 132 186 227 283 343 415
#     4   9  21  40  68  95 130 163 219 283 347 413
#     4  11  21  43  62  94 134 183 228 277 343 395
#     4  12  22  39  70  93 140 181 226 283 349 407
#     4  11  24  42  64 101 132 176 236 279 348 428
#
# _framework density 20.198813000000001
#
# number of rings (size 3 to 8) (size 9 to 14) (size 15 to 20)
#    0.000    1.600    2.667    1.600    9.333    0.533 
#    0.000    4.000    0.000    0.000    0.000    0.000 
#    0.000    0.000    0.000    0.000    0.000    0.000 
#
# Total GULP energy -167314.301872 kJ/mol
# GULP energy per Si atom -5577.143396 kJ/mol
# Density = 2.015284 g / cm^3
# Si number density = 20.198813 Si / 1000 Ang^3
#
#
#
# Elastic Constant Matrix: (Units=GPa)
#
#
# Indices 1 2 3 4 5 6 
#
# 1 96.5512 30.4156 54.8134 0.0000 0.4799 0.0000
# 2 30.4156 93.5791 47.3692 0.0000 -5.9975 0.0000
# 3 54.8134 47.3692 170.2191 0.0000 -3.0905 0.0000
# 4 0.0000 0.0000 0.0000 31.9866 0.0000 -15.0999
# 5 0.4799 -5.9975 -3.0905 0.0000 31.2798 0.0000
# 6 0.0000 0.0000 0.0000 -15.0999 0.0000 27.1947
#
#
#
# Elastic Compliance Matrix: (Units=1/GPa)
#
#
# Indices 1 2 3 4 5 6 
#
# 1 0.013184 -0.002553 -0.003554 0.000000 -0.001043 0.000000
# 2 -0.002553 0.013065 -0.002772 0.000000 0.002270 0.000000
# 3 -0.003554 -0.002772 0.007796 0.000000 0.000293 0.000000
# 4 0.000000 0.000000 0.000000 0.042369 0.000000 0.023525
# 5 -0.001043 0.002270 0.000293 0.000000 0.032450 0.000000
# 6 0.000000 0.000000 0.000000 0.023525 0.000000 0.049834
#
#
# Mechanical properties :
#
#
# Convention : Reuss Voigt Hill
#
# Bulk Modulus (GPa) = 61.40139 69.50510 65.45325
# Shear Modulus (GPa) = 27.48977 33.27562 30.38269
#
# Velocity S-wave (km/s) = 3.69312 4.06323 3.88259
# Velocity P-wave (km/s) = 6.97496 7.51653 7.25080
#
# Compressibility (1/GPa) = 0.01628628
#
# Stress axis : x y z
#
# Youngs Moduli (GPa) = 75.84759 76.54139 128.26968
#
# Poissons Ratio (x) = 0.19541 0.45588
# Poissons Ratio (y) = 0.19364 0.35561
# Poissons Ratio (z) = 0.26957 0.21220
#
# Static dielectric constant tensor:
#      x y z
#    x 1.678470 0.000000 -0.018620 
#    y 0.000000 1.798180 0.000000 
#    z -0.018620 0.000000 1.768560 
# 
# From -- ./inp_files/80283.got.cif
#   From: 2010.05.17/outbox.cif.g08.bks.cpg/sg13_41_cif.got.tgz:80283.got - 2010.06.03 16:44:36.
