data_PCOD9231770
_publ_section_title
;
Structure prediction by ZEFSAII (Michael W. Deem and Ramdas Pophale) SiO2 
 PCOD9231770
Probable space group: P 2/C
;
_chemical_formula_sum "Si O2"
_cell_formula_units_Z 26
_cell_length_a 16.114243
_cell_length_b 13.694111
_cell_length_c 10.241798
_cell_angle_alpha 90.000000
_cell_angle_beta 32.835566
_cell_angle_gamma 90.000000
_cell_volume 1225.472038
_symmetry_space_group_name_H-M "P 2/C"
_symmetry_group_IT_number 13
_symmetry_cell_setting 'monoclinic'
loop_
_space_group_symop_operation_xyz
x,y,z
-x,y,1/2-z
-x,-y,-z
x,-y,1/2+z
loop_
_atom_site_type_symbol
_atom_site_label
_atom_site_fract_x
_atom_site_fract_y
_atom_site_fract_z
Si Si1 0.363970 0.288085 0.658433
Si Si2 0.899033 0.603518 0.569090
Si Si3 0.217026 0.459780 0.006822
Si Si4 0.500000 0.424301 0.250000
Si Si5 0.311719 0.217448 0.229948
Si Si6 0.940599 0.066763 0.962897
Si Si7 0.162927 0.752880 0.200924
O O1 0.268532 0.355345 0.882023
O O2 0.431991 0.361196 0.458127
O O3 0.506712 0.229736 0.530141
O O4 0.246405 0.226739 0.726503
O O5 0.844895 0.528568 0.528083
O O6 0.777849 0.694322 0.723703
O O7 0.065876 0.652611 0.327317
O O8 0.888944 0.559423 0.727322
O O9 0.367654 0.510312 0.864689
O O10 0.231782 0.112110 0.307397
O O11 0.278260 0.240168 0.427428
O O12 0.000000 0.018838 0.750000
O O13 0.038904 0.165258 0.840130
O O14 0.000000 0.000000 0.000000
#
# Coordination Sequence:
#
# PCOD9231770 Si02
#       7
#     4   4   4   2   4   4   4
#     4  12  21  38  61  86 122 165 217 258 306 363
#     4  11  23  41  56  85 124 168 221 264 312 352
#     4  12  24  38  58  84 125 173 224 269 304 353
#     4  12  20  38  56  84 112 172 218 266 294 358
#     4  10  20  41  66  87 121 165 204 254 318 380
#     4   9  20  42  71  95 122 154 195 246 317 395
#     4  10  22  41  64  91 123 161 206 256 322 371
#
# _framework density 21.216314000000001
#
# number of rings (size 3 to 8) (size 9 to 14) (size 15 to 20)
#    0.000    1.231    4.615    2.769    0.000    1.231 
#   11.077    0.769    0.000    0.000    0.000    0.000 
#    0.000    0.000    0.000    0.000    0.000    0.000 
#
# Total GULP energy -145319.776154 kJ/mol
# GULP energy per Si atom -5589.222160 kJ/mol
# Density = 2.116802 g / cm^3
# Si number density = 21.216314 Si / 1000 Ang^3
#
#
#
# Elastic Constant Matrix: (Units=GPa)
#
#
# Indices 1 2 3 4 5 6 
#
# 1 130.3137 38.9301 37.6199 0.0000 -7.0714 0.0000
# 2 38.9301 47.0547 21.4211 0.0000 17.4620 0.0000
# 3 37.6199 21.4211 77.0820 0.0000 17.2598 0.0000
# 4 0.0000 0.0000 0.0000 9.9415 0.0000 4.4675
# 5 -7.0714 17.4620 17.2598 0.0000 42.8004 0.0000
# 6 0.0000 0.0000 0.0000 4.4675 0.0000 45.5112
#
#
#
# Elastic Compliance Matrix: (Units=1/GPa)
#
#
# Indices 1 2 3 4 5 6 
#
# 1 0.013260 -0.012018 -0.005189 0.000000 0.009186 0.000000
# 2 -0.012018 0.037932 -0.000842 0.000000 -0.017122 0.000000
# 3 -0.005189 -0.000842 0.017429 0.000000 -0.007542 0.000000
# 4 0.000000 0.000000 0.000000 0.105230 0.000000 -0.010330
# 5 0.009186 -0.017122 -0.007542 0.000000 0.034909 0.000000
# 6 0.000000 0.000000 0.000000 -0.010330 0.000000 0.022987
#
#
# Mechanical properties :
#
#
# Convention : Reuss Voigt Hill
#
# Bulk Modulus (GPa) = 30.74767 50.04361 40.39564
# Shear Modulus (GPa) = 17.94142 30.08259 24.01200
#
# Velocity S-wave (km/s) = 2.91115 3.76959 3.36783
# Velocity P-wave (km/s) = 5.08170 6.52571 5.84844
#
# Compressibility (1/GPa) = 0.03252279
#
# Stress axis : x y z
#
# Youngs Moduli (GPa) = 75.41205 26.36314 57.37726
#
# Poissons Ratio (x) = 0.31682 0.29773
# Poissons Ratio (y) = 0.90628 0.04832
# Poissons Ratio (z) = 0.39132 0.02220
#
# Static dielectric constant tensor:
#      x y z
#    x 1.925290 0.000000 0.105630 
#    y 0.000000 1.787080 0.000000 
#    z 0.105630 0.000000 1.973080 
# 
# From -- ./inp_files/19840.got.cif
#   From: 2010.05.17/outbox.cif.g08.bks.cpg/sg13_10_cif.got.tgz:19840.got - 2010.06.03 16:44:36.
