data_PCOD9231041
_publ_section_title
;
Structure prediction by ZEFSAII (Michael W. Deem and Ramdas Pophale) SiO2 
 PCOD9231041
Probable space group: P 2/C
;
_chemical_formula_sum "Si O2"
_cell_formula_units_Z 28
_cell_length_a 20.036966
_cell_length_b 8.429727
_cell_length_c 9.239397
_cell_angle_alpha 90.000000
_cell_angle_beta 134.650851
_cell_angle_gamma 90.000000
_cell_volume 1110.208488
_symmetry_space_group_name_H-M "P 2/C"
_symmetry_group_IT_number 13
_symmetry_cell_setting 'monoclinic'
loop_
_space_group_symop_operation_xyz
x,y,z
-x,y,1/2-z
-x,-y,-z
x,-y,1/2+z
loop_
_atom_site_type_symbol
_atom_site_label
_atom_site_fract_x
_atom_site_fract_y
_atom_site_fract_z
Si Si1 0.400874 0.353241 0.315032
Si Si2 0.692684 0.108590 0.646961
Si Si3 0.759810 0.420610 0.867621
Si Si4 0.500000 0.598517 0.250000
Si Si5 0.500000 0.888789 0.750000
Si Si6 0.083439 0.377101 0.969213
Si Si7 0.077041 0.783284 0.744248
Si Si8 0.818574 0.904748 0.058434
O O1 0.296114 0.426104 0.160996
O O2 0.446098 0.494089 0.286417
O O3 0.428034 0.324226 0.525628
O O4 0.443294 0.209116 0.286927
O O5 0.685907 0.289178 0.698549
O O6 0.589751 0.036512 0.465128
O O7 0.752919 0.133045 0.594036
O O8 0.752349 0.995323 0.841629
O O9 0.835423 0.496052 0.872546
O O10 0.828621 0.316654 0.073271
O O11 0.128582 0.237405 0.940815
O O12 0.000000 0.452168 0.750000
O O13 0.040592 0.297139 0.044332
O O14 0.000000 0.785240 0.750000
O O15 0.108660 0.964249 0.772574
#
# Coordination Sequence:
#
# PCOD9231041 Si02
#       8
#     4   4   4   2   2   4   4   4
#     4  10  20  38  63 100 140 189 223 282 354 414
#     4  11  25  48  74 104 144 190 241 297 354 426
#     4  11  26  43  72 104 154 183 237 297 361 420
#     4   9  18  32  58  89 130 177 238 267 322 419
#     4  11  24  44  72 107 148 189 236 297 356 423
#     4  12  28  44  74 107 141 189 238 297 364 428
#     4  11  27  48  71 104 142 191 241 297 356 432
#     4  11  25  50  76 101 141 195 244 289 360 431
#
# _framework density 25.220489000000001
#
# number of rings (size 3 to 8) (size 9 to 14) (size 15 to 20)
#    0.000    1.143    1.429    4.286   10.000    2.857 
#    0.000    0.000    0.000    4.286    0.000    0.000 
#    0.000    0.000    0.000    0.000    0.000    0.000 
#
# Total GULP energy -156432.362572 kJ/mol
# GULP energy per Si atom -5586.870092 kJ/mol
# Density = 2.516309 g / cm^3
# Si number density = 25.220489 Si / 1000 Ang^3
#
#
#
# Elastic Constant Matrix: (Units=GPa)
#
#
# Indices 1 2 3 4 5 6 
#
# 1 110.0279 11.1079 26.2557 0.0000 1.0201 0.0000
# 2 11.1079 72.4484 14.4605 0.0000 2.8006 0.0000
# 3 26.2557 14.4605 90.5328 0.0000 0.1993 0.0000
# 4 0.0000 0.0000 0.0000 -3.7610 0.0000 9.9934
# 5 1.0201 2.8006 0.1993 0.0000 44.6790 0.0000
# 6 0.0000 0.0000 0.0000 9.9934 0.0000 32.2023
#
#
#
# Elastic Compliance Matrix: (Units=1/GPa)
#
#
# Indices 1 2 3 4 5 6 
#
# 1 0.009831 -0.000963 -0.002697 0.000000 -0.000152 0.000000
# 2 -0.000963 0.014387 -0.002017 0.000000 -0.000871 0.000000
# 3 -0.002697 -0.002017 0.012150 0.000000 0.000134 0.000000
# 4 0.000000 0.000000 0.000000 -0.145725 0.000000 0.045223
# 5 -0.000152 -0.000871 0.000134 0.000000 0.022439 0.000000
# 6 0.000000 0.000000 0.000000 0.045223 0.000000 0.017020
#
#
# Mechanical properties :
#
#
# Convention : Reuss Voigt Hill
#
# Bulk Modulus (GPa) = 39.97788 41.85081 40.91434
# Shear Modulus (GPa) = -99.58571 29.36975 -35.10798
#
# Velocity S-wave (km/s) = -6.29061 3.41621 -3.73506
# Velocity P-wave (km/s) = 6.07261 5.67368 1.53068
#
# Compressibility (1/GPa) = 0.02501383
#
# Stress axis : x y z
#
# Youngs Moduli (GPa) = 101.72119 69.50828 82.30665
#
# Poissons Ratio (x) = 0.06694 0.22197
# Poissons Ratio (y) = 0.09797 0.16599
# Poissons Ratio (z) = 0.27433 0.14018
#
# Static dielectric constant tensor:
#      x y z
#    x 0.890380 0.000000 0.588480 
#    y 0.000000 2.043690 0.000000 
#    z 0.588480 0.000000 1.784420 
# 
# From -- ./inp_files/23026.got.cif
#   From: 2010.05.17/outbox.cif.g08.bks.cpg/sg13_12_cif.got.tgz:23026.got - 2010.06.03 16:44:36.
