data_PCOD9231408
_publ_section_title
;
Structure prediction by ZEFSAII (Michael W. Deem and Ramdas Pophale) SiO2 
 PCOD9231408
Probable space group: P 2/C
;
_chemical_formula_sum "Si O2"
_cell_formula_units_Z 28
_cell_length_a 13.392145
_cell_length_b 5.105750
_cell_length_c 29.094668
_cell_angle_alpha 90.000000
_cell_angle_beta 39.627176
_cell_angle_gamma 90.000000
_cell_volume 1268.821060
_symmetry_space_group_name_H-M "P 2/C"
_symmetry_group_IT_number 13
_symmetry_cell_setting 'monoclinic'
loop_
_space_group_symop_operation_xyz
x,y,z
-x,y,1/2-z
-x,-y,-z
x,-y,1/2+z
loop_
_atom_site_type_symbol
_atom_site_label
_atom_site_fract_x
_atom_site_fract_y
_atom_site_fract_z
Si Si1 0.110447 0.251203 0.953424
Si Si2 0.033104 0.199594 0.885599
Si Si3 0.720671 0.478324 0.524266
Si Si4 0.851271 0.838707 0.901819
Si Si5 0.062376 0.551728 0.276398
Si Si6 0.383791 0.333273 0.126799
Si Si7 0.630556 0.841800 0.425319
O O1 0.153818 0.238447 0.884105
O O2 0.000000 0.500000 0.000000
O O3 0.244038 0.297042 0.943984
O O4 0.000000 0.000000 0.000000
O O5 0.078584 0.295421 0.818835
O O6 0.983112 0.901401 0.893297
O O7 0.870034 0.333799 0.961006
O O8 0.719040 0.303022 0.478628
O O9 0.556380 0.627329 0.586870
O O10 0.933221 0.669853 0.833804
O O11 0.781757 0.098794 0.903248
O O12 0.232649 0.428381 0.207755
O O13 0.000000 0.674958 0.250000
O O14 0.385665 0.541182 0.083087
O O15 0.357446 0.030540 0.123240
O O16 0.500000 0.000000 0.500000
#
# Coordination Sequence:
#
# PCOD9231408 Si02
#       7
#     4   4   4   4   4   4   4
#     4  10  20  39  66  99 124 159 211 273 324 374
#     4  10  22  39  66  92 130 167 218 268 327 387
#     4  10  22  39  64  97 125 161 216 277 326 371
#     4  11  21  37  63  90 127 172 213 264 318 390
#     4  11  24  41  58  91 131 179 214 254 319 403
#     4  12  26  41  61  93 130 172 213 266 322 388
#     4  12  24  39  63  90 129 165 216 266 325 376
#
# _framework density 22.067727000000001
#
# number of rings (size 3 to 8) (size 9 to 14) (size 15 to 20)
#    0.000    1.143    4.286    2.143    4.000    0.571 
#    0.000    0.714    0.000    0.000    0.000    0.000 
#    0.000    0.000    0.000    0.000    0.000    0.000 
#
# Total GULP energy -156237.305556 kJ/mol
# GULP energy per Si atom -5579.903770 kJ/mol
# Density = 2.201750 g / cm^3
# Si number density = 22.067727 Si / 1000 Ang^3
#
#
#
# Elastic Constant Matrix: (Units=GPa)
#
#
# Indices 1 2 3 4 5 6 
#
# 1 119.6985 15.2392 45.9292 0.0000 20.8341 0.0000
# 2 15.2392 69.6579 -5.8332 0.0000 10.4404 0.0000
# 3 45.9292 -5.8332 100.1711 0.0000 13.8485 0.0000
# 4 0.0000 0.0000 0.0000 17.7932 0.0000 6.7977
# 5 20.8341 10.4404 13.8485 0.0000 34.4154 0.0000
# 6 0.0000 0.0000 0.0000 6.7977 0.0000 35.6350
#
#
#
# Elastic Compliance Matrix: (Units=1/GPa)
#
#
# Indices 1 2 3 4 5 6 
#
# 1 0.011156 -0.002200 -0.004661 0.000000 -0.004210 0.000000
# 2 -0.002200 0.015718 0.002540 0.000000 -0.004459 0.000000
# 3 -0.004661 0.002540 0.012690 0.000000 -0.003056 0.000000
# 4 0.000000 0.000000 0.000000 0.060619 0.000000 -0.011564
# 5 -0.004210 -0.004459 -0.003056 0.000000 0.034188 0.000000
# 6 0.000000 0.000000 0.000000 -0.011564 0.000000 0.030268
#
#
# Mechanical properties :
#
#
# Convention : Reuss Voigt Hill
#
# Bulk Modulus (GPa) = 32.33801 44.46645 38.40223
# Shear Modulus (GPa) = 27.23493 33.18153 30.20823
#
# Velocity S-wave (km/s) = 3.51686 3.88186 3.70386
# Velocity P-wave (km/s) = 5.58363 6.34709 5.97756
#
# Compressibility (1/GPa) = 0.03092336
#
# Stress axis : x y z
#
# Youngs Moduli (GPa) = 89.64033 63.62070 78.79998
#
# Poissons Ratio (x) = 0.13995 0.36728
# Poissons Ratio (y) = 0.19719 -0.20018
# Poissons Ratio (z) = 0.41781 -0.16162
#
# Static dielectric constant tensor:
#      x y z
#    x 1.892960 0.000000 0.029310 
#    y 0.000000 1.889500 0.000000 
#    z 0.029310 0.000000 1.856580 
# 
# From -- ./inp_files/92646.got.cif
#   From: 2010.05.17/outbox.cif.g08.bks.cpg/sg13_47_cif.got.tgz:92646.got - 2010.06.03 16:44:36.
