data_PCOD9231703
_publ_section_title
;
Structure prediction by ZEFSAII (Michael W. Deem and Ramdas Pophale) SiO2 
 PCOD9231703
Probable space group: P 2/C
;
_chemical_formula_sum "Si O2"
_cell_formula_units_Z 22
_cell_length_a 18.587795
_cell_length_b 10.610231
_cell_length_c 15.529051
_cell_angle_alpha 90.000000
_cell_angle_beta 17.686487
_cell_angle_gamma 90.000000
_cell_volume 930.459266
_symmetry_space_group_name_H-M "P 2/C"
_symmetry_group_IT_number 13
_symmetry_cell_setting 'monoclinic'
loop_
_space_group_symop_operation_xyz
x,y,z
-x,y,1/2-z
-x,-y,-z
x,-y,1/2+z
loop_
_atom_site_type_symbol
_atom_site_label
_atom_site_fract_x
_atom_site_fract_y
_atom_site_fract_z
Si Si1 0.500000 0.971424 0.250000
Si Si2 0.257163 0.292234 0.815859
Si Si3 0.500000 0.709360 0.750000
Si Si4 0.353823 0.904712 0.608259
Si Si5 0.000000 0.879617 0.750000
Si Si6 0.200986 0.561159 0.954383
Si Si7 0.074210 0.776210 0.336921
O O1 0.368832 0.941858 0.492427
O O2 0.233327 0.961320 0.504264
O O3 0.512908 0.229305 0.536138
O O4 0.274728 0.438905 0.818340
O O5 0.171360 0.274056 0.816564
O O6 0.080640 0.214936 0.080243
O O7 0.401404 0.624177 0.785471
O O8 0.701165 0.798574 0.481484
O O9 0.500000 0.000000 0.500000
O O10 0.097893 0.889007 0.942922
O O11 0.076074 0.668433 0.040116
O O12 0.000000 0.516182 0.250000
#
# Coordination Sequence:
#
# PCOD9231703 Si02
#       7
#     2   4   2   4   2   4   4
#     4  10  22  47  73 106 146 190 257 317 384 452
#     4  11  22  41  71 101 144 185 241 307 372 444
#     4  10  24  43  67 102 152 198 239 297 368 454
#     4  11  26  46  73 104 144 193 248 315 380 447
#     4  10  20  40  72 110 140 190 238 312 378 442
#     4  10  22  40  68 104 145 190 238 298 372 448
#     4  11  23  44  69 103 144 188 245 297 372 448
#
# _framework density 23.644237
#
# number of rings (size 3 to 8) (size 9 to 14) (size 15 to 20)
#    0.000    1.455    2.727    1.636    0.000    9.455 
#    0.000    7.273   14.000    0.000    0.000    0.000 
#    0.000    0.000    0.000    0.000    0.000    0.000 
#
# Total GULP energy -122773.533962 kJ/mol
# GULP energy per Si atom -5580.615180 kJ/mol
# Density = 2.359042 g / cm^3
# Si number density = 23.644237 Si / 1000 Ang^3
#
#
#
# Elastic Constant Matrix: (Units=GPa)
#
#
# Indices 1 2 3 4 5 6 
#
# 1 160.3535 20.8429 26.8255 0.0000 -7.2221 0.0000
# 2 20.8429 128.7079 39.6761 0.0000 30.8078 0.0000
# 3 26.8255 39.6761 181.7287 0.0000 15.2794 0.0000
# 4 0.0000 0.0000 0.0000 110.9229 0.0000 2.3476
# 5 -7.2221 30.8078 15.2794 0.0000 80.4309 0.0000
# 6 0.0000 0.0000 0.0000 2.3476 0.0000 10.8406
#
#
#
# Elastic Compliance Matrix: (Units=1/GPa)
#
#
# Indices 1 2 3 4 5 6 
#
# 1 0.006569 -0.001086 -0.000830 0.000000 0.001164 0.000000
# 2 -0.001086 0.009229 -0.001574 0.000000 -0.003333 0.000000
# 3 -0.000830 -0.001574 0.006021 0.000000 -0.000615 0.000000
# 4 0.000000 0.000000 0.000000 0.009057 0.000000 -0.001961
# 5 0.001164 -0.003333 -0.000615 0.000000 0.013931 0.000000
# 6 0.000000 0.000000 0.000000 -0.001961 0.000000 0.092670
#
#
# Mechanical properties :
#
#
# Convention : Reuss Voigt Hill
#
# Bulk Modulus (GPa) = 67.40198 71.71988 69.56093
# Shear Modulus (GPa) = 33.46646 66.00191 49.73418
#
# Velocity S-wave (km/s) = 3.76628 5.28916 4.59130
# Velocity P-wave (km/s) = 6.89070 8.22794 7.58884
#
# Compressibility (1/GPa) = 0.01483636
#
# Stress axis : x y z
#
# Youngs Moduli (GPa) = 152.23633 108.35868 166.09363
#
# Poissons Ratio (x) = 0.11771 0.13791
# Poissons Ratio (y) = 0.16538 0.26147
# Poissons Ratio (z) = 0.12640 0.17058
#
# Static dielectric constant tensor:
#      x y z
#    x 1.815390 0.000000 -0.027470 
#    y 0.000000 1.918520 0.000000 
#    z -0.027470 0.000000 1.931070 
# 
# From -- ./inp_files/55641.got.cif
#   From: 2010.05.17/outbox.cif.g08.bks.cpg/sg13_28_cif.got.tgz:55641.got - 2010.06.03 16:44:36.
