data_PCOD9231616
_publ_section_title
;
Structure prediction by ZEFSAII (Michael W. Deem and Ramdas Pophale) SiO2 
 PCOD9231616
Probable space group: P 2/C
;
_chemical_formula_sum "Si O2"
_cell_formula_units_Z 20
_cell_length_a 13.476077
_cell_length_b 5.479161
_cell_length_c 12.461613
_cell_angle_alpha 90.000000
_cell_angle_beta 69.989748
_cell_angle_gamma 90.000000
_cell_volume 864.588253
_symmetry_space_group_name_H-M "P 2/C"
_symmetry_group_IT_number 13
_symmetry_cell_setting 'monoclinic'
loop_
_space_group_symop_operation_xyz
x,y,z
-x,y,1/2-z
-x,-y,-z
x,-y,1/2+z
loop_
_atom_site_type_symbol
_atom_site_label
_atom_site_fract_x
_atom_site_fract_y
_atom_site_fract_z
Si Si1 0.000000 0.576145 0.750000
Si Si2 0.057630 0.706036 0.047839
Si Si3 0.387360 0.444765 0.989446
Si Si4 0.339682 0.068325 0.627364
Si Si5 0.500000 0.751768 0.250000
Si Si6 0.137254 0.941600 0.835313
O O1 0.920077 0.415111 0.848707
O O2 0.919075 0.738683 0.714752
O O3 0.152200 0.825552 0.947746
O O4 0.960352 0.880782 0.108949
O O5 0.000000 0.500000 0.000000
O O6 0.331170 0.693766 0.052646
O O7 0.348848 0.186467 0.056352
O O8 0.500000 0.500000 0.000000
O O9 0.413279 0.402253 0.852673
O O10 0.436741 0.101955 0.678655
O O11 0.237161 0.048182 0.740558
#
# Coordination Sequence:
#
# PCOD9231616 Si02
#       6
#     2   4   4   4   2   4
#     4  10  20  40  66  90 134 182 214 276 342 386
#     4   9  20  40  65  86 134 177 217 273 331 392
#     4  10  23  44  70  97 137 179 228 282 342 406
#     4  11  25  43  71 105 138 176 232 283 333 415
#     4  10  22  48  70  98 142 182 216 284 354 400
#     4  10  22  42  63 101 133 172 230 277 327 410
#
# _framework density 23.132397999999998
#
# number of rings (size 3 to 8) (size 9 to 14) (size 15 to 20)
#    0.000    2.000    0.000    3.000    5.600    7.200 
#   14.400    2.000    0.000    0.000    0.000    0.000 
#    0.000    0.000    0.000    0.000    0.000    0.000 
#
# Total GULP energy -111411.025569 kJ/mol
# GULP energy per Si atom -5570.551278 kJ/mol
# Density = 2.307975 g / cm^3
# Si number density = 23.132398 Si / 1000 Ang^3
#
#
#
# Elastic Constant Matrix: (Units=GPa)
#
#
# Indices 1 2 3 4 5 6 
#
# 1 61.0572 25.1652 32.0000 0.0000 -8.2133 0.0000
# 2 25.1652 161.6935 107.4776 0.0000 -4.3112 0.0000
# 3 32.0000 107.4776 191.9928 0.0000 -21.9968 0.0000
# 4 0.0000 0.0000 0.0000 112.1275 0.0000 44.5784
# 5 -8.2133 -4.3112 -21.9968 0.0000 40.2365 0.0000
# 6 0.0000 0.0000 0.0000 44.5784 0.0000 35.6240
#
#
#
# Elastic Compliance Matrix: (Units=1/GPa)
#
#
# Indices 1 2 3 4 5 6 
#
# 1 0.018349 -0.001510 -0.001923 0.000000 0.002533 0.000000
# 2 -0.001510 0.010141 -0.005693 0.000000 -0.002334 0.000000
# 3 -0.001923 -0.005693 0.009176 0.000000 0.004014 0.000000
# 4 0.000000 0.000000 0.000000 0.017748 0.000000 -0.022209
# 5 0.002533 -0.002334 0.004014 0.000000 0.027314 0.000000
# 6 0.000000 0.000000 0.000000 -0.022209 0.000000 0.055863
#
#
# Mechanical properties :
#
#
# Convention : Reuss Voigt Hill
#
# Bulk Modulus (GPa) = 51.50784 82.66991 67.08888
# Shear Modulus (GPa) = 30.61587 54.27098 42.44343
#
# Velocity S-wave (km/s) = 3.64195 4.84891 4.28811
# Velocity P-wave (km/s) = 6.32455 8.19540 7.31999
#
# Compressibility (1/GPa) = 0.01941452
#
# Stress axis : x y z
#
# Youngs Moduli (GPa) = 54.49924 98.60592 108.98335
#
# Poissons Ratio (x) = 0.14891 0.20954
# Poissons Ratio (y) = 0.08230 0.62042
# Poissons Ratio (z) = 0.10479 0.56135
#
# Static dielectric constant tensor:
#      x y z
#    x 1.899520 0.000000 0.033120 
#    y 0.000000 2.057160 0.000000 
#    z 0.033120 0.000000 1.988480 
# 
# From -- ./inp_files/35216.got.cif
#   From: 2010.05.17/outbox.cif.g08.bks.cpg/sg13_18_cif.got.tgz:35216.got - 2010.06.03 16:44:36.
