data_PCOD9231957
_publ_section_title
;
Structure prediction by ZEFSAII (Michael W. Deem and Ramdas Pophale) SiO2 
 PCOD9231957
Probable space group: P 2/C
;
_chemical_formula_sum "Si O2"
_cell_formula_units_Z 16
_cell_length_a 5.499525
_cell_length_b 15.317044
_cell_length_c 8.350907
_cell_angle_alpha 90.000000
_cell_angle_beta 67.616706
_cell_angle_gamma 90.000000
_cell_volume 650.450870
_symmetry_space_group_name_H-M "P 2/C"
_symmetry_group_IT_number 13
_symmetry_cell_setting 'monoclinic'
loop_
_space_group_symop_operation_xyz
x,y,z
-x,y,1/2-z
-x,-y,-z
x,-y,1/2+z
loop_
_atom_site_type_symbol
_atom_site_label
_atom_site_fract_x
_atom_site_fract_y
_atom_site_fract_z
Si Si1 0.279009 0.626757 0.087112
Si Si2 0.500000 0.779809 0.250000
Si Si3 0.030957 0.098032 0.932561
Si Si4 0.810297 0.256117 0.145782
Si Si5 0.500000 0.493875 0.250000
O O1 0.407324 0.712411 0.136086
O O2 0.272003 0.557706 0.236809
O O3 0.078103 0.679372 0.021799
O O4 0.415048 0.566560 0.918134
O O5 0.701461 0.846611 0.113888
O O6 0.000000 0.098957 0.750000
O O7 0.825921 0.157916 0.077899
O O8 0.000000 0.000000 0.000000
O O9 0.500000 0.273868 0.250000
O O10 0.000000 0.268014 0.250000
#
# Coordination Sequence:
#
# PCOD9231957 Si02
#       5
#     4   2   4   4   2
#     4  10  20  42  74 108 151 199 254 311 389 447
#     4  11  24  48  77 104 158 204 253 316 390 457
#     4  12  28  47  75 110 148 204 261 322 380 464
#     4  12  26  48  78 111 154 211 256 315 385 459
#     4   9  20  38  75 112 148 196 257 320 370 463
#
# _framework density 24.598323000000001
#
# number of rings (size 3 to 8) (size 9 to 14) (size 15 to 20)
#    0.000    1.000    3.750    2.250    1.750    1.000 
#    0.000    1.250    0.000    0.000    0.000    0.000 
#    0.000    0.000    0.000    0.000    0.000    0.000 
#
# Total GULP energy -89180.075683 kJ/mol
# GULP energy per Si atom -5573.754730 kJ/mol
# Density = 2.454234 g / cm^3
# Si number density = 24.598323 Si / 1000 Ang^3
#
#
#
# Elastic Constant Matrix: (Units=GPa)
#
#
# Indices 1 2 3 4 5 6 
#
# 1 108.8119 59.9851 77.8290 0.0000 23.5809 0.0000
# 2 59.9851 236.7678 74.2987 0.0000 7.7746 0.0000
# 3 77.8290 74.2987 116.1052 0.0000 22.1352 0.0000
# 4 0.0000 0.0000 0.0000 73.6717 0.0000 6.4012
# 5 23.5809 7.7746 22.1352 0.0000 53.7387 0.0000
# 6 0.0000 0.0000 0.0000 6.4012 0.0000 31.2101
#
#
#
# Elastic Compliance Matrix: (Units=1/GPa)
#
#
# Indices 1 2 3 4 5 6 
#
# 1 0.018376 -0.001103 -0.010967 0.000000 -0.003387 0.000000
# 2 -0.001103 0.005374 -0.002869 0.000000 0.000888 0.000000
# 3 -0.010967 -0.002869 0.018236 0.000000 -0.002284 0.000000
# 4 0.000000 0.000000 0.000000 0.013820 0.000000 -0.002834
# 5 -0.003387 0.000888 -0.002284 0.000000 0.020907 0.000000
# 6 0.000000 0.000000 0.000000 -0.002834 0.000000 0.032622
#
#
# Mechanical properties :
#
#
# Convention : Reuss Voigt Hill
#
# Bulk Modulus (GPa) = 82.58593 98.43450 90.51021
# Shear Modulus (GPa) = 34.90435 48.36226 41.63331
#
# Velocity S-wave (km/s) = 3.77101 4.43886 4.11850
# Velocity P-wave (km/s) = 7.25310 8.14708 7.71305
#
# Compressibility (1/GPa) = 0.01210860
#
# Stress axis : x y z
#
# Youngs Moduli (GPa) = 54.41818 186.07649 54.83800
#
# Poissons Ratio (x) = 0.20525 0.60139
# Poissons Ratio (y) = 0.06003 0.15733
# Poissons Ratio (z) = 0.59678 0.53385
#
# Static dielectric constant tensor:
#      x y z
#    x 2.189350 0.000000 -0.140890 
#    y 0.000000 1.904460 0.000000 
#    z -0.140890 0.000000 2.161450 
# 
# From -- ./inp_files/8944.got.cif
#   From: 2010.05.17/outbox.cif.g08.bks.cpg/sg13_5_cif.got.tgz:8944.got - 2010.06.03 16:44:36.
