data_PCOD9231516
_publ_section_title
;
Structure prediction by ZEFSAII (Michael W. Deem and Ramdas Pophale) SiO2 
 PCOD9231516
Probable space group: P 2/C
;
_chemical_formula_sum "Si O2"
_cell_formula_units_Z 22
_cell_length_a 15.574984
_cell_length_b 12.875973
_cell_length_c 12.257401
_cell_angle_alpha 90.000000
_cell_angle_beta 27.997235
_cell_angle_gamma 90.000000
_cell_volume 1153.920616
_symmetry_space_group_name_H-M "P 2/C"
_symmetry_group_IT_number 13
_symmetry_cell_setting 'monoclinic'
loop_
_space_group_symop_operation_xyz
x,y,z
-x,y,1/2-z
-x,-y,-z
x,-y,1/2+z
loop_
_atom_site_type_symbol
_atom_site_label
_atom_site_fract_x
_atom_site_fract_y
_atom_site_fract_z
Si Si1 0.000000 0.924880 0.750000
Si Si2 0.603950 0.392150 0.019910
Si Si3 0.011786 0.700887 0.365736
Si Si4 0.865747 0.931613 0.576418
Si Si5 0.330113 0.376518 0.125929
Si Si6 0.330670 0.157880 0.015237
O O1 0.135784 0.858201 0.672997
O O2 0.137900 0.000234 0.528474
O O3 0.500000 0.373538 0.250000
O O4 0.478611 0.367633 0.056261
O O5 0.787419 0.324827 0.816611
O O6 0.650267 0.514270 0.956689
O O7 0.000000 0.678588 0.250000
O O8 0.954632 0.820304 0.449269
O O9 0.865567 0.632687 0.595629
O O10 0.690035 0.906050 0.847997
O O11 0.000000 0.000000 0.500000
O O12 0.351748 0.278184 0.023140
O O13 0.500000 0.125622 0.750000
#
# Coordination Sequence:
#
# PCOD9231516 Si02
#       6
#     2   4   4   4   4   4
#     4  10  20  40  62  86 124 158 194 260 310 346
#     4  11  22  39  62  88 124 160 194 252 302 353
#     4  11  20  38  62  88 116 157 204 239 297 364
#     4   9  20  38  61  87 120 157 199 250 302 351
#     4  10  23  40  58  90 123 156 203 244 298 366
#     4  10  22  39  61  89 119 158 203 246 302 366
#
# _framework density 19.065435000000001
#
# number of rings (size 3 to 8) (size 9 to 14) (size 15 to 20)
#    0.000    1.818    2.727    1.091    0.000    5.091 
#    1.636    9.091    0.000    0.000    0.000    0.000 
#    0.000    0.000    0.000    0.000    0.000    0.000 
#
# Total GULP energy -122744.240304 kJ/mol
# GULP energy per Si atom -5579.283650 kJ/mol
# Density = 1.902204 g / cm^3
# Si number density = 19.065435 Si / 1000 Ang^3
#
#
#
# Elastic Constant Matrix: (Units=GPa)
#
#
# Indices 1 2 3 4 5 6 
#
# 1 52.7532 27.5640 24.0566 0.0000 1.5128 0.0000
# 2 27.5640 73.6486 26.3737 0.0000 -0.7688 0.0000
# 3 24.0566 26.3737 126.9218 0.0000 7.4000 0.0000
# 4 0.0000 0.0000 0.0000 -18.5417 0.0000 -23.2559
# 5 1.5128 -0.7688 7.4000 0.0000 27.9508 0.0000
# 6 0.0000 0.0000 0.0000 -23.2559 0.0000 10.4628
#
#
#
# Elastic Compliance Matrix: (Units=1/GPa)
#
#
# Indices 1 2 3 4 5 6 
#
# 1 0.024572 -0.008160 -0.002916 0.000000 -0.000782 0.000000
# 2 -0.008160 0.017421 -0.002160 0.000000 0.001493 0.000000
# 3 -0.002916 -0.002160 0.009014 0.000000 -0.002288 0.000000
# 4 0.000000 0.000000 0.000000 -0.014238 0.000000 -0.031648
# 5 -0.000782 0.001493 -0.002288 0.000000 0.036466 0.000000
# 6 0.000000 0.000000 0.000000 -0.031648 0.000000 0.025232
#
#
# Mechanical properties :
#
#
# Convention : Reuss Voigt Hill
#
# Bulk Modulus (GPa) = 40.76017 45.47914 43.11966
# Shear Modulus (GPa) = 37.56013 15.66299 26.61156
#
# Velocity S-wave (km/s) = 4.44336 2.86936 3.74010
# Velocity P-wave (km/s) = 6.91014 5.90624 6.42782
#
# Compressibility (1/GPa) = 0.02453375
#
# Stress axis : x y z
#
# Youngs Moduli (GPa) = 40.69617 57.40084 110.93976
#
# Poissons Ratio (x) = 0.46841 0.32351
# Poissons Ratio (y) = 0.33210 0.23967
# Poissons Ratio (z) = 0.11867 0.12401
#
# Static dielectric constant tensor:
#      x y z
#    x 1.562980 0.000000 0.015180 
#    y 0.000000 1.643490 0.000000 
#    z 0.015180 0.000000 1.667040 
# 
# From -- ./inp_files/29554.got.cif
#   From: 2010.05.17/outbox.cif.g08.bks.cpg/sg13_15_cif.got.tgz:29554.got - 2010.06.03 16:44:36.
