data_PCOD9231696
_publ_section_title
;
Structure prediction by ZEFSAII (Michael W. Deem and Ramdas Pophale) SiO2 
 PCOD9231696
Probable space group: P 2/C
;
_chemical_formula_sum "Si O2"
_cell_formula_units_Z 18
_cell_length_a 5.541614
_cell_length_b 12.194347
_cell_length_c 11.076677
_cell_angle_alpha 90.000000
_cell_angle_beta 97.758532
_cell_angle_gamma 90.000000
_cell_volume 741.669446
_symmetry_space_group_name_H-M "P 2/C"
_symmetry_group_IT_number 13
_symmetry_cell_setting 'monoclinic'
loop_
_space_group_symop_operation_xyz
x,y,z
-x,y,1/2-z
-x,-y,-z
x,-y,1/2+z
loop_
_atom_site_type_symbol
_atom_site_label
_atom_site_fract_x
_atom_site_fract_y
_atom_site_fract_z
Si Si1 0.773400 0.260981 0.326808
Si Si2 0.641591 0.609499 0.033418
Si Si3 0.347480 0.977688 0.613058
Si Si4 0.000000 0.368950 0.750000
Si Si5 0.688466 0.213940 0.874051
O O1 0.500000 0.270812 0.250000
O O2 0.797082 0.356848 0.427058
O O3 0.781456 0.139760 0.389684
O O4 0.000000 0.265873 0.250000
O O5 0.468181 0.717323 0.039708
O O6 0.777441 0.577902 0.167470
O O7 0.500000 0.500000 0.000000
O O8 0.500000 0.976519 0.750000
O O9 0.500000 0.000000 0.500000
O O10 0.203809 0.092474 0.603671
O O11 0.901529 0.291896 0.848279
O O12 0.500000 0.205570 0.750000
#
# Coordination Sequence:
#
# PCOD9231696 Si02
#       5
#     4   4   4   2   4
#     4  11  27  49  75 115 160 205 257 327 403 472
#     4  11  25  48  74 105 151 200 265 323 391 467
#     4  10  20  40  71 107 155 203 251 319 394 474
#     4  10  24  42  76 106 138 198 256 324 386 472
#     4   9  20  41  65 107 145 187 253 311 381 468
#
# _framework density 24.269570000000002
#
# number of rings (size 3 to 8) (size 9 to 14) (size 15 to 20)
#    0.000    1.778    2.222    0.000    4.667    3.556 
#    4.000    5.556    0.000    0.000    0.000    0.000 
#    0.000    0.000    0.000    0.000    0.000    0.000 
#
# Total GULP energy -100400.478018 kJ/mol
# GULP energy per Si atom -5577.804334 kJ/mol
# Density = 2.421433 g / cm^3
# Si number density = 24.269570 Si / 1000 Ang^3
#
#
#
# Elastic Constant Matrix: (Units=GPa)
#
#
# Indices 1 2 3 4 5 6 
#
# 1 82.8656 27.1150 54.3970 0.0000 -8.8318 0.0000
# 2 27.1150 139.0244 60.8389 0.0000 5.2779 0.0000
# 3 54.3970 60.8389 143.9504 0.0000 -8.9298 0.0000
# 4 0.0000 0.0000 0.0000 16.9890 0.0000 10.6029
# 5 -8.8318 5.2779 -8.9298 0.0000 61.7277 0.0000
# 6 0.0000 0.0000 0.0000 10.6029 0.0000 -8.8803
#
#
#
# Elastic Compliance Matrix: (Units=1/GPa)
#
#
# Indices 1 2 3 4 5 6 
#
# 1 0.016232 -0.000715 -0.005735 0.000000 0.001554 0.000000
# 2 -0.000715 0.008962 -0.003604 0.000000 -0.001390 0.000000
# 3 -0.005735 -0.003604 0.010702 0.000000 0.001036 0.000000
# 4 0.000000 0.000000 0.000000 0.033728 0.000000 0.040271
# 5 0.001554 -0.001390 0.001036 0.000000 0.016691 0.000000
# 6 0.000000 0.000000 0.000000 0.040271 0.000000 -0.064526
#
#
# Mechanical properties :
#
#
# Convention : Reuss Voigt Hill
#
# Bulk Modulus (GPa) = 63.34071 72.28248 67.81160
# Shear Modulus (GPa) = 106.01993 28.86656 67.44325
#
# Velocity S-wave (km/s) = 6.61658 3.45253 5.27727
# Velocity P-wave (km/s) = 9.19389 6.76322 8.07059
#
# Compressibility (1/GPa) = 0.01578764
#
# Stress axis : x y z
#
# Youngs Moduli (GPa) = 61.60554 111.57856 93.44458
#
# Poissons Ratio (x) = 0.07978 0.53594
# Poissons Ratio (y) = 0.04405 0.33676
# Poissons Ratio (z) = 0.35333 0.40211
#
# Static dielectric constant tensor:
#      x y z
#    x 1.796910 0.000000 -0.116040 
#    y 0.000000 1.937270 0.000000 
#    z -0.116040 0.000000 1.961260 
# 
# From -- ./inp_files/25824.got.cif
#   From: 2010.05.17/outbox.cif.g08.bks.cpg/sg13_13_cif.got.tgz:25824.got - 2010.06.03 16:44:36.
