data_PCOD9231800
_publ_section_title
;
Structure prediction by ZEFSAII (Michael W. Deem and Ramdas Pophale) SiO2 
 PCOD9231800
Probable space group: P 2/C
;
_chemical_formula_sum "Si O2"
_cell_formula_units_Z 32
_cell_length_a 21.145542
_cell_length_b 14.366607
_cell_length_c 15.514312
_cell_angle_alpha 90.000000
_cell_angle_beta 160.693090
_cell_angle_gamma 90.000000
_cell_volume 1558.279891
_symmetry_space_group_name_H-M "P 2/C"
_symmetry_group_IT_number 13
_symmetry_cell_setting 'monoclinic'
loop_
_space_group_symop_operation_xyz
x,y,z
-x,y,1/2-z
-x,-y,-z
x,-y,1/2+z
loop_
_atom_site_type_symbol
_atom_site_label
_atom_site_fract_x
_atom_site_fract_y
_atom_site_fract_z
Si Si1 0.682367 0.194070 0.219538
Si Si2 0.729987 0.623754 0.035424
Si Si3 0.981688 0.166413 0.349658
Si Si4 0.684086 0.174186 0.423388
Si Si5 0.281444 0.418529 0.499374
Si Si6 0.056156 0.308734 0.059599
Si Si7 0.292900 0.245463 0.627036
Si Si8 0.983797 0.038569 0.576513
O O1 0.633081 0.175565 0.256549
O O2 0.818198 0.281042 0.363198
O O3 0.796871 0.101140 0.343001
O O4 0.492895 0.212180 0.920961
O O5 0.860430 0.637469 0.287555
O O6 0.500000 0.623161 0.750000
O O7 0.770850 0.721852 0.042788
O O8 0.784898 0.523748 0.067786
O O9 0.987569 0.208458 0.452757
O O10 0.133805 0.227927 0.494042
O O11 0.773515 0.186816 0.041998
O O12 0.032428 0.060370 0.397142
O O13 0.500000 0.166094 0.250000
O O14 0.840863 0.098555 0.656996
O O15 0.500000 0.423445 0.750000
O O16 0.168451 0.368878 0.275600
O O17 0.281828 0.351569 0.582044
O O18 0.000000 0.000000 0.500000
#
# Coordination Sequence:
#
# PCOD9231800 Si02
#       8
#     4   4   4   4   4   4   4   4
#     4  12  25  41  72  97 135 180 226 277 350 406
#     4  10  22  40  67  99 134 186 227 282 340 414
#     4  10  24  44  66  95 138 175 228 277 339 405
#     4  11  27  46  65  96 141 180 223 280 340 406
#     4  10  20  41  69 102 135 174 233 283 343 409
#     4  11  21  43  68  99 137 178 223 286 347 399
#     4  10  24  42  67  97 132 178 218 285 333 406
#     4  12  25  45  67  98 131 178 225 280 337 408
#
# _framework density 20.535463
#
# number of rings (size 3 to 8) (size 9 to 14) (size 15 to 20)
#    0.000    1.250    3.750    0.750    8.750    1.500 
#    0.000    6.875    0.000    0.000    0.000    0.000 
#    0.000    0.000    0.000    0.000    0.000    0.000 
#
# Total GULP energy -178331.448977 kJ/mol
# GULP energy per Si atom -5572.857781 kJ/mol
# Density = 2.048872 g / cm^3
# Si number density = 20.535463 Si / 1000 Ang^3
#
#
#
# Elastic Constant Matrix: (Units=GPa)
#
#
# Indices 1 2 3 4 5 6 
#
# 1 89.5292 31.2130 32.5936 0.0000 -3.7363 0.0000
# 2 31.2130 155.7684 52.4825 0.0000 -2.5921 0.0000
# 3 32.5936 52.4825 162.9110 0.0000 -10.5250 0.0000
# 4 0.0000 0.0000 0.0000 20.9597 0.0000 10.5607
# 5 -3.7363 -2.5921 -10.5250 0.0000 21.0532 0.0000
# 6 0.0000 0.0000 0.0000 10.5607 0.0000 -17.8751
#
#
#
# Elastic Compliance Matrix: (Units=1/GPa)
#
#
# Indices 1 2 3 4 5 6 
#
# 1 0.012536 -0.001876 -0.001834 0.000000 0.001077 0.000000
# 2 -0.001876 0.007484 -0.002064 0.000000 -0.000444 0.000000
# 3 -0.001834 -0.002064 0.007371 0.000000 0.003105 0.000000
# 4 0.000000 0.000000 0.000000 0.036766 0.000000 0.021721
# 5 0.001077 -0.000444 0.003105 0.000000 0.049188 0.000000
# 6 0.000000 0.000000 0.000000 0.021721 0.000000 -0.043111
#
#
# Mechanical properties :
#
#
# Convention : Reuss Voigt Hill
#
# Bulk Modulus (GPa) = 63.12349 71.19853 67.16101
# Shear Modulus (GPa) = 57.42905 24.28886 40.85896
#
# Velocity S-wave (km/s) = 5.29401 3.44288 4.46542
# Velocity P-wave (km/s) = 8.25677 7.10991 7.70471
#
# Compressibility (1/GPa) = 0.01584196
#
# Stress axis : x y z
#
# Youngs Moduli (GPa) = 79.76835 133.62108 135.66854
#
# Poissons Ratio (x) = 0.25069 0.24884
# Poissons Ratio (y) = 0.14966 0.28005
# Poissons Ratio (z) = 0.14631 0.27583
#
# Static dielectric constant tensor:
#      x y z
#    x 1.802070 0.000000 -0.048170 
#    y 0.000000 1.761360 0.000000 
#    z -0.048170 0.000000 1.788660 
# 
# From -- ./inp_files/57877.got.cif
#   From: 2010.05.17/outbox.cif.g08.bks.cpg/sg13_29_cif.got.tgz:57877.got - 2010.06.03 16:44:36.
