data_PCOD9231152
_publ_section_title
;
Structure prediction by ZEFSAII (Michael W. Deem and Ramdas Pophale) SiO2 
 PCOD9231152
Probable space group: P 2/C
;
_chemical_formula_sum "Si O2"
_cell_formula_units_Z 22
_cell_length_a 20.751307
_cell_length_b 5.084356
_cell_length_c 12.506654
_cell_angle_alpha 90.000000
_cell_angle_beta 41.359053
_cell_angle_gamma 90.000000
_cell_volume 871.919829
_symmetry_space_group_name_H-M "P 2/C"
_symmetry_group_IT_number 13
_symmetry_cell_setting 'monoclinic'
loop_
_space_group_symop_operation_xyz
x,y,z
-x,y,1/2-z
-x,-y,-z
x,-y,1/2+z
loop_
_atom_site_type_symbol
_atom_site_label
_atom_site_fract_x
_atom_site_fract_y
_atom_site_fract_z
Si Si1 0.850378 0.963480 0.386798
Si Si2 0.330557 0.625981 0.826201
Si Si3 0.900462 0.478803 0.189175
Si Si4 0.597292 0.914917 0.943732
Si Si5 0.212829 0.761196 0.354230
Si Si6 0.500000 0.180955 0.250000
O O1 0.874209 0.194530 0.271993
O O2 0.870850 0.064069 0.483136
O O3 0.738140 0.858937 0.542420
O O4 0.902487 0.701131 0.279118
O O5 0.256369 0.391377 0.902892
O O6 0.426185 0.631647 0.778193
O O7 0.373256 0.647798 0.651519
O O8 0.822899 0.574826 0.195984
O O9 0.000000 0.500000 0.000000
O O10 0.697214 0.072219 0.801292
O O11 0.565301 0.980661 0.100927
O O12 0.500000 0.000000 0.000000
#
# Coordination Sequence:
#
# PCOD9231152 Si02
#       6
#     4   4   4   4   4   2
#     4  11  25  50  74 108 150 198 242 305 383 436
#     4  10  22  43  68 104 142 200 240 302 365 441
#     4  12  28  49  77 115 148 192 252 312 379 450
#     4   9  21  39  63 100 147 184 249 293 361 431
#     4  11  25  46  76 105 153 197 251 309 372 451
#     4  10  20  38  66 102 148 190 246 302 360 440
#
# _framework density 25.231676
#
# number of rings (size 3 to 8) (size 9 to 14) (size 15 to 20)
#    0.000    1.455    1.818    1.636    7.636    3.636 
#    3.273   10.909    0.000    0.000    0.000    0.000 
#    0.000    0.000    0.000    0.000    0.000    0.000 
#
# Total GULP energy -122738.336511 kJ/mol
# GULP energy per Si atom -5579.015296 kJ/mol
# Density = 2.517425 g / cm^3
# Si number density = 25.231676 Si / 1000 Ang^3
#
#
#
# Elastic Constant Matrix: (Units=GPa)
#
#
# Indices 1 2 3 4 5 6 
#
# 1 59.0241 3.9198 10.6381 0.0000 -5.4888 0.0000
# 2 3.9198 95.1525 29.1573 0.0000 7.8542 0.0000
# 3 10.6381 29.1573 168.8810 0.0000 7.0332 0.0000
# 4 0.0000 0.0000 0.0000 33.1249 0.0000 5.5033
# 5 -5.4888 7.8542 7.0332 0.0000 26.0844 0.0000
# 6 0.0000 0.0000 0.0000 5.5033 0.0000 15.1524
#
#
#
# Elastic Compliance Matrix: (Units=1/GPa)
#
#
# Indices 1 2 3 4 5 6 
#
# 1 0.017593 -0.000718 -0.001160 0.000000 0.004231 0.000000
# 2 -0.000718 0.011340 -0.001784 0.000000 -0.003085 0.000000
# 3 -0.001160 -0.001784 0.006362 0.000000 -0.001422 0.000000
# 4 0.000000 0.000000 0.000000 0.032127 0.000000 -0.011668
# 5 0.004231 -0.003085 -0.001422 0.000000 0.040540 0.000000
# 6 0.000000 0.000000 0.000000 -0.011668 0.000000 0.070234
#
#
# Mechanical properties :
#
#
# Convention : Reuss Voigt Hill
#
# Bulk Modulus (GPa) = 35.75426 45.60977 40.68202
# Shear Modulus (GPa) = 25.66151 33.49518 29.57834
#
# Velocity S-wave (km/s) = 3.19256 3.64745 3.42756
# Velocity P-wave (km/s) = 5.27172 5.98783 5.64115
#
# Compressibility (1/GPa) = 0.02796870
#
# Stress axis : x y z
#
# Youngs Moduli (GPa) = 56.84231 88.18036 157.19080
#
# Poissons Ratio (x) = 0.06335 0.18240
# Poissons Ratio (y) = 0.04084 0.28046
# Poissons Ratio (z) = 0.06596 0.15733
#
# Static dielectric constant tensor:
#      x y z
#    x 2.070000 0.000000 0.133220 
#    y 0.000000 2.117170 0.000000 
#    z 0.133220 0.000000 2.209130 
# 
# From -- ./inp_files/41214.got.cif
#   From: 2010.05.17/outbox.cif.g08.bks.cpg/sg13_21_cif.got.tgz:41214.got - 2010.06.03 16:44:36.
