data_PCOD9231724
_publ_section_title
;
Structure prediction by ZEFSAII (Michael W. Deem and Ramdas Pophale) SiO2 
 PCOD9231724
Probable space group: P 2/C
;
_chemical_formula_sum "Si O2"
_cell_formula_units_Z 20
_cell_length_a 25.291285
_cell_length_b 7.508764
_cell_length_c 13.898026
_cell_angle_alpha 90.000000
_cell_angle_beta 21.013491
_cell_angle_gamma 90.000000
_cell_volume 946.428772
_symmetry_space_group_name_H-M "P 2/C"
_symmetry_group_IT_number 13
_symmetry_cell_setting 'monoclinic'
loop_
_space_group_symop_operation_xyz
x,y,z
-x,y,1/2-z
-x,-y,-z
x,-y,1/2+z
loop_
_atom_site_type_symbol
_atom_site_label
_atom_site_fract_x
_atom_site_fract_y
_atom_site_fract_z
Si Si1 0.796877 0.144190 0.797686
Si Si2 0.540473 0.715898 0.986758
Si Si3 0.871496 0.142555 0.325023
Si Si4 0.267577 0.487673 0.470106
Si Si5 0.637036 0.907249 0.381121
O O1 0.671181 0.148470 0.930921
O O2 0.955517 0.111363 0.478835
O O3 0.787210 0.983188 0.890823
O O4 0.789856 0.331496 0.864937
O O5 0.684419 0.605354 0.711906
O O6 0.577833 0.892117 0.980702
O O7 0.419794 0.588889 0.240379
O O8 0.469630 0.787475 0.005218
O O9 0.844419 0.350657 0.351071
O O10 0.791722 0.098220 0.560178
#
# Coordination Sequence:
#
# PCOD9231724 Si02
#       5
#     4   4   4   4   4
#     4  11  22  39  65  91 124 164 207 254 307 376
#     4   9  20  40  64  85 127 161 202 256 308 366
#     4  10  22  41  62  90 127 160 207 259 307 363
#     4  10  20  41  62  87 122 166 199 259 311 355
#     4  10  20  41  64  89 121 170 199 252 316 361
#
# _framework density 21.132069999999999
#
# number of rings (size 3 to 8) (size 9 to 14) (size 15 to 20)
#    0.000    2.000    2.000    1.200    0.000    0.800 
#   14.400    0.000    8.800    0.000    0.000    0.000 
#    0.000    0.000    0.000    0.000    0.000    0.000 
#
# Total GULP energy -111678.810970 kJ/mol
# GULP energy per Si atom -5583.940548 kJ/mol
# Density = 2.108397 g / cm^3
# Si number density = 21.132070 Si / 1000 Ang^3
#
#
#
# Elastic Constant Matrix: (Units=GPa)
#
#
# Indices 1 2 3 4 5 6 
#
# 1 50.5884 -4.7338 5.2881 0.0000 -8.5253 0.0000
# 2 -4.7338 94.6776 9.3728 0.0000 -4.6537 0.0000
# 3 5.2881 9.3728 58.5766 0.0000 2.5742 0.0000
# 4 0.0000 0.0000 0.0000 35.7273 0.0000 -3.2805
# 5 -8.5253 -4.6537 2.5742 0.0000 9.4101 0.0000
# 6 0.0000 0.0000 0.0000 -3.2805 0.0000 -5.5187
#
#
#
# Elastic Compliance Matrix: (Units=1/GPa)
#
#
# Indices 1 2 3 4 5 6 
#
# 1 0.024584 0.002815 -0.003755 0.000000 0.024692 0.000000
# 2 0.002815 0.011382 -0.002464 0.000000 0.008853 0.000000
# 3 -0.003755 -0.002464 0.018227 0.000000 -0.009607 0.000000
# 4 0.000000 0.000000 0.000000 0.026541 0.000000 -0.015777
# 5 0.024692 0.008853 -0.009607 0.000000 0.135646 0.000000
# 6 0.000000 0.000000 0.000000 -0.015777 0.000000 -0.171823
#
#
# Mechanical properties :
#
#
# Convention : Reuss Voigt Hill
#
# Bulk Modulus (GPa) = 21.10405 24.85518 22.97962
# Shear Modulus (GPa) = 74.44760 20.85144 47.64952
#
# Velocity S-wave (km/s) = 5.94190 3.14462 4.75367
# Velocity P-wave (km/s) = 7.55535 4.99722 6.40529
#
# Compressibility (1/GPa) = 0.04738426
#
# Stress axis : x y z
#
# Youngs Moduli (GPa) = 40.67624 87.85795 54.86319
#
# Poissons Ratio (x) = -0.24729 0.20600
# Poissons Ratio (y) = -0.11449 0.13520
# Poissons Ratio (z) = 0.15273 0.21652
#
# Static dielectric constant tensor:
#      x y z
#    x 1.758490 0.000000 -0.010960 
#    y 0.000000 1.737910 0.000000 
#    z -0.010960 0.000000 1.804630 
# 
# From -- ./inp_files/59260.got.cif
#   From: 2010.05.17/outbox.cif.g08.bks.cpg/sg13_30_cif.got.tgz:59260.got - 2010.06.03 16:44:36.
