data_PCOD9231126
_publ_section_title
;
Structure prediction by ZEFSAII (Michael W. Deem and Ramdas Pophale) SiO2 
 PCOD9231126
Probable space group: P 2/C
;
_chemical_formula_sum "Si O2"
_cell_formula_units_Z 22
_cell_length_a 10.019248
_cell_length_b 5.235584
_cell_length_c 20.131294
_cell_angle_alpha 90.000000
_cell_angle_beta 67.256179
_cell_angle_gamma 90.000000
_cell_volume 973.906271
_symmetry_space_group_name_H-M "P 2/C"
_symmetry_group_IT_number 13
_symmetry_cell_setting 'monoclinic'
loop_
_space_group_symop_operation_xyz
x,y,z
-x,y,1/2-z
-x,-y,-z
x,-y,1/2+z
loop_
_atom_site_type_symbol
_atom_site_label
_atom_site_fract_x
_atom_site_fract_y
_atom_site_fract_z
Si Si1 0.360286 0.576164 0.825186
Si Si2 0.609369 0.393980 0.535712
Si Si3 0.777645 0.467942 0.387879
Si Si4 0.000000 0.314239 0.750000
Si Si5 0.605044 0.030793 0.875838
Si Si6 0.255352 0.074218 0.783424
O O1 0.500000 0.581655 0.750000
O O2 0.399890 0.556017 0.895064
O O3 0.276868 0.316591 0.825425
O O4 0.262818 0.815808 0.823201
O O5 0.500000 0.500000 0.500000
O O6 0.763532 0.414657 0.469217
O O7 0.551378 0.109823 0.564907
O O8 0.925309 0.503728 0.319441
O O9 0.703043 0.740288 0.386448
O O10 0.685476 0.232799 0.375428
O O11 0.115081 0.135063 0.765868
O O12 0.612199 0.064459 0.795332
#
# Coordination Sequence:
#
# PCOD9231126 Si02
#       6
#     4   4   4   2   4   4
#     4  12  25  42  67 105 143 174 226 299 364 418
#     4  10  23  42  66 102 143 179 226 290 361 420
#     4  10  22  38  66  97 132 180 237 283 333 405
#     4  10  24  48  70 102 138 196 250 276 334 440
#     4  10  20  38  64  99 133 174 227 289 345 410
#     4  11  24  41  69  99 139 187 231 286 346 415
#
# _framework density 22.589442999999999
#
# number of rings (size 3 to 8) (size 9 to 14) (size 15 to 20)
#    0.000    1.455    1.818    3.273    2.545    9.455 
#    0.000    1.818    0.000    0.000    0.000    0.000 
#    0.000    0.000    0.000    0.000    0.000    0.000 
#
# Total GULP energy -122869.146443 kJ/mol
# GULP energy per Si atom -5584.961202 kJ/mol
# Density = 2.253803 g / cm^3
# Si number density = 22.589443 Si / 1000 Ang^3
#
#
#
# Elastic Constant Matrix: (Units=GPa)
#
#
# Indices 1 2 3 4 5 6 
#
# 1 71.9811 49.7054 54.2853 0.0000 13.8977 0.0000
# 2 49.7054 152.8825 47.1229 0.0000 9.8512 0.0000
# 3 54.2853 47.1229 187.3461 0.0000 -0.2826 0.0000
# 4 0.0000 0.0000 0.0000 26.0946 0.0000 12.6783
# 5 13.8977 9.8512 -0.2826 0.0000 45.1351 0.0000
# 6 0.0000 0.0000 0.0000 12.6783 0.0000 32.2306
#
#
#
# Elastic Compliance Matrix: (Units=1/GPa)
#
#
# Indices 1 2 3 4 5 6 
#
# 1 0.022681 -0.005387 -0.005226 0.000000 -0.005841 0.000000
# 2 -0.005387 0.008482 -0.000573 0.000000 -0.000196 0.000000
# 3 -0.005226 -0.000573 0.006999 0.000000 0.001778 0.000000
# 4 0.000000 0.000000 0.000000 0.047377 0.000000 -0.018636
# 5 -0.005841 -0.000196 0.001778 0.000000 0.024008 0.000000
# 6 0.000000 0.000000 0.000000 -0.018636 0.000000 0.038357
#
#
# Mechanical properties :
#
#
# Convention : Reuss Voigt Hill
#
# Bulk Modulus (GPa) = 63.33022 79.38188 71.35605
# Shear Modulus (GPa) = 28.48377 38.09847 33.29112
#
# Velocity S-wave (km/s) = 3.55481 4.11123 3.84311
# Velocity P-wave (km/s) = 6.70411 7.59959 7.16585
#
# Compressibility (1/GPa) = 0.01579025
#
# Stress axis : x y z
#
# Youngs Moduli (GPa) = 44.08898 117.90260 142.88329
#
# Poissons Ratio (x) = 0.63515 0.74670
# Poissons Ratio (y) = 0.23751 0.08183
# Poissons Ratio (z) = 0.23041 0.06752
#
# Static dielectric constant tensor:
#      x y z
#    x 1.925350 0.000000 -0.068650 
#    y 0.000000 1.887790 0.000000 
#    z -0.068650 0.000000 1.944400 
# 
# From -- ./inp_files/65083.got.cif
#   From: 2010.05.17/outbox.cif.g08.bks.cpg/sg13_33_cif.got.tgz:65083.got - 2010.06.03 16:44:36.
