data_PCOD9231803
_publ_section_title
;
Structure prediction by ZEFSAII (Michael W. Deem and Ramdas Pophale) SiO2 
 PCOD9231803
Probable space group: P 2/C
;
_chemical_formula_sum "Si O2"
_cell_formula_units_Z 28
_cell_length_a 8.085053
_cell_length_b 14.089337
_cell_length_c 11.474869
_cell_angle_alpha 90.000000
_cell_angle_beta 112.350253
_cell_angle_gamma 90.000000
_cell_volume 1208.940515
_symmetry_space_group_name_H-M "P 2/C"
_symmetry_group_IT_number 13
_symmetry_cell_setting 'monoclinic'
loop_
_space_group_symop_operation_xyz
x,y,z
-x,y,1/2-z
-x,-y,-z
x,-y,1/2+z
loop_
_atom_site_type_symbol
_atom_site_label
_atom_site_fract_x
_atom_site_fract_y
_atom_site_fract_z
Si Si1 0.334585 0.809604 0.432682
Si Si2 0.500000 0.433704 0.250000
Si Si3 0.000000 0.267879 0.250000
Si Si4 0.150300 0.915831 0.190990
Si Si5 0.620245 0.680304 0.566021
Si Si6 0.108101 0.122096 0.081846
Si Si7 0.096080 0.617814 0.395764
Si Si8 0.759969 0.559215 0.427956
O O1 0.309733 0.861690 0.301253
O O2 0.537706 0.781953 0.515534
O O3 0.258341 0.867437 0.522517
O O4 0.217366 0.711262 0.410027
O O5 0.488302 0.367060 0.358616
O O6 0.674267 0.499986 0.299862
O O7 0.172215 0.322411 0.343704
O O8 0.082381 0.205087 0.167508
O O9 0.000000 0.899110 0.250000
O O10 0.155898 0.028142 0.168464
O O11 0.073387 0.880866 0.045902
O O12 0.605027 0.620361 0.444419
O O13 0.190061 0.523421 0.467728
O O14 0.000000 0.598509 0.250000
O O15 0.927437 0.624670 0.439367
#
# Coordination Sequence:
#
# PCOD9231803 Si02
#       8
#     4   2   2   4   4   4   4   4
#     4  11  23  43  69 102 137 178 231 287 338 409
#     4  12  24  46  66  92 138 188 230 290 336 392
#     4  12  26  42  70  96 132 178 230 288 346 418
#     4   9  19  40  73  99 131 174 221 274 347 413
#     4  12  27  44  66 100 138 179 236 285 344 407
#     4  10  20  41  70 100 132 174 218 275 349 416
#     4  11  23  42  68 100 137 183 230 277 340 406
#     4  11  26  41  66  97 139 189 228 282 339 406
#
# _framework density 23.160774
#
# number of rings (size 3 to 8) (size 9 to 14) (size 15 to 20)
#    0.000    1.143    2.143    4.286    7.000    0.000 
#    0.000    0.714    6.286    0.000    0.000    0.000 
#    0.000    0.000    0.000    0.000    0.000    0.000 
#
# Total GULP energy -156327.938934 kJ/mol
# GULP energy per Si atom -5583.140676 kJ/mol
# Density = 2.310806 g / cm^3
# Si number density = 23.160774 Si / 1000 Ang^3
#
#
#
# Elastic Constant Matrix: (Units=GPa)
#
#
# Indices 1 2 3 4 5 6 
#
# 1 44.3100 5.3965 12.8021 0.0000 2.8976 0.0000
# 2 5.3965 40.3299 22.5362 0.0000 -1.6843 0.0000
# 3 12.8021 22.5362 88.3612 0.0000 -0.2506 0.0000
# 4 0.0000 0.0000 0.0000 57.3467 0.0000 9.5748
# 5 2.8976 -1.6843 -0.2506 0.0000 35.1198 0.0000
# 6 0.0000 0.0000 0.0000 9.5748 0.0000 21.8337
#
#
#
# Elastic Compliance Matrix: (Units=1/GPa)
#
#
# Indices 1 2 3 4 5 6 
#
# 1 0.023775 -0.001562 -0.003052 0.000000 -0.002058 0.000000
# 2 -0.001562 0.029082 -0.007187 0.000000 0.001472 0.000000
# 3 -0.003052 -0.007187 0.013592 0.000000 0.000004 0.000000
# 4 0.000000 0.000000 0.000000 0.018815 0.000000 -0.008251
# 5 -0.002058 0.001472 0.000004 0.000000 0.028714 0.000000
# 6 0.000000 0.000000 0.000000 -0.008251 0.000000 0.049419
#
#
# Mechanical properties :
#
#
# Convention : Reuss Voigt Hill
#
# Bulk Modulus (GPa) = 23.33837 28.27451 25.80644
# Shear Modulus (GPa) = 24.84076 31.67781 28.25929
#
# Velocity S-wave (km/s) = 3.27851 3.70230 3.49683
# Velocity P-wave (km/s) = 4.94268 5.52363 5.24121
#
# Compressibility (1/GPa) = 0.04284790
#
# Stress axis : x y z
#
# Youngs Moduli (GPa) = 42.06116 34.38565 73.57071
#
# Poissons Ratio (x) = 0.05370 0.22455
# Poissons Ratio (y) = 0.06569 0.52874
# Poissons Ratio (z) = 0.12838 0.24712
#
# Static dielectric constant tensor:
#      x y z
#    x 1.932530 0.000000 0.059840 
#    y 0.000000 1.895650 0.000000 
#    z 0.059840 0.000000 1.919820 
# 
# From -- ./inp_files/30254.got.cif
#   From: 2010.05.17/outbox.cif.g08.bks.cpg/sg13_16_cif.got.tgz:30254.got - 2010.06.03 16:44:36.
