data_PCOD9231340
_publ_section_title
;
Structure prediction by ZEFSAII (Michael W. Deem and Ramdas Pophale) SiO2 
 PCOD9231340
Probable space group: P 2/C
;
_chemical_formula_sum "Si O2"
_cell_formula_units_Z 24
_cell_length_a 19.883104
_cell_length_b 13.457080
_cell_length_c 13.473869
_cell_angle_alpha 90.000000
_cell_angle_beta 158.637734
_cell_angle_gamma 90.000000
_cell_volume 1313.236753
_symmetry_space_group_name_H-M "P 2/C"
_symmetry_group_IT_number 13
_symmetry_cell_setting 'monoclinic'
loop_
_space_group_symop_operation_xyz
x,y,z
-x,y,1/2-z
-x,-y,-z
x,-y,1/2+z
loop_
_atom_site_type_symbol
_atom_site_label
_atom_site_fract_x
_atom_site_fract_y
_atom_site_fract_z
Si Si1 0.127201 0.234502 0.017625
Si Si2 0.500000 0.033565 0.250000
Si Si3 0.131340 0.088865 0.210954
Si Si4 0.914221 0.396859 0.848257
Si Si5 0.493466 0.797412 0.571951
Si Si6 0.086381 0.756490 0.968148
Si Si7 0.500000 0.633309 0.750000
O O1 0.127011 0.161786 0.110929
O O2 0.335625 0.226228 0.264313
O O3 0.000000 0.201937 0.750000
O O4 0.035572 0.337860 0.931861
O O5 0.487034 0.105701 0.329487
O O6 0.675293 0.962025 0.499274
O O7 0.044686 0.152187 0.180915
O O8 0.000000 0.000000 0.000000
O O9 0.701320 0.417211 0.523305
O O10 0.912534 0.322367 0.940416
O O11 0.000000 0.500000 0.000000
O O12 0.492631 0.705263 0.645847
O O13 0.295411 0.796918 0.246019
O O14 0.000000 0.711730 0.750000
#
# Coordination Sequence:
#
# PCOD9231340 Si02
#       7
#     4   2   4   4   4   4   2
#     4  11  22  39  64  90 118 157 204 254 297 363
#     4  11  22  38  61  88 130 166 211 250 295 370
#     4  11  23  39  56  88 122 163 204 250 298 352
#     4  10  22  43  64  93 120 155 203 253 311 366
#     4  10  20  39  64  85 118 167 205 243 303 355
#     4  10  23  42  60  85 127 165 198 255 310 359
#     4   9  18  40  65  84 118 160 193 244 301 362
#
# _framework density 18.275455000000001
#
# number of rings (size 3 to 8) (size 9 to 14) (size 15 to 20)
#    0.000    1.667    3.333    1.000    2.333    3.333 
#    3.000    1.667    0.000    0.000    0.000    0.000 
#    0.000    0.000    0.000    0.000    0.000    0.000 
#
# Total GULP energy -133765.633683 kJ/mol
# GULP energy per Si atom -5573.568070 kJ/mol
# Density = 1.823386 g / cm^3
# Si number density = 18.275455 Si / 1000 Ang^3
#
#
#
# Elastic Constant Matrix: (Units=GPa)
#
#
# Indices 1 2 3 4 5 6 
#
# 1 80.7817 9.1289 50.8946 0.0000 16.4040 0.0000
# 2 9.1289 75.1808 64.1172 0.0000 18.7761 0.0000
# 3 50.8946 64.1172 191.2084 0.0000 14.9298 0.0000
# 4 0.0000 0.0000 0.0000 25.3025 0.0000 -4.3290
# 5 16.4040 18.7761 14.9298 0.0000 37.0632 0.0000
# 6 0.0000 0.0000 0.0000 -4.3290 0.0000 -6.4065
#
#
#
# Elastic Compliance Matrix: (Units=1/GPa)
#
#
# Indices 1 2 3 4 5 6 
#
# 1 0.016780 0.004405 -0.005358 0.000000 -0.007500 0.000000
# 2 0.004405 0.021818 -0.007716 0.000000 -0.009894 0.000000
# 3 -0.005358 -0.007716 0.009037 0.000000 0.002640 0.000000
# 4 0.000000 0.000000 0.000000 0.035426 0.000000 -0.023938
# 5 -0.007500 -0.009894 0.002640 0.000000 0.034249 0.000000
# 6 0.000000 0.000000 0.000000 -0.023938 0.000000 -0.139915
#
#
# Mechanical properties :
#
#
# Convention : Reuss Voigt Hill
#
# Bulk Modulus (GPa) = 33.00630 66.16137 49.58384
# Shear Modulus (GPa) = 1034.56842 26.06050 530.31446
#
# Velocity S-wave (km/s) = 23.81861 3.78032 17.05311
# Velocity P-wave (km/s) = 27.83046 7.43877 20.36995
#
# Compressibility (1/GPa) = 0.03029724
#
# Stress axis : x y z
#
# Youngs Moduli (GPa) = 59.59542 45.83358 110.65272
#
# Poissons Ratio (x) = -0.20189 0.59286
# Poissons Ratio (y) = -0.26251 0.85381
# Poissons Ratio (z) = 0.31930 0.35366
#
# Static dielectric constant tensor:
#      x y z
#    x 1.663610 0.000000 0.021820 
#    y 0.000000 1.625170 0.000000 
#    z 0.021820 0.000000 1.645380 
# 
# From -- ./inp_files/51412.got.cif
#   From: 2010.05.17/outbox.cif.g08.bks.cpg/sg13_26_cif.got.tgz:51412.got - 2010.06.03 16:44:36.
