data_PCOD9231758
_publ_section_title
;
Structure prediction by ZEFSAII (Michael W. Deem and Ramdas Pophale) SiO2 
 PCOD9231758
Probable space group: P 2/C
;
_chemical_formula_sum "Si O2"
_cell_formula_units_Z 28
_cell_length_a 22.511770
_cell_length_b 12.506772
_cell_length_c 9.954533
_cell_angle_alpha 90.000000
_cell_angle_beta 145.787481
_cell_angle_gamma 90.000000
_cell_volume 1575.854462
_symmetry_space_group_name_H-M "P 2/C"
_symmetry_group_IT_number 13
_symmetry_cell_setting 'monoclinic'
loop_
_space_group_symop_operation_xyz
x,y,z
-x,y,1/2-z
-x,-y,-z
x,-y,1/2+z
loop_
_atom_site_type_symbol
_atom_site_label
_atom_site_fract_x
_atom_site_fract_y
_atom_site_fract_z
Si Si1 0.793314 0.402642 0.807636
Si Si2 0.026913 0.875752 0.066248
Si Si3 0.000000 0.265262 0.250000
Si Si4 0.726946 0.833601 0.903475
Si Si5 0.376902 0.778331 0.509905
Si Si6 0.196120 0.390257 0.994147
Si Si7 0.000000 0.733094 0.250000
Si Si8 0.421968 0.992458 0.478564
O O1 0.696037 0.322982 0.651941
O O2 0.805131 0.418132 0.667645
O O3 0.778235 0.510585 0.863065
O O4 0.897806 0.341200 0.053752
O O5 0.151086 0.863843 0.338107
O O6 0.962230 0.814329 0.062511
O O7 0.006318 0.810705 0.891604
O O8 0.000000 0.000000 0.000000
O O9 0.668194 0.918484 0.701008
O O10 0.665088 0.827837 0.928770
O O11 0.727712 0.712645 0.849378
O O12 0.370352 0.874994 0.391930
O O13 0.500000 0.748913 0.750000
O O14 0.084420 0.343179 0.836226
O O15 0.500000 0.000000 0.500000
O O16 0.500000 0.005554 0.750000
#
# Coordination Sequence:
#
# PCOD9231758 Si02
#       8
#     4   4   2   4   4   4   2   4
#     4  11  24  42  63  91 120 169 213 261 317 366
#     4  11  24  38  62  94 137 165 202 252 317 382
#     4  12  22  40  62  94 124 173 211 246 316 386
#     4  10  21  43  58  91 130 159 202 261 310 365
#     4  10  20  41  65  87 125 164 203 256 309 371
#     4  10  23  42  61  87 126 161 211 265 308 372
#     4  10  20  42  58  88 124 169 195 264 302 366
#     4  11  21  39  67  92 118 164 206 249 308 376
#
# _framework density 17.768138
#
# number of rings (size 3 to 8) (size 9 to 14) (size 15 to 20)
#    0.000    1.429    7.143    0.857    4.000    3.429 
#    2.571    3.571    0.000    0.000    0.000    0.000 
#    0.000    0.000    0.000    0.000    0.000    0.000 
#
# Total GULP energy -156158.366279 kJ/mol
# GULP energy per Si atom -5577.084510 kJ/mol
# Density = 1.772770 g / cm^3
# Si number density = 17.768138 Si / 1000 Ang^3
#
#
#
# Elastic Constant Matrix: (Units=GPa)
#
#
# Indices 1 2 3 4 5 6 
#
# 1 105.0083 67.2762 39.3731 0.0000 -6.7954 0.0000
# 2 67.2762 173.5659 66.9497 0.0000 -8.4312 0.0000
# 3 39.3731 66.9497 88.9360 0.0000 -2.6806 0.0000
# 4 0.0000 0.0000 0.0000 29.9536 0.0000 -11.2542
# 5 -6.7954 -8.4312 -2.6806 0.0000 33.0746 0.0000
# 6 0.0000 0.0000 0.0000 -11.2542 0.0000 31.0351
#
#
#
# Elastic Compliance Matrix: (Units=1/GPa)
#
#
# Indices 1 2 3 4 5 6 
#
# 1 0.013215 -0.003961 -0.002824 0.000000 0.001477 0.000000
# 2 -0.003961 0.009390 -0.005280 0.000000 0.001152 0.000000
# 3 -0.002824 -0.005280 0.016451 0.000000 -0.000593 0.000000
# 4 0.000000 0.000000 0.000000 0.038651 0.000000 0.014016
# 5 0.001477 0.001152 -0.000593 0.000000 0.030784 0.000000
# 6 0.000000 0.000000 0.000000 0.014016 0.000000 0.037304
#
#
# Mechanical properties :
#
#
# Convention : Reuss Voigt Hill
#
# Bulk Modulus (GPa) = 66.99984 79.41202 73.20593
# Shear Modulus (GPa) = 28.58768 31.74007 30.16387
#
# Velocity S-wave (km/s) = 4.01550 4.23111 4.12471
# Velocity P-wave (km/s) = 7.69991 8.28614 7.99840
#
# Compressibility (1/GPa) = 0.01492541
#
# Stress axis : x y z
#
# Youngs Moduli (GPa) = 75.66879 106.50152 60.78667
#
# Poissons Ratio (x) = 0.42190 0.17166
# Poissons Ratio (y) = 0.29976 0.32094
# Poissons Ratio (z) = 0.21369 0.56231
#
# Static dielectric constant tensor:
#      x y z
#    x 1.621790 0.000000 0.006030 
#    y 0.000000 1.615590 0.000000 
#    z 0.006030 0.000000 1.583810 
# 
# From -- ./inp_files/23410.got.cif
#   From: 2010.05.17/outbox.cif.g08.bks.cpg/sg13_12_cif.got.tgz:23410.got - 2010.06.03 16:44:36.
