data_PCOD9231665
_publ_section_title
;
Structure prediction by ZEFSAII (Michael W. Deem and Ramdas Pophale) SiO2 
 PCOD9231665
Probable space group: P 2/C
;
_chemical_formula_sum "Si O2"
_cell_formula_units_Z 30
_cell_length_a 14.720108
_cell_length_b 9.372105
_cell_length_c 17.008796
_cell_angle_alpha 90.000000
_cell_angle_beta 142.125363
_cell_angle_gamma 90.000000
_cell_volume 1440.604277
_symmetry_space_group_name_H-M "P 2/C"
_symmetry_group_IT_number 13
_symmetry_cell_setting 'monoclinic'
loop_
_space_group_symop_operation_xyz
x,y,z
-x,y,1/2-z
-x,-y,-z
x,-y,1/2+z
loop_
_atom_site_type_symbol
_atom_site_label
_atom_site_fract_x
_atom_site_fract_y
_atom_site_fract_z
Si Si1 0.266291 0.475311 0.798394
Si Si2 0.618682 0.800290 0.460656
Si Si3 0.900391 0.281758 0.254553
Si Si4 0.268428 0.984638 0.598230
Si Si5 0.500000 0.749227 0.750000
Si Si6 0.718047 0.164523 0.738066
Si Si7 0.973268 0.024011 0.823761
Si Si8 0.577981 0.474420 0.431517
O O1 0.141024 0.594263 0.714462
O O2 0.231123 0.327773 0.733008
O O3 0.415778 0.531962 0.860291
O O4 0.307975 0.449593 0.918963
O O5 0.749204 0.781223 0.613091
O O6 0.662532 0.919726 0.426348
O O7 0.460501 0.836315 0.391915
O O8 0.600371 0.637089 0.415472
O O9 0.000000 0.335140 0.250000
O O10 0.980091 0.145528 0.345065
O O11 0.248715 0.091446 0.656703
O O12 0.377494 0.858317 0.698818
O O13 0.113444 0.916426 0.465956
O O14 0.421615 0.646268 0.633684
O O15 0.814979 0.082647 0.740297
O O16 0.000000 0.043760 0.750000
#
# Coordination Sequence:
#
# PCOD9231665 Si02
#       8
#     4   4   4   4   2   4   4   4
#     4   9  21  41  65  93 125 168 222 263 325 380
#     4  10  20  43  70  91 128 176 217 263 334 383
#     4  10  20  40  68  95 125 171 218 273 314 387
#     4  12  24  44  62 100 134 177 214 264 338 394
#     4  12  26  38  68 100 134 170 216 274 320 392
#     4  11  24  41  67  93 134 172 217 276 319 397
#     4  11  25  44  64  92 135 176 218 272 327 391
#     4   9  22  40  62  99 129 161 216 279 312 379
#
# _framework density 20.824594999999999
#
# number of rings (size 3 to 8) (size 9 to 14) (size 15 to 20)
#    0.000    1.600    4.000    1.200    7.467    1.067 
#    2.400    0.667    0.000    0.000    0.000    0.000 
#    0.000    0.000    0.000    0.000    0.000    0.000 
#
# Total GULP energy -167501.197332 kJ/mol
# GULP energy per Si atom -5583.373244 kJ/mol
# Density = 2.077720 g / cm^3
# Si number density = 20.824595 Si / 1000 Ang^3
#
#
#
# Elastic Constant Matrix: (Units=GPa)
#
#
# Indices 1 2 3 4 5 6 
#
# 1 82.9169 31.4551 10.5546 0.0000 16.2877 0.0000
# 2 31.4551 63.2436 6.4043 0.0000 0.0325 0.0000
# 3 10.5546 6.4043 54.4047 0.0000 7.8887 0.0000
# 4 0.0000 0.0000 0.0000 19.3899 0.0000 2.5538
# 5 16.2877 0.0325 7.8887 0.0000 23.2036 0.0000
# 6 0.0000 0.0000 0.0000 2.5538 0.0000 32.4783
#
#
#
# Elastic Compliance Matrix: (Units=1/GPa)
#
#
# Indices 1 2 3 4 5 6 
#
# 1 0.017923 -0.008842 -0.000646 0.000000 -0.012349 0.000000
# 2 -0.008842 0.020374 -0.001661 0.000000 0.006743 0.000000
# 3 -0.000646 -0.001661 0.019602 0.000000 -0.006209 0.000000
# 4 0.000000 0.000000 0.000000 0.052113 0.000000 -0.004098
# 5 -0.012349 0.006743 -0.006209 0.000000 0.053866 0.000000
# 6 0.000000 0.000000 0.000000 -0.004098 0.000000 0.031112
#
#
# Mechanical properties :
#
#
# Convention : Reuss Voigt Hill
#
# Bulk Modulus (GPa) = 28.08861 33.04370 30.56615
# Shear Modulus (GPa) = 21.81936 25.15777 23.48857
#
# Velocity S-wave (km/s) = 3.24044 3.47952 3.36210
# Velocity P-wave (km/s) = 5.24576 5.66081 5.45723
#
# Compressibility (1/GPa) = 0.03560162
#
# Stress axis : x y z
#
# Youngs Moduli (GPa) = 55.79558 49.08110 51.01583
#
# Poissons Ratio (x) = 0.43399 0.03293
# Poissons Ratio (y) = 0.49336 0.08472
# Poissons Ratio (z) = 0.03602 0.08151
#
# Static dielectric constant tensor:
#      x y z
#    x 1.647940 0.000000 0.054200 
#    y 0.000000 1.765980 0.000000 
#    z 0.054200 0.000000 1.715440 
# 
# From -- ./inp_files/68265.got.cif
#   From: 2010.05.17/outbox.cif.g08.bks.cpg/sg13_35_cif.got.tgz:68265.got - 2010.06.03 16:44:36.
