data_PCOD9231062
_publ_section_title
;
Structure prediction by ZEFSAII (Michael W. Deem and Ramdas Pophale) SiO2 
 PCOD9231062
Probable space group: P 2/C
;
_chemical_formula_sum "Si O2"
_cell_formula_units_Z 22
_cell_length_a 19.983507
_cell_length_b 7.620526
_cell_length_c 20.494751
_cell_angle_alpha 90.000000
_cell_angle_beta 19.632862
_cell_angle_gamma 90.000000
_cell_volume 1048.643868
_symmetry_space_group_name_H-M "P 2/C"
_symmetry_group_IT_number 13
_symmetry_cell_setting 'monoclinic'
loop_
_space_group_symop_operation_xyz
x,y,z
-x,y,1/2-z
-x,-y,-z
x,-y,1/2+z
loop_
_atom_site_type_symbol
_atom_site_label
_atom_site_fract_x
_atom_site_fract_y
_atom_site_fract_z
Si Si1 0.942654 0.607148 0.617182
Si Si2 0.351003 0.119505 0.179865
Si Si3 0.000000 0.876003 0.750000
Si Si4 0.587440 0.442173 0.990074
Si Si5 0.798899 0.906023 0.064962
Si Si6 0.575829 0.706787 0.114649
O O1 0.790061 0.763472 0.736980
O O2 0.824580 0.462451 0.767388
O O3 0.000000 0.500000 0.500000
O O4 0.112677 0.713639 0.498095
O O5 0.211735 0.018158 0.359207
O O6 0.493657 0.253785 0.087883
O O7 0.500000 0.000000 0.000000
O O8 0.076634 0.969753 0.612720
O O9 0.194319 0.762244 0.591498
O O10 0.500000 0.500000 0.000000
O O11 0.532181 0.584093 0.094054
O O12 0.568082 0.875160 0.258924
O O13 0.500000 0.615090 0.250000
#
# Coordination Sequence:
#
# PCOD9231062 Si02
#       6
#     4   4   2   4   4   4
#     4  11  21  38  65  97 128 168 216 264 324 389
#     4  11  23  38  64 101 137 165 204 275 339 387
#     4  10  22  40  66  94 126 184 224 258 330 402
#     4  10  20  38  63  92 129 165 215 263 321 387
#     4  11  21  38  66  95 131 169 220 265 327 393
#     4  10  21  41  67  92 129 176 225 267 323 397
#
# _framework density 20.979476999999999
#
# number of rings (size 3 to 8) (size 9 to 14) (size 15 to 20)
#    0.000    1.455    1.818    6.000    0.000    0.000 
#    0.000    2.727    0.000    1.091    0.000    0.000 
#    0.000    0.000    0.000    0.000    0.000    0.000 
#
# Total GULP energy -122639.165397 kJ/mol
# GULP energy per Si atom -5574.507518 kJ/mol
# Density = 2.093173 g / cm^3
# Si number density = 20.979477 Si / 1000 Ang^3
#
#
#
# Elastic Constant Matrix: (Units=GPa)
#
#
# Indices 1 2 3 4 5 6 
#
# 1 81.5429 9.8288 30.0313 0.0000 12.1981 0.0000
# 2 9.8288 33.7267 31.3652 0.0000 -0.2366 0.0000
# 3 30.0313 31.3652 135.9939 0.0000 9.5071 0.0000
# 4 0.0000 0.0000 0.0000 43.6749 0.0000 -0.4048
# 5 12.1981 -0.2366 9.5071 0.0000 55.5423 0.0000
# 6 0.0000 0.0000 0.0000 -0.4048 0.0000 20.3006
#
#
#
# Elastic Compliance Matrix: (Units=1/GPa)
#
#
# Indices 1 2 3 4 5 6 
#
# 1 0.013769 -0.001748 -0.002455 0.000000 -0.002611 0.000000
# 2 -0.001748 0.038122 -0.008547 0.000000 0.002009 0.000000
# 3 -0.002455 -0.008547 0.009950 0.000000 -0.001200 0.000000
# 4 0.000000 0.000000 0.000000 0.022901 0.000000 0.000457
# 5 -0.002611 0.002009 -0.001200 0.000000 0.018792 0.000000
# 6 0.000000 0.000000 0.000000 0.000457 0.000000 0.049269
#
#
# Mechanical properties :
#
#
# Convention : Reuss Voigt Hill
#
# Bulk Modulus (GPa) = 27.51626 43.74600 35.63113
# Shear Modulus (GPa) = 26.25835 35.90610 31.08222
#
# Velocity S-wave (km/s) = 3.54166 4.14150 3.85327
# Velocity P-wave (km/s) = 5.46523 6.61562 6.06775
#
# Compressibility (1/GPa) = 0.03634215
#
# Stress axis : x y z
#
# Youngs Moduli (GPa) = 72.62754 26.23166 100.49748
#
# Poissons Ratio (x) = 0.04585 0.24671
# Poissons Ratio (y) = 0.12694 0.85893
# Poissons Ratio (z) = 0.17829 0.22420
#
# Static dielectric constant tensor:
#      x y z
#    x 1.849560 0.000000 -0.002570 
#    y 0.000000 1.768030 0.000000 
#    z -0.002570 0.000000 1.852270 
# 
# From -- ./inp_files/81633.got.cif
#   From: 2010.05.17/outbox.cif.g08.bks.cpg/sg13_41_cif.got.tgz:81633.got - 2010.06.03 16:44:36.
