data_PCOD9231181
_publ_section_title
;
Structure prediction by ZEFSAII (Michael W. Deem and Ramdas Pophale) SiO2 
 PCOD9231181
Probable space group: P 2/C
;
_chemical_formula_sum "Si O2"
_cell_formula_units_Z 20
_cell_length_a 20.280082
_cell_length_b 9.338338
_cell_length_c 13.594310
_cell_angle_alpha 90.000000
_cell_angle_beta 158.951182
_cell_angle_gamma 90.000000
_cell_volume 924.673418
_symmetry_space_group_name_H-M "P 2/C"
_symmetry_group_IT_number 13
_symmetry_cell_setting 'monoclinic'
loop_
_space_group_symop_operation_xyz
x,y,z
-x,y,1/2-z
-x,-y,-z
x,-y,1/2+z
loop_
_atom_site_type_symbol
_atom_site_label
_atom_site_fract_x
_atom_site_fract_y
_atom_site_fract_z
Si Si1 0.500000 0.515647 0.750000
Si Si2 0.123587 0.138930 0.688030
Si Si3 0.500567 0.721432 0.114735
Si Si4 0.088939 0.604522 0.539550
Si Si5 0.725631 0.345060 0.741318
Si Si6 0.500000 0.014208 0.750000
O O1 0.397429 0.402446 0.679310
O O2 0.379341 0.605948 0.505687
O O3 0.141603 0.219302 0.608291
O O4 0.046873 0.260266 0.656192
O O5 0.000000 0.000000 0.500000
O O6 0.322240 0.082384 0.993154
O O7 0.714549 0.683844 0.671159
O O8 0.575590 0.704049 0.110201
O O9 0.527769 0.877331 0.197401
O O10 0.000000 0.500000 0.500000
O O11 0.842652 0.517890 0.440899
#
# Coordination Sequence:
#
# PCOD9231181 Si02
#       6
#     2   4   4   4   4   2
#     4   9  17  34  64  98 118 162 220 262 324 392
#     4  11  22  41  66  90 132 177 218 272 339 399
#     4  10  20  38  67  97 134 174 222 273 340 400
#     4   9  18  36  65  93 126 172 213 276 338 377
#     4  10  21  38  69  95 130 177 220 279 335 393
#     4  11  23  40  68  96 136 186 222 264 344 414
#
# _framework density 21.629259000000001
#
# number of rings (size 3 to 8) (size 9 to 14) (size 15 to 20)
#    0.000    2.000    2.000    3.000    0.000    0.800 
#    0.000    1.000    8.800   36.000    0.000    0.000 
#    0.000    0.000    0.000    0.000    0.000    0.000 
#
# Total GULP energy -111337.319482 kJ/mol
# GULP energy per Si atom -5566.865974 kJ/mol
# Density = 2.158003 g / cm^3
# Si number density = 21.629259 Si / 1000 Ang^3
#
#
#
# Elastic Constant Matrix: (Units=GPa)
#
#
# Indices 1 2 3 4 5 6 
#
# 1 89.3712 42.9953 43.2661 0.0000 16.2085 0.0000
# 2 42.9953 183.2784 64.4149 0.0000 19.2806 0.0000
# 3 43.2661 64.4149 85.5058 0.0000 19.4018 0.0000
# 4 0.0000 0.0000 0.0000 41.2828 0.0000 13.7006
# 5 16.2085 19.2806 19.4018 0.0000 25.2610 0.0000
# 6 0.0000 0.0000 0.0000 13.7006 0.0000 10.6396
#
#
#
# Elastic Compliance Matrix: (Units=1/GPa)
#
#
# Indices 1 2 3 4 5 6 
#
# 1 0.015404 -0.001034 -0.005997 0.000000 -0.004489 0.000000
# 2 -0.001034 0.007548 -0.004852 0.000000 -0.001371 0.000000
# 3 -0.005997 -0.004852 0.020190 0.000000 -0.007956 0.000000
# 4 0.000000 0.000000 0.000000 0.042300 0.000000 -0.054470
# 5 -0.004489 -0.001371 -0.007956 0.000000 0.049624 0.000000
# 6 0.000000 0.000000 0.000000 -0.054470 0.000000 0.164130
#
#
# Mechanical properties :
#
#
# Convention : Reuss Voigt Hill
#
# Bulk Modulus (GPa) = 51.60942 73.27867 62.44405
# Shear Modulus (GPa) = 15.17810 29.26862 22.22336
#
# Velocity S-wave (km/s) = 2.65191 3.68257 3.20889
# Velocity P-wave (km/s) = 5.76971 7.21351 6.53163
#
# Compressibility (1/GPa) = 0.01937631
#
# Stress axis : x y z
#
# Youngs Moduli (GPa) = 64.91812 132.48038 49.52866
#
# Poissons Ratio (x) = 0.13694 0.29704
# Poissons Ratio (y) = 0.06710 0.24033
# Poissons Ratio (z) = 0.38933 0.64283
#
# Static dielectric constant tensor:
#      x y z
#    x 1.842700 0.000000 -0.024370 
#    y 0.000000 1.829180 0.000000 
#    z -0.024370 0.000000 1.868140 
# 
# From -- ./inp_files/58591.got.cif
#   From: 2010.05.17/outbox.cif.g08.bks.cpg/sg13_30_cif.got.tgz:58591.got - 2010.06.03 16:44:36.
