data_PCOD9231410
_publ_section_title
;
Structure prediction by ZEFSAII (Michael W. Deem and Ramdas Pophale) SiO2 
 PCOD9231410
Probable space group: P 2/C
;
_chemical_formula_sum "Si O2"
_cell_formula_units_Z 28
_cell_length_a 28.078962
_cell_length_b 9.595105
_cell_length_c 8.762118
_cell_angle_alpha 90.000000
_cell_angle_beta 31.489075
_cell_angle_gamma 90.000000
_cell_volume 1233.075922
_symmetry_space_group_name_H-M "P 2/C"
_symmetry_group_IT_number 13
_symmetry_cell_setting 'monoclinic'
loop_
_space_group_symop_operation_xyz
x,y,z
-x,y,1/2-z
-x,-y,-z
x,-y,1/2+z
loop_
_atom_site_type_symbol
_atom_site_label
_atom_site_fract_x
_atom_site_fract_y
_atom_site_fract_z
Si Si1 0.708110 0.918456 0.798285
Si Si2 0.114008 0.027581 0.861239
Si Si3 0.050596 0.178661 0.317411
Si Si4 0.792056 0.623726 0.113313
Si Si5 0.477441 0.648855 0.990208
Si Si6 0.739420 0.334849 0.404220
Si Si7 0.361129 0.176678 0.319034
O O1 0.784561 0.979810 0.476458
O O2 0.642961 0.844658 0.851741
O O3 0.760721 0.809346 0.762329
O O4 0.658360 0.034751 0.034328
O O5 0.066687 0.884577 0.939800
O O6 0.105890 0.068795 0.058637
O O7 0.052754 0.152826 0.952311
O O8 0.104488 0.321336 0.146702
O O9 0.777003 0.465622 0.206045
O O10 0.769132 0.647627 0.998035
O O11 0.720083 0.716906 0.407562
O O12 0.500000 0.649222 0.750000
O O13 0.542952 0.760182 0.891131
O O14 0.500000 0.500000 0.000000
O O15 0.370290 0.669338 0.299666
#
# Coordination Sequence:
#
# PCOD9231410 Si02
#       7
#     4   4   4   4   4   4   4
#     4  12  25  44  69 103 136 182 219 283 349 400
#     4  10  20  39  67 102 135 172 219 281 337 403
#     4  10  22  38  69 101 137 170 228 278 337 404
#     4  12  23  45  68 101 129 184 230 277 338 420
#     4  12  26  46  70 100 133 176 234 282 338 408
#     4  12  27  44  71  95 138 179 226 280 350 406
#     4  12  25  43  72  98 139 175 233 284 336 408
#
# _framework density 22.707442
#
# number of rings (size 3 to 8) (size 9 to 14) (size 15 to 20)
#    0.000    0.571    5.714    1.714    4.000    0.571 
#    0.000    0.714    0.000    0.000    0.000    0.000 
#    0.000    0.000    0.000    0.000    0.000    0.000 
#
# Total GULP energy -156641.740846 kJ/mol
# GULP energy per Si atom -5594.347887 kJ/mol
# Density = 2.265576 g / cm^3
# Si number density = 22.707442 Si / 1000 Ang^3
#
#
#
# Elastic Constant Matrix: (Units=GPa)
#
#
# Indices 1 2 3 4 5 6 
#
# 1 104.7916 32.5055 20.7914 0.0000 9.6321 0.0000
# 2 32.5055 127.8677 28.0202 0.0000 10.8029 0.0000
# 3 20.7914 28.0202 80.1629 0.0000 -1.9350 0.0000
# 4 0.0000 0.0000 0.0000 35.2396 0.0000 3.9067
# 5 9.6321 10.8029 -1.9350 0.0000 44.9768 0.0000
# 6 0.0000 0.0000 0.0000 3.9067 0.0000 34.1475
#
#
#
# Elastic Compliance Matrix: (Units=1/GPa)
#
#
# Indices 1 2 3 4 5 6 
#
# 1 0.010792 -0.002123 -0.002103 0.000000 -0.001892 0.000000
# 2 -0.002123 0.009103 -0.002676 0.000000 -0.001847 0.000000
# 3 -0.002103 -0.002676 0.013996 0.000000 0.001695 0.000000
# 4 0.000000 0.000000 0.000000 0.028742 0.000000 -0.003288
# 5 -0.001892 -0.001847 0.001695 0.000000 0.023155 0.000000
# 6 0.000000 0.000000 0.000000 -0.003288 0.000000 0.029661
#
#
# Mechanical properties :
#
#
# Convention : Reuss Voigt Hill
#
# Bulk Modulus (GPa) = 49.78010 52.82849 51.30430
# Shear Modulus (GPa) = 36.77874 38.30644 37.54259
#
# Velocity S-wave (km/s) = 4.02889 4.11171 4.07051
# Velocity P-wave (km/s) = 6.60398 6.77177 6.68840
#
# Compressibility (1/GPa) = 0.02008835
#
# Stress axis : x y z
#
# Youngs Moduli (GPa) = 92.65816 109.85836 71.44808
#
# Poissons Ratio (x) = 0.23322 0.15024
# Poissons Ratio (y) = 0.19671 0.19117
# Poissons Ratio (z) = 0.19484 0.29395
#
# Static dielectric constant tensor:
#      x y z
#    x 1.877970 0.000000 -0.020610 
#    y 0.000000 1.890580 0.000000 
#    z -0.020610 0.000000 1.967870 
# 
# From -- ./inp_files/24532.got.cif
#   From: 2010.05.17/outbox.cif.g08.bks.cpg/sg13_13_cif.got.tgz:24532.got - 2010.06.03 16:44:36.
