data_PCOD9231732
_publ_section_title
;
Structure prediction by ZEFSAII (Michael W. Deem and Ramdas Pophale) SiO2 
 PCOD9231732
Probable space group: P 2/C
;
_chemical_formula_sum "Si O2"
_cell_formula_units_Z 24
_cell_length_a 14.862222
_cell_length_b 9.232346
_cell_length_c 9.401027
_cell_angle_alpha 90.000000
_cell_angle_beta 96.515258
_cell_angle_gamma 90.000000
_cell_volume 1281.613887
_symmetry_space_group_name_H-M "P 2/C"
_symmetry_group_IT_number 13
_symmetry_cell_setting 'monoclinic'
loop_
_space_group_symop_operation_xyz
x,y,z
-x,y,1/2-z
-x,-y,-z
x,-y,1/2+z
loop_
_atom_site_type_symbol
_atom_site_label
_atom_site_fract_x
_atom_site_fract_y
_atom_site_fract_z
Si Si1 0.233886 0.878117 0.593080
Si Si2 0.057484 0.695095 0.617286
Si Si3 0.406187 0.673039 0.663663
Si Si4 0.759297 0.173117 0.737204
Si Si5 0.073090 0.365682 0.639827
Si Si6 0.589317 0.376781 0.674002
O O1 0.143429 0.798724 0.632382
O O2 0.323298 0.784902 0.648330
O O3 0.226684 0.880327 0.421371
O O4 0.241126 0.036922 0.659107
O O5 0.092218 0.530222 0.592530
O O6 0.000000 0.699473 0.750000
O O7 0.981632 0.725988 0.485783
O O8 0.500000 0.730743 0.750000
O O9 0.383105 0.533992 0.758166
O O10 0.422405 0.625875 0.500537
O O11 0.838659 0.283983 0.792721
O O12 0.666054 0.260962 0.722994
O O13 0.000000 0.382902 0.750000
O O14 0.500000 0.341096 0.750000
#
# Coordination Sequence:
#
# PCOD9231732 Si02
#       6
#     4   4   4   4   4   4
#     4  11  25  41  57  87 123 158 199 237 294 353
#     4  10  22  39  63  90 114 154 199 247 296 344
#     4  10  21  40  65  91 118 151 196 245 292 349
#     4  11  25  40  59  86 122 161 195 241 291 352
#     4  10  20  41  63  85 119 151 199 247 292 346
#     4  10  21  40  64  92 119 150 196 244 294 346
#
# _framework density 18.726388
#
# number of rings (size 3 to 8) (size 9 to 14) (size 15 to 20)
#    0.000    1.667    1.667    3.000    2.333    4.667 
#    0.000    3.333    0.000    0.000    0.000    0.000 
#    0.000    0.000    0.000    0.000    0.000    0.000 
#
# Total GULP energy -133943.862277 kJ/mol
# GULP energy per Si atom -5580.994262 kJ/mol
# Density = 1.868377 g / cm^3
# Si number density = 18.726388 Si / 1000 Ang^3
#
#
#
# Elastic Constant Matrix: (Units=GPa)
#
#
# Indices 1 2 3 4 5 6 
#
# 1 38.9011 26.1119 14.6837 0.0000 8.7239 0.0000
# 2 26.1119 48.2256 10.5671 0.0000 10.8309 0.0000
# 3 14.6837 10.5671 83.7138 0.0000 15.8275 0.0000
# 4 0.0000 0.0000 0.0000-1397.4431 0.0000 -952.6202
# 5 8.7239 10.8309 15.8275 0.0000 31.0481 0.0000
# 6 0.0000 0.0000 0.0000 -952.6202 0.0000 -627.0401
#
#
#
# Elastic Compliance Matrix: (Units=1/GPa)
#
#
# Indices 1 2 3 4 5 6 
#
# 1 0.042187 -0.021410 -0.004281 0.000000 -0.002203 0.000000
# 2 -0.021410 0.033535 0.000660 0.000000 -0.006019 0.000000
# 3 -0.004281 0.000660 0.013755 0.000000 -0.006039 0.000000
# 4 0.000000 0.000000 0.000000 0.020077 0.000000 -0.030501
# 5 -0.002203 -0.006019 -0.006039 0.000000 0.038006 0.000000
# 6 0.000000 0.000000 0.000000 -0.030501 0.000000 0.044743
#
#
# Mechanical properties :
#
#
# Convention : Reuss Voigt Hill
#
# Bulk Modulus (GPa) = 25.36966 30.39620 27.88293
# Shear Modulus (GPa) = 19.56931 -390.72183 -185.57626
#
# Velocity S-wave (km/s) = 3.23617 -14.46031 -9.96564
# Velocity P-wave (km/s) = 5.24792 16.20290 10.83959
#
# Compressibility (1/GPa) = 0.03941716
#
# Stress axis : x y z
#
# Youngs Moduli (GPa) = 23.70398 29.81927 72.70175
#
# Poissons Ratio (x) = 0.63842 0.31122
# Poissons Ratio (y) = 0.50749 -0.04800
# Poissons Ratio (z) = 0.10147 -0.01969
#
# Static dielectric constant tensor:
#      x y z
#    x 1.616910 0.000000 0.015650 
#    y 0.000000 1.632270 0.000000 
#    z 0.015650 0.000000 1.629400 
# 
# From -- ./inp_files/18055.got.cif
#   From: 2010.05.17/outbox.cif.g08.bks.cpg/sg13_10_cif.got.tgz:18055.got - 2010.06.03 16:44:36.
