data_PCOD9231092
_publ_section_title
;
Structure prediction by ZEFSAII (Michael W. Deem and Ramdas Pophale) SiO2 
 PCOD9231092
Probable space group: P 2/C
;
_chemical_formula_sum "Si O2"
_cell_formula_units_Z 16
_cell_length_a 7.693287
_cell_length_b 18.743737
_cell_length_c 7.840635
_cell_angle_alpha 90.000000
_cell_angle_beta 142.462605
_cell_angle_gamma 90.000000
_cell_volume 688.867395
_symmetry_space_group_name_H-M "P 2/C"
_symmetry_group_IT_number 13
_symmetry_cell_setting 'monoclinic'
loop_
_space_group_symop_operation_xyz
x,y,z
-x,y,1/2-z
-x,-y,-z
x,-y,1/2+z
loop_
_atom_site_type_symbol
_atom_site_label
_atom_site_fract_x
_atom_site_fract_y
_atom_site_fract_z
Si Si1 0.868010 0.704747 0.339380
Si Si2 0.320275 0.563323 0.442200
Si Si3 0.629769 0.789811 0.660466
Si Si4 0.310386 0.059980 0.441860
O O1 0.730106 0.626644 0.233921
O O2 0.000000 0.705588 0.250000
O O3 0.125107 0.730016 0.656624
O O4 0.625966 0.764283 0.157613
O O5 0.500000 0.500000 0.500000
O O6 0.000000 0.540985 0.250000
O O7 0.500000 0.588658 0.750000
O O8 0.500000 0.790971 0.750000
O O9 0.738256 0.868623 0.704900
O O10 0.000000 0.030643 0.250000
O O11 0.500000 0.000000 0.500000
O O12 0.500000 0.081879 0.750000
#
# Coordination Sequence:
#
# PCOD9231092 Si02
#       4
#     4   4   4   4
#     4   9  18  35  61  88 119 164 212 254 309 384
#     4  11  22  39  63  95 130 171 218 268 320 382
#     4  10  20  38  64  90 119 162 212 260 312 374
#     4  12  26  44  66  97 132 169 210 262 319 382
#
# _framework density 23.226531000000001
#
# number of rings (size 3 to 8) (size 9 to 14) (size 15 to 20)
#    0.000    1.500    0.000    7.500    0.000    3.000 
#    0.000    5.000    0.000    0.000    0.000    0.000 
#    0.000    0.000    0.000    0.000    0.000    0.000 
#
# Total GULP energy -89485.149599 kJ/mol
# GULP energy per Si atom -5592.821850 kJ/mol
# Density = 2.317367 g / cm^3
# Si number density = 23.226531 Si / 1000 Ang^3
#
#
#
# Elastic Constant Matrix: (Units=GPa)
#
#
# Indices 1 2 3 4 5 6 
#
# 1 93.1977 53.6776 35.0117 0.0000 27.5593 0.0000
# 2 53.6776 152.2324 18.9215 0.0000 26.4352 0.0000
# 3 35.0117 18.9215 110.6850 0.0000 37.0311 0.0000
# 4 0.0000 0.0000 0.0000 40.5832 0.0000 10.5490
# 5 27.5593 26.4352 37.0311 0.0000 39.6711 0.0000
# 6 0.0000 0.0000 0.0000 10.5490 0.0000 41.5472
#
#
#
# Elastic Compliance Matrix: (Units=1/GPa)
#
#
# Indices 1 2 3 4 5 6 
#
# 1 0.015810 -0.004243 -0.002250 0.000000 -0.006055 0.000000
# 2 -0.004243 0.008592 0.001167 0.000000 -0.003867 0.000000
# 3 -0.002250 0.001167 0.013500 0.000000 -0.011817 0.000000
# 4 0.000000 0.000000 0.000000 0.026382 0.000000 -0.006698
# 5 -0.006055 -0.003867 -0.011817 0.000000 0.043021 0.000000
# 6 0.000000 0.000000 0.000000 -0.006698 0.000000 0.025770
#
#
# Mechanical properties :
#
#
# Convention : Reuss Voigt Hill
#
# Bulk Modulus (GPa) = 36.69759 63.48186 50.08973
# Shear Modulus (GPa) = 32.72069 40.92726 36.82398
#
# Velocity S-wave (km/s) = 3.75742 4.20228 3.98606
# Velocity P-wave (km/s) = 5.88714 7.13698 6.54198
#
# Compressibility (1/GPa) = 0.02724974
#
# Stress axis : x y z
#
# Youngs Moduli (GPa) = 63.25275 116.39402 74.07329
#
# Poissons Ratio (x) = 0.49390 0.16663
# Poissons Ratio (y) = 0.26841 -0.08646
# Poissons Ratio (z) = 0.14229 -0.13585
#
# Static dielectric constant tensor:
#      x y z
#    x 1.922520 0.000000 -0.016580 
#    y 0.000000 1.872230 0.000000 
#    z -0.016580 0.000000 1.848500 
# 
# From -- ./inp_files/12968.got.cif
#   From: 2010.05.17/outbox.cif.g08.bks.cpg/sg13_7_cif.got.tgz:12968.got - 2010.06.03 16:44:36.
