data_PCOD9231941
_publ_section_title
;
Structure prediction by ZEFSAII (Michael W. Deem and Ramdas Pophale) SiO2 
 PCOD9231941
Probable space group: P 2/C
;
_chemical_formula_sum "Si O2"
_cell_formula_units_Z 28
_cell_length_a 9.496311
_cell_length_b 15.175832
_cell_length_c 10.549961
_cell_angle_alpha 90.000000
_cell_angle_beta 62.533728
_cell_angle_gamma 90.000000
_cell_volume 1349.025648
_symmetry_space_group_name_H-M "P 2/C"
_symmetry_group_IT_number 13
_symmetry_cell_setting 'monoclinic'
loop_
_space_group_symop_operation_xyz
x,y,z
-x,y,1/2-z
-x,-y,-z
x,-y,1/2+z
loop_
_atom_site_type_symbol
_atom_site_label
_atom_site_fract_x
_atom_site_fract_y
_atom_site_fract_z
Si Si1 0.474743 0.922942 0.612737
Si Si2 0.173869 0.664515 0.948078
Si Si3 0.331722 0.338943 0.008037
Si Si4 0.840289 0.806034 0.753664
Si Si5 0.637916 0.244953 0.930223
Si Si6 0.352602 0.477542 0.211775
Si Si7 0.163397 0.645945 0.312630
O O1 0.500000 0.948578 0.750000
O O2 0.300657 0.877089 0.687104
O O3 0.595187 0.847521 0.511298
O O4 0.500000 0.000000 0.500000
O O5 0.129737 0.754608 0.890723
O O6 0.226017 0.584047 0.838960
O O7 0.326934 0.692371 0.964819
O O8 0.024540 0.638373 0.095877
O O9 0.221681 0.275016 0.135942
O O10 0.384796 0.421896 0.070676
O O11 0.487195 0.281216 0.916741
O O12 0.234111 0.360589 0.924731
O O13 0.000000 0.841854 0.750000
O O14 0.785233 0.262713 0.775967
O O15 0.500000 0.491539 0.250000
O O16 0.260231 0.565771 0.210139
#
# Coordination Sequence:
#
# PCOD9231941 Si02
#       7
#     4   4   4   4   4   4   4
#     4  11  25  47  78 108 134 170 218 272 339 421
#     4  11  22  42  63  91 131 179 229 269 334 387
#     4  10  22  38  62  89 122 177 232 270 326 387
#     4  10  20  42  71  95 128 173 216 265 328 398
#     4  11  23  43  68  91 129 178 219 268 338 403
#     4  11  23  38  62  87 130 186 233 284 329 383
#     4  12  25  38  59  96 134 171 231 287 327 380
#
# _framework density 20.755721000000001
#
# number of rings (size 3 to 8) (size 9 to 14) (size 15 to 20)
#    0.000    1.143    4.286    2.143    2.000    3.429 
#    2.571    2.143    0.000    0.000    0.000    0.000 
#    0.000    0.000    0.000    0.000    0.000    0.000 
#
# Total GULP energy -156293.504467 kJ/mol
# GULP energy per Si atom -5581.910874 kJ/mol
# Density = 2.070848 g / cm^3
# Si number density = 20.755721 Si / 1000 Ang^3
#
#
#
# Elastic Constant Matrix: (Units=GPa)
#
#
# Indices 1 2 3 4 5 6 
#
# 1 86.9966 31.9321 19.8189 0.0000 6.2268 0.0000
# 2 31.9321 98.7066 50.1442 0.0000 7.4787 0.0000
# 3 19.8189 50.1442 84.7167 0.0000 -2.8884 0.0000
# 4 0.0000 0.0000 0.0000 28.2059 0.0000 8.2194
# 5 6.2268 7.4787 -2.8884 0.0000 30.5531 0.0000
# 6 0.0000 0.0000 0.0000 8.2194 0.0000 18.6540
#
#
#
# Elastic Compliance Matrix: (Units=1/GPa)
#
#
# Indices 1 2 3 4 5 6 
#
# 1 0.013186 -0.003606 -0.001015 0.000000 -0.001901 0.000000
# 2 -0.003606 0.016080 -0.008812 0.000000 -0.004034 0.000000
# 3 -0.001015 -0.008812 0.017394 0.000000 0.004008 0.000000
# 4 0.000000 0.000000 0.000000 0.040677 0.000000 -0.017923
# 5 -0.001901 -0.004034 0.004008 0.000000 0.034484 0.000000
# 6 0.000000 0.000000 0.000000 -0.017923 0.000000 0.061505
#
#
# Mechanical properties :
#
#
# Convention : Reuss Voigt Hill
#
# Bulk Modulus (GPa) = 50.52094 52.69005 51.60550
# Shear Modulus (GPa) = 23.06410 26.71757 24.89083
#
# Velocity S-wave (km/s) = 3.33711 3.59170 3.46674
# Velocity P-wave (km/s) = 6.26434 6.53003 6.39857
#
# Compressibility (1/GPa) = 0.01979377
#
# Stress axis : x y z
#
# Youngs Moduli (GPa) = 75.84067 62.19063 57.49181
#
# Poissons Ratio (x) = 0.22425 0.05836
# Poissons Ratio (y) = 0.27347 0.50659
# Poissons Ratio (z) = 0.07699 0.54800
#
# Static dielectric constant tensor:
#      x y z
#    x 1.761910 0.000000 0.006900 
#    y 0.000000 1.729170 0.000000 
#    z 0.006900 0.000000 1.800820 
# 
# From -- ./inp_files/30266.got.cif
#   From: 2010.05.17/outbox.cif.g08.bks.cpg/sg13_16_cif.got.tgz:30266.got - 2010.06.03 16:44:36.
