data_PCOD9231613
_publ_section_title
;
Structure prediction by ZEFSAII (Michael W. Deem and Ramdas Pophale) SiO2 
 PCOD9231613
Probable space group: P 2/C
;
_chemical_formula_sum "Si O2"
_cell_formula_units_Z 24
_cell_length_a 15.735121
_cell_length_b 12.625985
_cell_length_c 11.146672
_cell_angle_alpha 90.000000
_cell_angle_beta 154.546594
_cell_angle_gamma 90.000000
_cell_volume 951.751791
_symmetry_space_group_name_H-M "P 2/C"
_symmetry_group_IT_number 13
_symmetry_cell_setting 'monoclinic'
loop_
_space_group_symop_operation_xyz
x,y,z
-x,y,1/2-z
-x,-y,-z
x,-y,1/2+z
loop_
_atom_site_type_symbol
_atom_site_label
_atom_site_fract_x
_atom_site_fract_y
_atom_site_fract_z
Si Si1 0.451296 0.118968 0.891083
Si Si2 0.921877 0.600208 0.477285
Si Si3 0.210777 0.893273 0.848030
Si Si4 0.680428 0.560657 0.392978
Si Si5 0.217702 0.143154 0.812608
Si Si6 0.809104 0.324247 0.587507
O O1 0.278187 0.129446 0.569865
O O2 0.376318 0.176251 0.913735
O O3 0.641570 0.159863 0.061118
O O4 0.500000 0.000000 0.000000
O O5 0.729097 0.578588 0.313672
O O6 0.868269 0.677854 0.303250
O O7 0.000000 0.500000 0.500000
O O8 0.123417 0.619468 0.805972
O O9 0.992697 0.866451 0.526367
O O10 0.247506 0.018965 0.883704
O O11 0.500000 0.593447 0.250000
O O12 0.688116 0.431548 0.413652
O O13 0.250050 0.202368 0.982560
O O14 0.000000 0.339307 0.750000
#
# Coordination Sequence:
#
# PCOD9231613 Si02
#       6
#     4   4   4   4   4   4
#     4   9  18  36  58  84 112 158 205 245 293 355
#     4   9  18  40  63  83 122 159 191 249 318 368
#     4   9  19  38  60  81 119 166 202 243 298 367
#     4  10  20  40  66  89 114 158 205 248 317 387
#     4  10  21  36  59  87 118 160 201 246 306 353
#     4  11  22  40  59  94 126 155 203 266 303 363
#
# _framework density 25.216660000000001
#
# number of rings (size 3 to 8) (size 9 to 14) (size 15 to 20)
#    0.000    2.333    3.333    0.500    0.000    6.667 
#   15.000    0.000    0.000    0.000    0.000    0.000 
#    0.000    0.000    0.000    0.000    0.000    0.000 
#
# Total GULP energy -133692.789566 kJ/mol
# GULP energy per Si atom -5570.532899 kJ/mol
# Density = 2.515927 g / cm^3
# Si number density = 25.216660 Si / 1000 Ang^3
#
#
#
# Elastic Constant Matrix: (Units=GPa)
#
#
# Indices 1 2 3 4 5 6 
#
# 1 167.9779 15.9974 56.0432 0.0000 42.3409 0.0000
# 2 15.9974 40.3263 19.7542 0.0000 3.3746 0.0000
# 3 56.0432 19.7542 102.6922 0.0000 17.6003 0.0000
# 4 0.0000 0.0000 0.0000 25.4045 0.0000 13.4112
# 5 42.3409 3.3746 17.6003 0.0000 37.4657 0.0000
# 6 0.0000 0.0000 0.0000 13.4112 0.0000 41.5837
#
#
#
# Elastic Compliance Matrix: (Units=1/GPa)
#
#
# Indices 1 2 3 4 5 6 
#
# 1 0.009475 -0.001356 -0.003367 0.000000 -0.009004 0.000000
# 2 -0.001356 0.027572 -0.004786 0.000000 0.001297 0.000000
# 3 -0.003367 -0.004786 0.012801 0.000000 -0.001777 0.000000
# 4 0.000000 0.000000 0.000000 0.047440 0.000000 -0.015300
# 5 -0.009004 0.001297 -0.001777 0.000000 0.037585 0.000000
# 6 0.000000 0.000000 0.000000 -0.015300 0.000000 0.028982
#
#
# Mechanical properties :
#
#
# Convention : Reuss Voigt Hill
#
# Bulk Modulus (GPa) = 32.43660 54.95401 43.69530
# Shear Modulus (GPa) = 25.88670 35.50423 30.69547
#
# Velocity S-wave (km/s) = 3.20749 3.75636 3.49272
# Velocity P-wave (km/s) = 5.15833 6.37603 5.79923
#
# Compressibility (1/GPa) = 0.03082937
#
# Stress axis : x y z
#
# Youngs Moduli (GPa) = 105.53735 36.26927 78.12156
#
# Poissons Ratio (x) = 0.04918 0.26303
# Poissons Ratio (y) = 0.14311 0.37390
# Poissons Ratio (z) = 0.35534 0.17359
#
# Static dielectric constant tensor:
#      x y z
#    x 2.009320 0.000000 -0.260670 
#    y 0.000000 4.580350 0.000000 
#    z -0.260670 0.000000 2.062890 
# 
# From -- ./inp_files/37587.got.cif
#   From: 2010.05.17/outbox.cif.g08.bks.cpg/sg13_19_cif.got.tgz:37587.got - 2010.06.03 16:44:36.
