data_PCOD9231122
_publ_section_title
;
Structure prediction by ZEFSAII (Michael W. Deem and Ramdas Pophale) SiO2 
 PCOD9231122
Probable space group: P 2/C
;
_chemical_formula_sum "Si O2"
_cell_formula_units_Z 18
_cell_length_a 7.454801
_cell_length_b 12.184580
_cell_length_c 8.132704
_cell_angle_alpha 90.000000
_cell_angle_beta 97.639076
_cell_angle_gamma 90.000000
_cell_volume 732.166853
_symmetry_space_group_name_H-M "P 2/C"
_symmetry_group_IT_number 13
_symmetry_cell_setting 'monoclinic'
loop_
_space_group_symop_operation_xyz
x,y,z
-x,y,1/2-z
-x,-y,-z
x,-y,1/2+z
loop_
_atom_site_type_symbol
_atom_site_label
_atom_site_fract_x
_atom_site_fract_y
_atom_site_fract_z
Si Si1 0.377404 0.653500 0.039136
Si Si2 0.696691 0.836006 0.089890
Si Si3 0.500000 0.552496 0.750000
Si Si4 0.957810 0.750380 0.565382
Si Si5 0.204531 0.953948 0.049895
O O1 0.536337 0.745140 0.086292
O O2 0.403689 0.534838 0.122252
O O3 0.379342 0.630597 0.845579
O O4 0.175633 0.682687 0.065703
O O5 0.751617 0.895510 0.270279
O O6 0.865876 0.778831 0.018996
O O7 0.665590 0.944142 0.972218
O O8 0.819411 0.854203 0.581473
O O9 0.000000 0.705655 0.750000
O O10 0.000000 0.000000 0.000000
#
# Coordination Sequence:
#
# PCOD9231122 Si02
#       5
#     4   4   2   4   4
#     4  11  24  46  69  93 128 170 222 274 331 386
#     4  11  23  42  66  96 136 176 211 259 321 390
#     4  10  24  46  68  94 128 162 218 300 330 356
#     4  11  22  40  66  95 131 175 212 258 322 391
#     4  10  20  38  64  97 137 171 209 258 310 384
#
# _framework density 24.584561999999998
#
# number of rings (size 3 to 8) (size 9 to 14) (size 15 to 20)
#    0.000    1.333    0.000    8.000    0.000    0.889 
#    0.000   23.333    0.000    0.000    0.000    0.000 
#    0.000    0.000    0.000    0.000    0.000    0.000 
#
# Total GULP energy -100221.180299 kJ/mol
# GULP energy per Si atom -5567.843350 kJ/mol
# Density = 2.452861 g / cm^3
# Si number density = 24.584562 Si / 1000 Ang^3
#
#
#
# Elastic Constant Matrix: (Units=GPa)
#
#
# Indices 1 2 3 4 5 6 
#
# 1 161.7581 65.7551 55.4874 0.0000 4.0819 0.0000
# 2 65.7551 88.5053 37.3431 0.0000 8.4869 0.0000
# 3 55.4874 37.3431 123.0983 0.0000 -3.5198 0.0000
# 4 0.0000 0.0000 0.0000 46.4806 0.0000 16.3850
# 5 4.0819 8.4869 -3.5198 0.0000 25.5183 0.0000
# 6 0.0000 0.0000 0.0000 16.3850 0.0000 79.0415
#
#
#
# Elastic Compliance Matrix: (Units=1/GPa)
#
#
# Indices 1 2 3 4 5 6 
#
# 1 0.009458 -0.006014 -0.002435 0.000000 0.000152 0.000000
# 2 -0.006014 0.017414 -0.002721 0.000000 -0.005205 0.000000
# 3 -0.002435 -0.002721 0.010123 0.000000 0.002691 0.000000
# 4 0.000000 0.000000 0.000000 0.023210 0.000000 -0.004811
# 5 0.000152 -0.005205 0.002691 0.000000 0.041265 0.000000
# 6 0.000000 0.000000 0.000000 -0.004811 0.000000 0.013649
#
#
# Mechanical properties :
#
#
# Convention : Reuss Voigt Hill
#
# Bulk Modulus (GPa) = 68.22819 76.72589 72.47704
# Shear Modulus (GPa) = 35.12600 44.52648 39.82624
#
# Velocity S-wave (km/s) = 3.78403 4.26039 4.02925
# Velocity P-wave (km/s) = 6.84869 7.44835 7.15480
#
# Compressibility (1/GPa) = 0.01465670
#
# Stress axis : x y z
#
# Youngs Moduli (GPa) = 105.72862 57.42480 98.78291
#
# Poissons Ratio (x) = 0.34537 0.24049
# Poissons Ratio (y) = 0.63588 0.26875
# Poissons Ratio (z) = 0.25740 0.15623
#
# Static dielectric constant tensor:
#      x y z
#    x 2.123970 0.000000 -0.106740 
#    y 0.000000 2.143310 0.000000 
#    z -0.106740 0.000000 2.170710 
# 
# From -- ./inp_files/11867.got.cif
#   From: 2010.05.17/outbox.cif.g08.bks.cpg/sg13_6_cif.got.tgz:11867.got - 2010.06.03 16:44:36.
