data_PCOD9231500
_publ_section_title
;
Structure prediction by ZEFSAII (Michael W. Deem and Ramdas Pophale) SiO2 
 PCOD9231500
Probable space group: P 2/C
;
_chemical_formula_sum "Si O2"
_cell_formula_units_Z 24
_cell_length_a 12.563517
_cell_length_b 11.982076
_cell_length_c 9.960334
_cell_angle_alpha 90.000000
_cell_angle_beta 47.383405
_cell_angle_gamma 90.000000
_cell_volume 1103.409201
_symmetry_space_group_name_H-M "P 2/C"
_symmetry_group_IT_number 13
_symmetry_cell_setting 'monoclinic'
loop_
_space_group_symop_operation_xyz
x,y,z
-x,y,1/2-z
-x,-y,-z
x,-y,1/2+z
loop_
_atom_site_type_symbol
_atom_site_label
_atom_site_fract_x
_atom_site_fract_y
_atom_site_fract_z
Si Si1 0.038608 0.335460 0.386768
Si Si2 0.679114 0.775763 0.835902
Si Si3 0.358811 0.744833 0.052571
Si Si4 0.338811 0.050604 0.361303
Si Si5 0.777465 0.818904 0.047090
Si Si6 0.128265 0.435164 0.733464
O O1 0.174511 0.279833 0.344953
O O2 0.120952 0.430832 0.228206
O O3 0.935218 0.236655 0.423541
O O4 0.923847 0.403718 0.573133
O O5 0.668789 0.899064 0.781776
O O6 0.529514 0.721705 0.916875
O O7 0.699471 0.775937 0.978537
O O8 0.305791 0.787236 0.244456
O O9 0.273428 0.632830 0.085797
O O10 0.327759 0.844912 0.973392
O O11 0.500000 0.002574 0.250000
O O12 0.224113 0.952231 0.469652
O O13 0.000000 0.390423 0.750000
#
# Coordination Sequence:
#
# PCOD9231500 Si02
#       6
#     4   4   4   4   4   4
#     4  10  23  38  58  86 115 154 198 245 295 348
#     4  11  21  37  58  86 119 149 196 245 290 348
#     4  10  22  37  60  88 114 154 196 240 297 350
#     4  10  21  37  58  86 121 157 195 245 295 346
#     4  11  21  37  59  84 118 158 196 236 292 352
#     4  10  20  40  61  80 115 155 196 245 297 350
#
# _framework density 21.750772000000001
#
# number of rings (size 3 to 8) (size 9 to 14) (size 15 to 20)
#    0.000    1.667    0.000    5.000    0.000    4.000 
#    0.000    5.000    0.000    4.000    0.000    0.000 
#    0.000    0.000    0.000    0.000    0.000    0.000 
#
# Total GULP energy -133818.273339 kJ/mol
# GULP energy per Si atom -5575.761389 kJ/mol
# Density = 2.170127 g / cm^3
# Si number density = 21.750772 Si / 1000 Ang^3
#
#
#
# Elastic Constant Matrix: (Units=GPa)
#
#
# Indices 1 2 3 4 5 6 
#
# 1 134.6205 74.2507 39.8709 0.0000 -28.4554 0.0000
# 2 74.2507 121.3404 40.2442 0.0000 -38.3011 0.0000
# 3 39.8709 40.2442 72.5115 0.0000 -13.1941 0.0000
# 4 0.0000 0.0000 0.0000 26.0884 0.0000 -8.1927
# 5 -28.4554 -38.3011 -13.1941 0.0000 51.3806 0.0000
# 6 0.0000 0.0000 0.0000 -8.1927 0.0000 18.6714
#
#
#
# Elastic Compliance Matrix: (Units=1/GPa)
#
#
# Indices 1 2 3 4 5 6 
#
# 1 0.011814 -0.005759 -0.003032 0.000000 0.001471 0.000000
# 2 -0.005759 0.015400 -0.004062 0.000000 0.007247 0.000000
# 3 -0.003032 -0.004062 0.017682 0.000000 -0.000166 0.000000
# 4 0.000000 0.000000 0.000000 0.044457 0.000000 0.019507
# 5 0.001471 0.007247 -0.000166 0.000000 0.025637 0.000000
# 6 0.000000 0.000000 0.000000 0.019507 0.000000 0.062117
#
#
# Mechanical properties :
#
#
# Convention : Reuss Voigt Hill
#
# Bulk Modulus (GPa) = 52.10928 70.80045 61.45486
# Shear Modulus (GPa) = 23.89949 30.83518 27.36734
#
# Velocity S-wave (km/s) = 3.31839 3.76927 3.55099
# Velocity P-wave (km/s) = 6.22027 7.18085 6.71775
#
# Compressibility (1/GPa) = 0.01919044
#
# Stress axis : x y z
#
# Youngs Moduli (GPa) = 84.64784 64.93411 56.55472
#
# Poissons Ratio (x) = 0.37397 0.17146
# Poissons Ratio (y) = 0.48750 0.22971
# Poissons Ratio (z) = 0.25663 0.26375
#
# Static dielectric constant tensor:
#      x y z
#    x 1.833030 0.000000 0.069780 
#    y 0.000000 1.791270 0.000000 
#    z 0.069780 0.000000 1.848000 
# 
# From -- ./inp_files/33740.got.cif
#   From: 2010.05.17/outbox.cif.g08.bks.cpg/sg13_17_cif.got.tgz:33740.got - 2010.06.03 16:44:36.
