data_PCOD9231450
_publ_section_title
;
Structure prediction by ZEFSAII (Michael W. Deem and Ramdas Pophale) SiO2 
 PCOD9231450
Probable space group: P 2/C
;
_chemical_formula_sum "Si O2"
_cell_formula_units_Z 28
_cell_length_a 15.761642
_cell_length_b 14.602848
_cell_length_c 9.789073
_cell_angle_alpha 90.000000
_cell_angle_beta 37.707109
_cell_angle_gamma 90.000000
_cell_volume 1378.053145
_symmetry_space_group_name_H-M "P 2/C"
_symmetry_group_IT_number 13
_symmetry_cell_setting 'monoclinic'
loop_
_space_group_symop_operation_xyz
x,y,z
-x,y,1/2-z
-x,-y,-z
x,-y,1/2+z
loop_
_atom_site_type_symbol
_atom_site_label
_atom_site_fract_x
_atom_site_fract_y
_atom_site_fract_z
Si Si1 0.656985 0.858382 0.529819
Si Si2 0.274465 0.190313 0.259064
Si Si3 0.884000 0.437067 0.517692
Si Si4 0.147786 0.966901 0.767353
Si Si5 0.000000 0.165096 0.250000
Si Si6 0.271935 0.266619 0.817711
Si Si7 0.922793 0.639460 0.489446
Si Si8 0.500000 0.779748 0.250000
O O1 0.500000 0.891184 0.750000
O O2 0.695554 0.803964 0.618705
O O3 0.668609 0.791159 0.385105
O O4 0.753983 0.947486 0.388639
O O5 0.200432 0.094661 0.324520
O O6 0.175321 0.275814 0.344570
O O7 0.409226 0.180004 0.990948
O O8 0.750784 0.374184 0.670695
O O9 0.841282 0.543542 0.577407
O O10 0.961479 0.394654 0.550797
O O11 0.000000 0.431459 0.250000
O O12 0.108432 0.898847 0.694120
O O13 0.000000 0.000000 0.000000
O O14 0.887393 0.228948 0.467973
O O15 0.371277 0.258551 0.822881
O O16 0.000000 0.664141 0.250000
#
# Coordination Sequence:
#
# PCOD9231450 Si02
#       8
#     4   4   4   4   2   4   4   2
#     4  12  28  45  68  95 142 187 224 281 350 411
#     4  12  26  45  68  96 138 180 229 280 339 411
#     4  10  20  39  70 105 136 172 224 286 342 405
#     4  12  26  41  67 101 133 172 232 284 338 398
#     4  12  22  42  66 100 130 172 228 294 328 386
#     4  12  23  45  70 100 139 180 228 282 342 403
#     4  10  22  40  70 106 136 172 222 287 353 395
#     4  12  26  44  70  94 134 192 226 264 344 422
#
# _framework density 20.318518000000001
#
# number of rings (size 3 to 8) (size 9 to 14) (size 15 to 20)
#    0.000    0.571    5.000    3.429    3.000    0.571 
#    0.000    0.714    3.143    0.000    0.000    0.000 
#    0.000    0.000    0.000    0.000    0.000    0.000 
#
# Total GULP energy -156028.473188 kJ/mol
# GULP energy per Si atom -5572.445471 kJ/mol
# Density = 2.027227 g / cm^3
# Si number density = 20.318518 Si / 1000 Ang^3
#
#
#
# Elastic Constant Matrix: (Units=GPa)
#
#
# Indices 1 2 3 4 5 6 
#
# 1 82.8305 12.0321 19.7735 0.0000 2.5715 0.0000
# 2 12.0321 98.7272 41.6876 0.0000 -12.5283 0.0000
# 3 19.7735 41.6876 111.0647 0.0000 -13.3060 0.0000
# 4 0.0000 0.0000 0.0000 -1.2919 0.0000 12.4274
# 5 2.5715 -12.5283 -13.3060 0.0000 39.5895 0.0000
# 6 0.0000 0.0000 0.0000 12.4274 0.0000 7.5899
#
#
#
# Elastic Compliance Matrix: (Units=1/GPa)
#
#
# Indices 1 2 3 4 5 6 
#
# 1 0.012774 -0.000875 -0.002165 0.000000 -0.001834 0.000000
# 2 -0.000875 0.012317 -0.004161 0.000000 0.002556 0.000000
# 3 -0.002165 -0.004161 0.011264 0.000000 0.002610 0.000000
# 4 0.000000 0.000000 0.000000 -0.046211 0.000000 0.075664
# 5 -0.001834 0.002556 0.002610 0.000000 0.027064 0.000000
# 6 0.000000 0.000000 0.000000 0.075664 0.000000 0.007865
#
#
# Mechanical properties :
#
#
# Convention : Reuss Voigt Hill
#
# Bulk Modulus (GPa) = 45.55577 48.84541 47.20059
# Shear Modulus (GPa) = 106.85132 23.78613 65.31873
#
# Velocity S-wave (km/s) = 7.25964 3.42521 5.67602
# Velocity P-wave (km/s) = 9.63012 6.30355 8.13861
#
# Compressibility (1/GPa) = 0.02195112
#
# Stress axis : x y z
#
# Youngs Moduli (GPa) = 78.28478 81.18897 88.78021
#
# Poissons Ratio (x) = 0.07106 0.19225
# Poissons Ratio (y) = 0.06851 0.36942
# Poissons Ratio (z) = 0.16952 0.33783
#
# Static dielectric constant tensor:
#      x y z
#    x 1.738090 0.000000 0.038780 
#    y 0.000000 2.007810 0.000000 
#    z 0.038780 0.000000 1.734510 
# 
# From -- ./inp_files/19888.got.cif
#   From: 2010.05.17/outbox.cif.g08.bks.cpg/sg13_10_cif.got.tgz:19888.got - 2010.06.03 16:44:36.
