data_PCOD9231996
_publ_section_title
;
Structure prediction by ZEFSAII (Michael W. Deem and Ramdas Pophale) SiO2 
 PCOD9231996
Probable space group: P 2/C
;
_chemical_formula_sum "Si O2"
_cell_formula_units_Z 24
_cell_length_a 5.528480
_cell_length_b 15.038364
_cell_length_c 12.802198
_cell_angle_alpha 90.000000
_cell_angle_beta 72.738863
_cell_angle_gamma 90.000000
_cell_volume 1016.429112
_symmetry_space_group_name_H-M "P 2/C"
_symmetry_group_IT_number 13
_symmetry_cell_setting 'monoclinic'
loop_
_space_group_symop_operation_xyz
x,y,z
-x,y,1/2-z
-x,-y,-z
x,-y,1/2+z
loop_
_atom_site_type_symbol
_atom_site_label
_atom_site_fract_x
_atom_site_fract_y
_atom_site_fract_z
Si Si1 0.297494 0.078475 0.022363
Si Si2 0.709836 0.342504 0.813559
Si Si3 0.645231 0.779622 0.517467
Si Si4 0.180764 0.378135 0.377232
Si Si5 0.982472 0.923598 0.130269
Si Si6 0.312116 0.549912 0.632306
O O1 0.387032 0.166242 0.070582
O O2 0.270768 0.096807 0.901825
O O3 0.052928 0.027203 0.098924
O O4 0.500000 0.000000 0.000000
O O5 0.500000 0.331986 0.750000
O O6 0.616402 0.287577 0.924946
O O7 0.730435 0.446977 0.837665
O O8 0.000000 0.313704 0.750000
O O9 0.767442 0.722532 0.594312
O O10 0.829923 0.855977 0.451924
O O11 0.387570 0.433985 0.418099
O O12 0.249949 0.397310 0.248089
O O13 0.890625 0.410953 0.424008
O O14 0.000000 0.908322 0.250000
#
# Coordination Sequence:
#
# PCOD9231996 Si02
#       6
#     4   4   4   4   4   4
#     4   9  22  45  66  97 135 168 221 275 348 429
#     4  12  24  42  64  99 136 183 236 280 337 406
#     4  11  26  36  67 102 135 165 232 292 332 407
#     4  10  21  40  64  91 132 180 229 283 325 399
#     4  10  22  45  72  96 135 176 215 280 356 425
#     4  10  20  44  63  85 139 189 230 270 344 393
#
# _framework density 23.612075000000001
#
# number of rings (size 3 to 8) (size 9 to 14) (size 15 to 20)
#    0.000    1.667    3.333    0.500    7.000    3.333 
#    0.000   10.000    0.000    0.000    0.000    0.000 
#    0.000    0.000    0.000    0.000    0.000    0.000 
#
# Total GULP energy -133979.433419 kJ/mol
# GULP energy per Si atom -5582.476392 kJ/mol
# Density = 2.355833 g / cm^3
# Si number density = 23.612075 Si / 1000 Ang^3
#
#
#
# Elastic Constant Matrix: (Units=GPa)
#
#
# Indices 1 2 3 4 5 6 
#
# 1 157.5775 42.1259 13.9845 0.0000 27.4943 0.0000
# 2 42.1259 152.6122 39.1767 0.0000 13.8976 0.0000
# 3 13.9845 39.1767 62.6305 0.0000 13.7377 0.0000
# 4 0.0000 0.0000 0.0000 -19.3418 0.0000 -31.9172
# 5 27.4943 13.8976 13.7377 0.0000 27.3015 0.0000
# 6 0.0000 0.0000 0.0000 -31.9172 0.0000 9.6120
#
#
#
# Elastic Compliance Matrix: (Units=1/GPa)
#
#
# Indices 1 2 3 4 5 6 
#
# 1 0.008084 -0.001786 0.001010 0.000000 -0.007741 0.000000
# 2 -0.001786 0.008272 -0.004773 0.000000 -0.000010 0.000000
# 3 0.001010 -0.004773 0.020702 0.000000 -0.009004 0.000000
# 4 0.000000 0.000000 0.000000 -0.007979 0.000000 -0.026496
# 5 -0.007741 -0.000010 -0.009004 0.000000 0.048959 0.000000
# 6 0.000000 0.000000 0.000000 -0.026496 0.000000 0.016056
#
#
# Mechanical properties :
#
#
# Convention : Reuss Voigt Hill
#
# Bulk Modulus (GPa) = 38.52113 62.59936 50.56024
# Shear Modulus (GPa) = 43.91892 22.01656 32.96774
#
# Velocity S-wave (km/s) = 4.31747 3.05688 3.74066
# Velocity P-wave (km/s) = 6.41901 6.24728 6.33373
#
# Compressibility (1/GPa) = 0.02595978
#
# Stress axis : x y z
#
# Youngs Moduli (GPa) = 123.69359 120.89310 48.30476
#
# Poissons Ratio (x) = 0.21591 -0.04878
# Poissons Ratio (y) = 0.22091 0.23056
# Poissons Ratio (z) = -0.12491 0.57704
#
# Static dielectric constant tensor:
#      x y z
#    x 2.209670 0.000000 -0.102440 
#    y 0.000000 1.885620 0.000000 
#    z -0.102440 0.000000 1.954960 
# 
# From -- ./inp_files/43975.got.cif
#   From: 2010.05.17/outbox.cif.g08.bks.cpg/sg13_22_cif.got.tgz:43975.got - 2010.06.03 16:44:36.
