data_PCOD9231943
_publ_section_title
;
Structure prediction by ZEFSAII (Michael W. Deem and Ramdas Pophale) SiO2 
 PCOD9231943
Probable space group: P 2/C
;
_chemical_formula_sum "Si O2"
_cell_formula_units_Z 16
_cell_length_a 14.739221
_cell_length_b 6.374001
_cell_length_c 22.226241
_cell_angle_alpha 90.000000
_cell_angle_beta 16.986119
_cell_angle_gamma 90.000000
_cell_volume 610.019505
_symmetry_space_group_name_H-M "P 2/C"
_symmetry_group_IT_number 13
_symmetry_cell_setting 'monoclinic'
loop_
_space_group_symop_operation_xyz
x,y,z
-x,y,1/2-z
-x,-y,-z
x,-y,1/2+z
loop_
_atom_site_type_symbol
_atom_site_label
_atom_site_fract_x
_atom_site_fract_y
_atom_site_fract_z
Si Si1 0.000000 0.011535 0.750000
Si Si2 0.210225 0.302513 0.206518
Si Si3 0.656620 0.394364 0.023520
Si Si4 0.500000 0.623313 0.750000
Si Si5 0.145925 0.983555 0.472779
O O1 0.201813 0.160597 0.578271
O O2 0.757076 0.865892 0.867951
O O3 0.473817 0.425089 0.076550
O O4 0.946767 0.457120 0.350244
O O5 0.061620 0.158131 0.353702
O O6 0.445181 0.451438 0.216334
O O7 0.793536 0.773944 0.548968
O O8 0.500000 0.895200 0.250000
O O9 0.000000 0.000000 0.500000
#
# Coordination Sequence:
#
# PCOD9231943 Si02
#       5
#     2   4   4   2   4
#     4  12  26  52  76 100 146 204 250 302 362 438
#     4  12  27  47  75 110 147 195 247 304 367 438
#     4  12  28  47  76 111 147 190 249 305 369 439
#     4  10  22  44  74 108 138 186 236 302 358 430
#     4  10  20  42  72 102 142 188 236 292 365 427
#
# _framework density 26.228667999999999
#
# number of rings (size 3 to 8) (size 9 to 14) (size 15 to 20)
#    0.750    0.000    5.000    1.500    1.750    9.000 
#    0.000    0.000    0.000    0.000    0.000    0.000 
#    0.000    0.000    0.000    0.000    0.000    0.000 
#
# Total GULP energy -89311.163367 kJ/mol
# GULP energy per Si atom -5581.947710 kJ/mol
# Density = 2.616897 g / cm^3
# Si number density = 26.228668 Si / 1000 Ang^3
#
#
#
# Elastic Constant Matrix: (Units=GPa)
#
#
# Indices 1 2 3 4 5 6 
#
# 1 254.8883 63.8764 58.2262 0.0000 -13.8723 0.0000
# 2 63.8764 90.3487 20.8187 0.0000 -9.5589 0.0000
# 3 58.2262 20.8187 82.4014 0.0000 -7.9879 0.0000
# 4 0.0000 0.0000 0.0000 33.3978 0.0000 -12.9731
# 5 -13.8723 -9.5589 -7.9879 0.0000 61.1918 0.0000
# 6 0.0000 0.0000 0.0000 -12.9731 0.0000 26.7922
#
#
#
# Elastic Compliance Matrix: (Units=1/GPa)
#
#
# Indices 1 2 3 4 5 6 
#
# 1 0.005403 -0.003091 -0.003003 0.000000 0.000350 0.000000
# 2 -0.003091 0.013652 -0.001141 0.000000 0.001283 0.000000
# 3 -0.003003 -0.001141 0.014648 0.000000 0.001053 0.000000
# 4 0.000000 0.000000 0.000000 0.036878 0.000000 0.017857
# 5 0.000350 0.001283 0.001053 0.000000 0.016759 0.000000
# 6 0.000000 0.000000 0.000000 0.017857 0.000000 0.045971
#
#
# Mechanical properties :
#
#
# Convention : Reuss Voigt Hill
#
# Bulk Modulus (GPa) = 51.99182 79.27566 65.63374
# Shear Modulus (GPa) = 32.42709 43.25752 37.84230
#
# Velocity S-wave (km/s) = 3.51995 4.06550 3.80252
# Velocity P-wave (km/s) = 6.03205 7.23382 6.66010
#
# Compressibility (1/GPa) = 0.01923380
#
# Stress axis : x y z
#
# Youngs Moduli (GPa) = 185.08534 73.24898 68.26886
#
# Poissons Ratio (x) = 0.22640 0.20501
# Poissons Ratio (y) = 0.57207 0.07788
# Poissons Ratio (z) = 0.55580 0.08356
#
# Static dielectric constant tensor:
#      x y z
#    x 1.915500 0.000000 0.033100 
#    y 0.000000 2.140760 0.000000 
#    z 0.033100 0.000000 2.035570 
# 
# From -- ./inp_files/31163.got.cif
#   From: 2010.05.17/outbox.cif.g08.bks.cpg/sg13_16_cif.got.tgz:31163.got - 2010.06.03 16:44:36.
