data_PCOD9231820
_publ_section_title
;
Structure prediction by ZEFSAII (Michael W. Deem and Ramdas Pophale) SiO2 
 PCOD9231820
Probable space group: P 2/C
;
_chemical_formula_sum "Si O2"
_cell_formula_units_Z 28
_cell_length_a 8.926575
_cell_length_b 14.614531
_cell_length_c 17.285368
_cell_angle_alpha 90.000000
_cell_angle_beta 152.273614
_cell_angle_gamma 90.000000
_cell_volume 1049.142572
_symmetry_space_group_name_H-M "P 2/C"
_symmetry_group_IT_number 13
_symmetry_cell_setting 'monoclinic'
loop_
_space_group_symop_operation_xyz
x,y,z
-x,y,1/2-z
-x,-y,-z
x,-y,1/2+z
loop_
_atom_site_type_symbol
_atom_site_label
_atom_site_fract_x
_atom_site_fract_y
_atom_site_fract_z
Si Si1 0.620852 0.355293 0.163334
Si Si2 0.936065 0.593988 0.420513
Si Si3 0.349247 0.212765 0.446276
Si Si4 0.766282 0.042795 0.315774
Si Si5 0.312089 0.066818 0.973515
Si Si6 0.958862 0.768166 0.537035
Si Si7 0.725316 0.538849 0.171803
O O1 0.617797 0.310328 0.077936
O O2 0.751859 0.280694 0.282936
O O3 0.855993 0.441725 0.266877
O O4 0.280674 0.390781 0.036879
O O5 0.330760 0.585633 0.270579
O O6 0.000000 0.500000 0.500000
O O7 0.880039 0.690315 0.439124
O O8 0.665715 0.158535 0.565419
O O9 0.000000 0.177489 0.250000
O O10 0.307719 0.215424 0.518565
O O11 0.500000 0.996555 0.250000
O O12 0.547384 0.088259 0.151160
O O13 0.938590 0.127879 0.438317
O O14 0.006942 0.979556 0.375357
O O15 0.500000 0.000000 0.000000
O O16 0.000000 0.590313 0.250000
O O17 0.500000 0.500000 0.000000
#
# Coordination Sequence:
#
# PCOD9231820 Si02
#       7
#     4   4   4   4   4   4   4
#     4  11  22  41  75 104 150 206 277 329 409 494
#     4  12  26  42  72 118 153 204 276 345 411 491
#     4  10  20  41  73 113 150 210 279 342 411 513
#     4  12  25  43  75 120 163 215 277 356 429 510
#     4  12  22  44  76 116 157 213 282 340 429 518
#     4  11  22  43  73 117 154 211 284 345 424 490
#     4  12  25  46  75 110 154 207 267 328 407 496
#
# _framework density 26.688459000000002
#
# number of rings (size 3 to 8) (size 9 to 14) (size 15 to 20)
#    0.000    0.571    7.143    3.429    0.000    0.000 
#    0.000    0.000    6.286    1.714    7.429    0.000 
#    0.000    0.000    0.000    0.000    0.000    0.000 
#
# Total GULP energy -156235.761281 kJ/mol
# GULP energy per Si atom -5579.848617 kJ/mol
# Density = 2.662771 g / cm^3
# Si number density = 26.688459 Si / 1000 Ang^3
#
#
#
# Elastic Constant Matrix: (Units=GPa)
#
#
# Indices 1 2 3 4 5 6 
#
# 1 197.5935 64.9728 61.9785 0.0000 19.8743 0.0000
# 2 64.9728 113.7103 36.7865 0.0000 27.7310 0.0000
# 3 61.9785 36.7865 106.6779 0.0000 -3.1720 0.0000
# 4 0.0000 0.0000 0.0000 33.5456 0.0000 5.2608
# 5 19.8743 27.7310 -3.1720 0.0000 66.2598 0.0000
# 6 0.0000 0.0000 0.0000 5.2608 0.0000 63.8478
#
#
#
# Elastic Compliance Matrix: (Units=1/GPa)
#
#
# Indices 1 2 3 4 5 6 
#
# 1 0.007078 -0.002731 -0.003204 0.000000 -0.001133 0.000000
# 2 -0.002731 0.012358 -0.002808 0.000000 -0.004487 0.000000
# 3 -0.003204 -0.002808 0.012285 0.000000 0.002724 0.000000
# 4 0.000000 0.000000 0.000000 0.030200 0.000000 -0.002488
# 5 -0.001133 -0.004487 0.002724 0.000000 0.017440 0.000000
# 6 0.000000 0.000000 0.000000 -0.002488 0.000000 0.015867
#
#
# Mechanical properties :
#
#
# Convention : Reuss Voigt Hill
#
# Bulk Modulus (GPa) = 70.25538 82.82860 76.54199
# Shear Modulus (GPa) = 42.56779 49.68024 46.12402
#
# Velocity S-wave (km/s) = 3.99806 4.31918 4.16172
# Velocity P-wave (km/s) = 6.90609 7.48174 7.19967
#
# Compressibility (1/GPa) = 0.01423379
#
# Stress axis : x y z
#
# Youngs Moduli (GPa) = 141.28250 80.92179 81.40143
#
# Poissons Ratio (x) = 0.22103 0.26081
# Poissons Ratio (y) = 0.38590 0.22857
# Poissons Ratio (z) = 0.45268 0.22722
#
# Static dielectric constant tensor:
#      x y z
#    x 2.117800 0.000000 0.000840 
#    y 0.000000 2.214760 0.000000 
#    z 0.000840 0.000000 2.170470 
# 
# From -- ./inp_files/76766.got.cif
#   From: 2010.05.17/outbox.cif.g08.bks.cpg/sg13_39_cif.got.tgz:76766.got - 2010.06.03 16:44:36.
