data_PCOD9231267
_publ_section_title
;
Structure prediction by ZEFSAII (Michael W. Deem and Ramdas Pophale) SiO2 
 PCOD9231267
Probable space group: P 2/C
;
_chemical_formula_sum "Si O2"
_cell_formula_units_Z 30
_cell_length_a 9.742035
_cell_length_b 5.027484
_cell_length_c 27.534444
_cell_angle_alpha 90.000000
_cell_angle_beta 115.795376
_cell_angle_gamma 90.000000
_cell_volume 1214.199196
_symmetry_space_group_name_H-M "P 2/C"
_symmetry_group_IT_number 13
_symmetry_cell_setting 'monoclinic'
loop_
_space_group_symop_operation_xyz
x,y,z
-x,y,1/2-z
-x,-y,-z
x,-y,1/2+z
loop_
_atom_site_type_symbol
_atom_site_label
_atom_site_fract_x
_atom_site_fract_y
_atom_site_fract_z
Si Si1 0.641648 0.043490 0.195921
Si Si2 0.282722 0.472205 0.920395
Si Si3 0.500000 0.339527 0.750000
Si Si4 0.896236 0.636398 0.778174
Si Si5 0.692709 0.921472 0.899090
Si Si6 0.588090 0.197557 0.976139
Si Si7 0.229230 0.561960 0.145577
Si Si8 0.859303 0.000204 0.147369
O O1 0.732479 0.296160 0.230459
O O2 0.759202 0.904399 0.177410
O O3 0.606261 0.855929 0.235455
O O4 0.485216 0.097699 0.143775
O O5 0.451126 0.368160 0.930617
O O6 0.218489 0.719262 0.880090
O O7 0.172193 0.218324 0.898555
O O8 0.310712 0.595820 0.977867
O O9 0.606202 0.492017 0.803827
O O10 0.882030 0.478473 0.826117
O O11 0.000000 0.532154 0.750000
O O12 0.976442 0.912536 0.808011
O O13 0.683240 0.027825 0.952391
O O14 0.765830 0.148013 0.876279
O O15 0.779985 0.652161 0.898982
O O16 0.500000 0.000000 0.000000
#
# Coordination Sequence:
#
# PCOD9231267 Si02
#       8
#     4   4   2   4   4   4   4   4
#     4  10  20  39  60  95 128 172 221 261 335 379
#     4  11  23  40  64 100 130 162 219 272 344 391
#     4  10  22  38  66  92 138 176 220 288 328 406
#     4  10  23  43  68  92 134 188 235 270 314 399
#     4  11  24  38  68  97 136 165 210 287 339 398
#     4  11  23  40  71 103 134 164 214 284 352 406
#     4  11  24  41  60  95 131 176 221 268 337 386
#     4  11  24  40  64  94 135 174 219 279 317 399
#
# _framework density 24.707643999999998
#
# number of rings (size 3 to 8) (size 9 to 14) (size 15 to 20)
#    0.000    1.333    2.667    2.400    5.600    4.800 
#    0.000    6.000    0.000    4.800    0.000    0.000 
#    0.000    0.000    0.000    0.000    0.000    0.000 
#
# Total GULP energy -167966.761124 kJ/mol
# GULP energy per Si atom -5598.892037 kJ/mol
# Density = 2.465141 g / cm^3
# Si number density = 24.707644 Si / 1000 Ang^3
#
#
#
# Elastic Constant Matrix: (Units=GPa)
#
#
# Indices 1 2 3 4 5 6 
#
# 1 91.8556 27.7235 20.4232 0.0000 -20.7360 0.0000
# 2 27.7235 101.7751 21.3007 0.0000 6.4602 0.0000
# 3 20.4232 21.3007 63.7138 0.0000 -5.6518 0.0000
# 4 0.0000 0.0000 0.0000 28.3452 0.0000 10.8427
# 5 -20.7360 6.4602 -5.6518 0.0000 34.8349 0.0000
# 6 0.0000 0.0000 0.0000 10.8427 0.0000 29.3134
#
#
#
# Elastic Compliance Matrix: (Units=1/GPa)
#
#
# Indices 1 2 3 4 5 6 
#
# 1 0.014736 -0.004057 -0.002559 0.000000 0.009109 0.000000
# 2 -0.004057 0.011913 -0.003138 0.000000 -0.005133 0.000000
# 3 -0.002559 -0.003138 0.017736 0.000000 0.001936 0.000000
# 4 0.000000 0.000000 0.000000 0.041094 0.000000 -0.015200
# 5 0.009109 -0.005133 0.001936 0.000000 0.035395 0.000000
# 6 0.000000 0.000000 0.000000 -0.015200 0.000000 0.039736
#
#
# Mechanical properties :
#
#
# Convention : Reuss Voigt Hill
#
# Bulk Modulus (GPa) = 40.19600 44.02659 42.11129
# Shear Modulus (GPa) = 26.53755 31.02516 28.78136
#
# Velocity S-wave (km/s) = 3.28084 3.54742 3.41673
# Velocity P-wave (km/s) = 5.53678 5.88529 5.71369
#
# Compressibility (1/GPa) = 0.02487810
#
# Stress axis : x y z
#
# Youngs Moduli (GPa) = 67.85885 83.94058 56.38133
#
# Poissons Ratio (x) = 0.34053 0.14430
# Poissons Ratio (y) = 0.27529 0.17691
# Poissons Ratio (z) = 0.17368 0.26339
#
# Static dielectric constant tensor:
#      x y z
#    x 1.986810 0.000000 -0.008510 
#    y 0.000000 1.972970 0.000000 
#    z -0.008510 0.000000 2.001080 
# 
# From -- ./inp_files/95681.got.cif
#   From: 2010.05.17/outbox.cif.g08.bks.cpg/sg13_48_cif.got.tgz:95681.got - 2010.06.03 16:44:36.
