data_PCOD9231113
_publ_section_title
;
Structure prediction by ZEFSAII (Michael W. Deem and Ramdas Pophale) SiO2 
 PCOD9231113
Probable space group: P 2/C
;
_chemical_formula_sum "Si O2"
_cell_formula_units_Z 24
_cell_length_a 9.514261
_cell_length_b 14.184821
_cell_length_c 14.463485
_cell_angle_alpha 90.000000
_cell_angle_beta 149.503687
_cell_angle_gamma 90.000000
_cell_volume 990.588534
_symmetry_space_group_name_H-M "P 2/C"
_symmetry_group_IT_number 13
_symmetry_cell_setting 'monoclinic'
loop_
_space_group_symop_operation_xyz
x,y,z
-x,y,1/2-z
-x,-y,-z
x,-y,1/2+z
loop_
_atom_site_type_symbol
_atom_site_label
_atom_site_fract_x
_atom_site_fract_y
_atom_site_fract_z
Si Si1 0.469111 0.215809 0.453553
Si Si2 0.628800 0.429338 0.147483
Si Si3 0.066303 0.424231 0.897781
Si Si4 0.809853 0.233046 0.469001
Si Si5 0.960192 0.091252 0.398646
Si Si6 0.476904 0.942396 0.389650
O O1 0.375899 0.324830 0.397760
O O2 0.718313 0.203535 0.520487
O O3 0.566998 0.165458 0.602532
O O4 0.202220 0.158483 0.266692
O O5 0.912694 0.479369 0.335899
O O6 0.500000 0.500000 0.000000
O O7 0.395139 0.432275 0.092211
O O8 0.000000 0.405985 0.750000
O O9 0.010297 0.328451 0.921492
O O10 0.500000 0.248413 0.250000
O O11 0.951968 0.156526 0.484714
O O12 0.759252 0.001196 0.296322
O O13 0.244873 0.060081 0.512695
O O14 0.500000 0.000000 0.500000
#
# Coordination Sequence:
#
# PCOD9231113 Si02
#       6
#     4   4   4   4   4   4
#     4   9  18  36  61  89 126 171 214 264 321 385
#     4   9  18  33  59  94 128 163 214 271 319 374
#     4   9  18  35  62  96 128 171 219 266 321 385
#     4   9  19  39  62  90 132 178 213 263 330 390
#     4  10  21  39  63  91 126 166 210 269 330 385
#     4  10  20  38  64  94 122 165 218 269 324 385
#
# _framework density 24.228020999999998
#
# number of rings (size 3 to 8) (size 9 to 14) (size 15 to 20)
#    0.000    2.667    0.000    2.000    0.000    4.000 
#    0.000   54.167    0.000    8.000    0.000    0.000 
#    0.000    0.000    0.000    0.000    0.000    0.000 
#
# Total GULP energy -134040.104719 kJ/mol
# GULP energy per Si atom -5585.004363 kJ/mol
# Density = 2.417288 g / cm^3
# Si number density = 24.228021 Si / 1000 Ang^3
#
#
#
# Elastic Constant Matrix: (Units=GPa)
#
#
# Indices 1 2 3 4 5 6 
#
# 1 131.3429 87.7875 59.6761 0.0000 16.1286 0.0000
# 2 87.7875 241.1722 89.8833 0.0000 21.3424 0.0000
# 3 59.6761 89.8833 80.2068 0.0000 9.4059 0.0000
# 4 0.0000 0.0000 0.0000 49.3046 0.0000 -3.4477
# 5 16.1286 21.3424 9.4059 0.0000 38.4551 0.0000
# 6 0.0000 0.0000 0.0000 -3.4477 0.0000 43.2211
#
#
#
# Elastic Compliance Matrix: (Units=1/GPa)
#
#
# Indices 1 2 3 4 5 6 
#
# 1 0.012154 -0.001617 -0.006937 0.000000 -0.002503 0.000000
# 2 -0.001617 0.007497 -0.006991 0.000000 -0.001773 0.000000
# 3 -0.006937 -0.006991 0.025395 0.000000 0.000578 0.000000
# 4 0.000000 0.000000 0.000000 0.020396 0.000000 0.001627
# 5 -0.002503 -0.001773 0.000578 0.000000 0.027897 0.000000
# 6 0.000000 0.000000 0.000000 0.001627 0.000000 0.023267
#
#
# Mechanical properties :
#
#
# Convention : Reuss Voigt Hill
#
# Bulk Modulus (GPa) = 71.64933 103.04621 87.34777
# Shear Modulus (GPa) = 32.81963 40.55449 36.68706
#
# Velocity S-wave (km/s) = 3.68450 4.09573 3.89555
# Velocity P-wave (km/s) = 6.90926 8.06169 7.50762
#
# Compressibility (1/GPa) = 0.01395687
#
# Stress axis : x y z
#
# Youngs Moduli (GPa) = 82.27928 133.38026 39.37711
#
# Poissons Ratio (x) = 0.21569 0.27316
# Poissons Ratio (y) = 0.13306 0.27528
# Poissons Ratio (z) = 0.57077 0.93243
#
# Static dielectric constant tensor:
#      x y z
#    x 1.956330 0.000000 -0.044670 
#    y 0.000000 2.036260 0.000000 
#    z -0.044670 0.000000 2.065830 
# 
# From -- ./inp_files/87515.got.cif
#   From: 2010.05.17/outbox.cif.g08.bks.cpg/sg13_44_cif.got.tgz:87515.got - 2010.06.03 16:44:36.
