data_PCOD9231045
_publ_section_title
;
Structure prediction by ZEFSAII (Michael W. Deem and Ramdas Pophale) SiO2 
 PCOD9231045
Probable space group: P 2/C
;
_chemical_formula_sum "Si O2"
_cell_formula_units_Z 22
_cell_length_a 16.032487
_cell_length_b 7.738010
_cell_length_c 28.099486
_cell_angle_alpha 90.000000
_cell_angle_beta 16.974373
_cell_angle_gamma 90.000000
_cell_volume 1017.719344
_symmetry_space_group_name_H-M "P 2/C"
_symmetry_group_IT_number 13
_symmetry_cell_setting 'monoclinic'
loop_
_space_group_symop_operation_xyz
x,y,z
-x,y,1/2-z
-x,-y,-z
x,-y,1/2+z
loop_
_atom_site_type_symbol
_atom_site_label
_atom_site_fract_x
_atom_site_fract_y
_atom_site_fract_z
Si Si1 0.740999 0.139322 0.485589
Si Si2 0.581681 0.298692 0.325299
Si Si3 0.126842 0.518747 0.533178
Si Si4 0.500000 0.305278 0.750000
Si Si5 0.348959 0.032599 0.132191
Si Si6 0.578613 0.021210 0.257115
O O1 0.813253 0.333740 0.459766
O O2 0.009357 0.050674 0.313512
O O3 0.460988 0.116190 0.606519
O O4 0.682140 0.039961 0.567113
O O5 0.275637 0.347613 0.471131
O O6 0.562059 0.207019 0.387179
O O7 0.728235 0.156999 0.210087
O O8 0.788093 0.464946 0.211040
O O9 0.297845 0.580088 0.393104
O O10 0.312858 0.167146 0.820322
O O11 0.500000 0.000000 0.000000
O O12 0.500000 0.108820 0.250000
#
# Coordination Sequence:
#
# PCOD9231045 Si02
#       6
#     4   4   4   2   4   4
#     4   9  19  37  58  87 115 147 191 244 291 347
#     4  10  22  37  57  83 123 153 194 237 290 347
#     4  10  21  37  52  85 120 159 187 237 289 347
#     4   8  18  34  54  80 114 156 198 232 286 332
#     4  10  20  38  63  87 108 146 197 249 296 345
#     4   8  17  36  55  84 116 153 197 241 280 336
#
# _framework density 21.616961
#
# number of rings (size 3 to 8) (size 9 to 14) (size 15 to 20)
#    0.545    2.182    0.000    0.545    1.273    4.364 
#    6.545    0.909    0.000    6.545    0.000    0.000 
#    0.000    0.000    0.000    0.000    0.000    0.000 
#
# Total GULP energy -122494.930385 kJ/mol
# GULP energy per Si atom -5567.951381 kJ/mol
# Density = 2.156776 g / cm^3
# Si number density = 21.616961 Si / 1000 Ang^3
#
#
#
# Elastic Constant Matrix: (Units=GPa)
#
#
# Indices 1 2 3 4 5 6 
#
# 1 89.2932 18.6917 24.0124 0.0000 25.9286 0.0000
# 2 18.6917 47.7410 8.5742 0.0000 5.2741 0.0000
# 3 24.0124 8.5742 49.3514 0.0000 20.2872 0.0000
# 4 0.0000 0.0000 0.0000 24.5301 0.0000 -8.2702
# 5 25.9286 5.2741 20.2872 0.0000 35.6340 0.0000
# 6 0.0000 0.0000 0.0000 -8.2702 0.0000 18.9935
#
#
#
# Elastic Compliance Matrix: (Units=1/GPa)
#
#
# Indices 1 2 3 4 5 6 
#
# 1 0.015572 -0.004553 -0.003140 0.000000 -0.008869 0.000000
# 2 -0.004553 0.023005 -0.002276 0.000000 0.001204 0.000000
# 3 -0.003140 -0.002276 0.027558 0.000000 -0.013068 0.000000
# 4 0.000000 0.000000 0.000000 0.047781 0.000000 0.020805
# 5 -0.008869 0.001204 -0.013068 0.000000 0.041778 0.000000
# 6 0.000000 0.000000 0.000000 0.020805 0.000000 0.061708
#
#
# Mechanical properties :
#
#
# Convention : Reuss Voigt Hill
#
# Bulk Modulus (GPa) = 21.64681 32.10470 26.87576
# Shear Modulus (GPa) = 19.78328 24.83869 22.31098
#
# Velocity S-wave (km/s) = 3.02847 3.39342 3.21612
# Velocity P-wave (km/s) = 4.71851 5.49887 5.12357
#
# Compressibility (1/GPa) = 0.04619618
#
# Stress axis : x y z
#
# Youngs Moduli (GPa) = 64.21836 43.46918 36.28734
#
# Poissons Ratio (x) = 0.19792 0.11393
# Poissons Ratio (y) = 0.29239 0.08261
# Poissons Ratio (z) = 0.20162 0.09896
#
# Static dielectric constant tensor:
#      x y z
#    x 1.815310 0.000000 -0.052880 
#    y 0.000000 1.823990 0.000000 
#    z -0.052880 0.000000 1.810490 
# 
# From -- ./inp_files/92767.got.cif
#   From: 2010.05.17/outbox.cif.g08.bks.cpg/sg13_47_cif.got.tgz:92767.got - 2010.06.03 16:44:36.
