data_PCOD9231102
_publ_section_title
;
Structure prediction by ZEFSAII (Michael W. Deem and Ramdas Pophale) SiO2 
 PCOD9231102
Probable space group: P 2/C
;
_chemical_formula_sum "Si O2"
_cell_formula_units_Z 26
_cell_length_a 10.016321
_cell_length_b 18.285766
_cell_length_c 16.096709
_cell_angle_alpha 90.000000
_cell_angle_beta 155.198079
_cell_angle_gamma 90.000000
_cell_volume 1236.722754
_symmetry_space_group_name_H-M "P 2/C"
_symmetry_group_IT_number 13
_symmetry_cell_setting 'monoclinic'
loop_
_space_group_symop_operation_xyz
x,y,z
-x,y,1/2-z
-x,-y,-z
x,-y,1/2+z
loop_
_atom_site_type_symbol
_atom_site_label
_atom_site_fract_x
_atom_site_fract_y
_atom_site_fract_z
Si Si1 0.349982 0.970608 0.078976
Si Si2 0.471553 0.238207 0.633392
Si Si3 0.289990 0.122506 0.849825
Si Si4 0.153859 0.510971 0.262784
Si Si5 0.151564 0.852174 0.708648
Si Si6 0.567123 0.404238 0.884780
Si Si7 0.500000 0.114211 0.250000
O O1 0.500000 0.939530 0.250000
O O2 0.563030 0.944474 0.121879
O O3 0.327389 0.056247 0.089644
O O4 0.012591 0.931995 0.880600
O O5 0.500000 0.236549 0.750000
O O6 0.729818 0.188338 0.729883
O O7 0.451753 0.321695 0.592350
O O8 0.129453 0.201440 0.425761
O O9 0.000000 0.107147 0.750000
O O10 0.564648 0.149781 0.067046
O O11 0.500000 0.500000 0.500000
O O12 0.256237 0.552400 0.239801
O O13 0.000000 0.557597 0.250000
O O14 0.900013 0.445934 0.098246
O O15 0.276176 0.841587 0.685085
O O16 0.500000 0.399885 0.750000
#
# Coordination Sequence:
#
# PCOD9231102 Si02
#       7
#     4   4   4   4   4   4   2
#     4   9  21  41  61  85 118 155 192 249 325 372
#     4  10  23  43  65  84 125 169 205 247 313 362
#     4  11  24  38  62  92 121 156 208 264 301 368
#     4   9  19  34  59  93 130 160 195 250 300 351
#     4  11  22  38  64  86 120 157 204 255 311 368
#     4  10  20  38  64  92 123 168 205 248 300 364
#     4  10  24  36  68  88 116 156 204 254 320 376
#
# _framework density 21.023305000000001
#
# number of rings (size 3 to 8) (size 9 to 14) (size 15 to 20)
#    0.462    1.538    0.000    4.615    4.308    4.923 
#    0.000    3.077    1.692    0.000    0.000    0.000 
#    0.000    0.000    0.000    0.000    0.000    0.000 
#
# Total GULP energy -144750.738301 kJ/mol
# GULP energy per Si atom -5567.336089 kJ/mol
# Density = 2.097545 g / cm^3
# Si number density = 21.023305 Si / 1000 Ang^3
#
#
#
# Elastic Constant Matrix: (Units=GPa)
#
#
# Indices 1 2 3 4 5 6 
#
# 1 160.8371 14.9299 16.7752 0.0000 9.7847 0.0000
# 2 14.9299 43.8166 -11.0702 0.0000 -10.9521 0.0000
# 3 16.7752 -11.0702 71.5283 0.0000 -10.5241 0.0000
# 4 0.0000 0.0000 0.0000 23.6223 0.0000 -2.2020
# 5 9.7847 -10.9521 -10.5241 0.0000 29.7116 0.0000
# 6 0.0000 0.0000 0.0000 -2.2020 0.0000 -5.6146
#
#
#
# Elastic Compliance Matrix: (Units=1/GPa)
#
#
# Indices 1 2 3 4 5 6 
#
# 1 0.007295 -0.004599 -0.003192 0.000000 -0.005228 0.000000
# 2 -0.004599 0.030309 0.008056 0.000000 0.015540 0.000000
# 3 -0.003192 0.008056 0.017478 0.000000 0.010212 0.000000
# 4 0.000000 0.000000 0.000000 0.040840 0.000000 -0.016017
# 5 -0.005228 0.015540 0.010212 0.000000 0.044724 0.000000
# 6 0.000000 0.000000 0.000000 -0.016017 0.000000 -0.171826
#
#
# Mechanical properties :
#
#
# Convention : Reuss Voigt Hill
#
# Bulk Modulus (GPa) = 17.98156 35.27242 26.62699
# Shear Modulus (GPa) = -379.61435 26.58034 -176.51701
#
# Velocity S-wave (km/s) = -13.45215 3.55960 -9.17305
# Velocity P-wave (km/s) = 15.25479 5.80590 9.97498
#
# Compressibility (1/GPa) = 0.05561253
#
# Stress axis : x y z
#
# Youngs Moduli (GPa) = 137.07273 32.99329 57.21365
#
# Poissons Ratio (x) = 0.15174 0.18263
# Poissons Ratio (y) = 0.63042 -0.46091
# Poissons Ratio (z) = 0.43754 -0.26579
#
# Static dielectric constant tensor:
#      x y z
#    x 1.820280 0.000000 -0.101560 
#    y 0.000000 1.798500 0.000000 
#    z -0.101560 0.000000 1.717150 
# 
# From -- ./inp_files/48189.got.cif
#   From: 2010.05.17/outbox.cif.g08.bks.cpg/sg13_25_cif.got.tgz:48189.got - 2010.06.03 16:44:36.
