data_PCOD9231336
_publ_section_title
;
Structure prediction by ZEFSAII (Michael W. Deem and Ramdas Pophale) SiO2 
 PCOD9231336
Probable space group: P 2/C
;
_chemical_formula_sum "Si O2"
_cell_formula_units_Z 26
_cell_length_a 7.059561
_cell_length_b 9.327338
_cell_length_c 21.025769
_cell_angle_alpha 90.000000
_cell_angle_beta 46.244492
_cell_angle_gamma 90.000000
_cell_volume 1000.007828
_symmetry_space_group_name_H-M "P 2/C"
_symmetry_group_IT_number 13
_symmetry_cell_setting 'monoclinic'
loop_
_space_group_symop_operation_xyz
x,y,z
-x,y,1/2-z
-x,-y,-z
x,-y,1/2+z
loop_
_atom_site_type_symbol
_atom_site_label
_atom_site_fract_x
_atom_site_fract_y
_atom_site_fract_z
Si Si1 0.944600 0.864459 0.468854
Si Si2 0.147582 0.464029 0.650254
Si Si3 0.000000 0.048056 0.250000
Si Si4 0.798160 0.377929 0.075617
Si Si5 0.699872 0.363147 0.655542
Si Si6 0.340412 0.153822 0.594252
Si Si7 0.839582 0.761152 0.903879
O O1 0.198173 0.761367 0.413273
O O2 0.726102 0.752617 0.546121
O O3 0.874300 0.882722 0.411353
O O4 0.000000 0.000000 0.500000
O O5 0.940557 0.417822 0.643408
O O6 0.276162 0.610048 0.595410
O O7 0.000000 0.492726 0.750000
O O8 0.315387 0.320255 0.619057
O O9 0.984643 0.153008 0.314238
O O10 0.249387 0.944076 0.175035
O O11 0.587005 0.489882 0.151394
O O12 0.940285 0.290975 0.098118
O O13 0.000000 0.500000 0.000000
O O14 0.500000 0.294747 0.750000
O O15 0.382042 0.851845 0.507106
#
# Coordination Sequence:
#
# PCOD9231336 Si02
#       7
#     4   4   2   4   4   4   4
#     4  10  21  41  60  90 134 170 222 265 320 407
#     4  10  20  39  63  94 129 158 223 286 323 398
#     4  12  24  42  62  98 144 170 228 276 320 420
#     4   9  20  41  66  90 124 166 220 275 328 414
#     4   9  20  37  61  90 122 164 209 266 331 382
#     4  11  24  42  65  97 132 181 224 274 346 399
#     4  11  23  42  69  95 131 182 223 283 350 390
#
# _framework density 25.999796
#
# number of rings (size 3 to 8) (size 9 to 14) (size 15 to 20)
#    0.000    1.846    1.538    2.769    0.000    3.692 
#    5.538    0.769    0.000    0.000    0.000    0.000 
#    0.000    0.000    0.000    0.000    0.000    0.000 
#
# Total GULP energy -145260.949284 kJ/mol
# GULP energy per Si atom -5586.959588 kJ/mol
# Density = 2.594062 g / cm^3
# Si number density = 25.999796 Si / 1000 Ang^3
#
#
#
# Elastic Constant Matrix: (Units=GPa)
#
#
# Indices 1 2 3 4 5 6 
#
# 1 69.0731 36.0034 28.2424 0.0000 2.7039 0.0000
# 2 36.0034 198.7797 78.8423 0.0000 -0.5446 0.0000
# 3 28.2424 78.8423 157.7403 0.0000 3.8501 0.0000
# 4 0.0000 0.0000 0.0000 70.1368 0.0000 8.9177
# 5 2.7039 -0.5446 3.8501 0.0000 25.6027 0.0000
# 6 0.0000 0.0000 0.0000 8.9177 0.0000 30.7742
#
#
#
# Elastic Compliance Matrix: (Units=1/GPa)
#
#
# Indices 1 2 3 4 5 6 
#
# 1 0.016449 -0.002283 -0.001767 0.000000 -0.001520 0.000000
# 2 -0.002283 0.006601 -0.002911 0.000000 0.000819 0.000000
# 3 -0.001767 -0.002911 0.008138 0.000000 -0.001099 0.000000
# 4 0.000000 0.000000 0.000000 0.014803 0.000000 -0.004290
# 5 -0.001520 0.000819 -0.001099 0.000000 0.039402 0.000000
# 6 0.000000 0.000000 0.000000 -0.004290 0.000000 0.033738
#
#
# Mechanical properties :
#
#
# Convention : Reuss Voigt Hill
#
# Bulk Modulus (GPa) = 57.91396 79.08549 68.49972
# Shear Modulus (GPa) = 36.02142 44.13641 40.07892
#
# Velocity S-wave (km/s) = 3.72620 4.12462 3.93046
# Velocity P-wave (km/s) = 6.39030 7.29158 6.85577
#
# Compressibility (1/GPa) = 0.01726699
#
# Stress axis : x y z
#
# Youngs Moduli (GPa) = 60.79313 151.49733 122.88777
#
# Poissons Ratio (x) = 0.34581 0.21716
# Poissons Ratio (y) = 0.13877 0.35767
# Poissons Ratio (z) = 0.10743 0.44094
#
# Static dielectric constant tensor:
#      x y z
#    x 2.156140 0.000000 0.009410 
#    y 0.000000 2.120320 0.000000 
#    z 0.009410 0.000000 2.160090 
# 
# From -- ./inp_files/86035.got.cif
#   From: 2010.05.17/outbox.cif.g08.bks.cpg/sg13_44_cif.got.tgz:86035.got - 2010.06.03 16:44:36.
