data_PCOD9231626
_publ_section_title
;
Structure prediction by ZEFSAII (Michael W. Deem and Ramdas Pophale) SiO2 
 PCOD9231626
Probable space group: P 2/C
;
_chemical_formula_sum "Si O2"
_cell_formula_units_Z 32
_cell_length_a 12.206425
_cell_length_b 7.724017
_cell_length_c 28.150384
_cell_angle_alpha 90.000000
_cell_angle_beta 32.092833
_cell_angle_gamma 90.000000
_cell_volume 1410.099658
_symmetry_space_group_name_H-M "P 2/C"
_symmetry_group_IT_number 13
_symmetry_cell_setting 'monoclinic'
loop_
_space_group_symop_operation_xyz
x,y,z
-x,y,1/2-z
-x,-y,-z
x,-y,1/2+z
loop_
_atom_site_type_symbol
_atom_site_label
_atom_site_fract_x
_atom_site_fract_y
_atom_site_fract_z
Si Si1 0.524276 0.799985 0.382553
Si Si2 0.156168 0.898960 0.561568
Si Si3 0.180354 0.081643 0.648299
Si Si4 0.221415 0.694302 0.803428
Si Si5 0.630365 0.825576 0.155728
Si Si6 0.959872 0.790711 0.451631
Si Si7 0.682059 0.411519 0.125305
Si Si8 0.916119 0.365981 0.693261
O O1 0.297901 0.750473 0.485833
O O2 0.622955 0.897214 0.390812
O O3 0.479092 0.899659 0.350258
O O4 0.706187 0.670976 0.299598
O O5 0.911765 0.866510 0.649756
O O6 0.211084 0.948363 0.594688
O O7 0.187659 0.066902 0.517080
O O8 0.000000 0.023220 0.750000
O O9 0.095510 0.263150 0.655897
O O10 0.224938 0.636478 0.857386
O O11 0.460611 0.682723 0.701595
O O12 0.090712 0.567782 0.816602
O O13 0.500000 0.865581 0.250000
O O14 0.637726 0.617048 0.143790
O O15 0.865876 0.872770 0.078581
O O16 0.834374 0.650054 0.528009
O O17 0.079417 0.713691 0.361691
#
# Coordination Sequence:
#
# PCOD9231626 Si02
#       8
#     4   4   4   4   4   4   4   4
#     4  11  21  40  69  91 129 175 218 266 328 386
#     4  11  26  42  65  98 135 169 219 268 327 397
#     4   9  22  44  68  90 127 178 218 271 321 391
#     4  11  22  41  63  97 131 172 212 275 327 384
#     4  12  20  39  67 100 130 173 219 269 324 387
#     4  11  23  38  62  97 131 173 210 257 329 395
#     4  11  21  37  64  95 138 168 215 267 327 391
#     4  10  20  40  66  93 123 165 224 268 322 381
#
# _framework density 22.693432999999999
#
# number of rings (size 3 to 8) (size 9 to 14) (size 15 to 20)
#    0.000    1.250    5.000    1.500    1.750    5.000 
#    2.250    2.500    2.750    0.000    0.000    0.000 
#    0.000    0.000    0.000    0.000    0.000    0.000 
#
# Total GULP energy -178595.238842 kJ/mol
# GULP energy per Si atom -5581.101214 kJ/mol
# Density = 2.264178 g / cm^3
# Si number density = 22.693433 Si / 1000 Ang^3
#
#
#
# Elastic Constant Matrix: (Units=GPa)
#
#
# Indices 1 2 3 4 5 6 
#
# 1 153.7066 17.3797 40.4770 0.0000 3.5446 0.0000
# 2 17.3797 36.1232 19.8506 0.0000 15.5343 0.0000
# 3 40.4770 19.8506 125.5822 0.0000 9.9971 0.0000
# 4 0.0000 0.0000 0.0000 23.1120 0.0000 11.8441
# 5 3.5446 15.5343 9.9971 0.0000 23.1341 0.0000
# 6 0.0000 0.0000 0.0000 11.8441 0.0000 15.8375
#
#
#
# Elastic Compliance Matrix: (Units=1/GPa)
#
#
# Indices 1 2 3 4 5 6 
#
# 1 0.007360 -0.003269 -0.002010 0.000000 0.001936 0.000000
# 2 -0.003269 0.042657 -0.003572 0.000000 -0.026600 0.000000
# 3 -0.002010 -0.003572 0.009279 0.000000 -0.001304 0.000000
# 4 0.000000 0.000000 0.000000 0.070154 0.000000 -0.052464
# 5 0.001936 -0.026600 -0.001304 0.000000 0.061354 0.000000
# 6 0.000000 0.000000 0.000000 -0.052464 0.000000 0.102377
#
#
# Mechanical properties :
#
#
# Convention : Reuss Voigt Hill
#
# Bulk Modulus (GPa) = 24.04105 52.31406 38.17755
# Shear Modulus (GPa) = 15.39659 28.26371 21.83015
#
# Velocity S-wave (km/s) = 2.60755 3.53293 3.10491
# Velocity P-wave (km/s) = 4.43651 6.30434 5.45102
#
# Compressibility (1/GPa) = 0.04159553
#
# Stress axis : x y z
#
# Youngs Moduli (GPa) = 135.86704 23.44255 107.77053
#
# Poissons Ratio (x) = 0.07664 0.21658
# Poissons Ratio (y) = 0.44420 0.38491
# Poissons Ratio (z) = 0.27304 0.08373
#
# Static dielectric constant tensor:
#      x y z
#    x 1.842360 0.000000 -0.034540 
#    y 0.000000 1.874030 0.000000 
#    z -0.034540 0.000000 1.879120 
# 
# From -- ./inp_files/96670.got.cif
#   From: 2010.05.17/outbox.cif.g08.bks.cpg/sg13_49_cif.got.tgz:96670.got - 2010.06.03 16:44:36.
