data_PCOD9231615
_publ_section_title
;
Structure prediction by ZEFSAII (Michael W. Deem and Ramdas Pophale) SiO2 
 PCOD9231615
Probable space group: P 2/C
;
_chemical_formula_sum "Si O2"
_cell_formula_units_Z 30
_cell_length_a 10.506135
_cell_length_b 10.119929
_cell_length_c 14.154443
_cell_angle_alpha 90.000000
_cell_angle_beta 96.622643
_cell_angle_gamma 90.000000
_cell_volume 1494.877423
_symmetry_space_group_name_H-M "P 2/C"
_symmetry_group_IT_number 13
_symmetry_cell_setting 'monoclinic'
loop_
_space_group_symop_operation_xyz
x,y,z
-x,y,1/2-z
-x,-y,-z
x,-y,1/2+z
loop_
_atom_site_type_symbol
_atom_site_label
_atom_site_fract_x
_atom_site_fract_y
_atom_site_fract_z
Si Si1 0.132185 0.850775 0.664989
Si Si2 0.180161 0.641673 0.512503
Si Si3 0.156463 0.198581 0.371564
Si Si4 0.885723 0.641858 0.441014
Si Si5 0.547225 0.633734 0.049859
Si Si6 0.743805 0.868545 0.327191
Si Si7 0.396415 0.112883 0.486029
Si Si8 0.500000 0.270204 0.750000
O O1 0.187678 0.768554 0.582033
O O2 0.152621 0.762346 0.761144
O O3 0.981457 0.871572 0.629931
O O4 0.188832 0.994637 0.691924
O O5 0.174718 0.503990 0.571243
O O6 0.300332 0.643470 0.452772
O O7 0.039995 0.640435 0.452006
O O8 0.153586 0.306138 0.456220
O O9 0.283917 0.113315 0.399554
O O10 0.835550 0.744801 0.358902
O O11 0.501524 0.646188 0.154271
O O12 0.500000 0.500000 0.000000
O O13 0.475086 0.751490 0.989271
O O14 0.678176 0.894866 0.422213
O O15 0.626631 0.820470 0.253018
O O16 0.500000 0.000000 0.500000
#
# Coordination Sequence:
#
# PCOD9231615 Si02
#       8
#     4   4   4   4   4   4   4   2
#     4  10  21  37  63  91 121 159 212 255 304 371
#     4  10  20  40  66  90 118 163 208 252 303 375
#     4   9  20  38  58  89 127 163 197 261 311 356
#     4   9  20  41  64  87 126 159 204 256 313 359
#     4  11  23  43  62  90 123 166 207 248 308 371
#     4  10  21  39  57  88 123 162 198 260 311 358
#     4  10  21  36  60  85 122 163 201 251 305 365
#     4  10  24  42  64  86 136 162 200 264 312 364
#
# _framework density 20.068535000000001
#
# number of rings (size 3 to 8) (size 9 to 14) (size 15 to 20)
#    0.000    2.133    0.000    3.200    3.733    5.867 
#   12.000    0.000    0.000    0.000    0.000    0.000 
#    0.000    0.000    0.000    0.000    0.000    0.000 
#
# Total GULP energy -167240.130813 kJ/mol
# GULP energy per Si atom -5574.671027 kJ/mol
# Density = 2.002286 g / cm^3
# Si number density = 20.068535 Si / 1000 Ang^3
#
#
#
# Elastic Constant Matrix: (Units=GPa)
#
#
# Indices 1 2 3 4 5 6 
#
# 1 116.0199 40.7054 28.3558 0.0000 3.9838 0.0000
# 2 40.7054 120.3358 29.8856 0.0000 12.8162 0.0000
# 3 28.3558 29.8856 34.3431 0.0000 11.6001 0.0000
# 4 0.0000 0.0000 0.0000 9.9423 0.0000 4.3819
# 5 3.9838 12.8162 11.6001 0.0000 28.8103 0.0000
# 6 0.0000 0.0000 0.0000 4.3819 0.0000 29.0444
#
#
#
# Elastic Compliance Matrix: (Units=1/GPa)
#
#
# Indices 1 2 3 4 5 6 
#
# 1 0.011312 -0.002002 -0.008530 0.000000 0.002761 0.000000
# 2 -0.002002 0.010989 -0.007352 0.000000 -0.001651 0.000000
# 3 -0.008530 -0.007352 0.047518 0.000000 -0.014682 0.000000
# 4 0.000000 0.000000 0.000000 0.107745 0.000000 -0.016255
# 5 0.002761 -0.001651 -0.014682 0.000000 0.040974 0.000000
# 6 0.000000 0.000000 0.000000 -0.016255 0.000000 0.036882
#
#
# Mechanical properties :
#
#
# Convention : Reuss Voigt Hill
#
# Bulk Modulus (GPa) = 29.36806 52.06584 40.71695
# Shear Modulus (GPa) = 16.52686 25.00954 20.76820
#
# Velocity S-wave (km/s) = 2.87282 3.53399 3.22042
# Velocity P-wave (km/s) = 5.06653 6.53089 5.84475
#
# Compressibility (1/GPa) = 0.03405060
#
# Stress axis : x y z
#
# Youngs Moduli (GPa) = 88.40527 90.99991 21.04472
#
# Poissons Ratio (x) = 0.18217 0.17951
# Poissons Ratio (y) = 0.17698 0.15472
# Poissons Ratio (z) = 0.75409 0.66903
#
# Static dielectric constant tensor:
#      x y z
#    x 1.763480 0.000000 0.038110 
#    y 0.000000 1.731340 0.000000 
#    z 0.038110 0.000000 1.731880 
# 
# From -- ./inp_files/50040.got.cif
#   From: 2010.05.17/outbox.cif.g08.bks.cpg/sg13_26_cif.got.tgz:50040.got - 2010.06.03 16:44:36.
