data_PCOD9231323
_publ_section_title
;
Structure prediction by ZEFSAII (Michael W. Deem and Ramdas Pophale) SiO2 
 PCOD9231323
Probable space group: P 2/C
;
_chemical_formula_sum "Si O2"
_cell_formula_units_Z 28
_cell_length_a 5.936638
_cell_length_b 7.682673
_cell_length_c 30.652367
_cell_angle_alpha 90.000000
_cell_angle_beta 55.247738
_cell_angle_gamma 90.000000
_cell_volume 1148.656777
_symmetry_space_group_name_H-M "P 2/C"
_symmetry_group_IT_number 13
_symmetry_cell_setting 'monoclinic'
loop_
_space_group_symop_operation_xyz
x,y,z
-x,y,1/2-z
-x,-y,-z
x,-y,1/2+z
loop_
_atom_site_type_symbol
_atom_site_label
_atom_site_fract_x
_atom_site_fract_y
_atom_site_fract_z
Si Si1 0.023126 0.487623 0.295308
Si Si2 0.779758 0.860649 0.509425
Si Si3 0.557877 0.489073 0.044793
Si Si4 0.826353 0.986409 0.411000
Si Si5 0.579452 0.642757 0.126286
Si Si6 0.957679 0.340863 0.121422
Si Si7 0.264452 0.835773 0.305602
O O1 0.722710 0.571599 0.333048
O O2 0.123516 0.344815 0.318844
O O3 0.000000 0.411425 0.250000
O O4 0.207217 0.657331 0.285259
O O5 0.782035 0.663253 0.526184
O O6 0.481638 0.937664 0.555921
O O7 0.813905 0.853638 0.452822
O O8 0.000000 0.000000 0.500000
O O9 0.610543 0.655498 0.070075
O O10 0.265714 0.411688 0.091100
O O11 0.500000 0.500000 0.000000
O O12 0.021573 0.151357 0.401300
O O13 0.965867 0.917001 0.351180
O O14 0.632464 0.791016 0.156318
O O15 0.780580 0.484325 0.116903
O O16 0.500000 0.926394 0.250000
#
# Coordination Sequence:
#
# PCOD9231323 Si02
#       7
#     4   4   4   4   4   4   4
#     4  10  20  39  63  89 122 162 220 273 323 386
#     4  10  22  43  69  92 132 183 215 278 347 395
#     4  10  22  39  64  99 126 165 226 271 326 405
#     4  10  23  43  62  96 135 166 227 271 325 418
#     4  10  21  39  65  87 127 166 211 271 330 387
#     4   9  21  40  61  89 127 166 210 273 323 395
#     4  11  23  42  63  94 129 174 217 275 337 397
#
# _framework density 24.376297999999998
#
# number of rings (size 3 to 8) (size 9 to 14) (size 15 to 20)
#    0.000    2.000    1.429    0.857    6.000    1.714 
#    7.714    0.714    0.000    0.000    0.000    0.000 
#    0.000    0.000    0.000    0.000    0.000    0.000 
#
# Total GULP energy -156115.289388 kJ/mol
# GULP energy per Si atom -5575.546050 kJ/mol
# Density = 2.432082 g / cm^3
# Si number density = 24.376298 Si / 1000 Ang^3
#
#
#
# Elastic Constant Matrix: (Units=GPa)
#
#
# Indices 1 2 3 4 5 6 
#
# 1 61.0665 3.6565 30.9842 0.0000 -3.0143 0.0000
# 2 3.6565 47.5703 19.8058 0.0000 -3.0600 0.0000
# 3 30.9842 19.8058 148.8326 0.0000 7.2313 0.0000
# 4 0.0000 0.0000 0.0000 28.7814 0.0000 -0.4916
# 5 -3.0143 -3.0600 7.2313 0.0000 61.2698 0.0000
# 6 0.0000 0.0000 0.0000 -0.4916 0.0000 28.9815
#
#
#
# Elastic Compliance Matrix: (Units=1/GPa)
#
#
# Indices 1 2 3 4 5 6 
#
# 1 0.018427 0.000316 -0.003946 0.000000 0.001388 0.000000
# 2 0.000316 0.022392 -0.003119 0.000000 0.001502 0.000000
# 3 -0.003946 -0.003119 0.008018 0.000000 -0.001296 0.000000
# 4 0.000000 0.000000 0.000000 0.034755 0.000000 0.000589
# 5 0.001388 0.001502 -0.001296 0.000000 0.016618 0.000000
# 6 0.000000 0.000000 0.000000 0.000589 0.000000 0.034515
#
#
# Mechanical properties :
#
#
# Convention : Reuss Voigt Hill
#
# Bulk Modulus (GPa) = 28.29599 40.70696 34.50148
# Shear Modulus (GPa) = 31.24958 37.34138 34.29548
#
# Velocity S-wave (km/s) = 3.58434 3.91816 3.75496
# Velocity P-wave (km/s) = 5.36313 6.09959 5.74318
#
# Compressibility (1/GPa) = 0.03534069
#
# Stress axis : x y z
#
# Youngs Moduli (GPa) = 54.26772 44.65829 124.71410
#
# Poissons Ratio (x) = -0.01409 0.49208
# Poissons Ratio (y) = -0.01713 0.38892
# Poissons Ratio (z) = 0.21412 0.13927
#
# Static dielectric constant tensor:
#      x y z
#    x 1.736340 0.000000 -0.655890 
#    y 0.000000 1.970640 0.000000 
#    z -0.655890 0.000000 0.125870 
# 
# From -- ./inp_files/94991.got.cif
#   From: 2010.05.17/outbox.cif.g08.bks.cpg/sg13_48_cif.got.tgz:94991.got - 2010.06.03 16:44:36.
