data_PCOD9231007
_publ_section_title
;
Structure prediction by ZEFSAII (Michael W. Deem and Ramdas Pophale) SiO2 
 PCOD9231007
Probable space group: P 2/C
;
_chemical_formula_sum "Si O2"
_cell_formula_units_Z 22
_cell_length_a 8.595687
_cell_length_b 12.154032
_cell_length_c 10.892295
_cell_angle_alpha 90.000000
_cell_angle_beta 67.579773
_cell_angle_gamma 90.000000
_cell_volume 1051.927184
_symmetry_space_group_name_H-M "P 2/C"
_symmetry_group_IT_number 13
_symmetry_cell_setting 'monoclinic'
loop_
_space_group_symop_operation_xyz
x,y,z
-x,y,1/2-z
-x,-y,-z
x,-y,1/2+z
loop_
_atom_site_type_symbol
_atom_site_label
_atom_site_fract_x
_atom_site_fract_y
_atom_site_fract_z
Si Si1 0.814523 0.349519 0.031089
Si Si2 0.353275 0.315913 0.662650
Si Si3 0.302669 0.591299 0.438622
Si Si4 0.428225 0.878053 0.516377
Si Si5 0.500000 0.233194 0.250000
Si Si6 0.101793 0.234185 0.097177
O O1 0.799273 0.480525 0.053351
O O2 0.648641 0.304467 0.148329
O O3 0.967982 0.280008 0.039338
O O4 0.790824 0.329820 0.893643
O O5 0.496201 0.411303 0.601576
O O6 0.292114 0.332975 0.819123
O O7 0.451656 0.202875 0.600230
O O8 0.222625 0.658644 0.575149
O O9 0.431615 0.836769 0.656260
O O10 0.236184 0.861649 0.527569
O O11 0.500000 0.000000 0.500000
O O12 0.000000 0.207649 0.250000
#
# Coordination Sequence:
#
# PCOD9231007 Si02
#       6
#     4   4   4   4   2   4
#     4  11  21  36  62  92 132 174 206 264 321 388
#     4   9  21  38  59  93 123 168 233 257 304 394
#     4  10  21  37  61  91 136 175 205 261 315 387
#     4  10  22  42  68  85 119 169 218 277 330 372
#     4  10  20  38  62  90 118 162 218 260 314 404
#     4  11  23  39  60  95 130 157 217 266 321 388
#
# _framework density 20.913995
#
# number of rings (size 3 to 8) (size 9 to 14) (size 15 to 20)
#    0.000    1.818    1.818    2.182    2.545    3.636 
#    0.000    3.636    8.000    0.000    0.000    0.000 
#    0.000    0.000    0.000    0.000    0.000    0.000 
#
# Total GULP energy -122704.502868 kJ/mol
# GULP energy per Si atom -5577.477403 kJ/mol
# Density = 2.086639 g / cm^3
# Si number density = 20.913995 Si / 1000 Ang^3
#
#
#
# Elastic Constant Matrix: (Units=GPa)
#
#
# Indices 1 2 3 4 5 6 
#
# 1 123.7833 38.3266 15.3888 0.0000 4.1028 0.0000
# 2 38.3266 120.0353 42.7004 0.0000 0.4403 0.0000
# 3 15.3888 42.7004 61.1210 0.0000 3.2994 0.0000
# 4 0.0000 0.0000 0.0000 12.3387 0.0000 -1.5968
# 5 4.1028 0.4403 3.2994 0.0000 41.3458 0.0000
# 6 0.0000 0.0000 0.0000 -1.5968 0.0000 30.7387
#
#
#
# Elastic Compliance Matrix: (Units=1/GPa)
#
#
# Indices 1 2 3 4 5 6 
#
# 1 0.008999 -0.002768 -0.000286 0.000000 -0.000841 0.000000
# 2 -0.002768 0.011948 -0.007691 0.000000 0.000761 0.000000
# 3 -0.000286 -0.007691 0.021895 0.000000 -0.001637 0.000000
# 4 0.000000 0.000000 0.000000 0.081594 0.000000 0.004239
# 5 -0.000841 0.000761 -0.001637 0.000000 0.024392 0.000000
# 6 0.000000 0.000000 0.000000 0.004239 0.000000 0.032752
#
#
# Mechanical properties :
#
#
# Convention : Reuss Voigt Hill
#
# Bulk Modulus (GPa) = 46.83837 55.30791 51.07314
# Shear Modulus (GPa) = 23.78803 30.78624 27.28713
#
# Velocity S-wave (km/s) = 3.37623 3.84088 3.61602
# Velocity P-wave (km/s) = 6.13538 6.79504 6.47362
#
# Compressibility (1/GPa) = 0.02135002
#
# Stress axis : x y z
#
# Youngs Moduli (GPa) = 111.11991 83.69550 45.67320
#
# Poissons Ratio (x) = 0.23171 0.01308
# Poissons Ratio (y) = 0.30764 0.35128
# Poissons Ratio (z) = 0.03181 0.64372
#
# Static dielectric constant tensor:
#      x y z
#    x 1.834520 0.000000 0.012890 
#    y 0.000000 1.748640 0.000000 
#    z 0.012890 0.000000 1.740600 
# 
# From -- ./inp_files/29360.got.cif
#   From: 2010.05.17/outbox.cif.g08.bks.cpg/sg13_15_cif.got.tgz:29360.got - 2010.06.03 16:44:36.
