data_PCOD9231287
_publ_section_title
;
Structure prediction by ZEFSAII (Michael W. Deem and Ramdas Pophale) SiO2 
 PCOD9231287
Probable space group: P 2/C
;
_chemical_formula_sum "Si O2"
_cell_formula_units_Z 26
_cell_length_a 8.936329
_cell_length_b 10.000634
_cell_length_c 15.626261
_cell_angle_alpha 90.000000
_cell_angle_beta 51.394615
_cell_angle_gamma 90.000000
_cell_volume 1091.313502
_symmetry_space_group_name_H-M "P 2/C"
_symmetry_group_IT_number 13
_symmetry_cell_setting 'monoclinic'
loop_
_space_group_symop_operation_xyz
x,y,z
-x,y,1/2-z
-x,-y,-z
x,-y,1/2+z
loop_
_atom_site_type_symbol
_atom_site_label
_atom_site_fract_x
_atom_site_fract_y
_atom_site_fract_z
Si Si1 0.292215 0.323766 0.577819
Si Si2 0.193835 0.720206 0.933197
Si Si3 0.000000 0.813390 0.750000
Si Si4 0.096116 0.107575 0.031795
Si Si5 0.500000 0.074072 0.250000
Si Si6 0.691208 0.416671 0.350493
Si Si7 0.500000 0.524826 0.750000
Si Si8 0.536972 0.080778 0.897526
O O1 0.172177 0.269394 0.541655
O O2 0.506526 0.355811 0.464804
O O3 0.208910 0.467812 0.631081
O O4 0.328658 0.206370 0.631692
O O5 0.343617 0.834026 0.851132
O O6 0.310942 0.592536 0.861238
O O7 0.995270 0.749810 0.959888
O O8 0.946898 0.902782 0.851295
O O9 0.826393 0.711069 0.786804
O O10 0.322941 0.116586 0.942443
O O11 0.000000 0.000000 0.000000
O O12 0.393492 0.999969 0.210268
O O13 0.607417 0.505412 0.301369
O O14 0.500000 0.000000 0.000000
#
# Coordination Sequence:
#
# PCOD9231287 Si02
#       8
#     4   4   2   4   2   4   2   4
#     4  10  21  41  62  93 129 173 225 270 328 400
#     4  10  20  39  61  90 129 172 215 268 328 399
#     4  12  24  42  70 100 134 180 228 278 348 408
#     4  12  24  39  65 104 135 171 227 277 341 407
#     4  11  22  37  64  90 136 175 221 252 346 402
#     4  10  21  39  68  94 125 175 225 275 328 398
#     4   9  18  35  64  90 124 167 217 262 326 394
#     4  12  24  40  65  97 135 176 219 278 335 411
#
# _framework density 23.824501999999999
#
# number of rings (size 3 to 8) (size 9 to 14) (size 15 to 20)
#    0.000    1.231    6.154    0.000    2.154    0.615 
#    0.000    3.846    0.000    0.000    0.000    0.000 
#    0.000    0.000    0.000    0.000    0.000    0.000 
#
# Total GULP energy -144912.505979 kJ/mol
# GULP energy per Si atom -5573.557922 kJ/mol
# Density = 2.377028 g / cm^3
# Si number density = 23.824502 Si / 1000 Ang^3
#
#
#
# Elastic Constant Matrix: (Units=GPa)
#
#
# Indices 1 2 3 4 5 6 
#
# 1 65.4243 -4.9796 3.5815 0.0000 10.8533 0.0000
# 2 -4.9796 32.6322 15.9348 0.0000 17.4982 0.0000
# 3 3.5815 15.9348 51.3510 0.0000 27.5046 0.0000
# 4 0.0000 0.0000 0.0000 27.5877 0.0000 41.3266
# 5 10.8533 17.4982 27.5046 0.0000 49.6770 0.0000
# 6 0.0000 0.0000 0.0000 41.3266 0.0000 84.2454
#
#
#
# Elastic Compliance Matrix: (Units=1/GPa)
#
#
# Indices 1 2 3 4 5 6 
#
# 1 0.016633 0.005492 0.000168 0.000000 -0.005661 0.000000
# 2 0.005492 0.041201 -0.006756 0.000000 -0.011972 0.000000
# 3 0.000168 -0.006756 0.028863 0.000000 -0.013638 0.000000
# 4 0.000000 0.000000 0.000000 0.136706 0.000000 -0.067061
# 5 -0.005661 -0.011972 -0.013638 0.000000 0.033135 0.000000
# 6 0.000000 0.000000 0.000000 -0.067061 0.000000 0.044767
#
#
# Mechanical properties :
#
#
# Convention : Reuss Voigt Hill
#
# Bulk Modulus (GPa) = 11.83352 19.83118 15.83235
# Shear Modulus (GPa) = 15.07545 41.29342 28.18444
#
# Velocity S-wave (km/s) = 2.51822 4.16773 3.44321
# Velocity P-wave (km/s) = 3.66510 5.61265 4.73998
#
# Compressibility (1/GPa) = 0.08450573
#
# Stress axis : x y z
#
# Youngs Moduli (GPa) = 60.12209 24.27105 34.64631
#
# Poissons Ratio (x) = -0.13329 -0.00583
# Poissons Ratio (y) = -0.33018 0.23406
# Poissons Ratio (z) = -0.01011 0.16397
#
# Static dielectric constant tensor:
#      x y z
#    x 2.070920 0.000000 -0.000210 
#    y 0.000000 1.962440 0.000000 
#    z -0.000210 0.000000 2.059190 
# 
# From -- ./inp_files/46827.got.cif
#   From: 2010.05.17/outbox.cif.g08.bks.cpg/sg13_24_cif.got.tgz:46827.got - 2010.06.03 16:44:36.
