data_PCOD9231543
_publ_section_title
;
Structure prediction by ZEFSAII (Michael W. Deem and Ramdas Pophale) SiO2 
 PCOD9231543
Probable space group: P 2/C
;
_chemical_formula_sum "Si O2"
_cell_formula_units_Z 28
_cell_length_a 11.556946
_cell_length_b 9.770288
_cell_length_c 14.198558
_cell_angle_alpha 90.000000
_cell_angle_beta 122.785476
_cell_angle_gamma 90.000000
_cell_volume 1347.838163
_symmetry_space_group_name_H-M "P 2/C"
_symmetry_group_IT_number 13
_symmetry_cell_setting 'monoclinic'
loop_
_space_group_symop_operation_xyz
x,y,z
-x,y,1/2-z
-x,-y,-z
x,-y,1/2+z
loop_
_atom_site_type_symbol
_atom_site_label
_atom_site_fract_x
_atom_site_fract_y
_atom_site_fract_z
Si Si1 0.351731 0.374463 0.145437
Si Si2 0.551995 0.925899 0.868507
Si Si3 0.142560 0.689035 0.859933
Si Si4 0.712448 0.040295 0.118976
Si Si5 0.658650 0.459745 0.571456
Si Si6 0.866265 0.408419 0.930590
Si Si7 0.855057 0.236719 0.744135
O O1 0.500000 0.416153 0.250000
O O2 0.369460 0.208866 0.139750
O O3 0.245966 0.476807 0.150473
O O4 0.316298 0.418156 0.024736
O O5 0.500000 0.001800 0.750000
O O6 0.413212 0.904061 0.870551
O O7 0.649658 0.997489 0.988975
O O8 0.260136 0.595560 0.867490
O O9 0.000000 0.645517 0.750000
O O10 0.176972 0.842924 0.849641
O O11 0.152737 0.662775 0.976055
O O12 0.790355 0.913085 0.201418
O O13 0.500000 0.500000 0.500000
O O14 0.728851 0.335104 0.656489
O O15 0.884213 0.289467 0.861886
O O16 0.000000 0.500000 0.000000
O O17 0.000000 0.251035 0.750000
#
# Coordination Sequence:
#
# PCOD9231543 Si02
#       7
#     4   4   4   4   4   4   4
#     4  10  20  40  63 101 126 172 227 286 340 407
#     4  10  23  43  72  97 144 181 228 290 348 416
#     4  11  25  45  66 100 140 180 232 289 351 424
#     4  11  25  45  68 105 140 188 234 279 359 423
#     4  11  21  38  68  96 132 178 227 292 342 401
#     4  11  25  43  71 103 136 186 237 293 351 416
#     4  12  25  46  69 101 145 186 233 289 352 421
#
# _framework density 20.774007000000001
#
# number of rings (size 3 to 8) (size 9 to 14) (size 15 to 20)
#    0.000    1.143    1.429    5.143    4.000    3.429 
#    0.000    1.429    0.000    0.000    0.000    0.000 
#    0.000    0.000    0.000    0.000    0.000    0.000 
#
# Total GULP energy -155960.074322 kJ/mol
# GULP energy per Si atom -5570.002654 kJ/mol
# Density = 2.072672 g / cm^3
# Si number density = 20.774007 Si / 1000 Ang^3
#
#
#
# Elastic Constant Matrix: (Units=GPa)
#
#
# Indices 1 2 3 4 5 6 
#
# 1 77.1113 39.9728 23.8120 0.0000 19.8963 0.0000
# 2 39.9728 130.2709 35.9104 0.0000 8.7869 0.0000
# 3 23.8120 35.9104 113.9857 0.0000 0.2399 0.0000
# 4 0.0000 0.0000 0.0000 23.9274 0.0000 5.9903
# 5 19.8963 8.7869 0.2399 0.0000 50.2978 0.0000
# 6 0.0000 0.0000 0.0000 5.9903 0.0000 22.7164
#
#
#
# Elastic Compliance Matrix: (Units=1/GPa)
#
#
# Indices 1 2 3 4 5 6 
#
# 1 0.017504 -0.004327 -0.002281 0.000000 -0.006157 0.000000
# 2 -0.004327 0.009584 -0.002116 0.000000 0.000047 0.000000
# 3 -0.002281 -0.002116 0.009913 0.000000 0.001224 0.000000
# 4 0.000000 0.000000 0.000000 0.044747 0.000000 -0.011800
# 5 -0.006157 0.000047 0.001224 0.000000 0.022303 0.000000
# 6 0.000000 0.000000 0.000000 -0.011800 0.000000 0.047133
#
#
# Mechanical properties :
#
#
# Convention : Reuss Voigt Hill
#
# Bulk Modulus (GPa) = 51.13696 57.86204 54.49950
# Shear Modulus (GPa) = 28.54704 34.16651 31.35678
#
# Velocity S-wave (km/s) = 3.71100 4.05986 3.88934
# Velocity P-wave (km/s) = 6.55983 7.06330 6.81621
#
# Compressibility (1/GPa) = 0.01955533
#
# Stress axis : x y z
#
# Youngs Moduli (GPa) = 57.12883 104.34036 100.87415
#
# Poissons Ratio (x) = 0.45149 0.23005
# Poissons Ratio (y) = 0.24720 0.21340
# Poissons Ratio (z) = 0.13028 0.22073
#
# Static dielectric constant tensor:
#      x y z
#    x 1.788200 0.000000 -0.071940 
#    y 0.000000 1.795270 0.000000 
#    z -0.071940 0.000000 1.623090 
# 
# From -- ./inp_files/50442.got.cif
#   From: 2010.05.17/outbox.cif.g08.bks.cpg/sg13_26_cif.got.tgz:50442.got - 2010.06.03 16:44:36.
