data_PCOD9231577
_publ_section_title
;
Structure prediction by ZEFSAII (Michael W. Deem and Ramdas Pophale) SiO2 
 PCOD9231577
Probable space group: P 2/C
;
_chemical_formula_sum "Si O2"
_cell_formula_units_Z 30
_cell_length_a 24.030779
_cell_length_b 10.880703
_cell_length_c 30.512515
_cell_angle_alpha 90.000000
_cell_angle_beta 169.010347
_cell_angle_gamma 90.000000
_cell_volume 1520.890615
_symmetry_space_group_name_H-M "P 2/C"
_symmetry_group_IT_number 13
_symmetry_cell_setting 'monoclinic'
loop_
_space_group_symop_operation_xyz
x,y,z
-x,y,1/2-z
-x,-y,-z
x,-y,1/2+z
loop_
_atom_site_type_symbol
_atom_site_label
_atom_site_fract_x
_atom_site_fract_y
_atom_site_fract_z
Si Si1 0.253262 0.174538 0.394727
Si Si2 0.845027 0.213534 0.516985
Si Si3 0.000000 0.391297 0.250000
Si Si4 0.814313 0.516347 0.017732
Si Si5 0.849509 0.737745 0.511716
Si Si6 0.205448 0.896841 0.369176
Si Si7 0.868367 0.857439 0.347589
Si Si8 0.138792 0.148922 0.149567
O O1 0.536775 0.181305 0.583784
O O2 0.230985 0.293266 0.408425
O O3 0.976495 0.181249 0.149317
O O4 0.271063 0.040611 0.430780
O O5 0.931715 0.346550 0.603395
O O6 0.013570 0.115147 0.676962
O O7 0.936686 0.204979 0.537790
O O8 0.500000 0.194296 0.250000
O O9 0.846931 0.471814 0.093534
O O10 0.958591 0.402013 0.104030
O O11 0.500000 0.525190 0.750000
O O12 0.986934 0.781524 0.572431
O O13 0.500000 0.738846 0.250000
O O14 0.518650 0.835547 0.599408
O O15 0.000000 0.848007 0.250000
O O16 0.958682 0.823693 0.466445
O O17 0.891392 0.004507 0.362281
#
# Coordination Sequence:
#
# PCOD9231577 Si02
#       8
#     4   4   2   4   4   4   4   4
#     4  10  21  36  62  90 122 150 207 250 317 369
#     4  11  23  41  61  85 128 165 208 255 311 374
#     4  10  20  40  64  92 116 166 204 268 314 364
#     4   9  22  40  63  88 123 165 220 259 305 366
#     4  10  21  37  61  88 119 159 207 256 308 362
#     4  11  22  37  61  90 124 160 202 252 313 381
#     4  10  22  38  58  88 127 159 196 259 311 377
#     4  10  22  38  59  91 126 160 204 252 316 372
#
# _framework density 19.725285
#
# number of rings (size 3 to 8) (size 9 to 14) (size 15 to 20)
#    0.000    1.867    0.667    2.400    6.533    5.333 
#    0.000    6.667    0.000    0.000    0.000    0.000 
#    0.000    0.000    0.000    0.000    0.000    0.000 
#
# Total GULP energy -167136.383256 kJ/mol
# GULP energy per Si atom -5571.212775 kJ/mol
# Density = 1.968039 g / cm^3
# Si number density = 19.725285 Si / 1000 Ang^3
#
#
#
# Elastic Constant Matrix: (Units=GPa)
#
#
# Indices 1 2 3 4 5 6 
#
# 1 111.9626 32.8533 23.5446 0.0000 8.4896 0.0000
# 2 32.8533 59.7289 12.8105 0.0000 -2.5908 0.0000
# 3 23.5446 12.8105 84.4449 0.0000 7.6729 0.0000
# 4 0.0000 0.0000 0.0000 15.5257 0.0000 -12.3331
# 5 8.4896 -2.5908 7.6729 0.0000 37.7724 0.0000
# 6 0.0000 0.0000 0.0000 -12.3331 0.0000 25.3817
#
#
#
# Elastic Compliance Matrix: (Units=1/GPa)
#
#
# Indices 1 2 3 4 5 6 
#
# 1 0.011273 -0.005876 -0.002022 0.000000 -0.002526 0.000000
# 2 -0.005876 0.020483 -0.001749 0.000000 0.003081 0.000000
# 3 -0.002022 -0.001749 0.012878 0.000000 -0.002282 0.000000
# 4 0.000000 0.000000 0.000000 0.104900 0.000000 0.050971
# 5 -0.002526 0.003081 -0.002282 0.000000 0.027717 0.000000
# 6 0.000000 0.000000 0.000000 0.050971 0.000000 0.064166
#
#
# Mechanical properties :
#
#
# Convention : Reuss Voigt Hill
#
# Bulk Modulus (GPa) = 39.46349 43.83923 41.65136
# Shear Modulus (GPa) = 18.57649 28.19781 23.38715
#
# Velocity S-wave (km/s) = 3.07214 3.78501 3.44705
# Velocity P-wave (km/s) = 5.71262 6.43233 6.08313
#
# Compressibility (1/GPa) = 0.02533988
#
# Stress axis : x y z
#
# Youngs Moduli (GPa) = 88.71091 48.82038 77.64916
#
# Poissons Ratio (x) = 0.28688 0.15701
# Poissons Ratio (y) = 0.52129 0.13580
# Poissons Ratio (z) = 0.17937 0.08538
#
# Static dielectric constant tensor:
#      x y z
#    x 1.700460 0.000000 -0.010610 
#    y 0.000000 1.716560 0.000000 
#    z -0.010610 0.000000 1.719880 
# 
# From -- ./inp_files/97745.got.cif
#   From: 2010.05.17/outbox.cif.g08.bks.cpg/sg13_49_cif.got.tgz:97745.got - 2010.06.03 16:44:36.
