data_PCOD9231398
_publ_section_title
;
Structure prediction by ZEFSAII (Michael W. Deem and Ramdas Pophale) SiO2 
 PCOD9231398
Probable space group: P 2/C
;
_chemical_formula_sum "Si O2"
_cell_formula_units_Z 18
_cell_length_a 7.768148
_cell_length_b 5.490027
_cell_length_c 19.853360
_cell_angle_alpha 90.000000
_cell_angle_beta 57.799523
_cell_angle_gamma 90.000000
_cell_volume 716.462107
_symmetry_space_group_name_H-M "P 2/C"
_symmetry_group_IT_number 13
_symmetry_cell_setting 'monoclinic'
loop_
_space_group_symop_operation_xyz
x,y,z
-x,y,1/2-z
-x,-y,-z
x,-y,1/2+z
loop_
_atom_site_type_symbol
_atom_site_label
_atom_site_fract_x
_atom_site_fract_y
_atom_site_fract_z
Si Si1 0.968471 0.264671 0.837538
Si Si2 0.876623 0.237359 0.207092
Si Si3 0.736411 0.744096 0.076649
Si Si4 0.500000 0.479461 0.750000
Si Si5 0.771279 0.756767 0.500323
O O1 0.762987 0.207612 0.920771
O O2 0.000000 0.286548 0.750000
O O3 0.016516 0.538202 0.852968
O O4 0.104540 0.028670 0.827042
O O5 0.652337 0.341613 0.257852
O O6 0.000000 0.212914 0.250000
O O7 0.610879 0.681170 0.170595
O O8 0.983851 0.752389 0.033721
O O9 0.690999 0.504436 0.040715
O O10 0.683150 0.007396 0.056542
#
# Coordination Sequence:
#
# PCOD9231398 Si02
#       5
#     4   4   4   2   4
#     4  10  20  39  66  91 125 178 215 261 331 398
#     4  10  23  39  63  96 130 168 219 275 321 389
#     4  10  23  34  62  94 132 160 224 267 322 388
#     4  12  24  42  68 104 126 180 224 272 324 402
#     4  10  20  40  58  96 127 172 212 272 325 390
#
# _framework density 25.123449000000001
#
# number of rings (size 3 to 8) (size 9 to 14) (size 15 to 20)
#    0.000    1.778    2.222    1.333    6.222    3.556 
#    0.000    0.000    0.000   32.000    0.000    0.000 
#    0.000    0.000    0.000    0.000    0.000    0.000 
#
# Total GULP energy -100308.679698 kJ/mol
# GULP energy per Si atom -5572.704428 kJ/mol
# Density = 2.506627 g / cm^3
# Si number density = 25.123449 Si / 1000 Ang^3
#
#
#
# Elastic Constant Matrix: (Units=GPa)
#
#
# Indices 1 2 3 4 5 6 
#
# 1 71.8625 27.9766 23.1065 0.0000 -0.2000 0.0000
# 2 27.9766 230.6559 83.1624 0.0000 7.8728 0.0000
# 3 23.1065 83.1624 179.2243 0.0000 20.6398 0.0000
# 4 0.0000 0.0000 0.0000 53.0628 0.0000 0.1269
# 5 -0.2000 7.8728 20.6398 0.0000 22.8719 0.0000
# 6 0.0000 0.0000 0.0000 0.1269 0.0000 9.6905
#
#
#
# Elastic Compliance Matrix: (Units=1/GPa)
#
#
# Indices 1 2 3 4 5 6 
#
# 1 0.014931 -0.001324 -0.001538 0.000000 0.001974 0.000000
# 2 -0.001324 0.005328 -0.002331 0.000000 0.000258 0.000000
# 3 -0.001538 -0.002331 0.007554 0.000000 -0.006028 0.000000
# 4 0.000000 0.000000 0.000000 0.018846 0.000000 -0.000247
# 5 0.001974 0.000258 -0.006028 0.000000 0.049090 0.000000
# 6 0.000000 0.000000 0.000000 -0.000247 0.000000 0.103197
#
#
# Mechanical properties :
#
#
# Convention : Reuss Voigt Hill
#
# Bulk Modulus (GPa) = 57.38482 83.35929 70.37206
# Shear Modulus (GPa) = 23.24072 40.29153 31.76613
#
# Velocity S-wave (km/s) = 3.04478 4.00902 3.55970
# Velocity P-wave (km/s) = 5.93731 7.39470 6.70571
#
# Compressibility (1/GPa) = 0.01742621
#
# Stress axis : x y z
#
# Youngs Moduli (GPa) = 66.97532 187.69735 132.38470
#
# Poissons Ratio (x) = 0.24848 0.20361
# Poissons Ratio (y) = 0.08866 0.30861
# Poissons Ratio (z) = 0.10301 0.43756
#
# Static dielectric constant tensor:
#      x y z
#    x 2.107260 0.000000 0.006030 
#    y 0.000000 1.975370 0.000000 
#    z 0.006030 0.000000 1.922620 
# 
# From -- ./inp_files/68970.got.cif
#   From: 2010.05.17/outbox.cif.g08.bks.cpg/sg13_35_cif.got.tgz:68970.got - 2010.06.03 16:44:36.
