data_PCOD9231976
_publ_section_title
;
Structure prediction by ZEFSAII (Michael W. Deem and Ramdas Pophale) SiO2 
 PCOD9231976
Probable space group: P 2/C
;
_chemical_formula_sum "Si O2"
_cell_formula_units_Z 26
_cell_length_a 23.592806
_cell_length_b 5.275727
_cell_length_c 27.916814
_cell_angle_alpha 90.000000
_cell_angle_beta 162.243939
_cell_angle_gamma 90.000000
_cell_volume 1059.687542
_symmetry_space_group_name_H-M "P 2/C"
_symmetry_group_IT_number 13
_symmetry_cell_setting 'monoclinic'
loop_
_space_group_symop_operation_xyz
x,y,z
-x,y,1/2-z
-x,-y,-z
x,-y,1/2+z
loop_
_atom_site_type_symbol
_atom_site_label
_atom_site_fract_x
_atom_site_fract_y
_atom_site_fract_z
Si Si1 0.101895 0.938325 0.789321
Si Si2 0.895367 0.642440 0.546468
Si Si3 0.241189 0.280961 0.816077
Si Si4 0.415228 0.389797 0.343798
Si Si5 0.500000 0.298328 0.750000
Si Si6 0.511372 0.871596 0.364311
Si Si7 0.907699 0.909729 0.876640
O O1 0.000000 0.085312 0.750000
O O2 0.955340 0.763473 0.644982
O O3 0.190536 0.098069 0.818946
O O4 0.277350 0.795944 0.952082
O O5 0.687583 0.547632 0.388654
O O6 0.056408 0.447163 0.664110
O O7 0.930752 0.846015 0.532118
O O8 0.237595 0.105598 0.765853
O O9 0.426271 0.411640 0.986878
O O10 0.400716 0.639483 0.299613
O O11 0.221662 0.327835 0.213808
O O12 0.459396 0.142580 0.345938
O O13 0.489728 0.129036 0.693891
O O14 0.000000 0.000000 0.000000
#
# Coordination Sequence:
#
# PCOD9231976 Si02
#       7
#     4   4   4   4   2   4   4
#     4  10  20  43  66  98 141 183 240 296 348 431
#     4  11  24  44  68 101 139 187 247 288 371 426
#     4  10  24  42  69 103 132 190 242 299 363 427
#     4  11  25  47  74 104 143 188 247 297 363 428
#     4  12  26  44  70 106 154 188 244 300 368 444
#     4  11  25  44  72 108 141 193 236 300 364 431
#     4  11  26  45  69 100 144 190 235 303 365 440
#
# _framework density 24.535536
#
# number of rings (size 3 to 8) (size 9 to 14) (size 15 to 20)
#    0.000    1.231    3.077    1.385    4.308    4.923 
#    0.000    0.000    0.000    0.000    0.000    0.000 
#    0.000    0.000    0.000    0.000    0.000    0.000 
#
# Total GULP energy -145228.620353 kJ/mol
# GULP energy per Si atom -5585.716167 kJ/mol
# Density = 2.447969 g / cm^3
# Si number density = 24.535536 Si / 1000 Ang^3
#
#
#
# Elastic Constant Matrix: (Units=GPa)
#
#
# Indices 1 2 3 4 5 6 
#
# 1 168.9502 36.9974 53.2913 0.0000 -14.1617 0.0000
# 2 36.9974 68.5618 11.2907 0.0000 -13.7568 0.0000
# 3 53.2913 11.2907 112.7891 0.0000 3.7883 0.0000
# 4 0.0000 0.0000 0.0000 22.3776 0.0000 -14.3681
# 5 -14.1617 -13.7568 3.7883 0.0000 44.1016 0.0000
# 6 0.0000 0.0000 0.0000 -14.3681 0.0000 -216.6156
#
#
#
# Elastic Compliance Matrix: (Units=1/GPa)
#
#
# Indices 1 2 3 4 5 6 
#
# 1 0.007887 -0.003328 -0.003454 0.000000 0.001791 0.000000
# 2 -0.003328 0.017306 -0.000306 0.000000 0.004356 0.000000
# 3 -0.003454 -0.000306 0.010600 0.000000 -0.002115 0.000000
# 4 0.000000 0.000000 0.000000 0.042862 0.000000 -0.002843
# 5 0.001791 0.004356 -0.002115 0.000000 0.024791 0.000000
# 6 0.000000 0.000000 0.000000 -0.002843 0.000000 -0.004428
#
#
# Mechanical properties :
#
#
# Convention : Reuss Voigt Hill
#
# Bulk Modulus (GPa) = 46.26035 61.49555 53.87795
# Shear Modulus (GPa) = 41.52877 -13.44584 14.04147
#
# Velocity S-wave (km/s) = 4.11858 -2.34351 2.39486
# Velocity P-wave (km/s) = 6.44300 4.21848 5.44554
#
# Compressibility (1/GPa) = 0.02161678
#
# Stress axis : x y z
#
# Youngs Moduli (GPa) = 126.78812 57.78456 94.34331
#
# Poissons Ratio (x) = 0.19230 0.32582
# Poissons Ratio (y) = 0.42194 0.02889
# Poissons Ratio (z) = 0.43788 0.01770
#
# Static dielectric constant tensor:
#      x y z
#    x 1.987150 0.000000 -0.033350 
#    y 0.000000 2.053400 0.000000 
#    z -0.033350 0.000000 2.035430 
# 
# From -- ./inp_files/93754.got.cif
#   From: 2010.05.17/outbox.cif.g08.bks.cpg/sg13_47_cif.got.tgz:93754.got - 2010.06.03 16:44:36.
