data_PCOD9231012
_publ_section_title
;
Structure prediction by ZEFSAII (Michael W. Deem and Ramdas Pophale) SiO2 
 PCOD9231012
Probable space group: P 2/C
;
_chemical_formula_sum "Si O2"
_cell_formula_units_Z 10
_cell_length_a 6.430134
_cell_length_b 3.717072
_cell_length_c 12.711167
_cell_angle_alpha 90.000000
_cell_angle_beta 89.865408
_cell_angle_gamma 90.000000
_cell_volume 303.812210
_symmetry_space_group_name_H-M "P 2/C"
_symmetry_group_IT_number 13
_symmetry_cell_setting 'monoclinic'
loop_
_space_group_symop_operation_xyz
x,y,z
-x,y,1/2-z
-x,-y,-z
x,-y,1/2+z
loop_
_atom_site_type_symbol
_atom_site_label
_atom_site_fract_x
_atom_site_fract_y
_atom_site_fract_z
Si Si1 0.193615 0.755670 0.041550
Si Si2 0.000000 0.735727 0.250000
Si Si3 0.600688 0.287550 0.646247
O O1 0.404105 0.914865 0.094269
O O2 0.097516 0.555713 0.145082
O O3 0.293122 0.519290 0.947374
O O4 0.000000 0.000000 0.000000
O O5 0.797213 0.920192 0.198545
O O6 0.500000 0.470497 0.750000
#
# Coordination Sequence:
#
# PCOD9231012 Si02
#       3
#     4   2   4
#     4  10  21  38  63  97 133 175 230 281 335 411
#     4  10  20  38  62  90 132 180 222 276 348 404
#     4   9  20  40  64  93 135 180 219 278 349 401
#
# _framework density 32.915067000000001
#
# number of rings (size 3 to 8) (size 9 to 14) (size 15 to 20)
#    0.000    2.400    0.000    1.200    0.000    3.200 
#    0.000    6.000    0.000    0.000    0.000    0.000 
#    0.000    0.000    0.000    2.400    0.000    0.000 
#
# Total GULP energy -55677.532153 kJ/mol
# GULP energy per Si atom -5567.753215 kJ/mol
# Density = 3.284015 g / cm^3
# Si number density = 32.915067 Si / 1000 Ang^3
#
#
#
# Elastic Constant Matrix: (Units=GPa)
#
#
# Indices 1 2 3 4 5 6 
#
# 1 416.9011 108.6816 154.0749 0.0000 85.6409 0.0000
# 2 108.6816 90.2649 116.1246 0.0000 -0.5421 0.0000
# 3 154.0749 116.1246 377.2210 0.0000 -79.5700 0.0000
# 4 0.0000 0.0000 0.0000 76.5572 0.0000 -10.6387
# 5 85.6409 -0.5421 -79.5700 0.0000 169.7629 0.0000
# 6 0.0000 0.0000 0.0000 -10.6387 0.0000 97.1779
#
#
#
# Elastic Compliance Matrix: (Units=1/GPa)
#
#
# Indices 1 2 3 4 5 6 
#
# 1 0.004411 -0.003714 -0.001254 0.000000 -0.002825 0.000000
# 2 -0.003714 0.022826 -0.005659 0.000000 -0.000706 0.000000
# 3 -0.001254 -0.005659 0.005587 0.000000 0.003233 0.000000
# 4 0.000000 0.000000 0.000000 0.013264 0.000000 0.001452
# 5 -0.002825 -0.000706 0.003233 0.000000 0.008829 0.000000
# 6 0.000000 0.000000 0.000000 0.001452 0.000000 0.010449
#
#
# Mechanical properties :
#
#
# Convention : Reuss Voigt Hill
#
# Bulk Modulus (GPa) = 86.42893 182.46104 134.44498
# Shear Modulus (GPa) = 55.26331 102.39999 78.83165
#
# Velocity S-wave (km/s) = 4.10197 5.58372 4.89918
# Velocity P-wave (km/s) = 6.98212 9.85519 8.54034
#
# Compressibility (1/GPa) = 0.01157020
#
# Stress axis : x y z
#
# Youngs Moduli (GPa) = 226.72858 43.80948 178.98538
#
# Poissons Ratio (x) = 0.16272 0.22442
# Poissons Ratio (y) = 0.84215 1.01280
# Poissons Ratio (z) = 0.28429 0.24790
#
# Static dielectric constant tensor:
#      x y z
#    x 2.466780 0.000000 -0.036980 
#    y 0.000000 3.040740 0.000000 
#    z -0.036980 0.000000 2.427140 
# 
# From -- ./inp_files/25005.got.cif
#   From: 2010.05.17/outbox.cif.g08.bks.cpg/sg13_13_cif.got.tgz:25005.got - 2010.06.03 16:44:36.
