data_PCOD9231965
_publ_section_title
;
Structure prediction by ZEFSAII (Michael W. Deem and Ramdas Pophale) SiO2 
 PCOD9231965
Probable space group: P 2/C
;
_chemical_formula_sum "Si O2"
_cell_formula_units_Z 32
_cell_length_a 16.099206
_cell_length_b 11.230269
_cell_length_c 22.788572
_cell_angle_alpha 90.000000
_cell_angle_beta 19.391080
_cell_angle_gamma 90.000000
_cell_volume 1367.944560
_symmetry_space_group_name_H-M "P 2/C"
_symmetry_group_IT_number 13
_symmetry_cell_setting 'monoclinic'
loop_
_space_group_symop_operation_xyz
x,y,z
-x,y,1/2-z
-x,-y,-z
x,-y,1/2+z
loop_
_atom_site_type_symbol
_atom_site_label
_atom_site_fract_x
_atom_site_fract_y
_atom_site_fract_z
Si Si1 0.433888 0.581298 0.362970
Si Si2 0.846985 0.308201 0.675619
Si Si3 0.893817 0.923273 0.223818
Si Si4 0.218883 0.935772 0.427780
Si Si5 0.875358 0.457535 0.236476
Si Si6 0.596205 0.409386 0.018948
Si Si7 0.332667 0.154964 0.516740
Si Si8 0.183970 0.174870 0.381930
O O1 0.500000 0.583240 0.250000
O O2 0.623449 0.655050 0.279353
O O3 0.436586 0.451270 0.392636
O O4 0.137363 0.610237 0.564192
O O5 0.810441 0.180987 0.733705
O O6 0.887093 0.414862 0.695032
O O7 0.109024 0.293094 0.466173
O O8 0.693001 0.931332 0.410390
O O9 0.005562 0.041946 0.119326
O O10 0.140263 0.880372 0.094696
O O11 0.500000 0.888752 0.250000
O O12 0.252799 0.069389 0.380543
O O13 0.079152 0.860403 0.472039
O O14 0.668812 0.391377 0.335742
O O15 0.747020 0.487719 0.384090
O O16 0.735551 0.286900 0.917436
O O17 0.600497 0.170189 0.309020
#
# Coordination Sequence:
#
# PCOD9231965 Si02
#       8
#     4   4   4   4   4   4   4   4
#     4  11  25  37  57  90 127 170 211 268 311 364
#     4  10  22  41  60  91 123 167 214 261 319 374
#     4  10  21  38  66  91 126 157 212 271 313 383
#     4  10  20  43  62  91 125 163 199 254 337 387
#     4  10  21  41  59  82 125 174 214 264 309 369
#     4  10  22  38  61  84 122 169 219 259 313 366
#     4  11  21  37  64 100 117 161 218 266 313 372
#     4  10  23  37  66  92 122 163 207 261 321 397
#
# _framework density 23.392761
#
# number of rings (size 3 to 8) (size 9 to 14) (size 15 to 20)
#    0.000    1.750    2.500    1.125    5.250    2.000 
#    0.000    0.000    0.000    0.000    0.000    0.000 
#    0.000    0.000    0.000    0.000    0.000    0.000 
#
# Total GULP energy -178573.261800 kJ/mol
# GULP energy per Si atom -5580.414431 kJ/mol
# Density = 2.333952 g / cm^3
# Si number density = 23.392761 Si / 1000 Ang^3
#
#
#
# Elastic Constant Matrix: (Units=GPa)
#
#
# Indices 1 2 3 4 5 6 
#
# 1 126.5403 7.6407 35.9398 0.0000 0.3515 0.0000
# 2 7.6407 16.6411 -7.2774 0.0000 4.8251 0.0000
# 3 35.9398 -7.2774 128.9925 0.0000 8.5881 0.0000
# 4 0.0000 0.0000 0.0000 2.1811 0.0000 14.3716
# 5 0.3515 4.8251 8.5881 0.0000 48.5717 0.0000
# 6 0.0000 0.0000 0.0000 14.3716 0.0000 2.0049
#
#
#
# Elastic Compliance Matrix: (Units=1/GPa)
#
#
# Indices 1 2 3 4 5 6 
#
# 1 0.009076 -0.005740 -0.002921 0.000000 0.001021 0.000000
# 2 -0.005740 0.067556 0.005924 0.000000 -0.007717 0.000000
# 3 -0.002921 0.005924 0.009045 0.000000 -0.002167 0.000000
# 4 0.000000 0.000000 0.000000 -0.009917 0.000000 0.071087
# 5 0.001021 -0.007717 -0.002167 0.000000 0.021730 0.000000
# 6 0.000000 0.000000 0.000000 0.071087 0.000000 -0.010789
#
#
# Mechanical properties :
#
#
# Convention : Reuss Voigt Hill
#
# Bulk Modulus (GPa) = 12.46822 38.30892 25.38857
# Shear Modulus (GPa) = 42.04881 26.27625 34.16253
#
# Velocity S-wave (km/s) = 4.24431 3.35515 3.82565
# Velocity P-wave (km/s) = 5.41852 5.60547 5.51279
#
# Compressibility (1/GPa) = 0.08020394
#
# Stress axis : x y z
#
# Youngs Moduli (GPa) = 110.18202 14.80246 110.56320
#
# Poissons Ratio (x) = 0.08497 0.32291
# Poissons Ratio (y) = 0.63249 -0.65503
# Poissons Ratio (z) = 0.32179 -0.08770
#
# Static dielectric constant tensor:
#      x y z
#    x 1.915390 0.000000 0.049870 
#    y 0.000000 1.862470 0.000000 
#    z 0.049870 0.000000 1.967360 
# 
# From -- ./inp_files/80347.got.cif
#   From: 2010.05.17/outbox.cif.g08.bks.cpg/sg13_41_cif.got.tgz:80347.got - 2010.06.03 16:44:36.
