data_PCOD9231982
_publ_section_title
;
Structure prediction by ZEFSAII (Michael W. Deem and Ramdas Pophale) SiO2 
 PCOD9231982
Probable space group: P 2/C
;
_chemical_formula_sum "Si O2"
_cell_formula_units_Z 20
_cell_length_a 8.577893
_cell_length_b 12.243778
_cell_length_c 16.890597
_cell_angle_alpha 90.000000
_cell_angle_beta 146.283920
_cell_angle_gamma 90.000000
_cell_volume 984.679739
_symmetry_space_group_name_H-M "P 2/C"
_symmetry_group_IT_number 13
_symmetry_cell_setting 'monoclinic'
loop_
_space_group_symop_operation_xyz
x,y,z
-x,y,1/2-z
-x,-y,-z
x,-y,1/2+z
loop_
_atom_site_type_symbol
_atom_site_label
_atom_site_fract_x
_atom_site_fract_y
_atom_site_fract_z
Si Si1 0.203492 0.503873 0.660538
Si Si2 0.740081 0.697575 0.697310
Si Si3 0.814519 0.147552 0.870035
Si Si4 0.781227 0.098063 0.318216
Si Si5 0.105378 0.682341 0.380643
O O1 0.500000 0.466342 0.750000
O O2 0.242406 0.622116 0.716955
O O3 0.000000 0.500000 0.500000
O O4 0.061857 0.427225 0.666503
O O5 0.765000 0.823399 0.736125
O O6 0.441310 0.672879 0.529893
O O7 0.000000 0.672315 0.750000
O O8 0.500000 0.189526 0.750000
O O9 0.006315 0.230097 0.903341
O O10 0.793694 0.032666 0.813880
O O11 0.955216 0.126509 0.014584
O O12 0.500000 0.119413 0.250000
O O13 0.000000 0.716540 0.250000
#
# Coordination Sequence:
#
# PCOD9231982 Si02
#       5
#     4   4   4   4   4
#     4  12  25  45  73  95 122 170 220 266 318 383
#     4  12  27  44  65  95 136 173 206 264 331 381
#     4  10  22  40  69  99 124 169 221 267 311 375
#     4  10  20  43  69  92 129 171 219 264 315 377
#     4  12  27  44  64  97 136 167 213 266 322 385
#
# _framework density 20.311171999999999
#
# number of rings (size 3 to 8) (size 9 to 14) (size 15 to 20)
#    0.000    0.800    4.000    3.000    5.600    2.400 
#    0.000    2.000    0.000    0.000    0.000    0.000 
#    0.000    0.000    0.000    0.000    0.000    0.000 
#
# Total GULP energy -111809.227231 kJ/mol
# GULP energy per Si atom -5590.461362 kJ/mol
# Density = 2.026494 g / cm^3
# Si number density = 20.311172 Si / 1000 Ang^3
#
#
#
# Elastic Constant Matrix: (Units=GPa)
#
#
# Indices 1 2 3 4 5 6 
#
# 1 60.9308 8.6906 28.8923 0.0000 30.3611 0.0000
# 2 8.6906 58.7612 0.7394 0.0000 7.9861 0.0000
# 3 28.8923 0.7394 135.2271 0.0000 33.0065 0.0000
# 4 0.0000 0.0000 0.0000 12.2915 0.0000 -0.2973
# 5 30.3611 7.9861 33.0065 0.0000 44.0509 0.0000
# 6 0.0000 0.0000 0.0000 -0.2973 0.0000 8.1589
#
#
#
# Elastic Compliance Matrix: (Units=1/GPa)
#
#
# Indices 1 2 3 4 5 6 
#
# 1 0.025348 -0.001545 -0.001483 0.000000 -0.016079 0.000000
# 2 -0.001545 0.017618 0.000922 0.000000 -0.002820 0.000000
# 3 -0.001483 0.000922 0.009176 0.000000 -0.006021 0.000000
# 4 0.000000 0.000000 0.000000 0.081429 0.000000 0.002967
# 5 -0.016079 -0.002820 -0.006021 0.000000 0.038806 0.000000
# 6 0.000000 0.000000 0.000000 0.002967 0.000000 0.122673
#
#
# Mechanical properties :
#
#
# Convention : Reuss Voigt Hill
#
# Bulk Modulus (GPa) = 20.86315 36.84040 28.85178
# Shear Modulus (GPa) = 15.86104 27.34005 21.60054
#
# Velocity S-wave (km/s) = 2.79749 3.67285 3.26464
# Velocity P-wave (km/s) = 4.55288 6.01363 5.33350
#
# Compressibility (1/GPa) = 0.04793141
#
# Stress axis : x y z
#
# Youngs Moduli (GPa) = 39.45153 56.75951 108.97638
#
# Poissons Ratio (x) = 0.08769 0.16157
# Poissons Ratio (y) = 0.06095 -0.10049
# Poissons Ratio (z) = 0.05849 -0.05234
#
# Static dielectric constant tensor:
#      x y z
#    x 1.568320 0.000000 -0.012570 
#    y 0.000000 1.605510 0.000000 
#    z -0.012570 0.000000 1.700170 
# 
# From -- ./inp_files/11678.got.cif
#   From: 2010.05.17/outbox.cif.g08.bks.cpg/sg13_6_cif.got.tgz:11678.got - 2010.06.03 16:44:36.
