data_PCOD9231018
_publ_section_title
;
Structure prediction by ZEFSAII (Michael W. Deem and Ramdas Pophale) SiO2 
 PCOD9231018
Probable space group: P 2/C
;
_chemical_formula_sum "Si O2"
_cell_formula_units_Z 26
_cell_length_a 13.705163
_cell_length_b 15.037767
_cell_length_c 7.262905
_cell_angle_alpha 90.000000
_cell_angle_beta 135.729073
_cell_angle_gamma 90.000000
_cell_volume 1044.878325
_symmetry_space_group_name_H-M "P 2/C"
_symmetry_group_IT_number 13
_symmetry_cell_setting 'monoclinic'
loop_
_space_group_symop_operation_xyz
x,y,z
-x,y,1/2-z
-x,-y,-z
x,-y,1/2+z
loop_
_atom_site_type_symbol
_atom_site_label
_atom_site_fract_x
_atom_site_fract_y
_atom_site_fract_z
Si Si1 0.782707 0.423661 0.355601
Si Si2 0.038162 0.740160 0.519459
Si Si3 0.612855 0.944332 0.774709
Si Si4 0.500000 0.227232 0.750000
Si Si5 0.247479 0.885115 0.878688
Si Si6 0.502200 0.373808 0.474200
Si Si7 0.189004 0.615634 0.176015
O O1 0.854871 0.344649 0.339545
O O2 0.615436 0.440236 0.100407
O O3 0.862121 0.516865 0.444550
O O4 0.787434 0.393555 0.572979
O O5 0.105640 0.829832 0.692219
O O6 0.000000 0.754246 0.250000
O O7 0.908663 0.701440 0.461221
O O8 0.500000 0.895091 0.750000
O O9 0.705165 0.884091 0.770309
O O10 0.500000 0.000000 0.500000
O O11 0.722342 0.013563 0.016807
O O12 0.371077 0.168606 0.644028
O O13 0.452895 0.285954 0.514328
O O14 0.500000 0.371684 0.250000
O O15 0.666551 0.376202 0.739258
#
# Coordination Sequence:
#
# PCOD9231018 Si02
#       7
#     4   4   4   2   4   4   4
#     4  10  20  38  62  91 131 180 239 293 338 396
#     4  10  22  42  61  92 138 186 230 282 340 427
#     4   9  18  37  65 102 130 161 217 290 369 418
#     4  12  22  38  70 102 142 172 230 298 358 412
#     4  11  21  41  66 102 135 172 228 293 361 435
#     4  10  23  40  60 102 138 183 236 294 356 398
#     4  10  22  38  62  92 134 184 233 283 355 408
#
# _framework density 24.883281
#
# number of rings (size 3 to 8) (size 9 to 14) (size 15 to 20)
#    0.000    1.846    3.846    0.923    2.154    0.615 
#    0.000    3.077    0.000    3.692    0.000    0.000 
#    0.000    0.000    0.000    0.000    0.000    0.000 
#
# Total GULP energy -145050.795951 kJ/mol
# GULP energy per Si atom -5578.876767 kJ/mol
# Density = 2.482665 g / cm^3
# Si number density = 24.883281 Si / 1000 Ang^3
#
#
#
# Elastic Constant Matrix: (Units=GPa)
#
#
# Indices 1 2 3 4 5 6 
#
# 1 89.7101 32.8923 23.6858 0.0000 15.0602 0.0000
# 2 32.8923 88.3428 24.3025 0.0000 16.8757 0.0000
# 3 23.6858 24.3025 84.4734 0.0000 17.6991 0.0000
# 4 0.0000 0.0000 0.0000 26.7098 0.0000 7.8958
# 5 15.0602 16.8757 17.6991 0.0000 37.1378 0.0000
# 6 0.0000 0.0000 0.0000 7.8958 0.0000 37.2381
#
#
#
# Elastic Compliance Matrix: (Units=1/GPa)
#
#
# Indices 1 2 3 4 5 6 
#
# 1 0.013615 -0.003971 -0.002107 0.000000 -0.002712 0.000000
# 2 -0.003971 0.014112 -0.002156 0.000000 -0.003775 0.000000
# 3 -0.002107 -0.002156 0.014070 0.000000 -0.004872 0.000000
# 4 0.000000 0.000000 0.000000 0.039943 0.000000 -0.008469
# 5 -0.002712 -0.003775 -0.004872 0.000000 0.032064 0.000000
# 6 0.000000 0.000000 0.000000 -0.008469 0.000000 0.028650
#
#
# Mechanical properties :
#
#
# Convention : Reuss Voigt Hill
#
# Bulk Modulus (GPa) = 39.47979 47.14307 43.31143
# Shear Modulus (GPa) = 29.87506 32.32684 31.10095
#
# Velocity S-wave (km/s) = 3.46874 3.60827 3.53919
# Velocity P-wave (km/s) = 5.65184 6.02879 5.84335
#
# Compressibility (1/GPa) = 0.02532942
#
# Stress axis : x y z
#
# Youngs Moduli (GPa) = 73.44991 70.86020 71.07546
#
# Poissons Ratio (x) = 0.28142 0.14973
# Poissons Ratio (y) = 0.29170 0.15321
# Poissons Ratio (z) = 0.15473 0.15274
#
# Static dielectric constant tensor:
#      x y z
#    x 2.016400 0.000000 0.015380 
#    y 0.000000 1.985110 0.000000 
#    z 0.015380 0.000000 2.106120 
# 
# From -- ./inp_files/19929.got.cif
#   From: 2010.05.17/outbox.cif.g08.bks.cpg/sg13_10_cif.got.tgz:19929.got - 2010.06.03 16:44:36.
