data_PCOD9231646
_publ_section_title
;
Structure prediction by ZEFSAII (Michael W. Deem and Ramdas Pophale) SiO2 
 PCOD9231646
Probable space group: P 2/C
;
_chemical_formula_sum "Si O2"
_cell_formula_units_Z 16
_cell_length_a 8.672012
_cell_length_b 7.556119
_cell_length_c 18.326657
_cell_angle_alpha 90.000000
_cell_angle_beta 149.218262
_cell_angle_gamma 90.000000
_cell_volume 614.576483
_symmetry_space_group_name_H-M "P 2/C"
_symmetry_group_IT_number 13
_symmetry_cell_setting 'monoclinic'
loop_
_space_group_symop_operation_xyz
x,y,z
-x,y,1/2-z
-x,-y,-z
x,-y,1/2+z
loop_
_atom_site_type_symbol
_atom_site_label
_atom_site_fract_x
_atom_site_fract_y
_atom_site_fract_z
Si Si1 0.616933 0.155679 0.623147
Si Si2 0.763812 0.333062 0.418120
Si Si3 0.082380 0.956471 0.408169
Si Si4 0.691623 0.536936 0.648859
O O1 0.720015 0.122271 0.581350
O O2 0.756034 0.340787 0.705880
O O3 0.765305 0.016980 0.739392
O O4 0.262331 0.139285 0.492528
O O5 0.500000 0.299460 0.250000
O O6 0.928153 0.163314 0.523453
O O7 0.538390 0.381159 0.390877
O O8 0.000000 0.500000 0.500000
O O9 0.500000 0.500000 0.500000
O O10 0.000000 0.626830 0.750000
#
# Coordination Sequence:
#
# PCOD9231646 Si02
#       4
#     4   4   4   4
#     4  10  20  40  67  97 129 166 242 288 332 395
#     4  12  26  45  67 101 147 185 227 286 363 423
#     4  10  21  41  65  99 131 178 224 289 345 404
#     4  12  22  42  68  99 131 180 240 288 337 409
#
# _framework density 26.034189999999999
#
# number of rings (size 3 to 8) (size 9 to 14) (size 15 to 20)
#    0.000    1.000    5.000    3.000    0.000    4.000 
#    0.000    6.250    0.000    0.000    0.000    0.000 
#    0.000    0.000    0.000    0.000    0.000    0.000 
#
# Total GULP energy -89206.108649 kJ/mol
# GULP energy per Si atom -5575.381791 kJ/mol
# Density = 2.597493 g / cm^3
# Si number density = 26.034190 Si / 1000 Ang^3
#
#
#
# Elastic Constant Matrix: (Units=GPa)
#
#
# Indices 1 2 3 4 5 6 
#
# 1 113.1860 27.5355 52.8758 0.0000 -15.9050 0.0000
# 2 27.5355 71.6291 7.6955 0.0000 -0.9764 0.0000
# 3 52.8758 7.6955 150.2216 0.0000 -21.5766 0.0000
# 4 0.0000 0.0000 0.0000 27.4512 0.0000 3.2129
# 5 -15.9050 -0.9764 -21.5766 0.0000 51.3443 0.0000
# 6 0.0000 0.0000 0.0000 3.2129 0.0000 39.3668
#
#
#
# Elastic Compliance Matrix: (Units=1/GPa)
#
#
# Indices 1 2 3 4 5 6 
#
# 1 0.011838 -0.004129 -0.003661 0.000000 0.002050 0.000000
# 2 -0.004129 0.015479 0.000552 0.000000 -0.000753 0.000000
# 3 -0.003661 0.000552 0.008254 0.000000 0.002345 0.000000
# 4 0.000000 0.000000 0.000000 0.036780 0.000000 -0.003002
# 5 0.002050 -0.000753 0.002345 0.000000 0.021083 0.000000
# 6 0.000000 0.000000 0.000000 -0.003002 0.000000 0.025647
#
#
# Mechanical properties :
#
#
# Convention : Reuss Voigt Hill
#
# Bulk Modulus (GPa) = 47.40478 56.80558 52.10518
# Shear Modulus (GPa) = 35.56525 40.09446 37.82986
#
# Velocity S-wave (km/s) = 3.70009 3.92863 3.81607
# Velocity P-wave (km/s) = 6.04172 6.51505 6.28284
#
# Compressibility (1/GPa) = 0.02109492
#
# Stress axis : x y z
#
# Youngs Moduli (GPa) = 84.47490 64.60519 121.15505
#
# Poissons Ratio (x) = 0.26678 0.44352
# Poissons Ratio (y) = 0.34883 -0.06693
# Poissons Ratio (z) = 0.30924 -0.03569
#
# Static dielectric constant tensor:
#      x y z
#    x 1.976340 0.000000 0.084770 
#    y 0.000000 2.583870 0.000000 
#    z 0.084770 0.000000 2.176330 
# 
# From -- ./inp_files/64001.got.cif
#   From: 2010.05.17/outbox.cif.g08.bks.cpg/sg13_33_cif.got.tgz:64001.got - 2010.06.03 16:44:36.
