data_PCOD9231237
_publ_section_title
;
Structure prediction by ZEFSAII (Michael W. Deem and Ramdas Pophale) SiO2 
 PCOD9231237
Probable space group: P 2/C
;
_chemical_formula_sum "Si O2"
_cell_formula_units_Z 30
_cell_length_a 15.922028
_cell_length_b 14.735422
_cell_length_c 17.556841
_cell_angle_alpha 90.000000
_cell_angle_beta 23.119308
_cell_angle_gamma 90.000000
_cell_volume 1617.371145
_symmetry_space_group_name_H-M "P 2/C"
_symmetry_group_IT_number 13
_symmetry_cell_setting 'monoclinic'
loop_
_space_group_symop_operation_xyz
x,y,z
-x,y,1/2-z
-x,-y,-z
x,-y,1/2+z
loop_
_atom_site_type_symbol
_atom_site_label
_atom_site_fract_x
_atom_site_fract_y
_atom_site_fract_z
Si Si1 0.618619 0.295662 0.572286
Si Si2 0.000000 0.561036 0.750000
Si Si3 0.523486 0.158318 0.435595
Si Si4 0.381615 0.901842 0.474407
Si Si5 0.899463 0.073912 0.765489
Si Si6 0.508808 0.353358 0.984880
Si Si7 0.794573 0.017959 0.117609
Si Si8 0.128799 0.499472 0.810117
O O1 0.500000 0.308549 0.750000
O O2 0.801087 0.370669 0.417705
O O3 0.684802 0.189773 0.512813
O O4 0.484575 0.314928 0.607223
O O5 0.010843 0.510969 0.824924
O O6 0.615594 0.122910 0.438645
O O7 0.278720 0.126273 0.633392
O O8 0.526280 0.266324 0.432568
O O9 0.660387 0.104224 0.259441
O O10 0.224234 0.986374 0.597989
O O11 0.622385 0.936581 0.255383
O O12 0.000000 0.131006 0.750000
O O13 0.095370 0.041120 0.552449
O O14 0.304459 0.419164 0.165699
O O15 0.725432 0.409195 0.816890
O O16 0.000000 0.000000 0.000000
O O17 0.000000 0.500000 0.000000
#
# Coordination Sequence:
#
# PCOD9231237 Si02
#       8
#     4   2   4   4   4   4   4   4
#     4  10  21  35  55  89 124 149 181 239 295 350
#     4  10  22  38  60  92 118 144 196 240 290 372
#     4  10  20  39  56  81 112 149 199 237 280 344
#     4  10  21  34  53  83 113 152 192 232 283 346
#     4  11  23  35  54  79 115 150 194 245 278 324
#     4   9  21  39  60  86 120 147 193 245 285 359
#     4  11  19  36  59  76 107 162 197 225 284 338
#     4  10  20  40  66  89 116 157 189 237 311 364
#
# _framework density 18.548618999999999
#
# number of rings (size 3 to 8) (size 9 to 14) (size 15 to 20)
#    0.000    1.867    2.667    1.600    2.800    2.667 
#    3.600    0.000    2.933    0.000    0.000    0.000 
#    0.000    0.000    0.000    0.000    0.000    0.000 
#
# Total GULP energy -167097.049067 kJ/mol
# GULP energy per Si atom -5569.901636 kJ/mol
# Density = 1.850640 g / cm^3
# Si number density = 18.548619 Si / 1000 Ang^3
#
#
#
# Elastic Constant Matrix: (Units=GPa)
#
#
# Indices 1 2 3 4 5 6 
#
# 1 78.1974 28.1481 28.7394 0.0000 14.0854 0.0000
# 2 28.1481 92.2414 19.8465 0.0000 -3.9051 0.0000
# 3 28.7394 19.8465 91.2106 0.0000 13.1285 0.0000
# 4 0.0000 0.0000 0.0000 13.6504 0.0000 -3.2676
# 5 14.0854 -3.9051 13.1285 0.0000 22.0966 0.0000
# 6 0.0000 0.0000 0.0000 -3.2676 0.0000 37.9164
#
#
#
# Elastic Compliance Matrix: (Units=1/GPa)
#
#
# Indices 1 2 3 4 5 6 
#
# 1 0.017601 -0.005183 -0.002921 0.000000 -0.010400 0.000000
# 2 -0.005183 0.013200 -0.002242 0.000000 0.006969 0.000000
# 3 -0.002921 -0.002242 0.013298 0.000000 -0.006435 0.000000
# 4 0.000000 0.000000 0.000000 0.074801 0.000000 0.006446
# 5 -0.010400 0.006969 -0.006435 0.000000 0.056940 0.000000
# 6 0.000000 0.000000 0.000000 0.006446 0.000000 0.026929
#
#
# Mechanical properties :
#
#
# Convention : Reuss Voigt Hill
#
# Bulk Modulus (GPa) = 42.72277 46.12415 44.42346
# Shear Modulus (GPa) = 21.62032 27.06037 24.34035
#
# Velocity S-wave (km/s) = 3.41780 3.82368 3.62642
# Velocity P-wave (km/s) = 6.21755 6.66443 6.44487
#
# Compressibility (1/GPa) = 0.02340672
#
# Stress axis : x y z
#
# Youngs Moduli (GPa) = 56.81630 75.75680 75.19805
#
# Poissons Ratio (x) = 0.39263 0.21966
# Poissons Ratio (y) = 0.29446 0.16861
# Poissons Ratio (z) = 0.16597 0.16987
#
# Static dielectric constant tensor:
#      x y z
#    x 1.298650 0.000000 0.166620 
#    y 0.000000 1.639420 0.000000 
#    z 0.166620 0.000000 1.573760 
# 
# From -- ./inp_files/70044.got.cif
#   From: 2010.05.17/outbox.cif.g08.bks.cpg/sg13_36_cif.got.tgz:70044.got - 2010.06.03 16:44:36.
