data_PCOD9231575
_publ_section_title
;
Structure prediction by ZEFSAII (Michael W. Deem and Ramdas Pophale) SiO2 
 PCOD9231575
Probable space group: P 2/C
;
_chemical_formula_sum "Si O2"
_cell_formula_units_Z 24
_cell_length_a 14.613319
_cell_length_b 8.398013
_cell_length_c 17.808467
_cell_angle_alpha 90.000000
_cell_angle_beta 30.723041
_cell_angle_gamma 90.000000
_cell_volume 1116.550075
_symmetry_space_group_name_H-M "P 2/C"
_symmetry_group_IT_number 13
_symmetry_cell_setting 'monoclinic'
loop_
_space_group_symop_operation_xyz
x,y,z
-x,y,1/2-z
-x,-y,-z
x,-y,1/2+z
loop_
_atom_site_type_symbol
_atom_site_label
_atom_site_fract_x
_atom_site_fract_y
_atom_site_fract_z
Si Si1 0.693923 0.700273 0.226830
Si Si2 0.860112 0.103533 0.994778
Si Si3 0.408154 0.392843 0.128907
Si Si4 0.937055 0.216468 0.102697
Si Si5 0.652172 0.124245 0.915996
Si Si6 0.000000 0.137807 0.750000
Si Si7 0.500000 0.076923 0.750000
O O1 0.626309 0.521116 0.282576
O O2 0.713872 0.784169 0.295270
O O3 0.558136 0.811365 0.277634
O O4 0.879655 0.696971 0.050021
O O5 0.847943 0.179934 0.084943
O O6 0.669095 0.029972 0.111121
O O7 0.929323 0.213231 0.877667
O O8 0.994252 0.950606 0.911071
O O9 0.214635 0.313685 0.245859
O O10 0.500000 0.500000 0.000000
O O11 0.548931 0.252181 0.040536
O O12 0.819018 0.056562 0.845716
O O13 0.500000 0.000000 0.000000
#
# Coordination Sequence:
#
# PCOD9231575 Si02
#       7
#     4   4   4   4   4   2   2
#     4  10  21  43  60  90 131 170 217 266 339 403
#     4  10  22  36  63  97 125 162 220 276 330 388
#     4  10  23  40  64  91 125 177 216 267 345 400
#     4  10  20  40  64  90 126 170 217 274 332 393
#     4  11  23  40  66  94 132 171 221 285 334 402
#     4  12  22  38  58 102 128 166 216 280 338 392
#     4  10  22  38  62  92 128 168 220 260 330 406
#
# _framework density 21.494783000000002
#
# number of rings (size 3 to 8) (size 9 to 14) (size 15 to 20)
#    0.000    1.667    1.667    2.500    7.000    1.333 
#    3.000    3.333    0.000    5.000    0.000    0.000 
#    0.000    0.000    0.000    0.000    0.000    0.000 
#
# Total GULP energy -133698.576897 kJ/mol
# GULP energy per Si atom -5570.774037 kJ/mol
# Density = 2.144586 g / cm^3
# Si number density = 21.494783 Si / 1000 Ang^3
#
#
#
# Elastic Constant Matrix: (Units=GPa)
#
#
# Indices 1 2 3 4 5 6 
#
# 1 110.2953 16.9491 39.2958 0.0000 -24.7441 0.0000
# 2 16.9491 69.8492 40.8599 0.0000 -5.8422 0.0000
# 3 39.2958 40.8599 105.1444 0.0000 -7.9365 0.0000
# 4 0.0000 0.0000 0.0000 17.7124 0.0000 6.9859
# 5 -24.7441 -5.8422 -7.9365 0.0000 38.3046 0.0000
# 6 0.0000 0.0000 0.0000 6.9859 0.0000 14.5920
#
#
#
# Elastic Compliance Matrix: (Units=1/GPa)
#
#
# Indices 1 2 3 4 5 6 
#
# 1 0.012044 -0.000019 -0.003969 0.000000 0.006955 0.000000
# 2 -0.000019 0.018598 -0.007118 0.000000 0.001349 0.000000
# 3 -0.003969 -0.007118 0.013699 0.000000 -0.000811 0.000000
# 4 0.000000 0.000000 0.000000 0.069600 0.000000 -0.033321
# 5 0.006955 0.001349 -0.000811 0.000000 0.030637 0.000000
# 6 0.000000 0.000000 0.000000 -0.033321 0.000000 0.084483
#
#
# Mechanical properties :
#
#
# Convention : Reuss Voigt Hill
#
# Bulk Modulus (GPa) = 45.19081 53.27761 49.23421
# Shear Modulus (GPa) = 19.33119 26.66741 22.99930
#
# Velocity S-wave (km/s) = 3.00216 3.52610 3.27463
# Velocity P-wave (km/s) = 5.75213 6.43568 6.10348
#
# Compressibility (1/GPa) = 0.02212839
#
# Stress axis : x y z
#
# Youngs Moduli (GPa) = 83.03057 53.76894 72.99802
#
# Poissons Ratio (x) = 0.00103 0.28971
# Poissons Ratio (y) = 0.00159 0.51963
# Poissons Ratio (z) = 0.32953 0.38275
#
# Static dielectric constant tensor:
#      x y z
#    x 1.793890 0.000000 0.035650 
#    y 0.000000 1.795760 0.000000 
#    z 0.035650 0.000000 1.899760 
# 
# From -- ./inp_files/53236.got.cif
#   From: 2010.05.17/outbox.cif.g08.bks.cpg/sg13_27_cif.got.tgz:53236.got - 2010.06.03 16:44:36.
