data_PCOD9231592
_publ_section_title
;
Structure prediction by ZEFSAII (Michael W. Deem and Ramdas Pophale) SiO2 
 PCOD9231592
Probable space group: P 2/C
;
_chemical_formula_sum "Si O2"
_cell_formula_units_Z 28
_cell_length_a 11.044143
_cell_length_b 6.497258
_cell_length_c 19.025377
_cell_angle_alpha 90.000000
_cell_angle_beta 110.570623
_cell_angle_gamma 90.000000
_cell_volume 1278.152016
_symmetry_space_group_name_H-M "P 2/C"
_symmetry_group_IT_number 13
_symmetry_cell_setting 'monoclinic'
loop_
_space_group_symop_operation_xyz
x,y,z
-x,y,1/2-z
-x,-y,-z
x,-y,1/2+z
loop_
_atom_site_type_symbol
_atom_site_label
_atom_site_fract_x
_atom_site_fract_y
_atom_site_fract_z
Si Si1 0.313394 0.542150 0.796764
Si Si2 0.461070 0.836578 0.916115
Si Si3 0.925302 0.047399 0.056955
Si Si4 0.221994 0.836942 0.357984
Si Si5 0.631502 0.802229 0.305421
Si Si6 0.849988 0.084371 0.291161
Si Si7 0.651377 0.814882 0.464750
O O1 0.431923 0.676410 0.849626
O O2 0.260651 0.393705 0.847260
O O3 0.347150 0.388931 0.741290
O O4 0.207136 0.704068 0.749585
O O5 0.350750 0.017633 0.887036
O O6 0.597643 0.950037 0.943696
O O7 0.430184 0.738102 0.985576
O O8 0.025527 0.127172 0.135873
O O9 0.857645 0.860462 0.086457
O O10 0.802290 0.189540 0.013785
O O11 0.000000 0.000000 0.000000
O O12 0.143558 0.934122 0.275716
O O13 0.500000 0.904226 0.250000
O O14 0.623055 0.724551 0.383076
O O15 0.747179 0.963969 0.319627
#
# Coordination Sequence:
#
# PCOD9231592 Si02
#       7
#     4   4   4   4   4   4   4
#     4  10  21  40  66  98 121 158 220 264 314 376
#     4   9  20  41  66  94 123 164 209 260 326 372
#     4  11  21  40  63  91 126 172 210 248 311 378
#     4   9  20  40  68  90 124 164 209 264 312 371
#     4  11  22  39  62  92 127 161 206 267 320 372
#     4  10  21  41  64  90 125 168 212 254 313 378
#     4  10  20  40  65  89 129 167 205 260 314 376
#
# _framework density 21.906627
#
# number of rings (size 3 to 8) (size 9 to 14) (size 15 to 20)
#    0.000    2.000    1.429    3.000    0.000    1.714 
#    2.571   27.857    0.000    0.000    0.000    0.000 
#    0.000    0.000    0.000    0.000    0.000    0.000 
#
# Total GULP energy -156356.458519 kJ/mol
# GULP energy per Si atom -5584.159233 kJ/mol
# Density = 2.185677 g / cm^3
# Si number density = 21.906627 Si / 1000 Ang^3
#
#
#
# Elastic Constant Matrix: (Units=GPa)
#
#
# Indices 1 2 3 4 5 6 
#
# 1 76.1907 24.1882 30.8628 0.0000 13.8429 0.0000
# 2 24.1882 83.4469 25.7222 0.0000 -3.0599 0.0000
# 3 30.8628 25.7222 130.4182 0.0000 17.7551 0.0000
# 4 0.0000 0.0000 0.0000 0.2426 0.0000 4.7024
# 5 13.8429 -3.0599 17.7551 0.0000 39.5265 0.0000
# 6 0.0000 0.0000 0.0000 4.7024 0.0000 6.4522
#
#
#
# Elastic Compliance Matrix: (Units=1/GPa)
#
#
# Indices 1 2 3 4 5 6 
#
# 1 0.016313 -0.004184 -0.002357 0.000000 -0.004978 0.000000
# 2 -0.004184 0.014024 -0.002261 0.000000 0.003567 0.000000
# 3 -0.002357 -0.002261 0.009142 0.000000 -0.003456 0.000000
# 4 0.000000 0.000000 0.000000 -0.314021 0.000000 0.228859
# 5 -0.004978 0.003567 -0.003456 0.000000 0.028871 0.000000
# 6 0.000000 0.000000 0.000000 0.228859 0.000000 -0.011807
#
#
# Mechanical properties :
#
#
# Convention : Reuss Voigt Hill
#
# Bulk Modulus (GPa) = 45.71860 50.17802 47.94831
# Shear Modulus (GPa) = -21.49801 23.19644 0.84921
#
# Velocity S-wave (km/s) = -3.13604 3.25757 0.62329
# Velocity P-wave (km/s) = 2.79321 6.09132 4.73847
#
# Compressibility (1/GPa) = 0.02187293
#
# Stress axis : x y z
#
# Youngs Moduli (GPa) = 61.30192 71.30422 109.38523
#
# Poissons Ratio (x) = 0.29836 0.25786
# Poissons Ratio (y) = 0.25651 0.24736
# Poissons Ratio (z) = 0.14451 0.16125
#
# Static dielectric constant tensor:
#      x y z
#    x 1.864470 0.000000 -0.006070 
#    y 0.000000 1.779260 0.000000 
#    z -0.006070 0.000000 1.846640 
# 
# From -- ./inp_files/77539.got.cif
#   From: 2010.05.17/outbox.cif.g08.bks.cpg/sg13_39_cif.got.tgz:77539.got - 2010.06.03 16:44:36.
