data_PCOD9231146
_publ_section_title
;
Structure prediction by ZEFSAII (Michael W. Deem and Ramdas Pophale) SiO2 
 PCOD9231146
Probable space group: P 2/C
;
_chemical_formula_sum "Si O2"
_cell_formula_units_Z 20
_cell_length_a 11.479468
_cell_length_b 5.385829
_cell_length_c 18.551306
_cell_angle_alpha 90.000000
_cell_angle_beta 135.682819
_cell_angle_gamma 90.000000
_cell_volume 801.301505
_symmetry_space_group_name_H-M "P 2/C"
_symmetry_group_IT_number 13
_symmetry_cell_setting 'monoclinic'
loop_
_space_group_symop_operation_xyz
x,y,z
-x,y,1/2-z
-x,-y,-z
x,-y,1/2+z
loop_
_atom_site_type_symbol
_atom_site_label
_atom_site_fract_x
_atom_site_fract_y
_atom_site_fract_z
Si Si1 0.833872 0.205560 0.339107
Si Si2 0.629079 0.107645 0.456454
Si Si3 0.000000 0.604892 0.250000
Si Si4 0.697025 0.260377 0.119923
Si Si5 0.006416 0.284122 0.909206
Si Si6 0.500000 0.894941 0.750000
O O1 0.794154 0.188445 0.236557
O O2 0.957236 0.434952 0.406741
O O3 0.659238 0.265369 0.298971
O O4 0.899416 0.939922 0.395343
O O5 0.490856 0.292178 0.431266
O O6 0.546144 0.979753 0.347994
O O7 0.798138 0.229241 0.502375
O O8 0.676778 0.925578 0.543597
O O9 0.171570 0.465721 0.347592
O O10 0.042478 0.742727 0.196490
#
# Coordination Sequence:
#
# PCOD9231146 Si02
#       6
#     4   4   2   4   4   2
#     4  10  23  43  66  97 128 168 216 271 326 388
#     4  10  20  38  65  97 134 175 219 268 323 387
#     4  10  20  38  66  98 132 166 216 276 330 386
#     4   9  19  38  65  97 131 168 217 270 326 382
#     4  11  22  39  67  95 129 168 216 268 327 383
#     4  10  24  44  64  94 136 178 220 266 322 390
#
# _framework density 24.959392999999999
#
# number of rings (size 3 to 8) (size 9 to 14) (size 15 to 20)
#    0.000    2.000    0.000    3.600    0.000    4.000 
#    0.000   24.000    0.000    0.000    0.000    0.000 
#    0.000    0.000    0.000    0.000    0.000    0.000 
#
# Total GULP energy -111479.060258 kJ/mol
# GULP energy per Si atom -5573.953013 kJ/mol
# Density = 2.490258 g / cm^3
# Si number density = 24.959393 Si / 1000 Ang^3
#
#
#
# Elastic Constant Matrix: (Units=GPa)
#
#
# Indices 1 2 3 4 5 6 
#
# 1 106.0708 50.1093 40.5014 0.0000 19.1033 0.0000
# 2 50.1093 71.6778 45.8986 0.0000 30.4225 0.0000
# 3 40.5014 45.8986 153.5531 0.0000 -17.1799 0.0000
# 4 0.0000 0.0000 0.0000 30.8891 0.0000 -9.3810
# 5 19.1033 30.4225 -17.1799 0.0000 85.4328 0.0000
# 6 0.0000 0.0000 0.0000 -9.3810 0.0000 11.8219
#
#
#
# Elastic Compliance Matrix: (Units=1/GPa)
#
#
# Indices 1 2 3 4 5 6 
#
# 1 0.014191 -0.009260 -0.000983 0.000000 -0.000074 0.000000
# 2 -0.009260 0.029397 -0.007452 0.000000 -0.009896 0.000000
# 3 -0.000983 -0.007452 0.009535 0.000000 0.004791 0.000000
# 4 0.000000 0.000000 0.000000 0.042653 0.000000 0.033846
# 5 -0.000074 -0.009896 0.004791 0.000000 0.016209 0.000000
# 6 0.000000 0.000000 0.000000 0.033846 0.000000 0.111446
#
#
# Mechanical properties :
#
#
# Convention : Reuss Voigt Hill
#
# Bulk Modulus (GPa) = 56.39250 67.14668 61.76959
# Shear Modulus (GPa) = 18.88704 38.61492 28.75098
#
# Velocity S-wave (km/s) = 2.75382 3.93760 3.39766
# Velocity P-wave (km/s) = 5.72312 6.90172 6.33987
#
# Compressibility (1/GPa) = 0.01773285
#
# Stress axis : x y z
#
# Youngs Moduli (GPa) = 70.46799 34.01744 104.87434
#
# Poissons Ratio (x) = 0.31499 0.10313
# Poissons Ratio (y) = 0.65252 0.78150
# Poissons Ratio (z) = 0.06930 0.25349
#
# Static dielectric constant tensor:
#      x y z
#    x 1.994790 0.000000 -0.100080 
#    y 0.000000 1.990500 0.000000 
#    z -0.100080 0.000000 2.153300 
# 
# From -- ./inp_files/77126.got.cif
#   From: 2010.05.17/outbox.cif.g08.bks.cpg/sg13_39_cif.got.tgz:77126.got - 2010.06.03 16:44:36.
