data_PCOD9231727
_publ_section_title
;
Structure prediction by ZEFSAII (Michael W. Deem and Ramdas Pophale) SiO2 
 PCOD9231727
Probable space group: P 2/C
;
_chemical_formula_sum "Si O2"
_cell_formula_units_Z 28
_cell_length_a 9.260630
_cell_length_b 14.587561
_cell_length_c 10.865567
_cell_angle_alpha 90.000000
_cell_angle_beta 71.021784
_cell_angle_gamma 90.000000
_cell_volume 1388.041649
_symmetry_space_group_name_H-M "P 2/C"
_symmetry_group_IT_number 13
_symmetry_cell_setting 'monoclinic'
loop_
_space_group_symop_operation_xyz
x,y,z
-x,y,1/2-z
-x,-y,-z
x,-y,1/2+z
loop_
_atom_site_type_symbol
_atom_site_label
_atom_site_fract_x
_atom_site_fract_y
_atom_site_fract_z
Si Si1 0.839843 0.764737 0.993993
Si Si2 0.813325 0.428692 0.802145
Si Si3 0.431972 0.139287 0.017860
Si Si4 0.377570 0.976468 0.866286
Si Si5 0.160194 0.450804 0.978269
Si Si6 0.949831 0.067857 0.124552
Si Si7 0.355052 0.746011 0.214806
O O1 0.704501 0.788518 0.935787
O O2 0.868855 0.656493 0.986268
O O3 0.762262 0.784785 0.149744
O O4 0.979700 0.832162 0.926843
O O5 0.762953 0.457445 0.677703
O O6 0.735670 0.329617 0.837855
O O7 0.000000 0.420281 0.750000
O O8 0.769495 0.498118 0.923253
O O9 0.563085 0.180858 0.894013
O O10 0.349291 0.048263 0.984496
O O11 0.524799 0.107104 0.108574
O O12 0.500000 0.029254 0.750000
O O13 0.231802 0.941613 0.835324
O O14 0.000000 0.500000 0.000000
O O15 0.000000 0.043326 0.250000
O O16 0.000000 0.000000 0.000000
O O17 0.500000 0.704573 0.250000
#
# Coordination Sequence:
#
# PCOD9231727 Si02
#       7
#     4   4   4   4   4   4   4
#     4  10  20  41  62  89 126 167 209 260 311 374
#     4   9  18  35  57  86 116 154 205 251 303 369
#     4  10  21  38  62  86 120 170 208 256 318 375
#     4  11  23  39  62  86 123 166 209 256 318 378
#     4   9  19  35  61  87 122 161 203 257 317 368
#     4  12  27  43  65  96 129 163 215 265 312 373
#     4   9  19  36  62  88 122 161 206 252 312 370
#
# _framework density 20.172305999999999
#
# number of rings (size 3 to 8) (size 9 to 14) (size 15 to 20)
#    0.000    2.000    1.429    2.143    2.000    5.143 
#    0.000   10.000    0.000    0.000    0.000    0.000 
#    0.000    0.000    0.000    0.000    0.000    0.000 
#
# Total GULP energy -156004.934592 kJ/mol
# GULP energy per Si atom -5571.604807 kJ/mol
# Density = 2.012639 g / cm^3
# Si number density = 20.172306 Si / 1000 Ang^3
#
#
#
# Elastic Constant Matrix: (Units=GPa)
#
#
# Indices 1 2 3 4 5 6 
#
# 1 114.6722 47.8418 54.4885 0.0000 13.6378 0.0000
# 2 47.8418 93.4563 58.3272 0.0000 19.3948 0.0000
# 3 54.4885 58.3272 89.7846 0.0000 19.0115 0.0000
# 4 0.0000 0.0000 0.0000 22.6368 0.0000 5.4422
# 5 13.6378 19.3948 19.0115 0.0000 33.7105 0.0000
# 6 0.0000 0.0000 0.0000 5.4422 0.0000 43.5445
#
#
#
# Elastic Compliance Matrix: (Units=1/GPa)
#
#
# Indices 1 2 3 4 5 6 
#
# 1 0.012689 -0.002813 -0.005825 0.000000 -0.000230 0.000000
# 2 -0.002813 0.019179 -0.009831 0.000000 -0.004352 0.000000
# 3 -0.005825 -0.009831 0.021988 0.000000 -0.004388 0.000000
# 4 0.000000 0.000000 0.000000 0.045544 0.000000 -0.005692
# 5 -0.000230 -0.004352 -0.004388 0.000000 0.034736 0.000000
# 6 0.000000 0.000000 0.000000 -0.005692 0.000000 0.023676
#
#
# Mechanical properties :
#
#
# Convention : Reuss Voigt Hill
#
# Bulk Modulus (GPa) = 59.10236 68.80314 63.95275
# Shear Modulus (GPa) = 24.95145 29.12872 27.04009
#
# Velocity S-wave (km/s) = 3.52080 3.80412 3.66520
# Velocity P-wave (km/s) = 6.77424 7.31279 7.04866
#
# Compressibility (1/GPa) = 0.01691980
#
# Stress axis : x y z
#
# Youngs Moduli (GPa) = 78.80771 52.14133 45.47882
#
# Poissons Ratio (x) = 0.14665 0.26491
# Poissons Ratio (y) = 0.22166 0.44709
# Poissons Ratio (z) = 0.45904 0.51258
#
# Static dielectric constant tensor:
#      x y z
#    x 1.730140 0.000000 -0.012000 
#    y 0.000000 1.710430 0.000000 
#    z -0.012000 0.000000 1.872510 
# 
# From -- ./inp_files/30078.got.cif
#   From: 2010.05.17/outbox.cif.g08.bks.cpg/sg13_16_cif.got.tgz:30078.got - 2010.06.03 16:44:36.
