data_PCOD9231994
_publ_section_title
;
Structure prediction by ZEFSAII (Michael W. Deem and Ramdas Pophale) SiO2 
 PCOD9231994
Probable space group: P 2/C
;
_chemical_formula_sum "Si O2"
_cell_formula_units_Z 26
_cell_length_a 12.208250
_cell_length_b 14.105874
_cell_length_c 14.813928
_cell_angle_alpha 90.000000
_cell_angle_beta 30.522553
_cell_angle_gamma 90.000000
_cell_volume 1295.634791
_symmetry_space_group_name_H-M "P 2/C"
_symmetry_group_IT_number 13
_symmetry_cell_setting 'monoclinic'
loop_
_space_group_symop_operation_xyz
x,y,z
-x,y,1/2-z
-x,-y,-z
x,-y,1/2+z
loop_
_atom_site_type_symbol
_atom_site_label
_atom_site_fract_x
_atom_site_fract_y
_atom_site_fract_z
Si Si1 0.874349 0.214499 0.196068
Si Si2 0.075303 0.719695 0.288984
Si Si3 0.500000 0.338547 0.750000
Si Si4 0.057759 0.604753 0.490756
Si Si5 0.753904 0.130156 0.090460
Si Si6 0.531192 0.205514 0.905016
Si Si7 0.738893 0.085249 0.620244
O O1 0.781613 0.174806 0.168866
O O2 0.706072 0.184447 0.391272
O O3 0.907900 0.327684 0.160390
O O4 0.105386 0.162284 0.035993
O O5 0.061415 0.661970 0.392846
O O6 0.326398 0.749909 0.115123
O O7 0.000000 0.669912 0.250000
O O8 0.907909 0.807643 0.417169
O O9 0.716472 0.397404 0.614994
O O10 0.499525 0.274520 0.841169
O O11 0.000000 0.500000 0.500000
O O12 0.500000 0.133757 0.250000
O O13 0.824388 0.020386 0.046441
O O14 0.685147 0.120934 0.759547
O O15 0.500000 0.085259 0.750000
#
# Coordination Sequence:
#
# PCOD9231994 Si02
#       7
#     4   4   2   4   4   4   4
#     4  11  22  39  65  87 124 168 210 254 328 371
#     4  10  21  42  62  89 135 164 206 268 318 380
#     4  10  20  44  62  88 130 154 202 268 306 362
#     4  10  22  44  66  94 125 164 209 267 321 380
#     4  10  21  38  59  90 128 169 214 255 311 382
#     4  11  21  39  66  89 126 169 206 262 319 368
#     4  11  21  39  59  90 129 166 213 267 305 371
#
# _framework density 20.067384000000001
#
# number of rings (size 3 to 8) (size 9 to 14) (size 15 to 20)
#    0.000    1.538    5.385    1.385    0.000    3.077 
#   16.615    1.538    0.000    0.000    0.000    0.000 
#    0.000    0.000    0.000    0.000    0.000    0.000 
#
# Total GULP energy -144830.694316 kJ/mol
# GULP energy per Si atom -5570.411320 kJ/mol
# Density = 2.002171 g / cm^3
# Si number density = 20.067384 Si / 1000 Ang^3
#
#
#
# Elastic Constant Matrix: (Units=GPa)
#
#
# Indices 1 2 3 4 5 6 
#
# 1 120.9318 6.5267 12.4199 0.0000 -25.3499 0.0000
# 2 6.5267 106.4636 25.4718 0.0000 -18.7369 0.0000
# 3 12.4199 25.4718 111.1751 0.0000 -8.7049 0.0000
# 4 0.0000 0.0000 0.0000 9.3868 0.0000 -4.9064
# 5 -25.3499 -18.7369 -8.7049 0.0000 31.9955 0.0000
# 6 0.0000 0.0000 0.0000 -4.9064 0.0000 7.7901
#
#
#
# Elastic Compliance Matrix: (Units=1/GPa)
#
#
# Indices 1 2 3 4 5 6 
#
# 1 0.010039 0.001024 -0.000701 0.000000 0.008363 0.000000
# 2 0.001024 0.011012 -0.002114 0.000000 0.006685 0.000000
# 3 -0.000701 -0.002114 0.009622 0.000000 0.000824 0.000000
# 4 0.000000 0.000000 0.000000 0.158815 0.000000 0.100025
# 5 0.008363 0.006685 0.000824 0.000000 0.042019 0.000000
# 6 0.000000 0.000000 0.000000 0.100025 0.000000 0.191367
#
#
# Mechanical properties :
#
#
# Convention : Reuss Voigt Hill
#
# Bulk Modulus (GPa) = 36.91278 47.48970 42.20124
# Shear Modulus (GPa) = 11.48139 29.44460 20.46300
#
# Velocity S-wave (km/s) = 2.39454 3.83467 3.19676
# Velocity P-wave (km/s) = 5.10681 6.58200 5.89077
#
# Compressibility (1/GPa) = 0.02709089
#
# Stress axis : x y z
#
# Youngs Moduli (GPa) = 99.61261 90.80616 103.92782
#
# Poissons Ratio (x) = -0.09300 0.07289
# Poissons Ratio (y) = -0.10202 0.21971
# Poissons Ratio (z) = 0.06986 0.19197
#
# Static dielectric constant tensor:
#      x y z
#    x 1.785070 0.000000 0.001280 
#    y 0.000000 1.745160 0.000000 
#    z 0.001280 0.000000 1.740510 
# 
# From -- ./inp_files/51406.got.cif
#   From: 2010.05.17/outbox.cif.g08.bks.cpg/sg13_26_cif.got.tgz:51406.got - 2010.06.03 16:44:36.
