data_PCOD9231337
_publ_section_title
;
Structure prediction by ZEFSAII (Michael W. Deem and Ramdas Pophale) SiO2 
 PCOD9231337
Probable space group: P 2/C
;
_chemical_formula_sum "Si O2"
_cell_formula_units_Z 18
_cell_length_a 11.989544
_cell_length_b 13.119090
_cell_length_c 5.085380
_cell_angle_alpha 90.000000
_cell_angle_beta 62.839797
_cell_angle_gamma 90.000000
_cell_volume 711.688267
_symmetry_space_group_name_H-M "P 2/C"
_symmetry_group_IT_number 13
_symmetry_cell_setting 'monoclinic'
loop_
_space_group_symop_operation_xyz
x,y,z
-x,y,1/2-z
-x,-y,-z
x,-y,1/2+z
loop_
_atom_site_type_symbol
_atom_site_label
_atom_site_fract_x
_atom_site_fract_y
_atom_site_fract_z
Si Si1 0.231672 0.566958 0.980625
Si Si2 0.639110 0.953694 0.795062
Si Si3 0.380764 0.729036 0.562705
Si Si4 0.112675 0.746156 0.835919
Si Si5 0.000000 0.074137 0.750000
O O1 0.226363 0.473444 0.780625
O O2 0.355737 0.632824 0.776612
O O3 0.124299 0.645487 0.004046
O O4 0.704530 0.015770 0.495598
O O5 0.617730 0.834835 0.780829
O O6 0.500000 0.000000 0.000000
O O7 0.500000 0.720358 0.250000
O O8 0.248695 0.742303 0.547365
O O9 0.000000 0.747974 0.750000
O O10 0.103957 0.842307 0.042586
O O11 0.000000 0.000000 0.500000
#
# Coordination Sequence:
#
# PCOD9231337 Si02
#       5
#     4   4   4   4   2
#     4  10  26  48  75 111 150 202 254 325 389 445
#     4  10  20  39  64 101 135 185 236 291 365 431
#     4  10  23  46  75 111 151 196 256 318 374 466
#     4  10  26  48  78 113 152 198 266 307 384 461
#     4  12  26  50  78 114 160 204 244 314 394 458
#
# _framework density 25.291971
#
# number of rings (size 3 to 8) (size 9 to 14) (size 15 to 20)
#    1.333    0.444    3.333    0.000    3.111    5.333 
#    4.000    0.000    0.000    0.000    0.000    0.000 
#    0.000    0.000    0.000    0.000    0.000    0.000 
#
# Total GULP energy -100473.492423 kJ/mol
# GULP energy per Si atom -5581.860690 kJ/mol
# Density = 2.523441 g / cm^3
# Si number density = 25.291971 Si / 1000 Ang^3
#
#
#
# Elastic Constant Matrix: (Units=GPa)
#
#
# Indices 1 2 3 4 5 6 
#
# 1 124.5971 17.0460 36.3924 0.0000 -30.9437 0.0000
# 2 17.0460 169.0099 31.4987 0.0000 2.7084 0.0000
# 3 36.3924 31.4987 132.7403 0.0000 -5.0385 0.0000
# 4 0.0000 0.0000 0.0000 38.0347 0.0000 -4.3388
# 5 -30.9437 2.7084 -5.0385 0.0000 49.2148 0.0000
# 6 0.0000 0.0000 0.0000 -4.3388 0.0000 34.3622
#
#
#
# Elastic Compliance Matrix: (Units=1/GPa)
#
#
# Indices 1 2 3 4 5 6 
#
# 1 0.010409 -0.000695 -0.002448 0.000000 0.006332 0.000000
# 2 -0.000695 0.006249 -0.001327 0.000000 -0.000917 0.000000
# 3 -0.002448 -0.001327 0.008497 0.000000 -0.000596 0.000000
# 4 0.000000 0.000000 0.000000 0.026676 0.000000 0.003368
# 5 0.006332 -0.000917 -0.000596 0.000000 0.024290 0.000000
# 6 0.000000 0.000000 0.000000 0.003368 0.000000 0.029527
#
#
# Mechanical properties :
#
#
# Convention : Reuss Voigt Hill
#
# Bulk Modulus (GPa) = 61.67630 66.24684 63.96157
# Shear Modulus (GPa) = 41.66914 47.08301 44.37607
#
# Velocity S-wave (km/s) = 4.06337 4.31928 4.19328
# Velocity P-wave (km/s) = 6.81567 7.15015 6.98491
#
# Compressibility (1/GPa) = 0.01621368
#
# Stress axis : x y z
#
# Youngs Moduli (GPa) = 96.07409 160.02741 117.68794
#
# Poissons Ratio (x) = 0.11121 0.28815
# Poissons Ratio (y) = 0.06677 0.15619
# Poissons Ratio (z) = 0.23523 0.21237
#
# Static dielectric constant tensor:
#      x y z
#    x 2.090740 0.000000 -0.072430 
#    y 0.000000 1.998410 0.000000 
#    z -0.072430 0.000000 2.128260 
# 
# From -- ./inp_files/3026.got.cif
#   From: 2010.05.17/outbox.cif.g08.bks.cpg/sg13_2_cif.got.tgz:3026.got - 2010.06.03 16:44:36.
