data_PCOD9231256
_publ_section_title
;
Structure prediction by ZEFSAII (Michael W. Deem and Ramdas Pophale) SiO2 
 PCOD9231256
Probable space group: P 2/C
;
_chemical_formula_sum "Si O2"
_cell_formula_units_Z 26
_cell_length_a 16.616705
_cell_length_b 5.604294
_cell_length_c 12.889545
_cell_angle_alpha 90.000000
_cell_angle_beta 101.597095
_cell_angle_gamma 90.000000
_cell_volume 1175.833231
_symmetry_space_group_name_H-M "P 2/C"
_symmetry_group_IT_number 13
_symmetry_cell_setting 'monoclinic'
loop_
_space_group_symop_operation_xyz
x,y,z
-x,y,1/2-z
-x,-y,-z
x,-y,1/2+z
loop_
_atom_site_type_symbol
_atom_site_label
_atom_site_fract_x
_atom_site_fract_y
_atom_site_fract_z
Si Si1 0.429467 0.498186 0.398533
Si Si2 0.500000 0.862576 0.750000
Si Si3 0.354735 0.108228 0.748983
Si Si4 0.110643 0.721747 0.967050
Si Si5 0.260532 0.722341 0.858238
Si Si6 0.188075 0.660371 0.203715
Si Si7 0.072605 0.212568 0.852109
O O1 0.500000 0.500000 0.500000
O O2 0.458646 0.298789 0.325908
O O3 0.419301 0.739831 0.332158
O O4 0.336351 0.447605 0.411136
O O5 0.417574 0.991055 0.684424
O O6 0.278321 0.259782 0.688144
O O7 0.307474 0.937446 0.816427
O O8 0.200089 0.754188 0.937663
O O9 0.076110 0.466669 0.914839
O O10 0.067389 0.970141 0.919569
O O11 0.124813 0.693585 0.093524
O O12 0.204796 0.603789 0.752479
O O13 0.153215 0.792555 0.297602
O O14 0.000000 0.219464 0.750000
#
# Coordination Sequence:
#
# PCOD9231256 Si02
#       7
#     4   2   4   4   4   4   4
#     4  10  22  37  57  87 122 166 215 269 326 386
#     4  10  22  36  56  86 124 164 214 264 332 370
#     4  10  20  39  60  84 129 164 211 277 319 377
#     4  11  24  41  71  98 127 184 214 262 341 389
#     4   9  21  39  58  90 127 166 218 278 316 384
#     4  10  23  41  66  94 133 168 225 267 323 399
#     4  11  25  45  67 102 139 166 217 276 323 399
#
# _framework density 22.111981
#
# number of rings (size 3 to 8) (size 9 to 14) (size 15 to 20)
#    0.000    1.846    1.538    0.923    2.154    9.846 
#    0.000    0.000    0.000    0.000    0.000    0.000 
#    0.000    0.000    0.000    0.000    0.000    0.000 
#
# Total GULP energy -144851.607302 kJ/mol
# GULP energy per Si atom -5571.215665 kJ/mol
# Density = 2.206165 g / cm^3
# Si number density = 22.111981 Si / 1000 Ang^3
#
#
#
# Elastic Constant Matrix: (Units=GPa)
#
#
# Indices 1 2 3 4 5 6 
#
# 1 75.7156 10.5284 0.1178 0.0000 -3.5328 0.0000
# 2 10.5284 92.6955 44.5267 0.0000 5.6471 0.0000
# 3 0.1178 44.5267 119.3531 0.0000 15.4233 0.0000
# 4 0.0000 0.0000 0.0000 -10.8177 0.0000 11.2224
# 5 -3.5328 5.6471 15.4233 0.0000 24.3347 0.0000
# 6 0.0000 0.0000 0.0000 11.2224 0.0000 19.4117
#
#
#
# Elastic Compliance Matrix: (Units=1/GPa)
#
#
# Indices 1 2 3 4 5 6 
#
# 1 0.013566 -0.001866 0.000406 0.000000 0.002146 0.000000
# 2 -0.001866 0.013400 -0.004967 0.000000 -0.000232 0.000000
# 3 0.000406 -0.004967 0.010973 0.000000 -0.005743 0.000000
# 4 0.000000 0.000000 0.000000 -0.057785 0.000000 0.033407
# 5 0.002146 -0.000232 -0.005743 0.000000 0.045099 0.000000
# 6 0.000000 0.000000 0.000000 0.033407 0.000000 0.032202
#
#
# Mechanical properties :
#
#
# Convention : Reuss Voigt Hill
#
# Bulk Modulus (GPa) = 39.86638 44.23444 42.05041
# Shear Modulus (GPa) = 63.55352 22.09183 42.82267
#
# Velocity S-wave (km/s) = 5.36694 3.16427 4.40549
# Velocity P-wave (km/s) = 7.51491 5.77912 6.70344
#
# Compressibility (1/GPa) = 0.02508379
#
# Stress axis : x y z
#
# Youngs Moduli (GPa) = 73.71190 74.62560 91.12923
#
# Poissons Ratio (x) = 0.13928 -0.03697
# Poissons Ratio (y) = 0.13758 0.45267
# Poissons Ratio (z) = -0.02990 0.37069
#
# Static dielectric constant tensor:
#      x y z
#    x 1.875090 0.000000 0.029440 
#    y 0.000000 1.966050 0.000000 
#    z 0.029440 0.000000 1.810860 
# 
# From -- ./inp_files/39834.got.cif
#   From: 2010.05.17/outbox.cif.g08.bks.cpg/sg13_20_cif.got.tgz:39834.got - 2010.06.03 16:44:36.
