data_PCOD9231668
_publ_section_title
;
Structure prediction by ZEFSAII (Michael W. Deem and Ramdas Pophale) SiO2 
 PCOD9231668
Probable space group: P 2/C
;
_chemical_formula_sum "Si O2"
_cell_formula_units_Z 24
_cell_length_a 8.927719
_cell_length_b 13.440915
_cell_length_c 17.523403
_cell_angle_alpha 90.000000
_cell_angle_beta 148.722107
_cell_angle_gamma 90.000000
_cell_volume 1091.725875
_symmetry_space_group_name_H-M "P 2/C"
_symmetry_group_IT_number 13
_symmetry_cell_setting 'monoclinic'
loop_
_space_group_symop_operation_xyz
x,y,z
-x,y,1/2-z
-x,-y,-z
x,-y,1/2+z
loop_
_atom_site_type_symbol
_atom_site_label
_atom_site_fract_x
_atom_site_fract_y
_atom_site_fract_z
Si Si1 0.400118 0.764431 0.824940
Si Si2 0.740041 0.944612 0.433350
Si Si3 0.035933 0.761801 0.513498
Si Si4 0.691955 0.443039 0.147352
Si Si5 0.840585 0.966655 0.750962
Si Si6 0.181008 0.560417 0.141954
O O1 0.177078 0.738371 0.658307
O O2 0.690375 0.806682 0.912116
O O3 0.456820 0.659299 0.890129
O O4 0.285302 0.856984 0.824197
O O5 0.771638 0.834446 0.413583
O O6 0.884441 0.943536 0.578210
O O7 0.413957 0.982406 0.308145
O O8 0.000000 0.000000 0.500000
O O9 0.942157 0.670236 0.421004
O O10 0.783650 0.512842 0.258946
O O11 0.000000 0.409288 0.250000
O O12 0.500000 0.500000 0.000000
O O13 0.000000 0.021379 0.750000
O O14 0.500000 0.561472 0.250000
O O15 0.000000 0.500000 0.000000
#
# Coordination Sequence:
#
# PCOD9231668 Si02
#       6
#     4   4   4   4   4   4
#     4  10  20  40  68  97 133 181 237 282 353 430
#     4  11  22  42  71  98 135 180 236 292 349 415
#     4  10  21  39  69 100 127 181 240 294 340 412
#     4  12  25  41  67 100 142 183 228 291 355 423
#     4  11  23  41  68 101 138 184 229 292 361 427
#     4  12  24  43  69  98 136 181 237 290 346 414
#
# _framework density 21.983539
#
# number of rings (size 3 to 8) (size 9 to 14) (size 15 to 20)
#    0.000    1.000    3.333    4.500    0.000    1.333 
#    0.000    0.000    3.667    0.000    0.000    0.000 
#    0.000    0.000    0.000    0.000    0.000    0.000 
#
# Total GULP energy -133677.818894 kJ/mol
# GULP energy per Si atom -5569.909121 kJ/mol
# Density = 2.193350 g / cm^3
# Si number density = 21.983539 Si / 1000 Ang^3
#
#
#
# Elastic Constant Matrix: (Units=GPa)
#
#
# Indices 1 2 3 4 5 6 
#
# 1 111.8584 27.7549 34.3046 0.0000 17.8573 0.0000
# 2 27.7549 70.6715 28.3638 0.0000 6.7404 0.0000
# 3 34.3046 28.3638 129.9801 0.0000 15.5860 0.0000
# 4 0.0000 0.0000 0.0000 24.5641 0.0000 5.4427
# 5 17.8573 6.7404 15.5860 0.0000 36.1288 0.0000
# 6 0.0000 0.0000 0.0000 5.4427 0.0000 27.7651
#
#
#
# Elastic Compliance Matrix: (Units=1/GPa)
#
#
# Indices 1 2 3 4 5 6 
#
# 1 0.010904 -0.003217 -0.001689 0.000000 -0.004061 0.000000
# 2 -0.003217 0.016536 -0.002721 0.000000 -0.000321 0.000000
# 3 -0.001689 -0.002721 0.009040 0.000000 -0.002557 0.000000
# 4 0.000000 0.000000 0.000000 0.042558 0.000000 -0.008342
# 5 -0.004061 -0.000321 -0.002557 0.000000 0.030849 0.000000
# 6 0.000000 0.000000 0.000000 -0.008342 0.000000 0.037652
#
#
# Mechanical properties :
#
#
# Convention : Reuss Voigt Hill
#
# Bulk Modulus (GPa) = 47.11205 54.81742 50.96474
# Shear Modulus (GPa) = 29.43451 32.49738 30.96594
#
# Velocity S-wave (km/s) = 3.66311 3.84899 3.75720
# Velocity P-wave (km/s) = 6.27442 6.68900 6.48502
#
# Compressibility (1/GPa) = 0.02122599
#
# Stress axis : x y z
#
# Youngs Moduli (GPa) = 91.70603 60.47360 110.62431
#
# Poissons Ratio (x) = 0.19457 0.18683
# Poissons Ratio (y) = 0.29505 0.30099
# Poissons Ratio (z) = 0.15488 0.16454
#
# Static dielectric constant tensor:
#      x y z
#    x 1.879830 0.000000 0.014940 
#    y 0.000000 1.985740 0.000000 
#    z 0.014940 0.000000 1.811010 
# 
# From -- ./inp_files/64697.got.cif
#   From: 2010.05.17/outbox.cif.g08.bks.cpg/sg13_33_cif.got.tgz:64697.got - 2010.06.03 16:44:36.
