data_PCOD9231717
_publ_section_title
;
Structure prediction by ZEFSAII (Michael W. Deem and Ramdas Pophale) SiO2 
 PCOD9231717
Probable space group: P 2/C
;
_chemical_formula_sum "Si O2"
_cell_formula_units_Z 26
_cell_length_a 25.716827
_cell_length_b 6.446524
_cell_length_c 22.602979
_cell_angle_alpha 90.000000
_cell_angle_beta 161.950229
_cell_angle_gamma 90.000000
_cell_volume 1161.048601
_symmetry_space_group_name_H-M "P 2/C"
_symmetry_group_IT_number 13
_symmetry_cell_setting 'monoclinic'
loop_
_space_group_symop_operation_xyz
x,y,z
-x,y,1/2-z
-x,-y,-z
x,-y,1/2+z
loop_
_atom_site_type_symbol
_atom_site_label
_atom_site_fract_x
_atom_site_fract_y
_atom_site_fract_z
Si Si1 0.512069 0.858264 0.928563
Si Si2 0.390322 0.581429 0.691394
Si Si3 0.310907 0.742899 0.197311
Si Si4 0.000000 0.316887 0.750000
Si Si5 0.246329 0.634332 0.704324
Si Si6 0.154855 0.087556 0.204529
Si Si7 0.031882 0.961399 0.391426
O O1 0.454593 0.774571 0.801666
O O2 0.435719 0.695734 0.891739
O O3 0.425190 0.078156 0.847704
O O4 0.704582 0.909537 0.144332
O O5 0.500000 0.571720 0.750000
O O6 0.414565 0.386026 0.761400
O O7 0.184902 0.582758 0.462456
O O8 0.229034 0.593398 0.158357
O O9 0.162867 0.874547 0.007274
O O10 0.955895 0.174682 0.758190
O O11 0.209196 0.698971 0.731323
O O12 0.132536 0.794560 0.541837
O O13 0.096593 0.093897 0.208823
O O14 0.000000 0.000000 0.000000
#
# Coordination Sequence:
#
# PCOD9231717 Si02
#       7
#     4   4   4   2   4   4   4
#     4  10  20  41  61  90 127 160 207 263 314 371
#     4  11  24  42  65  92 124 169 215 257 313 379
#     4  10  20  41  59  88 130 157 203 258 318 363
#     4  12  20  44  68  88 124 170 208 260 316 372
#     4   9  19  39  62  86 122 165 202 250 309 373
#     4  10  21  38  65  92 122 169 209 253 317 375
#     4  10  21  39  60  92 125 158 209 254 306 371
#
# _framework density 22.393550999999999
#
# number of rings (size 3 to 8) (size 9 to 14) (size 15 to 20)
#    0.000    1.846    4.615    1.385    0.000    2.462 
#    5.538    6.154    0.000    0.000    0.000    0.000 
#    0.000    0.000    0.000    0.000    0.000    0.000 
#
# Total GULP energy -144996.424536 kJ/mol
# GULP energy per Si atom -5576.785559 kJ/mol
# Density = 2.234258 g / cm^3
# Si number density = 22.393551 Si / 1000 Ang^3
#
#
#
# Elastic Constant Matrix: (Units=GPa)
#
#
# Indices 1 2 3 4 5 6 
#
# 1 98.3628 8.6389 -9.8163 0.0000 10.5574 0.0000
# 2 8.6389 82.1552 6.5296 0.0000 0.0754 0.0000
# 3 -9.8163 6.5296 87.8281 0.0000 6.6584 0.0000
# 4 0.0000 0.0000 0.0000 10.8373 0.0000 -0.1929
# 5 10.5574 0.0754 6.6584 0.0000 26.2868 0.0000
# 6 0.0000 0.0000 0.0000 -0.1929 0.0000 11.7152
#
#
#
# Elastic Compliance Matrix: (Units=1/GPa)
#
#
# Indices 1 2 3 4 5 6 
#
# 1 0.010966 -0.001283 0.001687 0.000000 -0.004828 0.000000
# 2 -0.001283 0.012396 -0.001123 0.000000 0.000764 0.000000
# 3 0.001687 -0.001123 0.011938 0.000000 -0.003698 0.000000
# 4 0.000000 0.000000 0.000000 0.092301 0.000000 0.001519
# 5 -0.004828 0.000764 -0.003698 0.000000 0.040915 0.000000
# 6 0.000000 0.000000 0.000000 0.001519 0.000000 0.085384
#
#
# Mechanical properties :
#
#
# Convention : Reuss Voigt Hill
#
# Bulk Modulus (GPa) = 29.53147 31.00562 30.26854
# Shear Modulus (GPa) = 18.75297 27.30079 23.02688
#
# Velocity S-wave (km/s) = 2.89697 3.49540 3.21016
# Velocity P-wave (km/s) = 4.94025 5.49238 5.22362
#
# Compressibility (1/GPa) = 0.03386219
#
# Stress axis : x y z
#
# Youngs Moduli (GPa) = 91.19415 80.67435 83.76426
#
# Poissons Ratio (x) = 0.10348 -0.14131
# Poissons Ratio (y) = 0.11698 0.09405
# Poissons Ratio (z) = -0.15384 0.09058
#
# Static dielectric constant tensor:
#      x y z
#    x 1.858780 0.000000 0.007130 
#    y 0.000000 1.830410 0.000000 
#    z 0.007130 0.000000 2.009140 
# 
# From -- ./inp_files/89443.got.cif
#   From: 2010.05.17/outbox.cif.g08.bks.cpg/sg13_45_cif.got.tgz:89443.got - 2010.06.03 16:44:36.
