data_PCOD9231176
_publ_section_title
;
Structure prediction by ZEFSAII (Michael W. Deem and Ramdas Pophale) SiO2 
 PCOD9231176
Probable space group: P 2/C
;
_chemical_formula_sum "Si O2"
_cell_formula_units_Z 16
_cell_length_a 11.574360
_cell_length_b 9.510022
_cell_length_c 8.682448
_cell_angle_alpha 90.000000
_cell_angle_beta 143.300344
_cell_angle_gamma 90.000000
_cell_volume 571.144586
_symmetry_space_group_name_H-M "P 2/C"
_symmetry_group_IT_number 13
_symmetry_cell_setting 'monoclinic'
loop_
_space_group_symop_operation_xyz
x,y,z
-x,y,1/2-z
-x,-y,-z
x,-y,1/2+z
loop_
_atom_site_type_symbol
_atom_site_label
_atom_site_fract_x
_atom_site_fract_y
_atom_site_fract_z
Si Si1 0.682104 0.038386 0.864367
Si Si2 0.146615 0.193482 0.160050
Si Si3 0.232024 0.436069 0.033428
Si Si4 0.704176 0.294638 0.714362
O O1 0.500000 0.965552 0.750000
O O2 0.597991 0.153498 0.654567
O O3 0.820498 0.928153 0.930935
O O4 0.785056 0.129960 0.106025
O O5 0.248640 0.330976 0.196955
O O6 0.924647 0.237803 0.938705
O O7 0.324276 0.368995 0.979687
O O8 0.000000 0.450487 0.750000
O O9 0.307312 0.586320 0.167819
#
# Coordination Sequence:
#
# PCOD9231176 Si02
#       4
#     4   4   4   4
#     4  12  25  42  61  91 129 168 207 253 306 368
#     4  11  23  41  64  90 124 166 209 257 307 364
#     4  10  20  38  66  97 122 154 206 264 309 359
#     4  11  22  41  67  96 124 160 207 258 309 367
#
# _framework density 28.013922999999998
#
# number of rings (size 3 to 8) (size 9 to 14) (size 15 to 20)
#    0.000    1.000    0.000    9.750    0.000    4.000 
#    0.000    6.250    0.000    0.000    0.000    0.000 
#    0.000    0.000    0.000    0.000    0.000    0.000 
#
# Total GULP energy -89952.643022 kJ/mol
# GULP energy per Si atom -5622.040189 kJ/mol
# Density = 2.795016 g / cm^3
# Si number density = 28.013923 Si / 1000 Ang^3
#
#
#
# Elastic Constant Matrix: (Units=GPa)
#
#
# Indices 1 2 3 4 5 6 
#
# 1 163.4886 62.9804 43.1421 0.0000 -24.5723 0.0000
# 2 62.9804 183.2872 35.3545 0.0000 -23.3542 0.0000
# 3 43.1421 35.3545 132.7170 0.0000 -24.7548 0.0000
# 4 0.0000 0.0000 0.0000 72.8148 0.0000 -53.7113
# 5 -24.5723 -23.3542 -24.7548 0.0000 39.6609 0.0000
# 6 0.0000 0.0000 0.0000 -53.7113 0.0000 113.5113
#
#
#
# Elastic Compliance Matrix: (Units=1/GPa)
#
#
# Indices 1 2 3 4 5 6 
#
# 1 0.007679 -0.002018 -0.001463 0.000000 0.002656 0.000000
# 2 -0.002018 0.006560 -0.000684 0.000000 0.002186 0.000000
# 3 -0.001463 -0.000684 0.008996 0.000000 0.004306 0.000000
# 4 0.000000 0.000000 0.000000 0.021097 0.000000 0.009983
# 5 0.002656 0.002186 0.004306 0.000000 0.030834 0.000000
# 6 0.000000 0.000000 0.000000 0.009983 0.000000 0.013533
#
#
# Mechanical properties :
#
#
# Convention : Reuss Voigt Hill
#
# Bulk Modulus (GPa) = 67.09340 84.71634 75.90487
# Shear Modulus (GPa) = 49.02073 67.73179 58.37626
#
# Velocity S-wave (km/s) = 4.18768 4.92244 4.56985
# Velocity P-wave (km/s) = 6.88362 7.91288 7.41613
#
# Compressibility (1/GPa) = 0.01490460
#
# Stress axis : x y z
#
# Youngs Moduli (GPa) = 130.21815 152.44522 111.16370
#
# Poissons Ratio (x) = 0.30764 0.16267
# Poissons Ratio (y) = 0.26279 0.07601
# Poissons Ratio (z) = 0.19055 0.10424
#
# Static dielectric constant tensor:
#      x y z
#    x 2.173950 0.000000 0.051250 
#    y 0.000000 2.090930 0.000000 
#    z 0.051250 0.000000 2.240970 
# 
# From -- ./inp_files/10853.got.cif
#   From: 2010.05.17/outbox.cif.g08.bks.cpg/sg13_6_cif.got.tgz:10853.got - 2010.06.03 16:44:36.
