data_PCOD9231773
_publ_section_title
;
Structure prediction by ZEFSAII (Michael W. Deem and Ramdas Pophale) SiO2 
 PCOD9231773
Probable space group: P 2/C
;
_chemical_formula_sum "Si O2"
_cell_formula_units_Z 26
_cell_length_a 10.546153
_cell_length_b 19.434635
_cell_length_c 5.643072
_cell_angle_alpha 90.000000
_cell_angle_beta 117.311535
_cell_angle_gamma 90.000000
_cell_volume 1027.674640
_symmetry_space_group_name_H-M "P 2/C"
_symmetry_group_IT_number 13
_symmetry_cell_setting 'monoclinic'
loop_
_space_group_symop_operation_xyz
x,y,z
-x,y,1/2-z
-x,-y,-z
x,-y,1/2+z
loop_
_atom_site_type_symbol
_atom_site_label
_atom_site_fract_x
_atom_site_fract_y
_atom_site_fract_z
Si Si1 0.000000 0.734572 0.750000
Si Si2 0.281007 0.040383 0.834206
Si Si3 0.835308 0.476193 0.584248
Si Si4 0.000000 0.044626 0.750000
Si Si5 0.501234 0.363601 0.507174
Si Si6 0.500000 0.131841 0.250000
Si Si7 0.277186 0.236283 0.264874
Si Si8 0.817333 0.676542 0.202964
O O1 0.147068 0.776657 0.833468
O O2 0.940434 0.683137 0.498905
O O3 0.420801 0.083943 0.994924
O O4 0.277286 0.985000 0.055919
O O5 0.144267 0.084383 0.812297
O O6 0.770886 0.503629 0.284307
O O7 0.835019 0.394176 0.576907
O O8 0.000000 0.501749 0.750000
O O9 0.000000 0.000000 0.500000
O O10 0.500000 0.404964 0.750000
O O11 0.377783 0.304409 0.393706
O O12 0.654854 0.326446 0.654591
O O13 0.500000 0.399141 0.250000
O O14 0.387146 0.177354 0.296721
O O15 0.184320 0.256634 0.957907
#
# Coordination Sequence:
#
# PCOD9231773 Si02
#       8
#     2   4   4   2   4   2   4   4
#     4  12  24  40  71 100 136 181 246 284 376 412
#     4  10  22  46  72 107 141 188 232 288 351 416
#     4  10  23  38  62  98 136 172 228 290 352 422
#     4   8  16  36  69  96 136 177 226 272 340 398
#     4  10  20  41  66  90 128 177 221 264 351 404
#     4  12  24  46  70 104 142 190 236 292 344 424
#     4  11  24  45  65 103 136 191 231 297 348 425
#     4  11  23  42  70  96 140 182 234 289 364 425
#
# _framework density 25.299834000000001
#
# number of rings (size 3 to 8) (size 9 to 14) (size 15 to 20)
#    0.000    1.538    3.846    1.846    5.385    0.000 
#   11.077    3.077    0.000   12.000    0.000    0.000 
#    0.000    0.000    0.000    0.000    0.000    0.000 
#
# Total GULP energy -144858.347047 kJ/mol
# GULP energy per Si atom -5571.474886 kJ/mol
# Density = 2.524225 g / cm^3
# Si number density = 25.299834 Si / 1000 Ang^3
#
#
#
# Elastic Constant Matrix: (Units=GPa)
#
#
# Indices 1 2 3 4 5 6 
#
# 1 152.2257 24.4132 42.5114 0.0000 7.2401 0.0000
# 2 24.4132 39.4411 13.8210 0.0000 -6.7783 0.0000
# 3 42.5114 13.8210 137.6904 0.0000 -28.6148 0.0000
# 4 0.0000 0.0000 0.0000 86.7144 0.0000 0.7816
# 5 7.2401 -6.7783 -28.6148 0.0000 52.5563 0.0000
# 6 0.0000 0.0000 0.0000 0.7816 0.0000 29.7557
#
#
#
# Elastic Compliance Matrix: (Units=1/GPa)
#
#
# Indices 1 2 3 4 5 6 
#
# 1 0.008243 -0.004696 -0.002746 0.000000 -0.003237 0.000000
# 2 -0.004696 0.029182 -0.000634 0.000000 0.004065 0.000000
# 3 -0.002746 -0.000634 0.009287 0.000000 0.005353 0.000000
# 4 0.000000 0.000000 0.000000 0.011535 0.000000 -0.000303
# 5 -0.003237 0.004065 0.005353 0.000000 0.022912 0.000000
# 6 0.000000 0.000000 0.000000 -0.000303 0.000000 0.033615
#
#
# Mechanical properties :
#
#
# Convention : Reuss Voigt Hill
#
# Bulk Modulus (GPa) = 32.72462 54.53872 43.63167
# Shear Modulus (GPa) = 35.43248 50.37938 42.90593
#
# Velocity S-wave (km/s) = 3.74639 4.46723 4.12260
# Velocity P-wave (km/s) = 5.62821 6.94348 6.32015
#
# Compressibility (1/GPa) = 0.03055803
#
# Stress axis : x y z
#
# Youngs Moduli (GPa) = 121.31170 34.26761 107.68134
#
# Poissons Ratio (x) = 0.16093 0.29572
# Poissons Ratio (y) = 0.56971 0.06832
# Poissons Ratio (z) = 0.33316 0.02174
#
# Static dielectric constant tensor:
#      x y z
#    x 2.161410 0.000000 -0.140580 
#    y 0.000000 1.958360 0.000000 
#    z -0.140580 0.000000 2.096250 
# 
# From -- ./inp_files/4229.got.cif
#   From: 2010.05.17/outbox.cif.g08.bks.cpg/sg13_3_cif.got.tgz:4229.got - 2010.06.03 16:44:36.
