data_PCOD9231420
_publ_section_title
;
Structure prediction by ZEFSAII (Michael W. Deem and Ramdas Pophale) SiO2 
 PCOD9231420
Probable space group: P 2/C
;
_chemical_formula_sum "Si O2"
_cell_formula_units_Z 24
_cell_length_a 8.865199
_cell_length_b 8.537518
_cell_length_c 21.734058
_cell_angle_alpha 90.000000
_cell_angle_beta 145.709377
_cell_angle_gamma 90.000000
_cell_volume 926.767353
_symmetry_space_group_name_H-M "P 2/C"
_symmetry_group_IT_number 13
_symmetry_cell_setting 'monoclinic'
loop_
_space_group_symop_operation_xyz
x,y,z
-x,y,1/2-z
-x,-y,-z
x,-y,1/2+z
loop_
_atom_site_type_symbol
_atom_site_label
_atom_site_fract_x
_atom_site_fract_y
_atom_site_fract_z
Si Si1 0.256935 0.147611 0.624493
Si Si2 0.327190 0.814815 0.581291
Si Si3 0.404074 0.745321 0.048432
Si Si4 0.000000 0.270796 0.750000
Si Si5 0.953172 0.479729 0.130067
Si Si6 0.500000 0.413894 0.250000
Si Si7 0.207310 0.829494 0.860534
O O1 0.500000 0.191854 0.750000
O O2 0.245142 0.242877 0.557431
O O3 0.960899 0.176907 0.549738
O O4 0.317481 0.972357 0.620096
O O5 0.397584 0.684099 0.655918
O O6 0.543105 0.805831 0.599808
O O7 0.705149 0.790281 0.165366
O O8 0.320542 0.570557 0.997564
O O9 0.308583 0.866679 0.963396
O O10 0.927582 0.375939 0.666110
O O11 0.967842 0.323379 0.177759
O O12 0.223495 0.492520 0.181181
O O13 0.000000 0.929582 0.750000
#
# Coordination Sequence:
#
# PCOD9231420 Si02
#       7
#     4   4   4   2   4   2   4
#     4  11  25  41  62  95 134 172 203 262 325 379
#     4  11  21  39  67  92 130 169 208 254 319 378
#     4  10  24  42  61  92 128 168 212 264 320 374
#     4  12  22  44  64  88 132 170 206 280 320 366
#     4  10  21  40  65  92 119 166 219 256 313 373
#     4  12  18  42  68  94 124 166 208 268 302 386
#     4  10  20  39  67  94 121 167 216 259 301 384
#
# _framework density 25.896464999999999
#
# number of rings (size 3 to 8) (size 9 to 14) (size 15 to 20)
#    1.000    0.333    5.000    0.500    2.333    0.667 
#    3.000    0.833    0.000    0.000    0.000    0.000 
#    0.000    0.000    0.000    0.000    0.000    0.000 
#
# Total GULP energy -133908.614417 kJ/mol
# GULP energy per Si atom -5579.525601 kJ/mol
# Density = 2.583752 g / cm^3
# Si number density = 25.896465 Si / 1000 Ang^3
#
#
#
# Elastic Constant Matrix: (Units=GPa)
#
#
# Indices 1 2 3 4 5 6 
#
# 1 150.4833 7.2004 39.7205 0.0000 27.5187 0.0000
# 2 7.2004 18.6270 6.0646 0.0000 3.9639 0.0000
# 3 39.7205 6.0646 142.4328 0.0000 23.8923 0.0000
# 4 0.0000 0.0000 0.0000 41.1248 0.0000 7.8679
# 5 27.5187 3.9639 23.8923 0.0000 53.8636 0.0000
# 6 0.0000 0.0000 0.0000 7.8679 0.0000 5.4715
#
#
#
# Elastic Compliance Matrix: (Units=1/GPa)
#
#
# Indices 1 2 3 4 5 6 
#
# 1 0.007711 -0.001813 -0.001550 0.000000 -0.003119 0.000000
# 2 -0.001813 0.055387 -0.001431 0.000000 -0.002515 0.000000
# 3 -0.001550 -0.001431 0.007956 0.000000 -0.002632 0.000000
# 4 0.000000 0.000000 0.000000 0.033545 0.000000 -0.048237
# 5 -0.003119 -0.002515 -0.002632 0.000000 0.021511 0.000000
# 6 0.000000 0.000000 0.000000 -0.048237 0.000000 0.252130
#
#
# Mechanical properties :
#
#
# Convention : Reuss Voigt Hill
#
# Bulk Modulus (GPa) = 16.26887 46.39046 31.32967
# Shear Modulus (GPa) = 12.24540 37.32915 24.78727
#
# Velocity S-wave (km/s) = 2.17689 3.80080 3.09717
# Velocity P-wave (km/s) = 3.55168 6.10034 4.99142
#
# Compressibility (1/GPa) = 0.06146709
#
# Stress axis : x y z
#
# Youngs Moduli (GPa) = 129.67674 18.05466 125.69907
#
# Poissons Ratio (x) = 0.03272 0.19486
# Poissons Ratio (y) = 0.23504 0.17986
# Poissons Ratio (z) = 0.20102 0.02583
#
# Static dielectric constant tensor:
#      x y z
#    x 1.909730 0.000000 -0.082600 
#    y 0.000000 2.165130 0.000000 
#    z -0.082600 0.000000 2.128300 
# 
# From -- ./inp_files/85263.got.cif
#   From: 2010.05.17/outbox.cif.g08.bks.cpg/sg13_43_cif.got.tgz:85263.got - 2010.06.03 16:44:36.
