data_PCOD9231612
_publ_section_title
;
Structure prediction by ZEFSAII (Michael W. Deem and Ramdas Pophale) SiO2 
 PCOD9231612
Probable space group: P 2/C
;
_chemical_formula_sum "Si O2"
_cell_formula_units_Z 26
_cell_length_a 7.159169
_cell_length_b 16.285765
_cell_length_c 10.049081
_cell_angle_alpha 90.000000
_cell_angle_beta 97.230245
_cell_angle_gamma 90.000000
_cell_volume 1162.331446
_symmetry_space_group_name_H-M "P 2/C"
_symmetry_group_IT_number 13
_symmetry_cell_setting 'monoclinic'
loop_
_space_group_symop_operation_xyz
x,y,z
-x,y,1/2-z
-x,-y,-z
x,-y,1/2+z
loop_
_atom_site_type_symbol
_atom_site_label
_atom_site_fract_x
_atom_site_fract_y
_atom_site_fract_z
Si Si1 0.229510 0.310701 0.519686
Si Si2 0.784076 0.026608 0.468297
Si Si3 0.078142 0.199834 0.106856
Si Si4 0.500000 0.233122 0.750000
Si Si5 0.228610 0.088376 0.763328
Si Si6 0.640944 0.479200 0.885773
Si Si7 0.277969 0.354002 0.217669
O O1 0.418298 0.280515 0.613394
O O2 0.220303 0.402026 0.581804
O O3 0.214242 0.335499 0.362227
O O4 0.088553 0.231487 0.506874
O O5 0.802631 0.120100 0.420294
O O6 0.708666 0.030564 0.609309
O O7 0.707000 0.959001 0.362531
O O8 0.000000 0.000000 0.500000
O O9 0.208488 0.279342 0.124016
O O10 0.000000 0.183994 0.250000
O O11 0.329303 0.175204 0.781816
O O12 0.000000 0.095287 0.750000
O O13 0.500000 0.461935 0.750000
O O14 0.238618 0.558950 0.646365
O O15 0.500000 0.500000 0.000000
O O16 0.500000 0.352318 0.250000
#
# Coordination Sequence:
#
# PCOD9231612 Si02
#       7
#     4   4   4   2   4   4   4
#     4  11  22  39  63  94 127 166 207 268 322 376
#     4  10  20  40  66  88 125 171 207 259 326 376
#     4  10  22  40  65  92 127 165 215 270 320 386
#     4  12  26  40  64 102 136 164 224 270 324 392
#     4  10  23  42  65  92 131 173 213 267 326 385
#     4  11  20  38  64  89 125 168 208 261 320 383
#     4  10  22  39  63  89 121 163 217 254 315 386
#
# _framework density 22.368834
#
# number of rings (size 3 to 8) (size 9 to 14) (size 15 to 20)
#    0.000    1.538    3.846    3.231    2.154    2.462 
#    1.385    0.000    0.000    0.000    0.000    0.000 
#    0.000    0.000    0.000    0.000    0.000    0.000 
#
# Total GULP energy -144869.424504 kJ/mol
# GULP energy per Si atom -5571.900942 kJ/mol
# Density = 2.231792 g / cm^3
# Si number density = 22.368834 Si / 1000 Ang^3
#
#
#
# Elastic Constant Matrix: (Units=GPa)
#
#
# Indices 1 2 3 4 5 6 
#
# 1 43.0219 -1.2334 1.6866 0.0000 6.4141 0.0000
# 2 -1.2334 97.2415 21.7322 0.0000 22.2215 0.0000
# 3 1.6866 21.7322 97.5463 0.0000 8.4668 0.0000
# 4 0.0000 0.0000 0.0000 42.0818 0.0000 -4.6497
# 5 6.4141 22.2215 8.4668 0.0000 24.9251 0.0000
# 6 0.0000 0.0000 0.0000 -4.6497 0.0000 36.7638
#
#
#
# Elastic Compliance Matrix: (Units=1/GPa)
#
#
# Indices 1 2 3 4 5 6 
#
# 1 0.024546 0.002242 -0.000208 0.000000 -0.008244 0.000000
# 2 0.002242 0.013484 -0.002009 0.000000 -0.011916 0.000000
# 3 -0.000208 -0.002009 0.010863 0.000000 -0.001846 0.000000
# 4 0.000000 0.000000 0.000000 0.024100 0.000000 0.003048
# 5 -0.008244 -0.011916 -0.001846 0.000000 0.053492 0.000000
# 6 0.000000 0.000000 0.000000 0.003048 0.000000 0.027586
#
#
# Mechanical properties :
#
#
# Convention : Reuss Voigt Hill
#
# Bulk Modulus (GPa) = 20.43212 31.35338 25.89275
# Shear Modulus (GPa) = 29.35391 35.12909 32.24150
#
# Velocity S-wave (km/s) = 3.62645 3.96719 3.80064
# Velocity P-wave (km/s) = 5.16613 5.91876 5.55521
#
# Compressibility (1/GPa) = 0.04894256
#
# Stress axis : x y z
#
# Youngs Moduli (GPa) = 40.74053 74.16173 92.05709
#
# Poissons Ratio (x) = -0.16626 0.01917
# Poissons Ratio (y) = -0.09134 0.18490
# Poissons Ratio (z) = 0.00849 0.14896
#
# Static dielectric constant tensor:
#      x y z
#    x 1.840680 0.000000 0.017140 
#    y 0.000000 1.772510 0.000000 
#    z 0.017140 0.000000 1.761630 
# 
# From -- ./inp_files/30211.got.cif
#   From: 2010.05.17/outbox.cif.g08.bks.cpg/sg13_16_cif.got.tgz:30211.got - 2010.06.03 16:44:36.
