data_PCOD9231123
_publ_section_title
;
Structure prediction by ZEFSAII (Michael W. Deem and Ramdas Pophale) SiO2 
 PCOD9231123
Probable space group: P 2/C
;
_chemical_formula_sum "Si O2"
_cell_formula_units_Z 18
_cell_length_a 5.451201
_cell_length_b 20.533606
_cell_length_c 7.689737
_cell_angle_alpha 90.000000
_cell_angle_beta 119.209471
_cell_angle_gamma 90.000000
_cell_volume 751.284200
_symmetry_space_group_name_H-M "P 2/C"
_symmetry_group_IT_number 13
_symmetry_cell_setting 'monoclinic'
loop_
_space_group_symop_operation_xyz
x,y,z
-x,y,1/2-z
-x,-y,-z
x,-y,1/2+z
loop_
_atom_site_type_symbol
_atom_site_label
_atom_site_fract_x
_atom_site_fract_y
_atom_site_fract_z
Si Si1 0.218549 0.093925 0.039600
Si Si2 0.839879 0.234417 0.381129
Si Si3 0.929724 0.372483 0.970127
Si Si4 0.564395 0.424014 0.516025
Si Si5 0.000000 0.995062 0.750000
O O1 0.500000 0.094468 0.250000
O O2 0.128024 0.168522 0.995742
O O3 0.010011 0.054132 0.092588
O O4 0.241547 0.048922 0.876872
O O5 0.500000 0.245709 0.250000
O O6 0.000000 0.224417 0.250000
O O7 0.985261 0.297366 0.514630
O O8 0.749304 0.399948 0.745822
O O9 0.722017 0.383676 0.059451
O O10 0.221686 0.411538 0.066898
O O11 0.500000 0.500000 0.500000
#
# Coordination Sequence:
#
# PCOD9231123 Si02
#       5
#     4   4   4   4   2
#     4  10  21  38  65  93 137 173 231 277 338 397
#     4  11  23  43  64  93 133 179 218 274 334 393
#     4  10  22  41  63  90 123 163 212 257 325 397
#     4  10  21  42  65  90 124 157 204 275 319 390
#     4  10  20  38  64  98 130 182 224 280 342 392
#
# _framework density 23.958974999999999
#
# number of rings (size 3 to 8) (size 9 to 14) (size 15 to 20)
#    0.000    1.778    1.111    2.667    0.000    1.778 
#   24.000    2.222    4.889    0.000    0.000    0.000 
#    0.000    0.000    0.000    0.000    0.000    0.000 
#
# Total GULP energy -100451.615812 kJ/mol
# GULP energy per Si atom -5580.645323 kJ/mol
# Density = 2.390444 g / cm^3
# Si number density = 23.958975 Si / 1000 Ang^3
#
#
#
# Elastic Constant Matrix: (Units=GPa)
#
#
# Indices 1 2 3 4 5 6 
#
# 1 167.0713 41.2489 33.1673 0.0000 20.1574 0.0000
# 2 41.2489 242.1714 51.9984 0.0000 25.3787 0.0000
# 3 33.1673 51.9984 94.0750 0.0000 -2.5700 0.0000
# 4 0.0000 0.0000 0.0000 55.1195 0.0000 -0.8924
# 5 20.1574 25.3787 -2.5700 0.0000 34.5744 0.0000
# 6 0.0000 0.0000 0.0000 -0.8924 0.0000 39.4211
#
#
#
# Elastic Compliance Matrix: (Units=1/GPa)
#
#
# Indices 1 2 3 4 5 6 
#
# 1 0.007028 -0.000239 -0.002458 0.000000 -0.004104 0.000000
# 2 -0.000239 0.005200 -0.002896 0.000000 -0.003893 0.000000
# 3 -0.002458 -0.002896 0.013221 0.000000 0.004541 0.000000
# 4 0.000000 0.000000 0.000000 0.018149 0.000000 0.000411
# 5 -0.004104 -0.003893 0.004541 0.000000 0.034511 0.000000
# 6 0.000000 0.000000 0.000000 0.000411 0.000000 0.025376
#
#
# Mechanical properties :
#
#
# Convention : Reuss Voigt Hill
#
# Bulk Modulus (GPa) = 70.11279 84.01632 77.06456
# Shear Modulus (GPa) = 41.86731 50.94988 46.40860
#
# Velocity S-wave (km/s) = 4.18480 4.61645 4.40591
# Velocity P-wave (km/s) = 7.25791 7.97235 7.62350
#
# Compressibility (1/GPa) = 0.01426273
#
# Stress axis : x y z
#
# Youngs Moduli (GPa) = 142.29611 192.31387 75.63657
#
# Poissons Ratio (x) = 0.04600 0.18588
# Poissons Ratio (y) = 0.03404 0.21905
# Poissons Ratio (z) = 0.34970 0.55697
#
# Static dielectric constant tensor:
#      x y z
#    x 1.957890 0.000000 0.025050 
#    y 0.000000 1.847170 0.000000 
#    z 0.025050 0.000000 1.941480 
# 
# From -- ./inp_files/9643.got.cif
#   From: 2010.05.17/outbox.cif.g08.bks.cpg/sg13_5_cif.got.tgz:9643.got - 2010.06.03 16:44:36.
