data_PCOD9231026
_publ_section_title
;
Structure prediction by ZEFSAII (Michael W. Deem and Ramdas Pophale) SiO2 
 PCOD9231026
Probable space group: P 2/C
;
_chemical_formula_sum "Si O2"
_cell_formula_units_Z 26
_cell_length_a 18.713180
_cell_length_b 6.591040
_cell_length_c 18.648116
_cell_angle_alpha 90.000000
_cell_angle_beta 32.780944
_cell_angle_gamma 90.000000
_cell_volume 1245.310673
_symmetry_space_group_name_H-M "P 2/C"
_symmetry_group_IT_number 13
_symmetry_cell_setting 'monoclinic'
loop_
_space_group_symop_operation_xyz
x,y,z
-x,y,1/2-z
-x,-y,-z
x,-y,1/2+z
loop_
_atom_site_type_symbol
_atom_site_label
_atom_site_fract_x
_atom_site_fract_y
_atom_site_fract_z
Si Si1 0.233997 0.555084 0.733123
Si Si2 0.839468 0.843287 0.291599
Si Si3 0.011644 0.128402 0.062843
Si Si4 0.248421 0.427165 0.879979
Si Si5 0.500000 0.733340 0.250000
Si Si6 0.661400 0.790928 0.979456
Si Si7 0.139552 0.516124 0.110844
O O1 0.193517 0.333878 0.737368
O O2 0.272501 0.528312 0.783321
O O3 0.347069 0.653268 0.586273
O O4 0.102055 0.696286 0.841379
O O5 0.850377 0.725066 0.356200
O O6 0.722220 0.003062 0.398649
O O7 0.966923 0.973673 0.162485
O O8 0.156540 0.226580 0.947615
O O9 0.000000 0.000000 0.000000
O O10 0.383027 0.392293 0.810152
O O11 0.158369 0.552094 0.011304
O O12 0.444006 0.842856 0.369076
O O13 0.760367 0.647498 0.941205
O O14 0.000000 0.425441 0.250000
#
# Coordination Sequence:
#
# PCOD9231026 Si02
#       7
#     4   4   4   4   2   4   4
#     4  10  21  39  68  98 123 154 215 272 317 378
#     4  10  20  38  62  93 126 162 205 268 330 370
#     4  11  22  37  68 100 127 158 206 270 328 373
#     4  11  22  41  64  92 131 170 212 262 319 382
#     4  10  24  44  62  86 134 178 212 262 312 394
#     4   9  21  42  60  86 126 164 216 259 315 376
#     4  10  21  35  58  91 129 162 204 263 320 387
#
# _framework density 20.878323999999999
#
# number of rings (size 3 to 8) (size 9 to 14) (size 15 to 20)
#    0.000    1.846    1.538    3.231    2.154    3.692 
#    0.000    7.692    0.000    0.000    0.000    0.000 
#    0.000    0.000    0.000    0.000    0.000    0.000 
#
# Total GULP energy -144842.462477 kJ/mol
# GULP energy per Si atom -5570.863941 kJ/mol
# Density = 2.083080 g / cm^3
# Si number density = 20.878324 Si / 1000 Ang^3
#
#
#
# Elastic Constant Matrix: (Units=GPa)
#
#
# Indices 1 2 3 4 5 6 
#
# 1 118.3446 36.9085 45.1874 0.0000 29.5941 0.0000
# 2 36.9085 102.6592 31.5336 0.0000 14.5534 0.0000
# 3 45.1874 31.5336 100.5456 0.0000 35.2172 0.0000
# 4 0.0000 0.0000 0.0000 -17.7223 0.0000 -9.7366
# 5 29.5941 14.5534 35.2172 0.0000 45.2378 0.0000
# 6 0.0000 0.0000 0.0000 -9.7366 0.0000 -12.6953
#
#
#
# Elastic Compliance Matrix: (Units=1/GPa)
#
#
# Indices 1 2 3 4 5 6 
#
# 1 0.011444 -0.002634 -0.002738 0.000000 -0.004507 0.000000
# 2 -0.002634 0.011429 -0.002360 0.000000 -0.000116 0.000000
# 3 -0.002738 -0.002360 0.015156 0.000000 -0.009248 0.000000
# 4 0.000000 0.000000 0.000000 -0.097514 0.000000 0.074788
# 5 -0.004507 -0.000116 -0.009248 0.000000 0.032291 0.000000
# 6 0.000000 0.000000 0.000000 0.074788 0.000000 -0.136127
#
#
# Mechanical properties :
#
#
# Convention : Reuss Voigt Hill
#
# Bulk Modulus (GPa) = 44.31753 60.97871 52.64812
# Shear Modulus (GPa) = -35.62937 16.82536 -9.40201
#
# Velocity S-wave (km/s) = -4.13549 2.84188 -2.12439
# Velocity P-wave (km/s) = 1.23709 6.32760 4.38794
#
# Compressibility (1/GPa) = 0.02256443
#
# Stress axis : x y z
#
# Youngs Moduli (GPa) = 87.38043 87.49317 65.98164
#
# Poissons Ratio (x) = 0.23049 0.18068
# Poissons Ratio (y) = 0.23019 0.15571
# Poissons Ratio (z) = 0.23927 0.20647
#
# Static dielectric constant tensor:
#      x y z
#    x 1.748500 0.000000 -0.026460 
#    y 0.000000 1.758650 0.000000 
#    z -0.026460 0.000000 2.068830 
# 
# From -- ./inp_files/81359.got.cif
#   From: 2010.05.17/outbox.cif.g08.bks.cpg/sg13_41_cif.got.tgz:81359.got - 2010.06.03 16:44:36.
