data_PCOD9231749
_publ_section_title
;
Structure prediction by ZEFSAII (Michael W. Deem and Ramdas Pophale) SiO2 
 PCOD9231749
Probable space group: P 2/C
;
_chemical_formula_sum "Si O2"
_cell_formula_units_Z 20
_cell_length_a 18.127228
_cell_length_b 11.764532
_cell_length_c 9.887603
_cell_angle_alpha 90.000000
_cell_angle_beta 29.838736
_cell_angle_gamma 90.000000
_cell_volume 1049.163045
_symmetry_space_group_name_H-M "P 2/C"
_symmetry_group_IT_number 13
_symmetry_cell_setting 'monoclinic'
loop_
_space_group_symop_operation_xyz
x,y,z
-x,y,1/2-z
-x,-y,-z
x,-y,1/2+z
loop_
_atom_site_type_symbol
_atom_site_label
_atom_site_fract_x
_atom_site_fract_y
_atom_site_fract_z
Si Si1 0.395201 0.543834 0.785365
Si Si2 0.915279 0.570574 0.747160
Si Si3 0.389536 0.021220 0.800489
Si Si4 0.847824 0.187540 0.449180
Si Si5 0.674436 0.217640 0.003173
O O1 0.500000 0.536489 0.750000
O O2 0.500000 0.500000 0.500000
O O3 0.323485 0.671194 0.904799
O O4 0.254429 0.463587 0.000078
O O5 0.908388 0.707150 0.764146
O O6 0.000000 0.538021 0.750000
O O7 0.000000 0.500000 0.500000
O O8 0.500000 0.049594 0.750000
O O9 0.500000 0.000000 0.500000
O O10 0.296595 0.905969 0.979559
O O11 0.272448 0.116452 0.942452
O O12 0.000000 0.123791 0.250000
O O13 0.764820 0.230840 0.719102
O O14 0.500000 0.207876 0.250000
#
# Coordination Sequence:
#
# PCOD9231749 Si02
#       5
#     4   4   4   4   4
#     4  11  22  38  63  93 122 167 220 266 318 387
#     4  11  23  43  63  90 132 171 211 265 333 384
#     4  11  22  43  69  98 131 172 219 271 328 391
#     4  11  23  42  68  93 130 178 214 266 337 388
#     4  10  20  41  64  89 135 170 212 266 338 377
#
# _framework density 19.062812999999998
#
# number of rings (size 3 to 8) (size 9 to 14) (size 15 to 20)
#    0.000    1.200    4.000    6.000    0.000    1.600 
#    3.600    1.000    0.000    0.000    0.000    0.000 
#    0.000    0.000    0.000    0.000    0.000    0.000 
#
# Total GULP energy -111388.566874 kJ/mol
# GULP energy per Si atom -5569.428344 kJ/mol
# Density = 1.901942 g / cm^3
# Si number density = 19.062813 Si / 1000 Ang^3
#
#
#
# Elastic Constant Matrix: (Units=GPa)
#
#
# Indices 1 2 3 4 5 6 
#
# 1 132.8941 64.4654 67.9486 0.0000 -4.6422 0.0000
# 2 64.4654 98.9561 15.5740 0.0000 7.9457 0.0000
# 3 67.9486 15.5740 75.6533 0.0000 -4.9816 0.0000
# 4 0.0000 0.0000 0.0000 36.0298 0.0000 -12.7026
# 5 -4.6422 7.9457 -4.9816 0.0000 42.6800 0.0000
# 6 0.0000 0.0000 0.0000 -12.7026 0.0000 40.3498
#
#
#
# Elastic Compliance Matrix: (Units=1/GPa)
#
#
# Indices 1 2 3 4 5 6 
#
# 1 0.022383 -0.012047 -0.017449 0.000000 0.002641 0.000000
# 2 -0.012047 0.017140 0.007050 0.000000 -0.003678 0.000000
# 3 -0.017449 0.007050 0.027439 0.000000 -0.000008 0.000000
# 4 0.000000 0.000000 0.000000 0.031220 0.000000 0.009828
# 5 0.002641 -0.003678 -0.000008 0.000000 0.024401 0.000000
# 6 0.000000 0.000000 0.000000 0.009828 0.000000 0.027877
#
#
# Mechanical properties :
#
#
# Convention : Reuss Voigt Hill
#
# Bulk Modulus (GPa) = 45.31575 67.05328 56.18451
# Shear Modulus (GPa) = 24.66586 34.44628 29.55607
#
# Velocity S-wave (km/s) = 3.60102 4.25548 3.94186
# Velocity P-wave (km/s) = 6.41196 7.70693 7.08907
#
# Compressibility (1/GPa) = 0.02206738
#
# Stress axis : x y z
#
# Youngs Moduli (GPa) = 44.67702 58.34454 36.44480
#
# Poissons Ratio (x) = 0.70289 0.63594
# Poissons Ratio (y) = 0.53823 -0.25693
# Poissons Ratio (z) = 0.77959 -0.41131
#
# Static dielectric constant tensor:
#      x y z
#    x 1.662460 0.000000 0.002510 
#    y 0.000000 1.763950 0.000000 
#    z 0.002510 0.000000 1.648810 
# 
# From -- ./inp_files/11870.got.cif
#   From: 2010.05.17/outbox.cif.g08.bks.cpg/sg13_6_cif.got.tgz:11870.got - 2010.06.03 16:44:36.
