data_PCOD9231077
_publ_section_title
;
Structure prediction by ZEFSAII (Michael W. Deem and Ramdas Pophale) SiO2 
 PCOD9231077
Probable space group: P 2/C
;
_chemical_formula_sum "Si O2"
_cell_formula_units_Z 28
_cell_length_a 10.030791
_cell_length_b 11.138054
_cell_length_c 21.577230
_cell_angle_alpha 90.000000
_cell_angle_beta 33.157978
_cell_angle_gamma 90.000000
_cell_volume 1318.521822
_symmetry_space_group_name_H-M "P 2/C"
_symmetry_group_IT_number 13
_symmetry_cell_setting 'monoclinic'
loop_
_space_group_symop_operation_xyz
x,y,z
-x,y,1/2-z
-x,-y,-z
x,-y,1/2+z
loop_
_atom_site_type_symbol
_atom_site_label
_atom_site_fract_x
_atom_site_fract_y
_atom_site_fract_z
Si Si1 0.395848 0.481365 0.666161
Si Si2 0.741122 0.088892 0.817076
Si Si3 0.102457 0.321658 0.343652
Si Si4 0.724509 0.178427 0.330595
Si Si5 0.554106 0.307345 0.511923
Si Si6 0.863625 0.620291 0.531569
Si Si7 0.278919 0.752584 0.292076
O O1 0.169135 0.557950 0.779138
O O2 0.407185 0.424136 0.593039
O O3 0.626178 0.566609 0.590701
O O4 0.388039 0.362296 0.712229
O O5 0.778536 0.140525 0.733323
O O6 0.000000 0.085728 0.750000
O O7 0.625903 0.956717 0.869216
O O8 0.580879 0.188665 0.912640
O O9 0.244987 0.219407 0.251354
O O10 0.183791 0.321280 0.382960
O O11 0.813179 0.309995 0.446806
O O12 0.596637 0.278852 0.423106
O O13 0.000000 0.174728 0.250000
O O14 0.000000 0.500000 0.500000
O O15 0.041114 0.703013 0.421094
O O16 0.500000 0.791449 0.250000
#
# Coordination Sequence:
#
# PCOD9231077 Si02
#       7
#     4   4   4   4   4   4   4
#     4  11  20  34  59  90 119 158 201 255 305 375
#     4  10  22  41  64  89 121 161 214 265 312 361
#     4  11  21  36  58  90 122 158 202 249 311 367
#     4   9  21  40  60  84 118 161 205 257 309 369
#     4  10  20  38  64  85 115 161 204 249 312 372
#     4  12  19  34  59  85 125 162 200 245 314 367
#     4  11  20  36  61  92 119 160 212 251 304 371
#
# _framework density 21.235900999999998
#
# number of rings (size 3 to 8) (size 9 to 14) (size 15 to 20)
#    0.000    1.429    4.286    1.714    0.000    1.714 
#    0.000   12.143    0.000    0.000    0.000    0.000 
#    0.000    0.000    0.000    0.000    0.000    0.000 
#
# Total GULP energy -156307.058034 kJ/mol
# GULP energy per Si atom -5582.394930 kJ/mol
# Density = 2.118757 g / cm^3
# Si number density = 21.235901 Si / 1000 Ang^3
#
#
#
# Elastic Constant Matrix: (Units=GPa)
#
#
# Indices 1 2 3 4 5 6 
#
# 1 74.3379 51.3609 36.4402 0.0000 19.6863 0.0000
# 2 51.3609 74.3391 35.7175 0.0000 7.7233 0.0000
# 3 36.4402 35.7175 104.9480 0.0000 24.8686 0.0000
# 4 0.0000 0.0000 0.0000 19.7694 0.0000 -3.8064
# 5 19.6863 7.7233 24.8686 0.0000 36.6560 0.0000
# 6 0.0000 0.0000 0.0000 -3.8064 0.0000 7.9263
#
#
#
# Elastic Compliance Matrix: (Units=1/GPa)
#
#
# Indices 1 2 3 4 5 6 
#
# 1 0.030335 -0.019141 -0.001327 0.000000 -0.011358 0.000000
# 2 -0.019141 0.028164 -0.004729 0.000000 0.007554 0.000000
# 3 -0.001327 -0.004729 0.013338 0.000000 -0.007340 0.000000
# 4 0.000000 0.000000 0.000000 0.055737 0.000000 0.026766
# 5 -0.011358 0.007554 -0.007340 0.000000 0.036769 0.000000
# 6 0.000000 0.000000 0.000000 0.026766 0.000000 0.139016
#
#
# Mechanical properties :
#
#
# Convention : Reuss Voigt Hill
#
# Bulk Modulus (GPa) = 46.63582 55.62913 51.13248
# Shear Modulus (GPa) = 13.85426 21.54411 17.69918
#
# Velocity S-wave (km/s) = 2.55698 3.18860 2.89010
# Velocity P-wave (km/s) = 5.54311 6.30943 5.93864
#
# Compressibility (1/GPa) = 0.02144275
#
# Stress axis : x y z
#
# Youngs Moduli (GPa) = 32.96493 35.50690 74.97358
#
# Poissons Ratio (x) = 0.67963 0.09951
# Poissons Ratio (y) = 0.63098 0.35454
# Poissons Ratio (z) = 0.04375 0.16791
#
# Static dielectric constant tensor:
#      x y z
#    x 1.865160 0.000000 0.028860 
#    y 0.000000 1.772810 0.000000 
#    z 0.028860 0.000000 1.830100 
# 
# From -- ./inp_files/86518.got.cif
#   From: 2010.05.17/outbox.cif.g08.bks.cpg/sg13_44_cif.got.tgz:86518.got - 2010.06.03 16:44:36.
