data_PCOD9231101
_publ_section_title
;
Structure prediction by ZEFSAII (Michael W. Deem and Ramdas Pophale) SiO2 
 PCOD9231101
Probable space group: P 2/C
;
_chemical_formula_sum "Si O2"
_cell_formula_units_Z 16
_cell_length_a 8.370069
_cell_length_b 18.483037
_cell_length_c 9.267011
_cell_angle_alpha 90.000000
_cell_angle_beta 31.923897
_cell_angle_gamma 90.000000
_cell_volume 758.101292
_symmetry_space_group_name_H-M "P 2/C"
_symmetry_group_IT_number 13
_symmetry_cell_setting 'monoclinic'
loop_
_space_group_symop_operation_xyz
x,y,z
-x,y,1/2-z
-x,-y,-z
x,-y,1/2+z
loop_
_atom_site_type_symbol
_atom_site_label
_atom_site_fract_x
_atom_site_fract_y
_atom_site_fract_z
Si Si1 0.080223 0.573409 0.355562
Si Si2 0.345737 0.193921 0.021989
Si Si3 0.289769 0.647676 0.634692
Si Si4 0.796491 0.046754 0.263467
O O1 0.000000 0.566207 0.250000
O O2 0.000000 0.500000 0.500000
O O3 0.863014 0.633894 0.593695
O O4 0.433236 0.593191 0.104821
O O5 0.443149 0.273007 0.999845
O O6 0.330684 0.129210 0.150286
O O7 0.000000 0.207588 0.250000
O O8 0.500000 0.172724 0.750000
O O9 0.000000 0.637769 0.750000
O O10 0.000000 0.050415 0.250000
O O11 0.500000 0.000000 0.500000
O O12 0.000000 0.000000 0.000000
#
# Coordination Sequence:
#
# PCOD9231101 Si02
#       4
#     4   4   4   4
#     4  12  26  44  64  94 132 168 205 260 324 386
#     4  10  20  38  64  92 123 166 215 262 315 384
#     4  11  23  43  69  95 121 165 220 268 315 379
#     4  11  22  39  61  91 127 167 211 260 313 375
#
# _framework density 21.105359
#
# number of rings (size 3 to 8) (size 9 to 14) (size 15 to 20)
#    0.000    1.000    0.000    9.750    0.000    2.000 
#    0.000    7.500    0.000    0.000    0.000    0.000 
#    0.000    0.000    0.000    0.000    0.000    0.000 
#
# Total GULP energy -89223.665981 kJ/mol
# GULP energy per Si atom -5576.479124 kJ/mol
# Density = 2.105732 g / cm^3
# Si number density = 21.105359 Si / 1000 Ang^3
#
#
#
# Elastic Constant Matrix: (Units=GPa)
#
#
# Indices 1 2 3 4 5 6 
#
# 1 75.6786 55.5935 38.2938 0.0000 4.0222 0.0000
# 2 55.5935 151.2565 58.9363 0.0000 2.5749 0.0000
# 3 38.2938 58.9363 175.2658 0.0000 -3.3110 0.0000
# 4 0.0000 0.0000 0.0000 46.4650 0.0000 4.4449
# 5 4.0222 2.5749 -3.3110 0.0000 51.4402 0.0000
# 6 0.0000 0.0000 0.0000 4.4449 0.0000 52.8196
#
#
#
# Elastic Compliance Matrix: (Units=1/GPa)
#
#
# Indices 1 2 3 4 5 6 
#
# 1 0.018803 -0.006074 -0.002090 0.000000 -0.001301 0.000000
# 2 -0.006074 0.009586 -0.001899 0.000000 -0.000127 0.000000
# 3 -0.002090 -0.001899 0.006814 0.000000 0.000697 0.000000
# 4 0.000000 0.000000 0.000000 0.021696 0.000000 -0.001826
# 5 -0.001301 -0.000127 0.000697 0.000000 0.019593 0.000000
# 6 0.000000 0.000000 0.000000 -0.001826 0.000000 0.019086
#
#
# Mechanical properties :
#
#
# Convention : Reuss Voigt Hill
#
# Bulk Modulus (GPa) = 66.32946 78.64979 72.48962
# Shear Modulus (GPa) = 41.41500 46.77012 44.09256
#
# Velocity S-wave (km/s) = 4.43459 4.71258 4.57570
# Velocity P-wave (km/s) = 7.59716 8.18275 7.89539
#
# Compressibility (1/GPa) = 0.01507626
#
# Stress axis : x y z
#
# Youngs Moduli (GPa) = 53.18388 104.32098 146.75831
#
# Poissons Ratio (x) = 0.63367 0.30675
# Poissons Ratio (y) = 0.32305 0.27864
# Poissons Ratio (z) = 0.11116 0.19807
#
# Static dielectric constant tensor:
#      x y z
#    x 1.726410 0.000000 0.028820 
#    y 0.000000 1.937030 0.000000 
#    z 0.028820 0.000000 1.737980 
# 
# From -- ./inp_files/12977.got.cif
#   From: 2010.05.17/outbox.cif.g08.bks.cpg/sg13_7_cif.got.tgz:12977.got - 2010.06.03 16:44:36.
