data_PCOD9231969
_publ_section_title
;
Structure prediction by ZEFSAII (Michael W. Deem and Ramdas Pophale) SiO2 
 PCOD9231969
Probable space group: P 2/C
;
_chemical_formula_sum "Si O2"
_cell_formula_units_Z 32
_cell_length_a 20.945181
_cell_length_b 5.079789
_cell_length_c 21.508547
_cell_angle_alpha 90.000000
_cell_angle_beta 36.304796
_cell_angle_gamma 90.000000
_cell_volume 1354.945175
_symmetry_space_group_name_H-M "P 2/C"
_symmetry_group_IT_number 13
_symmetry_cell_setting 'monoclinic'
loop_
_space_group_symop_operation_xyz
x,y,z
-x,y,1/2-z
-x,-y,-z
x,-y,1/2+z
loop_
_atom_site_type_symbol
_atom_site_label
_atom_site_fract_x
_atom_site_fract_y
_atom_site_fract_z
Si Si1 0.533138 0.873088 0.882292
Si Si2 0.795619 0.091995 0.356560
Si Si3 0.365331 0.218063 0.598977
Si Si4 0.875564 0.558837 0.992474
Si Si5 0.767377 0.060839 0.021513
Si Si6 0.571913 0.175709 0.743302
Si Si7 0.932240 0.593833 0.238762
Si Si8 0.277161 0.500450 0.780762
O O1 0.654982 0.767141 0.778987
O O2 0.551676 0.112038 0.914779
O O3 0.498859 0.992894 0.844263
O O4 0.445931 0.677629 0.981483
O O5 0.700461 0.009248 0.384897
O O6 0.893963 0.893837 0.263084
O O7 0.230934 0.014982 0.051807
O O8 0.832475 0.392664 0.323038
O O9 0.283241 0.381677 0.706571
O O10 0.836327 0.501290 0.093965
O O11 0.804635 0.356683 0.006149
O O12 0.995676 0.492305 0.876376
O O13 0.847010 0.855868 0.994705
O O14 0.653073 0.007724 0.141985
O O15 0.500000 0.329222 0.750000
O O16 0.645663 0.346192 0.730951
O O17 0.000000 0.566365 0.250000
#
# Coordination Sequence:
#
# PCOD9231969 Si02
#       8
#     4   4   4   4   4   4   4   4
#     4  10  20  43  65  85 131 173 215 258 325 380
#     4  12  24  41  65 101 130 164 222 271 317 393
#     4  10  24  40  64  93 123 176 219 263 313 385
#     4  11  22  40  66  90 125 166 213 257 334 384
#     4  11  20  38  61  93 128 165 203 267 323 384
#     4  10  21  36  57  95 129 163 213 265 326 384
#     4  12  23  42  66  95 131 170 209 272 339 387
#     4  10  22  41  62  89 125 176 214 265 315 395
#
# _framework density 23.617190000000001
#
# number of rings (size 3 to 8) (size 9 to 14) (size 15 to 20)
#    0.000    1.250    3.750    2.250    1.750    0.500 
#    6.750    1.250    0.000    0.000    0.000    0.000 
#    0.000    0.000    0.000    0.000    0.000    0.000 
#
# Total GULP energy -178678.165235 kJ/mol
# GULP energy per Si atom -5583.692664 kJ/mol
# Density = 2.356344 g / cm^3
# Si number density = 23.617190 Si / 1000 Ang^3
#
#
#
# Elastic Constant Matrix: (Units=GPa)
#
#
# Indices 1 2 3 4 5 6 
#
# 1 50.9751 2.7100 14.8423 0.0000 7.9443 0.0000
# 2 2.7100 48.0892 -3.8490 0.0000 4.7718 0.0000
# 3 14.8423 -3.8490 140.4835 0.0000 36.8748 0.0000
# 4 0.0000 0.0000 0.0000 22.3709 0.0000 6.6445
# 5 7.9443 4.7718 36.8748 0.0000 31.4511 0.0000
# 6 0.0000 0.0000 0.0000 6.6445 0.0000 18.0893
#
#
#
# Elastic Compliance Matrix: (Units=1/GPa)
#
#
# Indices 1 2 3 4 5 6 
#
# 1 0.020591 -0.000905 -0.001258 0.000000 -0.003588 0.000000
# 2 -0.000905 0.021569 0.002146 0.000000 -0.005560 0.000000
# 3 -0.001258 0.002146 0.010563 0.000000 -0.012392 0.000000
# 4 0.000000 0.000000 0.000000 0.050175 0.000000 -0.018430
# 5 -0.003588 -0.005560 -0.012392 0.000000 0.048074 0.000000
# 6 0.000000 0.000000 0.000000 -0.018430 0.000000 0.062051
#
#
# Mechanical properties :
#
#
# Convention : Reuss Voigt Hill
#
# Bulk Modulus (GPa) = 18.97956 29.66160 24.32058
# Shear Modulus (GPa) = 21.68058 29.43855 25.55956
#
# Velocity S-wave (km/s) = 3.03314 3.53439 3.29332
# Velocity P-wave (km/s) = 4.50781 5.40763 4.97810
#
# Compressibility (1/GPa) = 0.05268826
#
# Stress axis : x y z
#
# Youngs Moduli (GPa) = 48.56451 46.36250 94.67250
#
# Poissons Ratio (x) = 0.04196 0.11913
# Poissons Ratio (y) = 0.04395 -0.20316
# Poissons Ratio (z) = 0.06111 -0.09949
#
# Static dielectric constant tensor:
#      x y z
#    x 1.871430 0.000000 0.010750 
#    y 0.000000 1.914870 0.000000 
#    z 0.010750 0.000000 2.009720 
# 
# From -- ./inp_files/88763.got.cif
#   From: 2010.05.17/outbox.cif.g08.bks.cpg/sg13_45_cif.got.tgz:88763.got - 2010.06.03 16:44:36.
