data_PCOD9231218
_publ_section_title
;
Structure prediction by ZEFSAII (Michael W. Deem and Ramdas Pophale) SiO2 
 PCOD9231218
Probable space group: P 2/C
;
_chemical_formula_sum "Si O2"
_cell_formula_units_Z 24
_cell_length_a 13.371392
_cell_length_b 5.304142
_cell_length_c 16.287975
_cell_angle_alpha 90.000000
_cell_angle_beta 66.536481
_cell_angle_gamma 90.000000
_cell_volume 1059.684968
_symmetry_space_group_name_H-M "P 2/C"
_symmetry_group_IT_number 13
_symmetry_cell_setting 'monoclinic'
loop_
_space_group_symop_operation_xyz
x,y,z
-x,y,1/2-z
-x,-y,-z
x,-y,1/2+z
loop_
_atom_site_type_symbol
_atom_site_label
_atom_site_fract_x
_atom_site_fract_y
_atom_site_fract_z
Si Si1 0.801474 0.237288 0.413249
Si Si2 0.000000 0.561091 0.750000
Si Si3 0.337306 0.732895 0.690824
Si Si4 0.194546 0.258037 0.480151
Si Si5 0.862165 0.461225 0.649520
Si Si6 0.310344 0.912205 0.334436
Si Si7 0.500000 0.550748 0.250000
O O1 0.902313 0.273755 0.318196
O O2 0.691197 0.236956 0.394793
O O3 0.793503 0.488015 0.471463
O O4 0.824518 0.979666 0.454555
O O5 0.044300 0.411632 0.815047
O O6 0.237786 0.575547 0.764561
O O7 0.443904 0.608905 0.695648
O O8 0.330248 0.005236 0.734834
O O9 0.113361 0.340770 0.431842
O O10 0.300776 0.157214 0.394921
O O11 0.807923 0.218502 0.625943
O O12 0.407215 0.724309 0.322116
#
# Coordination Sequence:
#
# PCOD9231218 Si02
#       7
#     4   2   4   4   4   4   2
#     4  11  25  43  67  95 135 173 220 272 323 387
#     4  10  24  44  64 102 124 176 232 266 314 394
#     4   9  21  38  65  95 128 172 220 266 323 387
#     4  11  23  44  66  94 138 176 210 270 338 376
#     4   9  20  42  65  93 131 174 215 271 321 388
#     4  10  20  42  68  94 130 175 216 266 330 391
#     4  10  20  38  70  96 126 168 230 266 318 394
#
# _framework density 22.648240000000001
#
# number of rings (size 3 to 8) (size 9 to 14) (size 15 to 20)
#    0.000    2.000    1.667    0.500    7.000    2.000 
#    6.000    1.667    0.000    0.000    0.000    0.000 
#    0.000    0.000    0.000    0.000    0.000    0.000 
#
# Total GULP energy -133801.036285 kJ/mol
# GULP energy per Si atom -5575.043179 kJ/mol
# Density = 2.259669 g / cm^3
# Si number density = 22.648240 Si / 1000 Ang^3
#
#
#
# Elastic Constant Matrix: (Units=GPa)
#
#
# Indices 1 2 3 4 5 6 
#
# 1 119.8119 45.1524 49.4689 0.0000 31.9896 0.0000
# 2 45.1524 137.7979 62.1680 0.0000 21.0560 0.0000
# 3 49.4689 62.1680 113.3679 0.0000 35.6686 0.0000
# 4 0.0000 0.0000 0.0000 22.1917 0.0000 -8.4429
# 5 31.9896 21.0560 35.6686 0.0000 24.8206 0.0000
# 6 0.0000 0.0000 0.0000 -8.4429 0.0000 19.4436
#
#
#
# Elastic Compliance Matrix: (Units=1/GPa)
#
#
# Indices 1 2 3 4 5 6 
#
# 1 0.013185 -0.002065 0.000318 0.000000 -0.015699 0.000000
# 2 -0.002065 0.009981 -0.005012 0.000000 0.001396 0.000000
# 3 0.000318 -0.005012 0.018657 0.000000 -0.022970 0.000000
# 4 0.000000 0.000000 0.000000 0.053979 0.000000 0.023439
# 5 -0.015699 0.001396 -0.022970 0.000000 0.092347 0.000000
# 6 0.000000 0.000000 0.000000 0.023439 0.000000 0.061608
#
#
# Mechanical properties :
#
#
# Convention : Reuss Voigt Hill
#
# Bulk Modulus (GPa) = 35.32749 76.06180 55.69464
# Shear Modulus (GPa) = 18.33448 27.57043 22.95245
#
# Velocity S-wave (km/s) = 2.84831 3.49281 3.18690
# Velocity P-wave (km/s) = 5.14290 7.06564 6.17951
#
# Compressibility (1/GPa) = 0.02830657
#
# Stress axis : x y z
#
# Youngs Moduli (GPa) = 75.84555 100.18669 53.59849
#
# Poissons Ratio (x) = 0.20689 -0.01706
# Poissons Ratio (y) = 0.15663 0.26862
# Poissons Ratio (z) = -0.02415 0.50210
#
# Static dielectric constant tensor:
#      x y z
#    x 1.889680 0.000000 0.006380 
#    y 0.000000 1.884740 0.000000 
#    z 0.006380 0.000000 1.900690 
# 
# From -- ./inp_files/52216.got.cif
#   From: 2010.05.17/outbox.cif.g08.bks.cpg/sg13_27_cif.got.tgz:52216.got - 2010.06.03 16:44:36.
