data_PCOD9231328
_publ_section_title
;
Structure prediction by ZEFSAII (Michael W. Deem and Ramdas Pophale) SiO2 
 PCOD9231328
Probable space group: P 2/C
;
_chemical_formula_sum "Si O2"
_cell_formula_units_Z 30
_cell_length_a 12.161161
_cell_length_b 8.555250
_cell_length_c 22.523355
_cell_angle_alpha 90.000000
_cell_angle_beta 43.429892
_cell_angle_gamma 90.000000
_cell_volume 1610.988177
_symmetry_space_group_name_H-M "P 2/C"
_symmetry_group_IT_number 13
_symmetry_cell_setting 'monoclinic'
loop_
_space_group_symop_operation_xyz
x,y,z
-x,y,1/2-z
-x,-y,-z
x,-y,1/2+z
loop_
_atom_site_type_symbol
_atom_site_label
_atom_site_fract_x
_atom_site_fract_y
_atom_site_fract_z
Si Si1 0.000000 0.406386 0.250000
Si Si2 0.085111 0.171388 0.323004
Si Si3 0.716518 0.629310 0.410319
Si Si4 0.984525 0.827051 0.326462
Si Si5 0.146089 0.327091 0.994463
Si Si6 0.089437 0.396300 0.888047
Si Si7 0.631415 0.641196 0.748726
Si Si8 0.531594 0.559936 0.084373
O O1 0.940475 0.295403 0.220278
O O2 0.856353 0.511694 0.332451
O O3 0.264042 0.206924 0.275570
O O4 0.956253 0.213101 0.424255
O O5 0.046967 0.997774 0.317149
O O6 0.797643 0.782597 0.406709
O O7 0.602709 0.657266 0.398460
O O8 0.619246 0.541278 0.499390
O O9 0.000000 0.805471 0.250000
O O10 0.072915 0.704001 0.334923
O O11 0.068622 0.498377 0.039085
O O12 0.116868 0.296168 0.936555
O O13 0.331943 0.336801 0.937966
O O14 0.235859 0.517136 0.826135
O O15 0.500000 0.670222 0.750000
O O16 0.548579 0.557323 0.837222
#
# Coordination Sequence:
#
# PCOD9231328 Si02
#       8
#     2   4   4   4   4   4   4   4
#     4  12  18  40  62  88 118 162 222 256 296 368
#     4  11  24  38  62  90 128 168 205 248 320 386
#     4  11  22  35  66  89 119 161 217 260 305 360
#     4  12  23  40  62  89 127 170 209 252 312 384
#     4  10  20  39  63  92 121 158 216 264 301 370
#     4  10  21  39  65  92 117 164 218 255 305 373
#     4  11  21  38  65  91 120 157 208 268 312 363
#     4  11  20  35  62  97 120 149 210 275 306 347
#
# _framework density 18.622109999999999
#
# number of rings (size 3 to 8) (size 9 to 14) (size 15 to 20)
#    0.000    1.067    6.667    1.600    0.000    0.533 
#    0.000    1.333    2.933    0.000    0.000    0.000 
#    0.000    0.000    0.000    0.000    0.000    0.000 
#
# Total GULP energy -167415.960463 kJ/mol
# GULP energy per Si atom -5580.532015 kJ/mol
# Density = 1.857973 g / cm^3
# Si number density = 18.622110 Si / 1000 Ang^3
#
#
#
# Elastic Constant Matrix: (Units=GPa)
#
#
# Indices 1 2 3 4 5 6 
#
# 1 167.8834 51.5952 30.7733 0.0000 -9.4815 0.0000
# 2 51.5952 73.0159 17.3054 0.0000 -3.0632 0.0000
# 3 30.7733 17.3054 73.4274 0.0000 1.1038 0.0000
# 4 0.0000 0.0000 0.0000 7.3698 0.0000 1.7054
# 5 -9.4815 -3.0632 1.1038 0.0000 41.0069 0.0000
# 6 0.0000 0.0000 0.0000 1.7054 0.0000 27.4664
#
#
#
# Elastic Compliance Matrix: (Units=1/GPa)
#
#
# Indices 1 2 3 4 5 6 
#
# 1 0.008002 -0.005073 -0.002181 0.000000 0.001530 0.000000
# 2 -0.005073 0.017779 -0.002067 0.000000 0.000211 0.000000
# 3 -0.002181 -0.002067 0.015036 0.000000 -0.001063 0.000000
# 4 0.000000 0.000000 0.000000 0.137666 0.000000 -0.008548
# 5 0.001530 0.000211 -0.001063 0.000000 0.024784 0.000000
# 6 0.000000 0.000000 0.000000 -0.008548 0.000000 0.036939
#
#
# Mechanical properties :
#
#
# Convention : Reuss Voigt Hill
#
# Bulk Modulus (GPa) = 45.09674 57.07493 51.08584
# Shear Modulus (GPa) = 18.77997 29.47879 24.12938
#
# Velocity S-wave (km/s) = 3.17910 3.98301 3.60354
# Velocity P-wave (km/s) = 6.14369 7.20195 6.69376
#
# Compressibility (1/GPa) = 0.02217455
#
# Stress axis : x y z
#
# Youngs Moduli (GPa) = 124.97137 56.24498 66.50662
#
# Poissons Ratio (x) = 0.28535 0.14504
# Poissons Ratio (y) = 0.63401 0.13748
# Poissons Ratio (z) = 0.27255 0.11627
#
# Static dielectric constant tensor:
#      x y z
#    x 1.691070 0.000000 -0.009120 
#    y 0.000000 1.620440 0.000000 
#    z -0.009120 0.000000 1.672190 
# 
# From -- ./inp_files/86347.got.cif
#   From: 2010.05.17/outbox.cif.g08.bks.cpg/sg13_44_cif.got.tgz:86347.got - 2010.06.03 16:44:36.
