data_PCOD9231083
_publ_section_title
;
Structure prediction by ZEFSAII (Michael W. Deem and Ramdas Pophale) SiO2 
 PCOD9231083
Probable space group: P 2/C
;
_chemical_formula_sum "Si O2"
_cell_formula_units_Z 18
_cell_length_a 5.364722
_cell_length_b 7.460252
_cell_length_c 24.406870
_cell_angle_alpha 90.000000
_cell_angle_beta 98.092145
_cell_angle_gamma 90.000000
_cell_volume 967.089905
_symmetry_space_group_name_H-M "P 2/C"
_symmetry_group_IT_number 13
_symmetry_cell_setting 'monoclinic'
loop_
_space_group_symop_operation_xyz
x,y,z
-x,y,1/2-z
-x,-y,-z
x,-y,1/2+z
loop_
_atom_site_type_symbol
_atom_site_label
_atom_site_fract_x
_atom_site_fract_y
_atom_site_fract_z
Si Si1 0.788711 0.142124 0.157781
Si Si2 0.500000 0.771554 0.750000
Si Si3 0.912700 0.516916 0.808724
Si Si4 0.042510 0.179338 0.613981
Si Si5 0.516396 0.932710 0.062207
O O1 0.674901 0.115471 0.214772
O O2 0.582579 0.096760 0.105437
O O3 0.886233 0.343952 0.160182
O O4 0.008368 0.000065 0.150129
O O5 0.666678 0.638763 0.792388
O O6 0.000000 0.465362 0.750000
O O7 0.888376 0.345729 0.845909
O O8 0.257456 0.150868 0.575613
O O9 0.762414 0.193456 0.578889
O O10 0.500000 0.000000 0.000000
#
# Coordination Sequence:
#
# PCOD9231083 Si02
#       5
#     4   2   4   4   4
#     4   9  22  38  63  89 127 160 203 248 310 361
#     4  10  20  38  64  86 136 158 202 248 312 366
#     4  10  22  38  58  94 125 163 197 256 299 376
#     4  10  23  40  65  90 121 159 210 247 310 357
#     4  10  22  43  66  89 122 162 208 258 302 361
#
# _framework density 18.612541
#
# number of rings (size 3 to 8) (size 9 to 14) (size 15 to 20)
#    1.333    0.889    0.000    2.000    6.222    4.444 
#    0.000    3.333    0.000    0.000    0.000    0.000 
#    0.000    0.000    0.000    0.000    0.000    0.000 
#
# Total GULP energy -100247.275349 kJ/mol
# GULP energy per Si atom -5569.293075 kJ/mol
# Density = 1.857018 g / cm^3
# Si number density = 18.612541 Si / 1000 Ang^3
#
#
#
# Elastic Constant Matrix: (Units=GPa)
#
#
# Indices 1 2 3 4 5 6 
#
# 1 103.3412 6.4635 27.5722 0.0000 -18.8182 0.0000
# 2 6.4635 42.4186 40.6179 0.0000 -12.1475 0.0000
# 3 27.5722 40.6179 74.6355 0.0000 -5.7855 0.0000
# 4 0.0000 0.0000 0.0000 -9.0399 0.0000 8.2368
# 5 -18.8182 -12.1475 -5.7855 0.0000 29.2731 0.0000
# 6 0.0000 0.0000 0.0000 8.2368 0.0000 10.0542
#
#
#
# Elastic Compliance Matrix: (Units=1/GPa)
#
#
# Indices 1 2 3 4 5 6 
#
# 1 0.013755 0.010804 -0.010083 0.000000 0.011333 0.000000
# 2 0.010804 0.065616 -0.037628 0.000000 0.026737 0.000000
# 3 -0.010083 -0.037628 0.036447 0.000000 -0.014893 0.000000
# 4 0.000000 0.000000 0.000000 -0.063340 0.000000 0.051890
# 5 0.011333 0.026737 -0.014893 0.000000 0.049598 0.000000
# 6 0.000000 0.000000 0.000000 0.051890 0.000000 0.056950
#
#
# Mechanical properties :
#
#
# Convention : Reuss Voigt Hill
#
# Bulk Modulus (GPa) = 23.80708 41.07805 32.44256
# Shear Modulus (GPa) = 20.25607 15.77359 18.01483
#
# Velocity S-wave (km/s) = 3.30252 2.91429 3.11446
# Velocity P-wave (km/s) = 5.23076 5.78292 5.51376
#
# Compressibility (1/GPa) = 0.04200431
#
# Stress axis : x y z
#
# Youngs Moduli (GPa) = 72.70199 15.24025 27.43745
#
# Poissons Ratio (x) = -0.16466 0.27664
# Poissons Ratio (y) = -0.78549 1.03241
# Poissons Ratio (z) = 0.73303 0.57346
#
# Static dielectric constant tensor:
#      x y z
#    x 1.719840 0.000000 0.010020 
#    y 0.000000 1.601390 0.000000 
#    z 0.010020 0.000000 1.617940 
# 
# From -- ./inp_files/82909.got.cif
#   From: 2010.05.17/outbox.cif.g08.bks.cpg/sg13_42_cif.got.tgz:82909.got - 2010.06.03 16:44:36.
