data_PCOD9231432
_publ_section_title
;
Structure prediction by ZEFSAII (Michael W. Deem and Ramdas Pophale) SiO2 
 PCOD9231432
Probable space group: P 2/C
;
_chemical_formula_sum "Si O2"
_cell_formula_units_Z 24
_cell_length_a 14.102379
_cell_length_b 10.787671
_cell_length_c 14.639085
_cell_angle_alpha 90.000000
_cell_angle_beta 148.639211
_cell_angle_gamma 90.000000
_cell_volume 1159.024108
_symmetry_space_group_name_H-M "P 2/C"
_symmetry_group_IT_number 13
_symmetry_cell_setting 'monoclinic'
loop_
_space_group_symop_operation_xyz
x,y,z
-x,y,1/2-z
-x,-y,-z
x,-y,1/2+z
loop_
_atom_site_type_symbol
_atom_site_label
_atom_site_fract_x
_atom_site_fract_y
_atom_site_fract_z
Si Si1 0.289888 0.274211 0.175484
Si Si2 0.740147 0.839927 0.482624
Si Si3 0.397036 0.449428 0.004975
Si Si4 0.996302 0.525483 0.105843
Si Si5 0.500000 0.635541 0.250000
Si Si6 0.915109 0.751495 0.802614
Si Si7 0.500000 0.938007 0.750000
O O1 0.481712 0.335137 0.362230
O O2 0.172911 0.247666 0.170356
O O3 0.353499 0.150179 0.178337
O O4 0.169375 0.376385 0.019548
O O5 0.646561 0.737989 0.339015
O O6 0.768264 0.774549 0.603137
O O7 0.934719 0.856103 0.594520
O O8 0.626255 0.963070 0.406871
O O9 0.423811 0.549260 0.107643
O O10 0.500000 0.500000 0.000000
O O11 0.187985 0.425364 0.804187
O O12 0.993852 0.384001 0.139913
O O13 0.000000 0.500000 0.000000
#
# Coordination Sequence:
#
# PCOD9231432 Si02
#       7
#     4   4   4   4   2   4   2
#     4  11  24  43  65  99 140 177 219 278 353 420
#     4  10  22  41  67  90 131 174 238 288 305 401
#     4  12  21  39  68 102 141 174 216 281 352 421
#     4  10  20  39  68 105 137 168 214 281 355 420
#     4  11  21  36  64 100 131 181 224 278 342 393
#     4  10  20  41  68  99 124 170 228 282 349 391
#     4  11  27  48  58  94 135 183 238 274 328 403
#
# _framework density 20.707076000000001
#
# number of rings (size 3 to 8) (size 9 to 14) (size 15 to 20)
#    0.000    1.333    5.000    1.500    2.333    1.333 
#    6.000    0.000    0.000    0.000    0.000    0.000 
#    0.000    0.000    0.000    0.000    0.000    0.000 
#
# Total GULP energy -133704.184612 kJ/mol
# GULP energy per Si atom -5571.007692 kJ/mol
# Density = 2.065995 g / cm^3
# Si number density = 20.707076 Si / 1000 Ang^3
#
#
#
# Elastic Constant Matrix: (Units=GPa)
#
#
# Indices 1 2 3 4 5 6 
#
# 1 87.5044 48.4920 31.4526 0.0000 1.2732 0.0000
# 2 48.4920 109.9010 52.3030 0.0000 -7.7050 0.0000
# 3 31.4526 52.3030 142.9845 0.0000 3.8976 0.0000
# 4 0.0000 0.0000 0.0000 24.1068 0.0000 14.9481
# 5 1.2732 -7.7050 3.8976 0.0000 31.6751 0.0000
# 6 0.0000 0.0000 0.0000 14.9481 0.0000 35.3676
#
#
#
# Elastic Compliance Matrix: (Units=1/GPa)
#
#
# Indices 1 2 3 4 5 6 
#
# 1 0.015395 -0.006482 -0.000959 0.000000 -0.002078 0.000000
# 2 -0.006482 0.014077 -0.003837 0.000000 0.004157 0.000000
# 3 -0.000959 -0.003837 0.008661 0.000000 -0.001960 0.000000
# 4 0.000000 0.000000 0.000000 0.056214 0.000000 -0.023759
# 5 -0.002078 0.004157 -0.001960 0.000000 0.032906 0.000000
# 6 0.000000 0.000000 0.000000 -0.023759 0.000000 0.038316
#
#
# Mechanical properties :
#
#
# Convention : Reuss Voigt Hill
#
# Bulk Modulus (GPa) = 64.19230 67.20944 65.70087
# Shear Modulus (GPa) = 25.86420 32.10607 28.98513
#
# Velocity S-wave (km/s) = 3.53803 3.94190 3.74541
# Velocity P-wave (km/s) = 6.91069 7.29697 7.10645
#
# Compressibility (1/GPa) = 0.01557819
#
# Stress axis : x y z
#
# Youngs Moduli (GPa) = 64.95601 71.04025 115.45391
#
# Poissons Ratio (x) = 0.46050 0.11068
# Poissons Ratio (y) = 0.42106 0.44294
# Poissons Ratio (z) = 0.06227 0.27255
#
# Static dielectric constant tensor:
#      x y z
#    x 1.779950 0.000000 0.053800 
#    y 0.000000 1.772450 0.000000 
#    z 0.053800 0.000000 1.961470 
# 
# From -- ./inp_files/53787.got.cif
#   From: 2010.05.17/outbox.cif.g08.bks.cpg/sg13_27_cif.got.tgz:53787.got - 2010.06.03 16:44:36.
