data_PCOD9231414
_publ_section_title
;
Structure prediction by ZEFSAII (Michael W. Deem and Ramdas Pophale) SiO2 
 PCOD9231414
Probable space group: P 2/C
;
_chemical_formula_sum "Si O2"
_cell_formula_units_Z 24
_cell_length_a 11.757880
_cell_length_b 11.407835
_cell_length_c 26.521193
_cell_angle_alpha 90.000000
_cell_angle_beta 21.833298
_cell_angle_gamma 90.000000
_cell_volume 1323.000770
_symmetry_space_group_name_H-M "P 2/C"
_symmetry_group_IT_number 13
_symmetry_cell_setting 'monoclinic'
loop_
_space_group_symop_operation_xyz
x,y,z
-x,y,1/2-z
-x,-y,-z
x,-y,1/2+z
loop_
_atom_site_type_symbol
_atom_site_label
_atom_site_fract_x
_atom_site_fract_y
_atom_site_fract_z
Si Si1 0.640002 0.386133 0.385980
Si Si2 0.391467 0.215429 0.694267
Si Si3 0.783615 0.238965 0.006915
Si Si4 0.647552 0.025849 0.134212
Si Si5 0.637645 0.343883 0.894075
Si Si6 0.782570 0.608021 0.100888
O O1 0.498114 0.315107 0.398035
O O2 0.498274 0.330361 0.494725
O O3 0.543628 0.522442 0.417884
O O4 0.000000 0.384091 0.250000
O O5 0.432407 0.245337 0.618518
O O6 0.605075 0.315135 0.632215
O O7 0.500428 0.090919 0.670903
O O8 0.034992 0.222406 0.858501
O O9 0.647988 0.127001 0.091779
O O10 0.998838 0.303901 0.958751
O O11 0.500000 0.053632 0.250000
O O12 0.000000 0.000000 0.000000
O O13 0.000000 0.346754 0.750000
O O14 0.500000 0.561613 0.250000
O O15 0.000000 0.500000 0.000000
#
# Coordination Sequence:
#
# PCOD9231414 Si02
#       6
#     4   4   4   4   4   4
#     4  10  22  40  63  96 126 160 209 255 305 372
#     4  11  21  40  65  89 122 166 208 250 319 375
#     4  11  22  41  63  88 126 164 208 257 312 374
#     4  12  23  42  64  91 124 169 212 257 315 373
#     4  10  20  39  67  90 125 170 201 246 318 376
#     4  10  21  37  58  89 124 155 196 256 315 373
#
# _framework density 18.140578999999999
#
# number of rings (size 3 to 8) (size 9 to 14) (size 15 to 20)
#    0.000    1.333    5.000    1.500    0.000    2.000 
#    3.000    1.667    0.000    0.000    0.000    0.000 
#    0.000    0.000    0.000    0.000    0.000    0.000 
#
# Total GULP energy -133678.466820 kJ/mol
# GULP energy per Si atom -5569.936117 kJ/mol
# Density = 1.809929 g / cm^3
# Si number density = 18.140579 Si / 1000 Ang^3
#
#
#
# Elastic Constant Matrix: (Units=GPa)
#
#
# Indices 1 2 3 4 5 6 
#
# 1 68.2542 23.3410 10.6200 0.0000 2.4805 0.0000
# 2 23.3410 66.2852 7.4456 0.0000 3.1055 0.0000
# 3 10.6200 7.4456 61.8852 0.0000 2.7138 0.0000
# 4 0.0000 0.0000 0.0000 23.5842 0.0000 1.9217
# 5 2.4805 3.1055 2.7138 0.0000 31.9060 0.0000
# 6 0.0000 0.0000 0.0000 1.9217 0.0000 36.5666
#
#
#
# Elastic Compliance Matrix: (Units=1/GPa)
#
#
# Indices 1 2 3 4 5 6 
#
# 1 0.016963 -0.005699 -0.002200 0.000000 -0.000577 0.000000
# 2 -0.005699 0.017265 -0.001049 0.000000 -0.001148 0.000000
# 3 -0.002200 -0.001049 0.016713 0.000000 -0.001148 0.000000
# 4 0.000000 0.000000 0.000000 0.042584 0.000000 -0.002238
# 5 -0.000577 -0.001148 -0.001148 0.000000 0.031596 0.000000
# 6 0.000000 0.000000 0.000000 -0.002238 0.000000 0.027465
#
#
# Mechanical properties :
#
#
# Convention : Reuss Voigt Hill
#
# Bulk Modulus (GPa) = 30.26166 31.02643 30.64405
# Shear Modulus (GPa) = 27.54863 28.74589 28.14726
#
# Velocity S-wave (km/s) = 3.90117 3.98504 3.94333
# Velocity P-wave (km/s) = 6.08360 6.18988 6.13697
#
# Compressibility (1/GPa) = 0.03304511
#
# Stress axis : x y z
#
# Youngs Moduli (GPa) = 58.95067 57.92145 59.83348
#
# Poissons Ratio (x) = 0.33010 0.13164
# Poissons Ratio (y) = 0.33597 0.06275
# Poissons Ratio (z) = 0.12970 0.06075
#
# Static dielectric constant tensor:
#      x y z
#    x 1.648690 0.000000 0.011350 
#    y 0.000000 1.676750 0.000000 
#    z 0.011350 0.000000 1.651660 
# 
# From -- ./inp_files/92393.got.cif
#   From: 2010.05.17/outbox.cif.g08.bks.cpg/sg13_47_cif.got.tgz:92393.got - 2010.06.03 16:44:36.
