data_PCOD9231761
_publ_section_title
;
Structure prediction by ZEFSAII (Michael W. Deem and Ramdas Pophale) SiO2 
 PCOD9231761
Probable space group: P 2/C
;
_chemical_formula_sum "Si O2"
_cell_formula_units_Z 24
_cell_length_a 13.091569
_cell_length_b 6.063384
_cell_length_c 27.244719
_cell_angle_alpha 90.000000
_cell_angle_beta 31.472464
_cell_angle_gamma 90.000000
_cell_volume 1129.102644
_symmetry_space_group_name_H-M "P 2/C"
_symmetry_group_IT_number 13
_symmetry_cell_setting 'monoclinic'
loop_
_space_group_symop_operation_xyz
x,y,z
-x,y,1/2-z
-x,-y,-z
x,-y,1/2+z
loop_
_atom_site_type_symbol
_atom_site_label
_atom_site_fract_x
_atom_site_fract_y
_atom_site_fract_z
Si Si1 0.000000 0.405773 0.250000
Si Si2 0.630273 0.897563 0.903752
Si Si3 0.195598 0.372440 0.407783
Si Si4 0.210311 0.733118 0.234273
Si Si5 0.506978 0.355011 0.363997
Si Si6 0.500000 0.268618 0.750000
Si Si7 0.761086 0.043434 0.196860
O O1 0.933125 0.558586 0.232125
O O2 0.812878 0.259997 0.342681
O O3 0.729308 0.091020 0.831537
O O4 0.494571 0.756850 0.922061
O O5 0.500000 0.000000 0.000000
O O6 0.319011 0.323090 0.406562
O O7 0.324457 0.562420 0.329303
O O8 0.168478 0.163180 0.382097
O O9 0.000000 0.500000 0.500000
O O10 0.411595 0.601968 0.164225
O O11 0.123876 0.867842 0.316435
O O12 0.687429 0.235884 0.262285
O O13 0.431933 0.097361 0.737008
#
# Coordination Sequence:
#
# PCOD9231761 Si02
#       7
#     2   4   4   4   4   2   4
#     4  10  22  42  70 106 136 176 248 282 350 424
#     4  10  23  43  70  96 137 181 227 292 355 414
#     4  12  24  40  66 105 139 181 236 285 336 424
#     4  10  21  41  71  95 133 188 226 290 341 415
#     4  10  20  41  65  95 132 179 227 279 348 407
#     4  12  20  42  70  84 142 186 220 288 338 394
#     4  11  20  41  71  91 135 191 221 274 358 395
#
# _framework density 21.255818999999999
#
# number of rings (size 3 to 8) (size 9 to 14) (size 15 to 20)
#    0.000    1.333    5.000    0.500    0.000    3.333 
#    0.000   21.667    0.000    0.000    0.000    0.000 
#    0.000    0.000    0.000    0.000    0.000    0.000 
#
# Total GULP energy -133805.783535 kJ/mol
# GULP energy per Si atom -5575.240981 kJ/mol
# Density = 2.120744 g / cm^3
# Si number density = 21.255819 Si / 1000 Ang^3
#
#
#
# Elastic Constant Matrix: (Units=GPa)
#
#
# Indices 1 2 3 4 5 6 
#
# 1 146.2756 79.1794 64.5450 0.0000 11.3593 0.0000
# 2 79.1794 135.1647 54.5464 0.0000 6.5762 0.0000
# 3 64.5450 54.5464 88.3960 0.0000 -1.2656 0.0000
# 4 0.0000 0.0000 0.0000 12.3671 0.0000 8.7280
# 5 11.3593 6.5762 -1.2656 0.0000 20.2889 0.0000
# 6 0.0000 0.0000 0.0000 8.7280 0.0000 58.7838
#
#
#
# Elastic Compliance Matrix: (Units=1/GPa)
#
#
# Indices 1 2 3 4 5 6 
#
# 1 0.012597 -0.004447 -0.006540 0.000000 -0.006019 0.000000
# 2 -0.004447 0.011688 -0.003987 0.000000 -0.001547 0.000000
# 3 -0.006540 -0.003987 0.018636 0.000000 0.006116 0.000000
# 4 0.000000 0.000000 0.000000 0.090324 0.000000 -0.013411
# 5 -0.006019 -0.001547 0.006116 0.000000 0.053541 0.000000
# 6 0.000000 0.000000 0.000000 -0.013411 0.000000 0.019003
#
#
# Mechanical properties :
#
#
# Convention : Reuss Voigt Hill
#
# Bulk Modulus (GPa) = 77.08791 85.15308 81.12050
# Shear Modulus (GPa) = 20.82802 29.72566 25.27684
#
# Velocity S-wave (km/s) = 3.13369 3.74367 3.45218
# Velocity P-wave (km/s) = 7.03127 7.67039 7.35777
#
# Compressibility (1/GPa) = 0.01297220
#
# Stress axis : x y z
#
# Youngs Moduli (GPa) = 79.38446 85.55918 53.65958
#
# Poissons Ratio (x) = 0.38050 0.35093
# Poissons Ratio (y) = 0.35304 0.21395
# Poissons Ratio (z) = 0.51917 0.34113
#
# Static dielectric constant tensor:
#      x y z
#    x 1.857770 0.000000 0.007440 
#    y 0.000000 1.794780 0.000000 
#    z 0.007440 0.000000 1.735790 
# 
# From -- ./inp_files/96792.got.cif
#   From: 2010.05.17/outbox.cif.g08.bks.cpg/sg13_49_cif.got.tgz:96792.got - 2010.06.03 16:44:36.
