data_PCOD9231364
_publ_section_title
;
Structure prediction by ZEFSAII (Michael W. Deem and Ramdas Pophale) SiO2 
 PCOD9231364
Probable space group: P 2/C
;
_chemical_formula_sum "Si O2"
_cell_formula_units_Z 32
_cell_length_a 5.416152
_cell_length_b 14.812279
_cell_length_c 17.240092
_cell_angle_alpha 90.000000
_cell_angle_beta 97.323439
_cell_angle_gamma 90.000000
_cell_volume 1371.813168
_symmetry_space_group_name_H-M "P 2/C"
_symmetry_group_IT_number 13
_symmetry_cell_setting 'monoclinic'
loop_
_space_group_symop_operation_xyz
x,y,z
-x,y,1/2-z
-x,-y,-z
x,-y,1/2+z
loop_
_atom_site_type_symbol
_atom_site_label
_atom_site_fract_x
_atom_site_fract_y
_atom_site_fract_z
Si Si1 0.295284 0.241070 0.050410
Si Si2 0.594753 0.343434 0.165337
Si Si3 0.028235 0.826587 0.837103
Si Si4 0.405522 0.068716 0.432109
Si Si5 0.002024 0.810850 0.392436
Si Si6 0.496268 0.908888 0.341179
Si Si7 0.525117 0.449068 0.660827
Si Si8 0.017379 0.617917 0.161063
O O1 0.421269 0.332958 0.081372
O O2 0.488460 0.163990 0.036346
O O3 0.217969 0.207683 0.133016
O O4 0.080588 0.231909 0.978883
O O5 0.500000 0.329722 0.250000
O O6 0.801283 0.264744 0.161835
O O7 0.640831 0.450639 0.166358
O O8 0.126796 0.903951 0.898983
O O9 0.000000 0.862611 0.750000
O O10 0.500000 0.000000 0.500000
O O11 0.491623 0.016101 0.358330
O O12 0.243438 0.863637 0.367179
O O13 0.756099 0.871680 0.386307
O O14 0.926877 0.723911 0.339011
O O15 0.500000 0.890927 0.250000
O O16 0.500000 0.417373 0.750000
O O17 0.236203 0.435687 0.625346
O O18 0.729833 0.391896 0.622654
O O19 0.000000 0.586531 0.250000
#
# Coordination Sequence:
#
# PCOD9231364 Si02
#       8
#     4   4   4   4   4   4   4   4
#     4  11  25  42  66  93 134 179 215 274 343 403
#     4  10  21  40  64  99 131 171 222 272 332 405
#     4  11  24  39  69  96 132 177 227 283 332 397
#     4  11  25  45  63  96 137 174 224 278 344 401
#     4  12  26  46  68  97 137 177 223 274 342 397
#     4  12  27  44  71  99 130 177 229 282 326 395
#     4   9  20  36  66  97 129 168 217 271 328 390
#     4  10  20  39  64  94 127 169 218 274 326 391
#
# _framework density 23.326792000000001
#
# number of rings (size 3 to 8) (size 9 to 14) (size 15 to 20)
#    0.000    1.250    2.500    2.625    7.000    2.500 
#    0.000    1.250    0.000    0.000    0.000    0.000 
#    0.000    0.000    0.000    0.000    0.000    0.000 
#
# Total GULP energy -178185.925909 kJ/mol
# GULP energy per Si atom -5568.310185 kJ/mol
# Density = 2.327370 g / cm^3
# Si number density = 23.326792 Si / 1000 Ang^3
#
#
#
# Elastic Constant Matrix: (Units=GPa)
#
#
# Indices 1 2 3 4 5 6 
#
# 1 94.6726 12.9740 0.9044 0.0000 -2.5768 0.0000
# 2 12.9740 69.9987 -10.5274 0.0000 -0.7123 0.0000
# 3 0.9044 -10.5274 60.4627 0.0000 6.9364 0.0000
# 4 0.0000 0.0000 0.0000 24.5631 0.0000 3.0291
# 5 -2.5768 -0.7123 6.9364 0.0000 29.0844 0.0000
# 6 0.0000 0.0000 0.0000 3.0291 0.0000 21.4822
#
#
#
# Elastic Compliance Matrix: (Units=1/GPa)
#
#
# Indices 1 2 3 4 5 6 
#
# 1 0.010886 -0.002105 -0.000652 0.000000 0.001068 0.000000
# 2 -0.002105 0.015079 0.002710 0.000000 -0.000464 0.000000
# 3 -0.000652 0.002710 0.017499 0.000000 -0.004165 0.000000
# 4 0.000000 0.000000 0.000000 0.041432 0.000000 -0.005842
# 5 0.001068 -0.000464 -0.004165 0.000000 0.035459 0.000000
# 6 0.000000 0.000000 0.000000 -0.005842 0.000000 0.047374
#
#
# Mechanical properties :
#
#
# Convention : Reuss Voigt Hill
#
# Bulk Modulus (GPa) = 23.05713 25.75956 24.40834
# Shear Modulus (GPa) = 27.43043 29.81147 28.62095
#
# Velocity S-wave (km/s) = 3.43289 3.57878 3.50659
# Velocity P-wave (km/s) = 5.06150 5.30507 5.18472
#
# Compressibility (1/GPa) = 0.04337054
#
# Stress axis : x y z
#
# Youngs Moduli (GPa) = 91.85691 66.31740 57.14765
#
# Poissons Ratio (x) = 0.13959 0.03726
# Poissons Ratio (y) = 0.19335 -0.15488
# Poissons Ratio (z) = 0.05988 -0.17973
#
# Static dielectric constant tensor:
#      x y z
#    x 1.990100 0.000000 0.032480 
#    y 0.000000 1.913340 0.000000 
#    z 0.032480 0.000000 1.945370 
# 
# From -- ./inp_files/61603.got.cif
#   From: 2010.05.17/outbox.cif.g08.bks.cpg/sg13_31_cif.got.tgz:61603.got - 2010.06.03 16:44:36.
