data_PCOD9231115
_publ_section_title
;
Structure prediction by ZEFSAII (Michael W. Deem and Ramdas Pophale) SiO2 
 PCOD9231115
Probable space group: P 2/C
;
_chemical_formula_sum "Si O2"
_cell_formula_units_Z 24
_cell_length_a 12.314838
_cell_length_b 9.827175
_cell_length_c 11.790743
_cell_angle_alpha 90.000000
_cell_angle_beta 38.899851
_cell_angle_gamma 90.000000
_cell_volume 896.047974
_symmetry_space_group_name_H-M "P 2/C"
_symmetry_group_IT_number 13
_symmetry_cell_setting 'monoclinic'
loop_
_space_group_symop_operation_xyz
x,y,z
-x,y,1/2-z
-x,-y,-z
x,-y,1/2+z
loop_
_atom_site_type_symbol
_atom_site_label
_atom_site_fract_x
_atom_site_fract_y
_atom_site_fract_z
Si Si1 0.178334 0.945961 0.497131
Si Si2 0.270891 0.355449 0.498654
Si Si3 0.832154 0.547788 0.204592
Si Si4 0.639992 0.283720 0.308765
Si Si5 0.307973 0.669606 0.389942
Si Si6 0.230388 0.011518 0.198767
O O1 0.179967 0.786672 0.532809
O O2 0.267573 0.023046 0.533617
O O3 0.978520 0.985298 0.641700
O O4 0.260417 0.949998 0.302720
O O5 0.248477 0.275541 0.399515
O O6 0.449406 0.311520 0.415359
O O7 0.134789 0.367383 0.710113
O O8 0.290556 0.514819 0.446925
O O9 0.714868 0.413752 0.314181
O O10 0.724659 0.648263 0.215122
O O11 0.000000 0.500000 0.000000
O O12 0.670271 0.153251 0.359631
O O13 0.500000 0.720167 0.250000
#
# Coordination Sequence:
#
# PCOD9231115 Si02
#       6
#     4   4   4   4   4   4
#     4  10  23  42  66  96 130 177 227 287 338 404
#     4  10  21  39  62  92 138 172 215 273 339 415
#     4  11  22  35  61  96 130 175 221 270 335 410
#     4  10  20  38  64  94 127 178 216 275 346 399
#     4  11  22  39  60  96 131 173 218 270 345 402
#     4  10  22  43  69  94 132 176 230 285 343 405
#
# _framework density 26.784281
#
# number of rings (size 3 to 8) (size 9 to 14) (size 15 to 20)
#    0.000    1.667    3.333    2.500    2.333    5.333 
#    3.000    4.167    0.000    0.000    0.000    0.000 
#    0.000    0.000    0.000    0.000    0.000    0.000 
#
# Total GULP energy -133962.930287 kJ/mol
# GULP energy per Si atom -5581.788762 kJ/mol
# Density = 2.672332 g / cm^3
# Si number density = 26.784281 Si / 1000 Ang^3
#
#
#
# Elastic Constant Matrix: (Units=GPa)
#
#
# Indices 1 2 3 4 5 6 
#
# 1 140.3484 20.2576 58.0647 0.0000 49.2054 0.0000
# 2 20.2576 66.0130 19.4418 0.0000 13.6588 0.0000
# 3 58.0647 19.4418 140.0017 0.0000 53.4925 0.0000
# 4 0.0000 0.0000 0.0000 74.3552 0.0000 58.3890
# 5 49.2054 13.6588 53.4925 0.0000 52.7767 0.0000
# 6 0.0000 0.0000 0.0000 58.3890 0.0000 84.0512
#
#
#
# Elastic Compliance Matrix: (Units=1/GPa)
#
#
# Indices 1 2 3 4 5 6 
#
# 1 0.010764 -0.001211 -0.000949 0.000000 -0.008760 0.000000
# 2 -0.001211 0.016236 -0.000944 0.000000 -0.002116 0.000000
# 3 -0.000949 -0.000944 0.011809 0.000000 -0.010841 0.000000
# 4 0.000000 0.000000 0.000000 0.029592 0.000000 -0.020557
# 5 -0.008760 -0.002116 -0.010841 0.000000 0.038651 0.000000
# 6 0.000000 0.000000 0.000000 -0.020557 0.000000 0.026178
#
#
# Mechanical properties :
#
#
# Convention : Reuss Voigt Hill
#
# Bulk Modulus (GPa) = 30.67323 60.21015 45.44169
# Shear Modulus (GPa) = 33.26586 58.80990 46.03788
#
# Velocity S-wave (km/s) = 3.52801 4.69090 4.15039
# Velocity P-wave (km/s) = 5.29836 7.20193 6.32220
#
# Compressibility (1/GPa) = 0.03260172
#
# Stress axis : x y z
#
# Youngs Moduli (GPa) = 92.90404 61.59155 84.67806
#
# Poissons Ratio (x) = 0.07459 0.08035
# Poissons Ratio (y) = 0.11251 0.07992
# Poissons Ratio (z) = 0.08815 0.05813
#
# Static dielectric constant tensor:
#      x y z
#    x 2.003930 0.000000 0.018780 
#    y 0.000000 2.280980 0.000000 
#    z 0.018780 0.000000 2.326660 
# 
# From -- ./inp_files/15804.got.cif
#   From: 2010.05.17/outbox.cif.g08.bks.cpg/sg13_8_cif.got.tgz:15804.got - 2010.06.03 16:44:36.
