data_PCOD9231158
_publ_section_title
;
Structure prediction by ZEFSAII (Michael W. Deem and Ramdas Pophale) SiO2 
 PCOD9231158
Probable space group: P 2/C
;
_chemical_formula_sum "Si O2"
_cell_formula_units_Z 24
_cell_length_a 23.394306
_cell_length_b 8.921278
_cell_length_c 10.175646
_cell_angle_alpha 90.000000
_cell_angle_beta 139.972275
_cell_angle_gamma 90.000000
_cell_volume 1365.894172
_symmetry_space_group_name_H-M "P 2/C"
_symmetry_group_IT_number 13
_symmetry_cell_setting 'monoclinic'
loop_
_space_group_symop_operation_xyz
x,y,z
-x,y,1/2-z
-x,-y,-z
x,-y,1/2+z
loop_
_atom_site_type_symbol
_atom_site_label
_atom_site_fract_x
_atom_site_fract_y
_atom_site_fract_z
Si Si1 0.186346 0.320272 0.341451
Si Si2 0.803692 0.319977 0.619214
Si Si3 0.000689 0.646374 0.094779
Si Si4 0.283328 0.172439 0.282783
Si Si5 0.254089 0.163278 0.715010
Si Si6 0.440037 0.032651 0.020471
O O1 0.194672 0.499785 0.366721
O O2 0.260783 0.258061 0.375147
O O3 0.199671 0.245444 0.505931
O O4 0.091843 0.277826 0.108972
O O5 0.906529 0.273145 0.775092
O O6 0.746509 0.268229 0.394235
O O7 0.764463 0.245091 0.680685
O O8 0.000000 0.611056 0.250000
O O9 0.000000 0.500000 0.000000
O O10 0.384841 0.118913 0.454398
O O11 0.231051 0.012992 0.187144
O O12 0.359363 0.152420 0.863031
O O13 0.500000 0.074132 0.250000
O O14 0.500000 0.000000 0.000000
#
# Coordination Sequence:
#
# PCOD9231158 Si02
#       6
#     4   4   4   4   4   4
#     4  11  21  38  60  86 122 159 202 242 291 341
#     4  11  21  38  60  86 122 157 202 242 288 348
#     4  10  22  36  59  85 122 168 208 232 281 359
#     4  10  21  38  61  87 118 146 206 242 300 353
#     4  10  23  36  61  91 114 154 202 242 304 350
#     4  10  20  38  66  85 110 155 202 236 292 382
#
# _framework density 17.570906000000001
#
# number of rings (size 3 to 8) (size 9 to 14) (size 15 to 20)
#    1.000    0.667    1.667    4.000    7.000    0.000 
#    0.000    5.000    0.000   20.000    0.000    0.000 
#    0.000    0.000    0.000    0.000    0.000    0.000 
#
# Total GULP energy -133666.243266 kJ/mol
# GULP energy per Si atom -5569.426803 kJ/mol
# Density = 1.753091 g / cm^3
# Si number density = 17.570906 Si / 1000 Ang^3
#
#
#
# Elastic Constant Matrix: (Units=GPa)
#
#
# Indices 1 2 3 4 5 6 
#
# 1 76.4903 16.0997 5.7018 0.0000 -5.6894 0.0000
# 2 16.0997 73.9488 7.8399 0.0000 -5.5624 0.0000
# 3 5.7018 7.8399 58.8672 0.0000 -5.6982 0.0000
# 4 0.0000 0.0000 0.0000 34.9117 0.0000 -19.5942
# 5 -5.6894 -5.5624 -5.6982 0.0000 40.4698 0.0000
# 6 0.0000 0.0000 0.0000 -19.5942 0.0000 37.5700
#
#
#
# Elastic Compliance Matrix: (Units=1/GPa)
#
#
# Indices 1 2 3 4 5 6 
#
# 1 0.013835 -0.002816 -0.000825 0.000000 0.001442 0.000000
# 2 -0.002816 0.014399 -0.001512 0.000000 0.001370 0.000000
# 3 -0.000825 -0.001512 0.017476 0.000000 0.002137 0.000000
# 4 0.000000 0.000000 0.000000 0.040498 0.000000 0.021121
# 5 0.001442 0.001370 0.002137 0.000000 0.025402 0.000000
# 6 0.000000 0.000000 0.000000 0.021121 0.000000 0.037632
#
#
# Mechanical properties :
#
#
# Convention : Reuss Voigt Hill
#
# Bulk Modulus (GPa) = 28.24679 29.84325 29.04502
# Shear Modulus (GPa) = 29.17995 34.56796 31.87395
#
# Velocity S-wave (km/s) = 4.07959 4.44028 4.26375
# Velocity P-wave (km/s) = 6.18882 6.58100 6.38792
#
# Compressibility (1/GPa) = 0.03540226
#
# Stress axis : x y z
#
# Youngs Moduli (GPa) = 72.28012 69.44745 57.22272
#
# Poissons Ratio (x) = 0.19557 0.04723
# Poissons Ratio (y) = 0.20355 0.08654
# Poissons Ratio (z) = 0.05966 0.10503
#
# Static dielectric constant tensor:
#      x y z
#    x 1.607760 0.000000 0.031880 
#    y 0.000000 1.599790 0.000000 
#    z 0.031880 0.000000 1.604020 
# 
# From -- ./inp_files/22812.got.cif
#   From: 2010.05.17/outbox.cif.g08.bks.cpg/sg13_12_cif.got.tgz:22812.got - 2010.06.03 16:44:36.
