data_PCOD9231772
_publ_section_title
;
Structure prediction by ZEFSAII (Michael W. Deem and Ramdas Pophale) SiO2 
 PCOD9231772
Probable space group: P 2/C
;
_chemical_formula_sum "Si O2"
_cell_formula_units_Z 16
_cell_length_a 11.695433
_cell_length_b 9.681809
_cell_length_c 11.256353
_cell_angle_alpha 90.000000
_cell_angle_beta 35.543176
_cell_angle_gamma 90.000000
_cell_volume 740.939938
_symmetry_space_group_name_H-M "P 2/C"
_symmetry_group_IT_number 13
_symmetry_cell_setting 'monoclinic'
loop_
_space_group_symop_operation_xyz
x,y,z
-x,y,1/2-z
-x,-y,-z
x,-y,1/2+z
loop_
_atom_site_type_symbol
_atom_site_label
_atom_site_fract_x
_atom_site_fract_y
_atom_site_fract_z
Si Si1 0.695128 0.493279 0.454863
Si Si2 0.057161 0.140950 0.890342
Si Si3 0.248469 0.405094 0.835949
Si Si4 0.302237 0.193202 0.468738
O O1 0.488661 0.411307 0.624023
O O2 0.798606 0.447508 0.489325
O O3 0.800625 0.496164 0.236857
O O4 0.651039 0.655183 0.518472
O O5 0.157959 0.255897 0.886647
O O6 0.207616 0.109684 0.656094
O O7 0.864125 0.205395 0.991022
O O8 0.000000 0.000000 0.000000
O O9 0.500000 0.131286 0.250000
#
# Coordination Sequence:
#
# PCOD9231772 Si02
#       4
#     4   4   4   4
#     4   9  17  34  62  99 124 164 218 269 344 379
#     4  10  23  40  60  93 134 178 223 258 324 410
#     4   9  17  34  61  90 136 160 214 277 319 402
#     4  10  20  41  66  89 129 173 215 282 340 380
#
# _framework density 21.594193000000001
#
# number of rings (size 3 to 8) (size 9 to 14) (size 15 to 20)
#    0.000    2.500    2.500    0.000    0.000    2.000 
#    4.500    5.000    0.000    0.000    0.000    0.000 
#    0.000    0.000    0.000    0.000    0.000    0.000 
#
# Total GULP energy -89287.682673 kJ/mol
# GULP energy per Si atom -5580.480167 kJ/mol
# Density = 2.154504 g / cm^3
# Si number density = 21.594193 Si / 1000 Ang^3
#
#
#
# Elastic Constant Matrix: (Units=GPa)
#
#
# Indices 1 2 3 4 5 6 
#
# 1 160.3639 57.3446 71.9451 0.0000 27.5708 0.0000
# 2 57.3446 105.7981 52.2399 0.0000 9.8022 0.0000
# 3 71.9451 52.2399 149.1899 0.0000 12.4615 0.0000
# 4 0.0000 0.0000 0.0000 35.0658 0.0000 3.0696
# 5 27.5708 9.8022 12.4615 0.0000 41.4687 0.0000
# 6 0.0000 0.0000 0.0000 3.0696 0.0000 -7.6782
#
#
#
# Elastic Compliance Matrix: (Units=1/GPa)
#
#
# Indices 1 2 3 4 5 6 
#
# 1 0.009587 -0.003232 -0.003101 0.000000 -0.004678 0.000000
# 2 -0.003232 0.012614 -0.002860 0.000000 0.000027 0.000000
# 3 -0.003101 -0.002860 0.009202 0.000000 -0.000028 0.000000
# 4 0.000000 0.000000 0.000000 0.027554 0.000000 0.011015
# 5 -0.004678 0.000027 -0.000028 0.000000 0.027227 0.000000
# 6 0.000000 0.000000 0.000000 0.011015 0.000000 -0.125836
#
#
# Mechanical properties :
#
#
# Convention : Reuss Voigt Hill
#
# Bulk Modulus (GPa) = 76.82548 86.49012 81.65780
# Shear Modulus (GPa) = -295.37273 29.35943 -133.00665
#
# Velocity S-wave (km/s) = -11.70813 3.69127 -7.85668
# Velocity P-wave (km/s) = 12.12929 7.63589 6.66382
#
# Compressibility (1/GPa) = 0.01301651
#
# Stress axis : x y z
#
# Youngs Moduli (GPa) = 104.30887 79.27959 108.67082
#
# Poissons Ratio (x) = 0.25621 0.33697
# Poissons Ratio (y) = 0.33710 0.31085
# Poissons Ratio (z) = 0.32344 0.22678
#
# Static dielectric constant tensor:
#      x y z
#    x 1.854070 0.000000 0.010420 
#    y 0.000000 1.725550 0.000000 
#    z 0.010420 0.000000 1.851670 
# 
# From -- ./inp_files/31978.got.cif
#   From: 2010.05.17/outbox.cif.g08.bks.cpg/sg13_16_cif.got.tgz:31978.got - 2010.06.03 16:44:36.
