data_PCOD9231495
_publ_section_title
;
Structure prediction by ZEFSAII (Michael W. Deem and Ramdas Pophale) SiO2 
 PCOD9231495
Probable space group: P 2/C
;
_chemical_formula_sum "Si O2"
_cell_formula_units_Z 18
_cell_length_a 10.561400
_cell_length_b 9.699917
_cell_length_c 14.332546
_cell_angle_alpha 90.000000
_cell_angle_beta 34.525442
_cell_angle_gamma 90.000000
_cell_volume 832.187794
_symmetry_space_group_name_H-M "P 2/C"
_symmetry_group_IT_number 13
_symmetry_cell_setting 'monoclinic'
loop_
_space_group_symop_operation_xyz
x,y,z
-x,y,1/2-z
-x,-y,-z
x,-y,1/2+z
loop_
_atom_site_type_symbol
_atom_site_label
_atom_site_fract_x
_atom_site_fract_y
_atom_site_fract_z
Si Si1 0.390304 0.933970 0.715952
Si Si2 0.500145 0.810716 0.036841
Si Si3 0.348543 0.580793 0.252208
Si Si4 0.000000 0.247422 0.250000
Si Si5 0.905138 0.315664 0.106622
O O1 0.500000 0.945164 0.750000
O O2 0.533605 0.849877 0.550445
O O3 0.169007 0.841791 0.859663
O O4 0.368137 0.083813 0.683119
O O5 0.448600 0.656423 0.101320
O O6 0.766370 0.834529 0.892745
O O7 0.500000 0.615249 0.250000
O O8 0.305761 0.417495 0.274955
O O9 0.101244 0.641610 0.419014
O O10 0.991073 0.333401 0.160323
#
# Coordination Sequence:
#
# PCOD9231495 Si02
#       5
#     4   4   4   2   4
#     4  10  22  42  61  93 124 160 203 261 298 366
#     4  10  22  41  65  87 124 167 204 248 317 360
#     4  11  21  41  65  92 122 165 202 253 309 369
#     4  10  20  40  60  92 120 172 200 250 306 380
#     4  10  23  39  64  93 124 158 209 250 308 367
#
# _framework density 21.629732000000001
#
# number of rings (size 3 to 8) (size 9 to 14) (size 15 to 20)
#    0.000    1.778    2.222    1.333    0.000    4.444 
#   16.000    0.000    0.000    0.000    0.000    0.000 
#    0.000    0.000    0.000    0.000    0.000    0.000 
#
# Total GULP energy -100431.487428 kJ/mol
# GULP energy per Si atom -5579.527079 kJ/mol
# Density = 2.158050 g / cm^3
# Si number density = 21.629732 Si / 1000 Ang^3
#
#
#
# Elastic Constant Matrix: (Units=GPa)
#
#
# Indices 1 2 3 4 5 6 
#
# 1 65.6969 0.0768 15.0918 0.0000 29.8177 0.0000
# 2 0.0768 71.1235 31.5848 0.0000 -11.1006 0.0000
# 3 15.0918 31.5848 57.0945 0.0000 -0.7074 0.0000
# 4 0.0000 0.0000 0.0000 20.8335 0.0000 6.2605
# 5 29.8177 -11.1006 -0.7074 0.0000 30.7142 0.0000
# 6 0.0000 0.0000 0.0000 6.2605 0.0000 17.8030
#
#
#
# Elastic Compliance Matrix: (Units=1/GPa)
#
#
# Indices 1 2 3 4 5 6 
#
# 1 0.030968 -0.001360 -0.007814 0.000000 -0.030736 0.000000
# 2 -0.001360 0.020094 -0.010653 0.000000 0.008338 0.000000
# 3 -0.007814 -0.010653 0.025527 0.000000 0.004324 0.000000
# 4 0.000000 0.000000 0.000000 0.053671 0.000000 -0.018874
# 5 -0.030736 0.008338 0.004324 0.000000 0.065510 0.000000
# 6 0.000000 0.000000 0.000000 -0.018874 0.000000 0.062807
#
#
# Mechanical properties :
#
#
# Convention : Reuss Voigt Hill
#
# Bulk Modulus (GPa) = 27.07537 31.93577 29.50557
# Shear Modulus (GPa) = 16.10082 23.68090 19.89086
#
# Velocity S-wave (km/s) = 2.73130 3.31241 3.03579
# Velocity P-wave (km/s) = 4.74252 5.42460 5.09499
#
# Compressibility (1/GPa) = 0.03693393
#
# Stress axis : x y z
#
# Youngs Moduli (GPa) = 32.29137 49.76714 39.17407
#
# Poissons Ratio (x) = 0.06771 0.30611
# Poissons Ratio (y) = 0.04393 0.41732
# Poissons Ratio (z) = 0.25233 0.53016
#
# Static dielectric constant tensor:
#      x y z
#    x 1.768490 0.000000 -0.008990 
#    y 0.000000 1.812340 0.000000 
#    z -0.008990 0.000000 1.816880 
# 
# From -- ./inp_files/28366.got.cif
#   From: 2010.05.17/outbox.cif.g08.bks.cpg/sg13_15_cif.got.tgz:28366.got - 2010.06.03 16:44:36.
