data_PCOD9231722
_publ_section_title
;
Structure prediction by ZEFSAII (Michael W. Deem and Ramdas Pophale) SiO2 
 PCOD9231722
Probable space group: P 2/C
;
_chemical_formula_sum "Si O2"
_cell_formula_units_Z 18
_cell_length_a 7.137396
_cell_length_b 11.635675
_cell_length_c 10.838454
_cell_angle_alpha 90.000000
_cell_angle_beta 122.078202
_cell_angle_gamma 90.000000
_cell_volume 762.690324
_symmetry_space_group_name_H-M "P 2/C"
_symmetry_group_IT_number 13
_symmetry_cell_setting 'monoclinic'
loop_
_space_group_symop_operation_xyz
x,y,z
-x,y,1/2-z
-x,-y,-z
x,-y,1/2+z
loop_
_atom_site_type_symbol
_atom_site_label
_atom_site_fract_x
_atom_site_fract_y
_atom_site_fract_z
Si Si1 0.173453 0.346859 0.106922
Si Si2 0.812227 0.593770 0.290731
Si Si3 0.000000 0.076641 0.750000
Si Si4 0.298818 0.121309 0.275182
Si Si5 0.388443 0.759286 0.454951
O O1 0.239844 0.461309 0.202718
O O2 0.167336 0.233444 0.186221
O O3 0.351439 0.321614 0.060999
O O4 0.937140 0.364856 0.957713
O O5 0.625972 0.678076 0.169937
O O6 0.000000 0.595404 0.250000
O O7 0.172475 0.159037 0.878098
O O8 0.148973 0.990562 0.722767
O O9 0.500000 0.104336 0.250000
O O10 0.406905 0.157310 0.444534
#
# Coordination Sequence:
#
# PCOD9231722 Si02
#       5
#     4   4   2   4   4
#     4   9  18  35  59  92 121 164 206 259 317 378
#     4   9  17  34  64  89 126 165 205 257 329 374
#     4  12  22  42  68  88 130 178 206 270 306 368
#     4  10  24  39  64  95 127 164 220 255 315 379
#     4  10  20  41  61  94 128 165 211 264 315 371
#
# _framework density 23.600667000000001
#
# number of rings (size 3 to 8) (size 9 to 14) (size 15 to 20)
#    0.000    2.222    3.333    0.667    1.556    4.444 
#    0.000    0.000    0.000    0.000    0.000    0.000 
#    0.000    0.000    0.000    0.000    0.000    0.000 
#
# Total GULP energy -100619.927037 kJ/mol
# GULP energy per Si atom -5589.995947 kJ/mol
# Density = 2.354695 g / cm^3
# Si number density = 23.600667 Si / 1000 Ang^3
#
#
#
# Elastic Constant Matrix: (Units=GPa)
#
#
# Indices 1 2 3 4 5 6 
#
# 1 57.8663 38.6836 18.7847 0.0000 -2.6118 0.0000
# 2 38.6836 179.8849 65.5533 0.0000 0.8517 0.0000
# 3 18.7847 65.5533 116.3253 0.0000 9.7169 0.0000
# 4 0.0000 0.0000 0.0000 25.6387 0.0000 -3.8464
# 5 -2.6118 0.8517 9.7169 0.0000 14.7184 0.0000
# 6 0.0000 0.0000 0.0000 -3.8464 0.0000 -5.6974
#
#
#
# Elastic Compliance Matrix: (Units=1/GPa)
#
#
# Indices 1 2 3 4 5 6 
#
# 1 0.020605 -0.003892 -0.001544 0.000000 0.004901 0.000000
# 2 -0.003892 0.007807 -0.003890 0.000000 0.001426 0.000000
# 3 -0.001544 -0.003890 0.011687 0.000000 -0.007764 0.000000
# 4 0.000000 0.000000 0.000000 0.035416 0.000000 -0.023910
# 5 0.004901 0.001426 -0.007764 0.000000 0.073855 0.000000
# 6 0.000000 0.000000 0.000000 -0.023910 0.000000 -0.159376
#
#
# Mechanical properties :
#
#
# Convention : Reuss Voigt Hill
#
# Bulk Modulus (GPa) = 46.62507 66.67996 56.65251
# Shear Modulus (GPa) = 316.56522 22.33560 169.45041
#
# Velocity S-wave (km/s) = 11.59419 3.07969 8.48262
# Velocity P-wave (km/s) = 14.10788 6.40006 10.95429
#
# Compressibility (1/GPa) = 0.02144769
#
# Stress axis : x y z
#
# Youngs Moduli (GPa) = 48.53159 128.09212 85.56793
#
# Poissons Ratio (x) = 0.49850 0.13209
# Poissons Ratio (y) = 0.18887 0.33287
# Poissons Ratio (z) = 0.07492 0.49829
#
# Static dielectric constant tensor:
#      x y z
#    x 1.916390 0.000000 0.013090 
#    y 0.000000 1.856590 0.000000 
#    z 0.013090 0.000000 1.946600 
# 
# From -- ./inp_files/29183.got.cif
#   From: 2010.05.17/outbox.cif.g08.bks.cpg/sg13_15_cif.got.tgz:29183.got - 2010.06.03 16:44:36.
