data_PCOD9231118
_publ_section_title
;
Structure prediction by ZEFSAII (Michael W. Deem and Ramdas Pophale) SiO2 
 PCOD9231118
Probable space group: P 2/C
;
_chemical_formula_sum "Si O2"
_cell_formula_units_Z 30
_cell_length_a 5.983242
_cell_length_b 15.084468
_cell_length_c 17.772975
_cell_angle_alpha 90.000000
_cell_angle_beta 123.017037
_cell_angle_gamma 90.000000
_cell_volume 1345.036929
_symmetry_space_group_name_H-M "P 2/C"
_symmetry_group_IT_number 13
_symmetry_cell_setting 'monoclinic'
loop_
_space_group_symop_operation_xyz
x,y,z
-x,y,1/2-z
-x,-y,-z
x,-y,1/2+z
loop_
_atom_site_type_symbol
_atom_site_label
_atom_site_fract_x
_atom_site_fract_y
_atom_site_fract_z
Si Si1 0.215522 0.015651 0.653726
Si Si2 0.468732 0.748473 0.011340
Si Si3 0.093134 0.373821 0.947836
Si Si4 0.688784 0.209981 0.856718
Si Si5 0.571985 0.151512 0.382572
Si Si6 0.000000 0.077808 0.250000
Si Si7 0.183267 0.491084 0.208397
Si Si8 0.123672 0.683374 0.620343
O O1 0.500000 0.019698 0.750000
O O2 0.261649 0.938142 0.601712
O O3 0.005763 0.982387 0.676624
O O4 0.167276 0.114932 0.618386
O O5 0.634430 0.657806 0.040284
O O6 0.473800 0.787051 0.095556
O O7 0.578019 0.815607 0.969223
O O8 0.170714 0.724051 0.932434
O O9 0.887925 0.292722 0.895560
O O10 0.976673 0.459775 0.887505
O O11 0.143327 0.373130 0.046138
O O12 0.500000 0.218159 0.750000
O O13 0.269071 0.133571 0.302376
O O14 0.687859 0.232508 0.355744
O O15 0.500000 0.515929 0.250000
O O16 0.175802 0.384889 0.196433
O O17 0.000000 0.512269 0.250000
#
# Coordination Sequence:
#
# PCOD9231118 Si02
#       8
#     4   4   4   4   4   2   4   4
#     4   9  20  37  59  96 132 175 222 279 335 406
#     4  10  23  41  67  95 130 185 219 279 341 411
#     4  10  24  44  71  94 135 180 225 279 347 410
#     4  10  22  40  66  96 134 172 229 280 344 411
#     4  10  21  40  64  95 131 177 227 274 346 405
#     4  10  20  38  64  94 134 182 226 282 342 408
#     4  12  30  47  73 112 138 176 235 291 353 422
#     4  10  24  47  66  95 137 181 223 275 350 414
#
# _framework density 22.304220999999998
#
# number of rings (size 3 to 8) (size 9 to 14) (size 15 to 20)
#    0.000    1.867    0.000    1.600    9.333    6.933 
#    1.200    9.333    0.000    0.000    0.000    0.000 
#    0.000    0.000    0.000    0.000    0.000    0.000 
#
# Total GULP energy -167635.106469 kJ/mol
# GULP energy per Si atom -5587.836882 kJ/mol
# Density = 2.225346 g / cm^3
# Si number density = 22.304221 Si / 1000 Ang^3
#
#
#
# Elastic Constant Matrix: (Units=GPa)
#
#
# Indices 1 2 3 4 5 6 
#
# 1 116.5212 33.7397 28.1424 0.0000 -7.4802 0.0000
# 2 33.7397 94.8131 3.0112 0.0000 -3.6885 0.0000
# 3 28.1424 3.0112 44.2125 0.0000 -3.1334 0.0000
# 4 0.0000 0.0000 0.0000 28.3830 0.0000 1.5407
# 5 -7.4802 -3.6885 -3.1334 0.0000 20.4054 0.0000
# 6 0.0000 0.0000 0.0000 1.5407 0.0000 26.9301
#
#
#
# Elastic Compliance Matrix: (Units=1/GPa)
#
#
# Indices 1 2 3 4 5 6 
#
# 1 0.011498 -0.003777 -0.006886 0.000000 0.002475 0.000000
# 2 -0.003777 0.011878 0.001667 0.000000 0.001019 0.000000
# 3 -0.006886 0.001667 0.027024 0.000000 0.001927 0.000000
# 4 0.000000 0.000000 0.000000 0.035342 0.000000 -0.002022
# 5 0.002475 0.001019 0.001927 0.000000 0.050394 0.000000
# 6 0.000000 0.000000 0.000000 -0.002022 0.000000 0.037249
#
#
# Mechanical properties :
#
#
# Convention : Reuss Voigt Hill
#
# Bulk Modulus (GPa) = 30.85596 42.81482 36.83539
# Shear Modulus (GPa) = 24.73070 27.85394 26.29232
#
# Velocity S-wave (km/s) = 3.33346 3.53770 3.43710
# Velocity P-wave (km/s) = 5.35538 5.99371 5.68352
#
# Compressibility (1/GPa) = 0.03240865
#
# Stress axis : x y z
#
# Youngs Moduli (GPa) = 86.97440 84.19182 37.00397
#
# Poissons Ratio (x) = 0.31795 0.25481
# Poissons Ratio (y) = 0.32846 -0.06169
# Poissons Ratio (z) = 0.59890 -0.14036
#
# Static dielectric constant tensor:
#      x y z
#    x 1.855430 0.000000 -0.002590 
#    y 0.000000 1.794950 0.000000 
#    z -0.002590 0.000000 1.836930 
# 
# From -- ./inp_files/61654.got.cif
#   From: 2010.05.17/outbox.cif.g08.bks.cpg/sg13_31_cif.got.tgz:61654.got - 2010.06.03 16:44:36.
