data_PCOD9231326
_publ_section_title
;
Structure prediction by ZEFSAII (Michael W. Deem and Ramdas Pophale) SiO2 
 PCOD9231326
Probable space group: P 2/C
;
_chemical_formula_sum "Si O2"
_cell_formula_units_Z 20
_cell_length_a 5.369245
_cell_length_b 18.562316
_cell_length_c 9.545088
_cell_angle_alpha 90.000000
_cell_angle_beta 85.365561
_cell_angle_gamma 90.000000
_cell_volume 948.206798
_symmetry_space_group_name_H-M "P 2/C"
_symmetry_group_IT_number 13
_symmetry_cell_setting 'monoclinic'
loop_
_space_group_symop_operation_xyz
x,y,z
-x,y,1/2-z
-x,-y,-z
x,-y,1/2+z
loop_
_atom_site_type_symbol
_atom_site_label
_atom_site_fract_x
_atom_site_fract_y
_atom_site_fract_z
Si Si1 0.773119 0.606252 0.167437
Si Si2 0.518074 0.924456 0.578744
Si Si3 0.984984 0.159315 0.419630
Si Si4 0.004297 0.674832 0.918855
Si Si5 0.658937 0.456498 0.105789
O O1 0.500000 0.610207 0.250000
O O2 0.839845 0.521924 0.142165
O O3 0.000000 0.638041 0.250000
O O4 0.769489 0.645284 0.016880
O O5 0.500000 0.932907 0.750000
O O6 0.288456 0.873612 0.538782
O O7 0.786756 0.888784 0.536407
O O8 0.500000 0.000000 0.500000
O O9 0.000000 0.158777 0.250000
O O10 0.030898 0.242102 0.458987
O O11 0.210659 0.615711 0.950582
O O12 0.000000 0.671204 0.750000
O O13 0.500000 0.438069 0.250000
O O14 0.500000 0.500000 0.000000
#
# Coordination Sequence:
#
# PCOD9231326 Si02
#       5
#     4   4   4   4   4
#     4  11  24  42  59  84 124 164 201 256 317 360
#     4  10  20  39  63  90 122 157 194 241 298 365
#     4   9  21  37  61  93 124 154 196 253 307 354
#     4  11  22  39  64  91 121 164 216 262 309 374
#     4  11  22  37  61  90 120 161 215 264 311 365
#
# _framework density 21.092445999999999
#
# number of rings (size 3 to 8) (size 9 to 14) (size 15 to 20)
#    0.000    1.600    0.000    5.400    0.000    7.200 
#    0.000    3.000    0.000    1.200    0.000    0.000 
#    0.000    0.000    0.000    0.000    0.000    0.000 
#
# Total GULP energy -111627.452132 kJ/mol
# GULP energy per Si atom -5581.372607 kJ/mol
# Density = 2.104444 g / cm^3
# Si number density = 21.092446 Si / 1000 Ang^3
#
#
#
# Elastic Constant Matrix: (Units=GPa)
#
#
# Indices 1 2 3 4 5 6 
#
# 1 140.2939 79.6401 44.7809 0.0000 11.3782 0.0000
# 2 79.6401 176.2041 40.9594 0.0000 2.5332 0.0000
# 3 44.7809 40.9594 90.7100 0.0000 -8.2405 0.0000
# 4 0.0000 0.0000 0.0000 32.3754 0.0000 0.6828
# 5 11.3782 2.5332 -8.2405 0.0000 30.9085 0.0000
# 6 0.0000 0.0000 0.0000 0.6828 0.0000 19.8684
#
#
#
# Elastic Compliance Matrix: (Units=1/GPa)
#
#
# Indices 1 2 3 4 5 6 
#
# 1 0.011102 -0.003990 -0.004120 0.000000 -0.004859 0.000000
# 2 -0.003990 0.007828 -0.001526 0.000000 0.000420 0.000000
# 3 -0.004120 -0.001526 0.014242 0.000000 0.005439 0.000000
# 4 0.000000 0.000000 0.000000 0.030910 0.000000 -0.001062
# 5 -0.004859 0.000420 0.005439 0.000000 0.035558 0.000000
# 6 0.000000 0.000000 0.000000 -0.001062 0.000000 0.050368
#
#
# Mechanical properties :
#
#
# Convention : Reuss Voigt Hill
#
# Bulk Modulus (GPa) = 71.95712 81.99655 76.97684
# Shear Modulus (GPa) = 28.74991 32.75230 30.75110
#
# Velocity S-wave (km/s) = 3.69595 3.94483 3.82241
# Velocity P-wave (km/s) = 7.23896 7.72711 7.48701
#
# Compressibility (1/GPa) = 0.01389716
#
# Stress axis : x y z
#
# Youngs Moduli (GPa) = 90.07120 127.75422 70.21678
#
# Poissons Ratio (x) = 0.50978 0.28933
# Poissons Ratio (y) = 0.35941 0.10718
# Poissons Ratio (z) = 0.37114 0.19500
#
# Static dielectric constant tensor:
#      x y z
#    x 2.093910 0.000000 -0.032190 
#    y 0.000000 1.739220 0.000000 
#    z -0.032190 0.000000 1.842160 
# 
# From -- ./inp_files/9445.got.cif
#   From: 2010.05.17/outbox.cif.g08.bks.cpg/sg13_5_cif.got.tgz:9445.got - 2010.06.03 16:44:36.
