data_PCOD9231320
_publ_section_title
;
Structure prediction by ZEFSAII (Michael W. Deem and Ramdas Pophale) SiO2 
 PCOD9231320
Probable space group: P 2/C
;
_chemical_formula_sum "Si O2"
_cell_formula_units_Z 16
_cell_length_a 8.325230
_cell_length_b 11.148768
_cell_length_c 9.934079
_cell_angle_alpha 90.000000
_cell_angle_beta 46.081680
_cell_angle_gamma 90.000000
_cell_volume 664.173964
_symmetry_space_group_name_H-M "P 2/C"
_symmetry_group_IT_number 13
_symmetry_cell_setting 'monoclinic'
loop_
_space_group_symop_operation_xyz
x,y,z
-x,y,1/2-z
-x,-y,-z
x,-y,1/2+z
loop_
_atom_site_type_symbol
_atom_site_label
_atom_site_fract_x
_atom_site_fract_y
_atom_site_fract_z
Si Si1 0.176269 0.263244 0.964539
Si Si2 0.336491 0.997770 0.465631
Si Si3 0.496839 0.360512 0.969201
Si Si4 0.827181 0.252073 0.960224
O O1 0.254940 0.337501 0.046905
O O2 0.340526 0.304128 0.744027
O O3 0.931712 0.279290 0.044396
O O4 0.220637 0.127304 0.990916
O O5 0.500000 0.025100 0.250000
O O6 0.171428 0.109156 0.559754
O O7 0.500000 0.000000 0.500000
O O8 0.586159 0.295452 0.051190
O O9 0.500000 0.500000 0.000000
O O10 0.000000 0.305993 0.750000
#
# Coordination Sequence:
#
# PCOD9231320 Si02
#       4
#     4   4   4   4
#     4  10  20  40  63  91 127 170 212 274 328 383
#     4  12  21  40  70 100 138 174 210 274 344 400
#     4  10  20  39  63  87 127 178 219 265 321 379
#     4  10  21  39  67  98 133 171 215 269 338 397
#
# _framework density 24.090074999999999
#
# number of rings (size 3 to 8) (size 9 to 14) (size 15 to 20)
#    0.000    1.500    5.000    2.250    0.000    1.000 
#    4.500    0.000    0.000    0.000    0.000    0.000 
#    0.000    0.000    0.000    0.000    0.000    0.000 
#
# Total GULP energy -89241.184333 kJ/mol
# GULP energy per Si atom -5577.574021 kJ/mol
# Density = 2.403525 g / cm^3
# Si number density = 24.090075 Si / 1000 Ang^3
#
#
#
# Elastic Constant Matrix: (Units=GPa)
#
#
# Indices 1 2 3 4 5 6 
#
# 1 302.7393 70.2098 47.3831 0.0000 46.8545 0.0000
# 2 70.2098 155.4710 -1.1330 0.0000 23.5235 0.0000
# 3 47.3831 -1.1330 63.7535 0.0000 25.4510 0.0000
# 4 0.0000 0.0000 0.0000 -537.6176 0.0000 -622.7246
# 5 46.8545 23.5235 25.4510 0.0000 32.2506 0.0000
# 6 0.0000 0.0000 0.0000 -622.7246 0.0000 -693.0813
#
#
#
# Elastic Compliance Matrix: (Units=1/GPa)
#
#
# Indices 1 2 3 4 5 6 
#
# 1 0.004558 -0.001434 -0.001733 0.000000 -0.004208 0.000000
# 2 -0.001434 0.008178 0.004030 0.000000 -0.007061 0.000000
# 3 -0.001733 0.004030 0.025131 0.000000 -0.020254 0.000000
# 4 0.000000 0.000000 0.000000 0.045678 0.000000 -0.041041
# 5 -0.004208 -0.007061 -0.020254 0.000000 0.058256 0.000000
# 6 0.000000 0.000000 0.000000 -0.041041 0.000000 0.035432
#
#
# Mechanical properties :
#
#
# Convention : Reuss Voigt Hill
#
# Bulk Modulus (GPa) = 25.25751 83.87596 54.56673
# Shear Modulus (GPa) = 26.49649 -212.65607 -93.07979
#
# Velocity S-wave (km/s) = 3.32006 -9.40569 -6.22271
# Velocity P-wave (km/s) = 5.02040 9.11388 5.37859
#
# Compressibility (1/GPa) = 0.03959218
#
# Stress axis : x y z
#
# Youngs Moduli (GPa) = 219.37115 122.28430 39.79167
#
# Poissons Ratio (x) = 0.17541 0.06898
# Poissons Ratio (y) = 0.31468 -0.16038
# Poissons Ratio (z) = 0.38026 -0.49286
#
# Static dielectric constant tensor:
#      x y z
#    x 1.929260 0.000000 -0.015680 
#    y 0.000000 2.258010 0.000000 
#    z -0.015680 0.000000 1.958400 
# 
# From -- ./inp_files/11392.got.cif
#   From: 2010.05.17/outbox.cif.g08.bks.cpg/sg13_6_cif.got.tgz:11392.got - 2010.06.03 16:44:36.
