data_PCOD9231095
_publ_section_title
;
Structure prediction by ZEFSAII (Michael W. Deem and Ramdas Pophale) SiO2 
 PCOD9231095
Probable space group: P 2/C
;
_chemical_formula_sum "Si O2"
_cell_formula_units_Z 20
_cell_length_a 7.289274
_cell_length_b 7.192309
_cell_length_c 17.150899
_cell_angle_alpha 90.000000
_cell_angle_beta 66.999380
_cell_angle_gamma 90.000000
_cell_volume 827.682152
_symmetry_space_group_name_H-M "P 2/C"
_symmetry_group_IT_number 13
_symmetry_cell_setting 'monoclinic'
loop_
_space_group_symop_operation_xyz
x,y,z
-x,y,1/2-z
-x,-y,-z
x,-y,1/2+z
loop_
_atom_site_type_symbol
_atom_site_label
_atom_site_fract_x
_atom_site_fract_y
_atom_site_fract_z
Si Si1 0.696822 0.335503 0.272149
Si Si2 0.230591 0.562659 0.493738
Si Si3 0.511571 0.954180 0.907246
Si Si4 0.123065 0.766909 0.904606
Si Si5 0.320693 0.334972 0.625488
O O1 0.500000 0.334358 0.250000
O O2 0.631730 0.228733 0.361102
O O3 0.859735 0.236921 0.191400
O O4 0.745875 0.541652 0.290748
O O5 0.181283 0.439846 0.426007
O O6 0.203649 0.413071 0.569162
O O7 0.455524 0.618171 0.440057
O O8 0.103601 0.750974 0.528642
O O9 0.288380 0.909830 0.910705
O O10 0.350878 0.876947 0.146300
O O11 0.500000 0.000000 0.000000
#
# Coordination Sequence:
#
# PCOD9231095 Si02
#       5
#     4   4   4   4   4
#     4  10  21  39  58  91 128 162 216 277 328 385
#     4  10  20  38  64  90 122 168 216 266 330 398
#     4  11  20  37  64  92 123 170 217 264 325 403
#     4  10  21  40  61  91 132 164 213 283 322 386
#     4  11  20  37  67  89 119 175 217 261 332 410
#
# _framework density 24.163864
#
# number of rings (size 3 to 8) (size 9 to 14) (size 15 to 20)
#    0.000    1.600    6.000    1.200    0.000    4.000 
#    0.000    0.000    0.000    2.400    0.000    0.000 
#    0.000    0.000    0.000    0.000    0.000    0.000 
#
# Total GULP energy -111484.856116 kJ/mol
# GULP energy per Si atom -5574.242806 kJ/mol
# Density = 2.410887 g / cm^3
# Si number density = 24.163864 Si / 1000 Ang^3
#
#
#
# Elastic Constant Matrix: (Units=GPa)
#
#
# Indices 1 2 3 4 5 6 
#
# 1 86.6248 19.6365 20.9013 0.0000 0.6621 0.0000
# 2 19.6365 111.8157 23.2164 0.0000 2.1400 0.0000
# 3 20.9013 23.2164 111.5223 0.0000 7.9153 0.0000
# 4 0.0000 0.0000 0.0000 38.0990 0.0000 5.8484
# 5 0.6621 2.1400 7.9153 0.0000 26.0937 0.0000
# 6 0.0000 0.0000 0.0000 5.8484 0.0000 28.9099
#
#
#
# Elastic Compliance Matrix: (Units=1/GPa)
#
#
# Indices 1 2 3 4 5 6 
#
# 1 0.012424 -0.001777 -0.001989 0.000000 0.000434 0.000000
# 2 -0.001777 0.009602 -0.001649 0.000000 -0.000242 0.000000
# 3 -0.001989 -0.001649 0.009882 0.000000 -0.002812 0.000000
# 4 0.000000 0.000000 0.000000 0.027089 0.000000 -0.005480
# 5 0.000434 -0.000242 -0.002812 0.000000 0.039185 0.000000
# 6 0.000000 0.000000 0.000000 -0.005480 0.000000 0.035699
#
#
# Mechanical properties :
#
#
# Convention : Reuss Voigt Hill
#
# Bulk Modulus (GPa) = 47.44227 48.60793 48.02510
# Shear Modulus (GPa) = 32.95172 35.03443 33.99307
#
# Velocity S-wave (km/s) = 3.69681 3.81184 3.75477
# Velocity P-wave (km/s) = 6.15614 6.28754 6.22219
#
# Compressibility (1/GPa) = 0.02107825
#
# Stress axis : x y z
#
# Youngs Moduli (GPa) = 80.49241 104.14136 101.18946
#
# Poissons Ratio (x) = 0.18506 0.20129
# Poissons Ratio (y) = 0.14304 0.16684
# Poissons Ratio (z) = 0.16012 0.17170
#
# Static dielectric constant tensor:
#      x y z
#    x 2.132260 0.000000 -0.027550 
#    y 0.000000 1.980600 0.000000 
#    z -0.027550 0.000000 1.970570 
# 
# From -- ./inp_files/63204.got.cif
#   From: 2010.05.17/outbox.cif.g08.bks.cpg/sg13_32_cif.got.tgz:63204.got - 2010.06.03 16:44:36.
