data_PCOD9231000
_publ_section_title
;
Structure prediction by ZEFSAII (Michael W. Deem and Ramdas Pophale) SiO2 
 PCOD9231000
Probable space group: P 2/C
;
_chemical_formula_sum "Si O2"
_cell_formula_units_Z 22
_cell_length_a 5.829323
_cell_length_b 11.120003
_cell_length_c 14.429255
_cell_angle_alpha 90.000000
_cell_angle_beta 92.095326
_cell_angle_gamma 90.000000
_cell_volume 934.709072
_symmetry_space_group_name_H-M "P 2/C"
_symmetry_group_IT_number 13
_symmetry_cell_setting 'monoclinic'
loop_
_space_group_symop_operation_xyz
x,y,z
-x,y,1/2-z
-x,-y,-z
x,-y,1/2+z
loop_
_atom_site_type_symbol
_atom_site_label
_atom_site_fract_x
_atom_site_fract_y
_atom_site_fract_z
Si Si1 0.373017 0.710653 0.991019
Si Si2 0.000000 0.721139 0.250000
Si Si3 0.633380 0.550229 0.343814
Si Si4 0.247784 0.118773 0.083058
Si Si5 0.969246 0.886410 0.403800
Si Si6 0.987173 0.356378 0.358832
O O1 0.524351 0.804228 0.933509
O O2 0.224142 0.628887 0.917965
O O3 0.481715 0.626770 0.074062
O O4 0.194140 0.794409 0.043847
O O5 0.186490 0.640322 0.202795
O O6 0.901828 0.811344 0.172498
O O7 0.500000 0.505155 0.250000
O O8 0.784505 0.443560 0.390611
O O9 0.085560 0.218977 0.126189
O O10 0.193470 0.994331 0.134852
O O11 0.165914 0.077846 0.979275
O O12 0.000000 0.379576 0.250000
#
# Coordination Sequence:
#
# PCOD9231000 Si02
#       6
#     4   2   4   4   4   4
#     4  10  22  41  65  92 126 168 213 262 325 378
#     4  10  20  38  62  88 130 162 208 262 312 372
#     4  11  23  40  65  93 127 169 220 267 318 383
#     4  10  21  38  63  88 127 161 209 261 319 380
#     4   9  20  38  62  93 122 164 207 261 313 382
#     4  11  25  40  60  91 129 169 216 263 321 381
#
# _framework density 23.536738
#
# number of rings (size 3 to 8) (size 9 to 14) (size 15 to 20)
#    0.000    1.818    0.909    2.182    3.818    0.727 
#    0.000    0.000    4.000    0.000    0.000    0.000 
#    0.000    0.000    0.000    0.000    0.000    0.000 
#
# Total GULP energy -122626.371953 kJ/mol
# GULP energy per Si atom -5573.925998 kJ/mol
# Density = 2.348317 g / cm^3
# Si number density = 23.536738 Si / 1000 Ang^3
#
#
#
# Elastic Constant Matrix: (Units=GPa)
#
#
# Indices 1 2 3 4 5 6 
#
# 1 58.2501 16.7135 14.1428 0.0000 17.6054 0.0000
# 2 16.7135 109.1725 35.8726 0.0000 6.1916 0.0000
# 3 14.1428 35.8726 59.0983 0.0000 1.1461 0.0000
# 4 0.0000 0.0000 0.0000 29.8152 0.0000 2.7259
# 5 17.6054 6.1916 1.1461 0.0000 27.8804 0.0000
# 6 0.0000 0.0000 0.0000 2.7259 0.0000 20.3483
#
#
#
# Elastic Compliance Matrix: (Units=1/GPa)
#
#
# Indices 1 2 3 4 5 6 
#
# 1 0.022817 -0.001245 -0.004434 0.000000 -0.013949 0.000000
# 2 -0.001245 0.011654 -0.006746 0.000000 -0.001525 0.000000
# 3 -0.004434 -0.006746 0.022011 0.000000 0.003393 0.000000
# 4 0.000000 0.000000 0.000000 0.033956 0.000000 -0.004549
# 5 -0.013949 -0.001525 0.003393 0.000000 0.044875 0.000000
# 6 0.000000 0.000000 0.000000 -0.004549 0.000000 0.049754
#
#
# Mechanical properties :
#
#
# Convention : Reuss Voigt Hill
#
# Bulk Modulus (GPa) = 31.61428 39.99763 35.80596
# Shear Modulus (GPa) = 22.67977 26.26159 24.47068
#
# Velocity S-wave (km/s) = 3.10754 3.34394 3.22791
# Velocity P-wave (km/s) = 5.13194 5.65153 5.39799
#
# Compressibility (1/GPa) = 0.03163127
#
# Stress axis : x y z
#
# Youngs Moduli (GPa) = 43.82661 85.81050 45.43139
#
# Poissons Ratio (x) = 0.10683 0.20145
# Poissons Ratio (y) = 0.05456 0.30649
# Poissons Ratio (z) = 0.19433 0.57890
#
# Static dielectric constant tensor:
#      x y z
#    x 1.941070 0.000000 0.015420 
#    y 0.000000 1.921460 0.000000 
#    z 0.015420 0.000000 1.957100 
# 
# From -- ./inp_files/43625.got.cif
#   From: 2010.05.17/outbox.cif.g08.bks.cpg/sg13_22_cif.got.tgz:43625.got - 2010.06.03 16:44:36.
