data_PCOD9231458
_publ_section_title
;
Structure prediction by ZEFSAII (Michael W. Deem and Ramdas Pophale) SiO2 
 PCOD9231458
Probable space group: P 2/C
;
_chemical_formula_sum "Si O2"
_cell_formula_units_Z 24
_cell_length_a 21.113481
_cell_length_b 8.114039
_cell_length_c 9.908905
_cell_angle_alpha 90.000000
_cell_angle_beta 33.896927
_cell_angle_gamma 90.000000
_cell_volume 946.724687
_symmetry_space_group_name_H-M "P 2/C"
_symmetry_group_IT_number 13
_symmetry_cell_setting 'monoclinic'
loop_
_space_group_symop_operation_xyz
x,y,z
-x,y,1/2-z
-x,-y,-z
x,-y,1/2+z
loop_
_atom_site_type_symbol
_atom_site_label
_atom_site_fract_x
_atom_site_fract_y
_atom_site_fract_z
Si Si1 0.192308 0.516892 0.091490
Si Si2 0.108512 0.064673 0.448931
Si Si3 0.649966 0.060877 0.585954
Si Si4 0.294506 0.165122 0.297056
Si Si5 0.999087 0.724875 0.946220
Si Si6 0.432999 0.394833 0.728639
O O1 0.104261 0.376131 0.195346
O O2 0.111904 0.614785 0.337259
O O3 0.250906 0.646995 0.884232
O O4 0.302398 0.448821 0.972632
O O5 0.041587 0.896493 0.545521
O O6 0.175980 0.073685 0.469388
O O7 0.036176 0.221975 0.532869
O O8 0.213450 0.079730 0.159179
O O9 0.628854 0.100285 0.464642
O O10 0.585832 0.203833 0.778803
O O11 0.643984 0.888022 0.673743
O O12 0.500000 0.410673 0.750000
O O13 0.500000 0.500000 0.500000
#
# Coordination Sequence:
#
# PCOD9231458 Si02
#       6
#     4   4   4   4   4   4
#     4  11  21  41  71 110 142 193 251 310 382 446
#     4   9  20  41  69 107 149 191 234 297 380 461
#     4  10  22  47  72 106 144 199 249 309 379 461
#     4  10  21  42  75 102 161 187 257 310 372 469
#     4  10  20  39  74 106 150 190 240 305 384 461
#     4  12  28  50  75 100 148 197 256 322 378 444
#
# _framework density 25.350557999999999
#
# number of rings (size 3 to 8) (size 9 to 14) (size 15 to 20)
#    1.000    0.667    3.333    1.000    0.000    3.333 
#    0.000    9.167    7.333    0.000    0.000    0.000 
#    0.000    0.000    0.000    0.000    0.000    0.000 
#
# Total GULP energy -133761.292520 kJ/mol
# GULP energy per Si atom -5573.387188 kJ/mol
# Density = 2.529286 g / cm^3
# Si number density = 25.350558 Si / 1000 Ang^3
#
#
#
# Elastic Constant Matrix: (Units=GPa)
#
#
# Indices 1 2 3 4 5 6 
#
# 1 104.8557 44.9461 47.1223 0.0000 -14.7242 0.0000
# 2 44.9461 131.1372 52.1176 0.0000 -18.5367 0.0000
# 3 47.1223 52.1176 146.7476 0.0000 -22.7982 0.0000
# 4 0.0000 0.0000 0.0000 47.4175 0.0000 -17.1052
# 5 -14.7242 -18.5367 -22.7982 0.0000 43.1687 0.0000
# 6 0.0000 0.0000 0.0000 -17.1052 0.0000 26.8639
#
#
#
# Elastic Compliance Matrix: (Units=1/GPa)
#
#
# Indices 1 2 3 4 5 6 
#
# 1 0.012185 -0.002912 -0.002644 0.000000 0.001509 0.000000
# 2 -0.002912 0.009797 -0.002228 0.000000 0.002037 0.000000
# 3 -0.002644 -0.002228 0.008896 0.000000 0.002840 0.000000
# 4 0.000000 0.000000 0.000000 0.027378 0.000000 0.017432
# 5 0.001509 0.002037 0.002840 0.000000 0.026054 0.000000
# 6 0.000000 0.000000 0.000000 0.017432 0.000000 0.048324
#
#
# Mechanical properties :
#
#
# Convention : Reuss Voigt Hill
#
# Bulk Modulus (GPa) = 65.31683 74.56806 69.94245
# Shear Modulus (GPa) = 32.61443 39.39365 36.00404
#
# Velocity S-wave (km/s) = 3.59072 3.94630 3.77270
# Velocity P-wave (km/s) = 6.55839 7.08823 6.82845
#
# Compressibility (1/GPa) = 0.01530999
#
# Stress axis : x y z
#
# Youngs Moduli (GPa) = 82.06499 102.07108 112.41211
#
# Poissons Ratio (x) = 0.29726 0.29723
# Poissons Ratio (y) = 0.23899 0.25043
# Poissons Ratio (z) = 0.21699 0.22740
#
# Static dielectric constant tensor:
#      x y z
#    x 2.033930 0.000000 0.053610 
#    y 0.000000 2.020750 0.000000 
#    z 0.053610 0.000000 2.069750 
# 
# From -- ./inp_files/41552.got.cif
#   From: 2010.05.17/outbox.cif.g08.bks.cpg/sg13_21_cif.got.tgz:41552.got - 2010.06.03 16:44:36.
