data_PCOD9231441
_publ_section_title
;
Structure prediction by ZEFSAII (Michael W. Deem and Ramdas Pophale) SiO2 
 PCOD9231441
Probable space group: P 2/C
;
_chemical_formula_sum "Si O2"
_cell_formula_units_Z 14
_cell_length_a 9.832433
_cell_length_b 6.706320
_cell_length_c 18.883676
_cell_angle_alpha 90.000000
_cell_angle_beta 25.974514
_cell_angle_gamma 90.000000
_cell_volume 545.352700
_symmetry_space_group_name_H-M "P 2/C"
_symmetry_group_IT_number 13
_symmetry_cell_setting 'monoclinic'
loop_
_space_group_symop_operation_xyz
x,y,z
-x,y,1/2-z
-x,-y,-z
x,-y,1/2+z
loop_
_atom_site_type_symbol
_atom_site_label
_atom_site_fract_x
_atom_site_fract_y
_atom_site_fract_z
Si Si1 0.083858 0.733324 0.328821
Si Si2 0.000000 0.407626 0.250000
Si Si3 0.736078 0.867152 0.978538
Si Si4 0.871522 0.777170 0.576792
O O1 0.098627 0.557062 0.265778
O O2 0.009951 0.663980 0.443415
O O3 0.412701 0.844537 0.169867
O O4 0.833517 0.903066 0.424832
O O5 0.255227 0.256365 0.098374
O O6 0.988204 0.759140 0.910966
O O7 0.500000 0.761264 0.750000
O O8 0.000000 0.000000 0.500000
#
# Coordination Sequence:
#
# PCOD9231441 Si02
#       4
#     4   2   4   4
#     4  11  24  44  69  97 131 171 217 269 324 384
#     4  12  28  42  64  96 134 178 218 262 322 388
#     4  11  24  44  69  97 131 171 217 269 324 384
#     4  10  20  39  68  97 127 167 215 268 324 381
#
# _framework density 25.671458999999999
#
# number of rings (size 3 to 8) (size 9 to 14) (size 15 to 20)
#    0.000    1.143    0.000    9.429    0.000   12.571 
#    0.000    0.000    0.000    0.000    0.000    0.000 
#    0.000    0.000    0.000    0.000    0.000    0.000 
#
# Total GULP energy -78385.540962 kJ/mol
# GULP energy per Si atom -5598.967212 kJ/mol
# Density = 2.561303 g / cm^3
# Si number density = 25.671459 Si / 1000 Ang^3
#
#
#
# Elastic Constant Matrix: (Units=GPa)
#
#
# Indices 1 2 3 4 5 6 
#
# 1 119.2095 45.8211 49.9570 0.0000 16.9273 0.0000
# 2 45.8211 92.1019 15.3938 0.0000 24.5134 0.0000
# 3 49.9570 15.3938 196.4722 0.0000 4.0927 0.0000
# 4 0.0000 0.0000 0.0000 22.7488 0.0000 29.1137
# 5 16.9273 24.5134 4.0927 0.0000 51.1874 0.0000
# 6 0.0000 0.0000 0.0000 29.1137 0.0000 40.7755
#
#
#
# Elastic Compliance Matrix: (Units=1/GPa)
#
#
# Indices 1 2 3 4 5 6 
#
# 1 0.011536 -0.004993 -0.002517 0.000000 -0.001222 0.000000
# 2 -0.004993 0.014749 0.000227 0.000000 -0.005430 0.000000
# 3 -0.002517 0.000227 0.005706 0.000000 0.000267 0.000000
# 4 0.000000 0.000000 0.000000 0.509774 0.000000 -0.363978
# 5 -0.001222 -0.005430 0.000267 0.000000 0.022519 0.000000
# 6 0.000000 0.000000 0.000000 -0.363978 0.000000 0.284404
#
#
# Mechanical properties :
#
#
# Convention : Reuss Voigt Hill
#
# Bulk Modulus (GPa) = 57.38554 70.01414 63.69984
# Shear Modulus (GPa) = 5.75332 42.71647 24.23489
#
# Velocity S-wave (km/s) = 1.49867 4.08360 3.07586
# Velocity P-wave (km/s) = 5.03955 7.04037 6.12225
#
# Compressibility (1/GPa) = 0.01742599
#
# Stress axis : x y z
#
# Youngs Moduli (GPa) = 86.68459 67.80119 175.24472
#
# Poissons Ratio (x) = 0.33855 0.44102
# Poissons Ratio (y) = 0.43284 -0.03981
# Poissons Ratio (z) = 0.21815 -0.01540
#
# Static dielectric constant tensor:
#      x y z
#    x 2.134020 0.000000 0.069510 
#    y 0.000000 2.116350 0.000000 
#    z 0.069510 0.000000 1.980600 
# 
# From -- ./inp_files/63149.got.cif
#   From: 2010.05.17/outbox.cif.g08.bks.cpg/sg13_32_cif.got.tgz:63149.got - 2010.06.03 16:44:36.
