data_PCOD9231087
_publ_section_title
;
Structure prediction by ZEFSAII (Michael W. Deem and Ramdas Pophale) SiO2 
 PCOD9231087
Probable space group: P 2/C
;
_chemical_formula_sum "Si O2"
_cell_formula_units_Z 26
_cell_length_a 9.634020
_cell_length_b 9.668952
_cell_length_c 20.602675
_cell_angle_alpha 90.000000
_cell_angle_beta 38.907301
_cell_angle_gamma 90.000000
_cell_volume 1205.350162
_symmetry_space_group_name_H-M "P 2/C"
_symmetry_group_IT_number 13
_symmetry_cell_setting 'monoclinic'
loop_
_space_group_symop_operation_xyz
x,y,z
-x,y,1/2-z
-x,-y,-z
x,-y,1/2+z
loop_
_atom_site_type_symbol
_atom_site_label
_atom_site_fract_x
_atom_site_fract_y
_atom_site_fract_z
Si Si1 0.802553 0.758147 0.060435
Si Si2 0.000000 0.279945 0.750000
Si Si3 0.450434 0.659411 0.095392
Si Si4 0.000000 0.156270 0.250000
Si Si5 0.599566 0.650300 0.894970
Si Si6 0.038290 0.042866 0.372718
Si Si7 0.500000 0.031788 0.750000
Si Si8 0.103884 0.275464 0.562811
O O1 0.635070 0.663850 0.082108
O O2 0.940230 0.677707 0.065172
O O3 0.642664 0.871267 0.151235
O O4 0.950821 0.843610 0.955362
O O5 0.252640 0.228547 0.671675
O O6 0.048756 0.327767 0.656218
O O7 0.338354 0.508787 0.139961
O O8 0.569589 0.669130 0.983206
O O9 0.204443 0.251256 0.196419
O O10 0.047139 0.069537 0.168742
O O11 0.357382 0.687230 0.956134
O O12 0.305307 0.044639 0.281714
O O13 0.941192 0.890262 0.423418
#
# Coordination Sequence:
#
# PCOD9231087 Si02
#       8
#     4   2   4   2   4   4   2   4
#     4  11  22  40  64  92 122 164 208 252 307 372
#     4  10  20  38  64  88 120 156 208 246 310 360
#     4  10  20  41  62  88 120 164 203 259 299 366
#     4  12  24  40  60  96 122 170 210 250 314 370
#     4  10  23  39  62  87 125 159 208 252 309 360
#     4  11  24  38  62  92 126 162 204 256 306 374
#     4  10  22  40  64  88 130 162 202 256 324 360
#     4  10  22  40  62  92 121 161 201 257 309 369
#
# _framework density 21.570495000000001
#
# number of rings (size 3 to 8) (size 9 to 14) (size 15 to 20)
#    0.000    1.538    1.538    4.615    4.308    2.462 
#    0.000    0.000    6.769    0.000    0.000    0.000 
#    0.000    0.000    0.000    0.000    0.000    0.000 
#
# Total GULP energy -144860.299317 kJ/mol
# GULP energy per Si atom -5571.549974 kJ/mol
# Density = 2.152140 g / cm^3
# Si number density = 21.570495 Si / 1000 Ang^3
#
#
#
# Elastic Constant Matrix: (Units=GPa)
#
#
# Indices 1 2 3 4 5 6 
#
# 1 172.5754 11.2935 25.5995 0.0000 -13.7868 0.0000
# 2 11.2935 31.2174 -1.2124 0.0000 -5.7253 0.0000
# 3 25.5995 -1.2124 68.6561 0.0000 -12.5392 0.0000
# 4 0.0000 0.0000 0.0000 19.2527 0.0000 -5.9824
# 5 -13.7868 -5.7253 -12.5392 0.0000 28.9820 0.0000
# 6 0.0000 0.0000 0.0000 -5.9824 0.0000 15.4908
#
#
#
# Elastic Compliance Matrix: (Units=1/GPa)
#
#
# Indices 1 2 3 4 5 6 
#
# 1 0.006379 -0.002075 -0.002102 0.000000 0.001715 0.000000
# 2 -0.002075 0.034152 0.002637 0.000000 0.006901 0.000000
# 3 -0.002102 0.002637 0.016622 0.000000 0.006712 0.000000
# 4 0.000000 0.000000 0.000000 0.059024 0.000000 0.022794
# 5 0.001715 0.006901 0.006712 0.000000 0.039588 0.000000
# 6 0.000000 0.000000 0.000000 0.022794 0.000000 0.073357
#
#
# Mechanical properties :
#
#
# Convention : Reuss Voigt Hill
#
# Bulk Modulus (GPa) = 18.49345 38.20113 28.34729
# Shear Modulus (GPa) = 19.98199 28.52965 24.25582
#
# Velocity S-wave (km/s) = 3.04691 3.64073 3.35698
# Velocity P-wave (km/s) = 4.57934 5.95161 5.30999
#
# Compressibility (1/GPa) = 0.05407321
#
# Stress axis : x y z
#
# Youngs Moduli (GPa) = 156.76002 29.28090 60.16263
#
# Poissons Ratio (x) = 0.06075 0.12646
# Poissons Ratio (y) = 0.32525 -0.15865
# Poissons Ratio (z) = 0.32950 -0.07721
#
# Static dielectric constant tensor:
#      x y z
#    x 1.963270 0.000000 -0.012910 
#    y 0.000000 1.866710 0.000000 
#    z -0.012910 0.000000 1.757690 
# 
# From -- ./inp_files/53400.got.cif
#   From: 2010.05.17/outbox.cif.g08.bks.cpg/sg13_27_cif.got.tgz:53400.got - 2010.06.03 16:44:36.
