data_PCOD9231094
_publ_section_title
;
Structure prediction by ZEFSAII (Michael W. Deem and Ramdas Pophale) SiO2 
 PCOD9231094
Probable space group: P 2/C
;
_chemical_formula_sum "Si O2"
_cell_formula_units_Z 26
_cell_length_a 6.496430
_cell_length_b 11.921076
_cell_length_c 18.927625
_cell_angle_alpha 90.000000
_cell_angle_beta 55.728930
_cell_angle_gamma 90.000000
_cell_volume 1211.344227
_symmetry_space_group_name_H-M "P 2/C"
_symmetry_group_IT_number 13
_symmetry_cell_setting 'monoclinic'
loop_
_space_group_symop_operation_xyz
x,y,z
-x,y,1/2-z
-x,-y,-z
x,-y,1/2+z
loop_
_atom_site_type_symbol
_atom_site_label
_atom_site_fract_x
_atom_site_fract_y
_atom_site_fract_z
Si Si1 0.712316 0.069985 0.658372
Si Si2 0.060262 0.841021 0.890829
Si Si3 0.000000 0.253508 0.250000
Si Si4 0.976344 0.276024 0.839297
Si Si5 0.690482 0.571964 0.146599
Si Si6 0.465267 0.331663 0.341316
Si Si7 0.427288 0.226325 0.936252
O O1 0.500000 0.020428 0.750000
O O2 0.582889 0.120848 0.614663
O O3 0.839290 0.175586 0.673175
O O4 0.904584 0.972461 0.603538
O O5 0.070170 0.818500 0.805028
O O6 0.281037 0.773061 0.888144
O O7 0.798796 0.793003 0.967465
O O8 0.746335 0.322187 0.316258
O O9 0.700648 0.239655 0.914032
O O10 0.000000 0.291636 0.750000
O O11 0.054512 0.387554 0.866405
O O12 0.500000 0.579124 0.250000
O O13 0.671041 0.448998 0.116994
O O14 0.619964 0.663538 0.102029
O O15 0.500000 0.334525 0.250000
#
# Coordination Sequence:
#
# PCOD9231094 Si02
#       7
#     4   4   2   4   4   4   4
#     4  11  22  39  64  90 122 163 203 256 315 371
#     4  11  25  41  61  90 130 166 209 256 309 369
#     4  10  22  42  64  88 124 172 214 248 308 376
#     4  11  20  37  63  93 123 158 204 252 311 374
#     4  10  20  38  64  90 121 161 204 261 313 364
#     4   9  21  41  62  89 121 166 212 256 306 370
#     4  11  23  39  61  95 125 162 206 259 315 365
#
# _framework density 21.463757999999999
#
# number of rings (size 3 to 8) (size 9 to 14) (size 15 to 20)
#    0.000    1.538    3.077    2.769    1.077    8.615 
#    1.385    1.538    0.000    0.000    0.000    0.000 
#    0.000    0.000    0.000    0.000    0.000    0.000 
#
# Total GULP energy -145233.238821 kJ/mol
# GULP energy per Si atom -5585.893801 kJ/mol
# Density = 2.141491 g / cm^3
# Si number density = 21.463758 Si / 1000 Ang^3
#
#
#
# Elastic Constant Matrix: (Units=GPa)
#
#
# Indices 1 2 3 4 5 6 
#
# 1 116.0985 28.8188 8.6208 0.0000 -24.0809 0.0000
# 2 28.8188 84.2748 -2.6205 0.0000 7.8160 0.0000
# 3 8.6208 -2.6205 51.6737 0.0000 -11.0273 0.0000
# 4 0.0000 0.0000 0.0000 6.4974 0.0000 0.8471
# 5 -24.0809 7.8160 -11.0273 0.0000 26.9483 0.0000
# 6 0.0000 0.0000 0.0000 0.8471 0.0000 17.6207
#
#
#
# Elastic Compliance Matrix: (Units=1/GPa)
#
#
# Indices 1 2 3 4 5 6 
#
# 1 0.012674 -0.005536 0.000399 0.000000 0.013094 0.000000
# 2 -0.005536 0.014613 -0.000324 0.000000 -0.009318 0.000000
# 3 0.000399 -0.000324 0.021218 0.000000 0.009133 0.000000
# 4 0.000000 0.000000 0.000000 0.154877 0.000000 -0.007446
# 5 0.013094 -0.009318 0.009133 0.000000 0.055249 0.000000
# 6 0.000000 0.000000 0.000000 -0.007446 0.000000 0.057109
#
#
# Mechanical properties :
#
#
# Convention : Reuss Voigt Hill
#
# Bulk Modulus (GPa) = 26.60700 35.74283 31.17492
# Shear Modulus (GPa) = 14.74100 24.69517 19.71808
#
# Velocity S-wave (km/s) = 2.62350 3.39566 3.03424
# Velocity P-wave (km/s) = 4.64760 5.66240 5.17991
#
# Compressibility (1/GPa) = 0.03758409
#
# Stress axis : x y z
#
# Youngs Moduli (GPa) = 78.90220 68.43154 47.12932
#
# Poissons Ratio (x) = 0.37884 -0.01881
# Poissons Ratio (y) = 0.43680 0.01526
# Poissons Ratio (z) = -0.03150 0.02216
#
# Static dielectric constant tensor:
#      x y z
#    x 1.782780 0.000000 -0.020150 
#    y 0.000000 1.776200 0.000000 
#    z -0.020150 0.000000 1.803840 
# 
# From -- ./inp_files/61118.got.cif
#   From: 2010.05.17/outbox.cif.g08.bks.cpg/sg13_31_cif.got.tgz:61118.got - 2010.06.03 16:44:36.
