data_PCOD9231424
_publ_section_title
;
Structure prediction by ZEFSAII (Michael W. Deem and Ramdas Pophale) SiO2 
 PCOD9231424
Probable space group: P 2/C
;
_chemical_formula_sum "Si O2"
_cell_formula_units_Z 16
_cell_length_a 14.224519
_cell_length_b 4.914759
_cell_length_c 13.194571
_cell_angle_alpha 90.000000
_cell_angle_beta 136.562281
_cell_angle_gamma 90.000000
_cell_volume 634.233653
_symmetry_space_group_name_H-M "P 2/C"
_symmetry_group_IT_number 13
_symmetry_cell_setting 'monoclinic'
loop_
_space_group_symop_operation_xyz
x,y,z
-x,y,1/2-z
-x,-y,-z
x,-y,1/2+z
loop_
_atom_site_type_symbol
_atom_site_label
_atom_site_fract_x
_atom_site_fract_y
_atom_site_fract_z
Si Si1 0.630246 0.312076 0.921545
Si Si2 0.754248 0.864842 0.705514
Si Si3 0.941339 0.393449 0.846325
Si Si4 0.232579 0.816424 0.549390
O O1 0.500000 0.257528 0.750000
O O2 0.668410 0.627152 0.939494
O O3 0.747571 0.129855 0.961117
O O4 0.626054 0.195943 0.032328
O O5 0.867346 0.659410 0.746964
O O6 0.731256 0.779411 0.803831
O O7 0.825695 0.159515 0.764122
O O8 0.000000 0.500000 0.000000
O O9 0.078102 0.270792 0.905954
#
# Coordination Sequence:
#
# PCOD9231424 Si02
#       4
#     4   4   4   4
#     4  12  27  42  61  92 125 171 224 250 296 379
#     4  11  23  41  66  95 128 162 203 263 320 371
#     4  10  20  39  67  98 124 155 203 257 326 387
#     4  11  23  42  65  90 127 163 202 267 319 363
#
# _framework density 25.227295000000002
#
# number of rings (size 3 to 8) (size 9 to 14) (size 15 to 20)
#    0.000    1.000    0.000    9.750    0.000    8.000 
#    0.000    0.000    0.000    0.000    0.000    0.000 
#    0.000    0.000    0.000    0.000    0.000    0.000 
#
# Total GULP energy -89533.909303 kJ/mol
# GULP energy per Si atom -5595.869331 kJ/mol
# Density = 2.516988 g / cm^3
# Si number density = 25.227295 Si / 1000 Ang^3
#
#
#
# Elastic Constant Matrix: (Units=GPa)
#
#
# Indices 1 2 3 4 5 6 
#
# 1 38.9362 3.5502 21.7085 0.0000 -26.6864 0.0000
# 2 3.5502 120.0018 35.1419 0.0000 -2.6407 0.0000
# 3 21.7085 35.1419 181.0261 0.0000 -53.7779 0.0000
# 4 0.0000 0.0000 0.0000 27.6993 0.0000 -8.0355
# 5 -26.6864 -2.6407 -53.7779 0.0000 36.7305 0.0000
# 6 0.0000 0.0000 0.0000 -8.0355 0.0000 33.8618
#
#
#
# Elastic Compliance Matrix: (Units=1/GPa)
#
#
# Indices 1 2 3 4 5 6 
#
# 1 0.061870 -0.003895 0.011693 0.000000 0.061792 0.000000
# 2 -0.003895 0.009316 -0.003509 0.000000 -0.007299 0.000000
# 3 0.011693 -0.003509 0.012834 0.000000 0.027034 0.000000
# 4 0.000000 0.000000 0.000000 0.038771 0.000000 0.009201
# 5 0.061792 -0.007299 0.027034 0.000000 0.111177 0.000000
# 6 0.000000 0.000000 0.000000 0.009201 0.000000 0.031715
#
#
# Mechanical properties :
#
#
# Convention : Reuss Voigt Hill
#
# Bulk Modulus (GPa) = 10.79939 51.19615 30.99777
# Shear Modulus (GPa) = 17.36284 38.29588 27.82936
#
# Velocity S-wave (km/s) = 2.62631 3.90042 3.32497
# Velocity P-wave (km/s) = 3.67244 6.37357 5.20140
#
# Compressibility (1/GPa) = 0.09259783
#
# Stress axis : x y z
#
# Youngs Moduli (GPa) = 16.16288 107.34715 77.91639
#
# Poissons Ratio (x) = 0.41812 -0.91111
# Poissons Ratio (y) = 0.06295 0.27345
# Poissons Ratio (z) = -0.18900 0.37673
#
# Static dielectric constant tensor:
#      x y z
#    x 2.069450 0.000000 -0.036970 
#    y 0.000000 1.918070 0.000000 
#    z -0.036970 0.000000 2.117410 
# 
# From -- ./inp_files/52409.got.cif
#   From: 2010.05.17/outbox.cif.g08.bks.cpg/sg13_27_cif.got.tgz:52409.got - 2010.06.03 16:44:36.
