data_PCOD9231356
_publ_section_title
;
Structure prediction by ZEFSAII (Michael W. Deem and Ramdas Pophale) SiO2 
 PCOD9231356
Probable space group: P 2/C
;
_chemical_formula_sum "Si O2"
_cell_formula_units_Z 20
_cell_length_a 16.703682
_cell_length_b 4.972974
_cell_length_c 24.849377
_cell_angle_alpha 90.000000
_cell_angle_beta 24.134241
_cell_angle_gamma 90.000000
_cell_volume 843.986373
_symmetry_space_group_name_H-M "P 2/C"
_symmetry_group_IT_number 13
_symmetry_cell_setting 'monoclinic'
loop_
_space_group_symop_operation_xyz
x,y,z
-x,y,1/2-z
-x,-y,-z
x,-y,1/2+z
loop_
_atom_site_type_symbol
_atom_site_label
_atom_site_fract_x
_atom_site_fract_y
_atom_site_fract_z
Si Si1 0.792177 0.402233 0.406629
Si Si2 0.828282 0.727882 0.496143
Si Si3 0.446509 0.111402 0.474857
Si Si4 0.193303 0.997838 0.316875
Si Si5 0.211981 0.230968 0.916319
O O1 0.807256 0.562926 0.453994
O O2 0.656255 0.603156 0.456390
O O3 0.000000 0.378801 0.250000
O O4 0.695774 0.108020 0.466319
O O5 0.743982 0.528048 0.592817
O O6 0.059285 0.792533 0.364237
O O7 0.735555 0.015922 0.569062
O O8 0.500000 0.000000 0.500000
O O9 0.640845 0.131620 0.319985
O O10 0.281041 0.853742 0.315349
O O11 0.026524 0.204188 0.439726
#
# Coordination Sequence:
#
# PCOD9231356 Si02
#       5
#     4   4   4   4   4
#     4  12  27  44  64  92 131 171 209 262 331 375
#     4  10  20  39  64  91 125 170 205 248 319 372
#     4  12  27  43  67  96 124 164 221 269 309 375
#     4   9  22  38  69  93 127 162 220 247 309 374
#     4   9  20  36  69  92 126 168 207 247 314 380
#
# _framework density 23.697064000000001
#
# number of rings (size 3 to 8) (size 9 to 14) (size 15 to 20)
#    1.200    0.400    0.000    4.200    5.600    0.000 
#    0.000    6.000    0.000    0.000    0.000    0.000 
#    0.000    0.000    0.000    0.000    0.000    0.000 
#
# Total GULP energy -111753.583696 kJ/mol
# GULP energy per Si atom -5587.679185 kJ/mol
# Density = 2.364313 g / cm^3
# Si number density = 23.697064 Si / 1000 Ang^3
#
#
#
# Elastic Constant Matrix: (Units=GPa)
#
#
# Indices 1 2 3 4 5 6 
#
# 1 71.6344 -19.7452 2.6044 0.0000 1.0282 0.0000
# 2 -19.7452 94.8087 -2.2487 0.0000 -17.9862 0.0000
# 3 2.6044 -2.2487 97.5765 0.0000 -2.3074 0.0000
# 4 0.0000 0.0000 0.0000 -0.1925 0.0000 3.5879
# 5 1.0282 -17.9862 -2.3074 0.0000 19.6929 0.0000
# 6 0.0000 0.0000 0.0000 3.5879 0.0000 30.4964
#
#
#
# Elastic Compliance Matrix: (Units=1/GPa)
#
#
# Indices 1 2 3 4 5 6 
#
# 1 0.014917 0.003565 -0.000258 0.000000 0.002447 0.000000
# 2 0.003565 0.013642 0.000511 0.000000 0.012333 0.000000
# 3 -0.000258 0.000511 0.010307 0.000000 0.001688 0.000000
# 4 0.000000 0.000000 0.000000 -1.627068 0.000000 0.191423
# 5 0.002447 0.012333 0.001688 0.000000 0.062114 0.000000
# 6 0.000000 0.000000 0.000000 0.191423 0.000000 0.010270
#
#
# Mechanical properties :
#
#
# Convention : Reuss Voigt Hill
#
# Bulk Modulus (GPa) = 21.50534 25.02673 23.26603
# Shear Modulus (GPa) = -3.31575 28.89330 12.78877
#
# Velocity S-wave (km/s) = -1.18417 3.49560 2.32562
# Velocity P-wave (km/s) = 2.68796 5.18424 4.12925
#
# Compressibility (1/GPa) = 0.04650009
#
# Stress axis : x y z
#
# Youngs Moduli (GPa) = 67.03950 73.30401 97.02194
#
# Poissons Ratio (x) = -0.26130 0.02504
# Poissons Ratio (y) = -0.23897 -0.04957
# Poissons Ratio (z) = 0.01731 -0.03745
#
# Static dielectric constant tensor:
#      x y z
#    x 1.963500 0.000000 -0.069870 
#    y 0.000000 1.848690 0.000000 
#    z -0.069870 0.000000 1.841410 
# 
# From -- ./inp_files/93123.got.cif
#   From: 2010.05.17/outbox.cif.g08.bks.cpg/sg13_47_cif.got.tgz:93123.got - 2010.06.03 16:44:36.
