data_PCOD9231938
_publ_section_title
;
Structure prediction by ZEFSAII (Michael W. Deem and Ramdas Pophale) SiO2 
 PCOD9231938
Probable space group: P 2/C
;
_chemical_formula_sum "Si O2"
_cell_formula_units_Z 26
_cell_length_a 16.701153
_cell_length_b 8.221828
_cell_length_c 14.695884
_cell_angle_alpha 90.000000
_cell_angle_beta 142.908047
_cell_angle_gamma 90.000000
_cell_volume 1217.017937
_symmetry_space_group_name_H-M "P 2/C"
_symmetry_group_IT_number 13
_symmetry_cell_setting 'monoclinic'
loop_
_space_group_symop_operation_xyz
x,y,z
-x,y,1/2-z
-x,-y,-z
x,-y,1/2+z
loop_
_atom_site_type_symbol
_atom_site_label
_atom_site_fract_x
_atom_site_fract_y
_atom_site_fract_z
Si Si1 0.262149 0.574867 0.312452
Si Si2 0.847907 0.626143 0.620102
Si Si3 0.985717 0.240078 0.549220
Si Si4 0.500000 0.203444 0.250000
Si Si5 0.275194 0.572752 0.636794
Si Si6 0.395143 0.913706 0.469620
Si Si7 0.885458 0.077727 0.274263
O O1 0.234123 0.467558 0.375987
O O2 0.312540 0.470209 0.273521
O O3 0.359592 0.726155 0.415642
O O4 0.115754 0.648300 0.158032
O O5 0.765731 0.590362 0.454704
O O6 0.866724 0.811010 0.669168
O O7 0.000000 0.561836 0.750000
O O8 0.861465 0.327393 0.481443
O O9 0.942688 0.185687 0.408845
O O10 0.023719 0.082438 0.643554
O O11 0.614954 0.320230 0.314052
O O12 0.555589 0.093363 0.381961
O O13 0.500000 0.000000 0.500000
O O14 0.259429 0.011524 0.333670
#
# Coordination Sequence:
#
# PCOD9231938 Si02
#       7
#     4   4   4   2   4   4   4
#     4  11  23  44  72 100 135 182 229 289 357 409
#     4  12  23  40  68 107 133 172 229 290 353 418
#     4  10  20  42  70  99 136 182 213 285 360 416
#     4  12  28  44  68 102 130 192 236 274 354 412
#     4  12  24  41  71  99 139 178 237 287 344 427
#     4  11  26  47  68  96 140 189 234 291 343 417
#     4  10  23  40  67 102 135 173 229 278 356 415
#
# _framework density 21.363693999999999
#
# number of rings (size 3 to 8) (size 9 to 14) (size 15 to 20)
#    0.000    0.923    4.615    2.308    0.000    4.308 
#    0.000    0.000    0.000    0.000    0.000    0.000 
#    0.000    0.000    0.000    0.000    0.000    0.000 
#
# Total GULP energy -145416.470264 kJ/mol
# GULP energy per Si atom -5592.941164 kJ/mol
# Density = 2.131507 g / cm^3
# Si number density = 21.363694 Si / 1000 Ang^3
#
#
#
# Elastic Constant Matrix: (Units=GPa)
#
#
# Indices 1 2 3 4 5 6 
#
# 1 102.5697 21.9548 9.9473 0.0000 0.0912 0.0000
# 2 21.9548 41.5550 -8.7861 0.0000 8.5809 0.0000
# 3 9.9473 -8.7861 53.4965 0.0000 1.4660 0.0000
# 4 0.0000 0.0000 0.0000 10.1174 0.0000 -9.2046
# 5 0.0912 8.5809 1.4660 0.0000 19.3373 0.0000
# 6 0.0000 0.0000 0.0000 -9.2046 0.0000 23.6748
#
#
#
# Elastic Compliance Matrix: (Units=1/GPa)
#
#
# Indices 1 2 3 4 5 6 
#
# 1 0.011739 -0.007702 -0.003547 0.000000 0.003631 0.000000
# 2 -0.007702 0.032770 0.007227 0.000000 -0.015053 0.000000
# 3 -0.003547 0.007227 0.020670 0.000000 -0.004757 0.000000
# 4 0.000000 0.000000 0.000000 0.152935 0.000000 0.059460
# 5 0.003631 -0.015053 -0.004757 0.000000 0.058737 0.000000
# 6 0.000000 0.000000 0.000000 0.059460 0.000000 0.065357
#
#
# Mechanical properties :
#
#
# Convention : Reuss Voigt Hill
#
# Bulk Modulus (GPa) = 17.50279 27.09481 22.29880
# Shear Modulus (GPa) = 13.53926 22.25957 17.89941
#
# Velocity S-wave (km/s) = 2.52017 3.23140 2.89769
# Velocity P-wave (km/s) = 4.08398 5.16070 4.65359
#
# Compressibility (1/GPa) = 0.05713374
#
# Stress axis : x y z
#
# Youngs Moduli (GPa) = 85.18763 30.51576 48.38012
#
# Poissons Ratio (x) = 0.23503 0.17161
# Poissons Ratio (y) = 0.65610 -0.34963
# Poissons Ratio (z) = 0.30218 -0.22053
#
# Static dielectric constant tensor:
#      x y z
#    x 1.764800 0.000000 -0.020290 
#    y 0.000000 1.780150 0.000000 
#    z -0.020290 0.000000 1.766140 
# 
# From -- ./inp_files/53366.got.cif
#   From: 2010.05.17/outbox.cif.g08.bks.cpg/sg13_27_cif.got.tgz:53366.got - 2010.06.03 16:44:36.
