data_PCOD9231223
_publ_section_title
;
Structure prediction by ZEFSAII (Michael W. Deem and Ramdas Pophale) SiO2 
 PCOD9231223
Probable space group: P 2/C
;
_chemical_formula_sum "Si O2"
_cell_formula_units_Z 28
_cell_length_a 26.792300
_cell_length_b 9.383246
_cell_length_c 8.124892
_cell_angle_alpha 90.000000
_cell_angle_beta 139.022734
_cell_angle_gamma 90.000000
_cell_volume 1339.446284
_symmetry_space_group_name_H-M "P 2/C"
_symmetry_group_IT_number 13
_symmetry_cell_setting 'monoclinic'
loop_
_space_group_symop_operation_xyz
x,y,z
-x,y,1/2-z
-x,-y,-z
x,-y,1/2+z
loop_
_atom_site_type_symbol
_atom_site_label
_atom_site_fract_x
_atom_site_fract_y
_atom_site_fract_z
Si Si1 0.000000 0.500000 0.000000
Si Si2 0.662143 0.446173 0.228763
Si Si3 0.293032 0.085370 0.617613
Si Si4 0.758141 0.655972 0.659903
Si Si5 0.122373 0.406051 0.551642
Si Si6 0.500000 0.358399 0.750000
Si Si7 0.731515 0.209653 0.586160
Si Si8 0.468275 0.151543 0.984503
O O1 0.933423 0.410570 0.932470
O O2 0.932866 0.594421 0.741859
O O3 0.702081 0.591063 0.380727
O O4 0.714302 0.374789 0.219176
O O5 0.671621 0.336318 0.404003
O O6 0.575464 0.451767 0.961060
O O7 0.234516 0.178748 0.362321
O O8 0.282553 0.134551 0.776926
O O9 0.280054 0.917621 0.570783
O O10 0.377588 0.127574 0.769902
O O11 0.832315 0.557501 0.839444
O O12 0.186380 0.285368 0.714748
O O13 0.512286 0.263434 0.614316
O O14 0.500000 0.181411 0.250000
O O15 0.500000 0.000000 0.000000
#
# Coordination Sequence:
#
# PCOD9231223 Si02
#       8
#     2   4   4   4   4   2   4   4
#     4  10  20  38  72 100 130 158 206 238 334 394
#     4  11  23  41  61  90 126 175 228 294 345 410
#     4  12  23  41  63  93 124 181 227 281 340 412
#     4  11  22  41  65  91 129 169 227 267 342 409
#     4  10  21  41  68 102 128 167 204 273 314 419
#     4  12  24  42  60  88 136 178 242 316 358 414
#     4  11  24  40  65  95 134 168 231 274 339 403
#     4  12  24  39  61  89 129 181 243 304 366 416
#
# _framework density 20.904159
#
# number of rings (size 3 to 8) (size 9 to 14) (size 15 to 20)
#    0.000    0.857    2.143    7.714    0.000    0.571 
#    1.286    0.000    0.000   15.429    0.000    0.000 
#    0.000    0.000    0.000    0.000    0.000    0.000 
#
# Total GULP energy -156006.143188 kJ/mol
# GULP energy per Si atom -5571.647971 kJ/mol
# Density = 2.085658 g / cm^3
# Si number density = 20.904159 Si / 1000 Ang^3
#
#
#
# Elastic Constant Matrix: (Units=GPa)
#
#
# Indices 1 2 3 4 5 6 
#
# 1 91.5626 0.4167 27.1981 0.0000 5.8798 0.0000
# 2 0.4167 58.9236 14.7862 0.0000 6.7324 0.0000
# 3 27.1981 14.7862 102.6226 0.0000 20.6938 0.0000
# 4 0.0000 0.0000 0.0000 24.3907 0.0000 -6.8471
# 5 5.8798 6.7324 20.6938 0.0000 50.3279 0.0000
# 6 0.0000 0.0000 0.0000 -6.8471 0.0000 23.2438
#
#
#
# Elastic Compliance Matrix: (Units=1/GPa)
#
#
# Indices 1 2 3 4 5 6 
#
# 1 0.011886 0.000744 -0.003225 0.000000 -0.000162 0.000000
# 2 0.000744 0.017749 -0.002462 0.000000 -0.001449 0.000000
# 3 -0.003225 -0.002462 0.011789 0.000000 -0.004141 0.000000
# 4 0.000000 0.000000 0.000000 0.044695 0.000000 0.013166
# 5 -0.000162 -0.001449 -0.004141 0.000000 0.021785 0.000000
# 6 0.000000 0.000000 0.000000 0.013166 0.000000 0.046901
#
#
# Mechanical properties :
#
#
# Convention : Reuss Voigt Hill
#
# Bulk Modulus (GPa) = 31.70783 37.54564 34.62673
# Shear Modulus (GPa) = 28.53799 33.63969 31.08884
#
# Velocity S-wave (km/s) = 3.69885 4.01588 3.86062
# Velocity P-wave (km/s) = 5.78300 6.28513 6.03929
#
# Compressibility (1/GPa) = 0.03153795
#
# Stress axis : x y z
#
# Youngs Moduli (GPa) = 84.12977 56.34024 84.82522
#
# Poissons Ratio (x) = -0.04190 0.27354
# Poissons Ratio (y) = -0.06257 0.20887
# Poissons Ratio (z) = 0.27129 0.13873
#
# Static dielectric constant tensor:
#      x y z
#    x 1.825450 0.000000 -0.083580 
#    y 0.000000 1.699190 0.000000 
#    z -0.083580 0.000000 1.819970 
# 
# From -- ./inp_files/24631.got.cif
#   From: 2010.05.17/outbox.cif.g08.bks.cpg/sg13_13_cif.got.tgz:24631.got - 2010.06.03 16:44:36.
