data_PCOD9231608
_publ_section_title
;
Structure prediction by ZEFSAII (Michael W. Deem and Ramdas Pophale) SiO2 
 PCOD9231608
Probable space group: P 2/C
;
_chemical_formula_sum "Si O2"
_cell_formula_units_Z 26
_cell_length_a 16.060221
_cell_length_b 7.385460
_cell_length_c 16.514072
_cell_angle_alpha 90.000000
_cell_angle_beta 40.237904
_cell_angle_gamma 90.000000
_cell_volume 1265.292033
_symmetry_space_group_name_H-M "P 2/C"
_symmetry_group_IT_number 13
_symmetry_cell_setting 'monoclinic'
loop_
_space_group_symop_operation_xyz
x,y,z
-x,y,1/2-z
-x,-y,-z
x,-y,1/2+z
loop_
_atom_site_type_symbol
_atom_site_label
_atom_site_fract_x
_atom_site_fract_y
_atom_site_fract_z
Si Si1 0.526849 0.086097 0.640367
Si Si2 0.402102 0.350921 0.603881
Si Si3 0.097038 0.643766 0.022297
Si Si4 0.831627 0.680520 0.120777
Si Si5 0.000000 0.823567 0.250000
Si Si6 0.255835 0.970686 0.125364
Si Si7 0.275764 0.086543 0.289764
O O1 0.500000 0.156472 0.750000
O O2 0.482357 0.225323 0.605145
O O3 0.671798 0.039358 0.508512
O O4 0.425531 0.920879 0.704213
O O5 0.500000 0.500000 0.500000
O O6 0.281796 0.421354 0.745888
O O7 0.332060 0.214896 0.592706
O O8 0.138349 0.435523 0.980784
O O9 0.196741 0.769006 0.899218
O O10 0.078981 0.704528 0.127277
O O11 0.959867 0.673650 0.079643
O O12 0.784911 0.886744 0.145059
O O13 0.106514 0.937758 0.219020
O O14 0.269170 0.093867 0.196520
#
# Coordination Sequence:
#
# PCOD9231608 Si02
#       7
#     4   4   4   4   2   4   4
#     4  10  21  40  59  93 121 149 206 261 308 368
#     4  10  21  41  63  87 122 160 207 251 304 372
#     4  11  21  38  64  84 126 161 200 254 306 359
#     4   9  21  38  59  91 114 160 210 238 300 372
#     4  12  22  40  58  96 128 150 206 260 300 376
#     4  10  22  39  62  93 118 160 206 248 312 371
#     4  10  20  40  66  86 120 163 206 250 302 374
#
# _framework density 20.548615999999999
#
# number of rings (size 3 to 8) (size 9 to 14) (size 15 to 20)
#    0.000    2.154    3.077    3.231    4.308    0.000 
#    5.538    0.769    0.000    0.000    0.000    0.000 
#    0.000    0.000    0.000    0.000    0.000    0.000 
#
# Total GULP energy -145055.529592 kJ/mol
# GULP energy per Si atom -5579.058830 kJ/mol
# Density = 2.050185 g / cm^3
# Si number density = 20.548616 Si / 1000 Ang^3
#
#
#
# Elastic Constant Matrix: (Units=GPa)
#
#
# Indices 1 2 3 4 5 6 
#
# 1 44.6282 4.0352 5.9290 0.0000 -2.8140 0.0000
# 2 4.0352 37.6445 29.1082 0.0000 4.0314 0.0000
# 3 5.9290 29.1082 109.2896 0.0000 0.2118 0.0000
# 4 0.0000 0.0000 0.0000 26.0446 0.0000 -7.4621
# 5 -2.8140 4.0314 0.2118 0.0000 28.9604 0.0000
# 6 0.0000 0.0000 0.0000 -7.4621 0.0000 9.2758
#
#
#
# Elastic Compliance Matrix: (Units=1/GPa)
#
#
# Indices 1 2 3 4 5 6 
#
# 1 0.022854 -0.002215 -0.000655 0.000000 0.002534 0.000000
# 2 -0.002215 0.034291 -0.009003 0.000000 -0.004923 0.000000
# 3 -0.000655 -0.009003 0.011581 0.000000 0.001105 0.000000
# 4 0.000000 0.000000 0.000000 0.049897 0.000000 0.040140
# 5 0.002534 -0.004923 0.001105 0.000000 0.035453 0.000000
# 6 0.000000 0.000000 0.000000 0.040140 0.000000 0.140100
#
#
# Mechanical properties :
#
#
# Convention : Reuss Voigt Hill
#
# Bulk Modulus (GPa) = 22.23191 29.96746 26.09968
# Shear Modulus (GPa) = 15.01884 23.02214 19.02049
#
# Velocity S-wave (km/s) = 2.70644 3.35083 3.04572
# Velocity P-wave (km/s) = 4.53972 5.43931 5.00975
#
# Compressibility (1/GPa) = 0.04498039
#
# Stress axis : x y z
#
# Youngs Moduli (GPa) = 43.75522 29.16256 86.34594
#
# Poissons Ratio (x) = 0.06459 0.05655
# Poissons Ratio (y) = 0.09691 0.77739
# Poissons Ratio (z) = 0.02865 0.26256
#
# Static dielectric constant tensor:
#      x y z
#    x 1.743560 0.000000 0.006360 
#    y 0.000000 1.759320 0.000000 
#    z 0.006360 0.000000 1.771720 
# 
# From -- ./inp_files/53281.got.cif
#   From: 2010.05.17/outbox.cif.g08.bks.cpg/sg13_27_cif.got.tgz:53281.got - 2010.06.03 16:44:36.
