data_PCOD9231052
_publ_section_title
;
Structure prediction by ZEFSAII (Michael W. Deem and Ramdas Pophale) SiO2 
 PCOD9231052
Probable space group: P 2/C
;
_chemical_formula_sum "Si O2"
_cell_formula_units_Z 32
_cell_length_a 15.690547
_cell_length_b 20.638450
_cell_length_c 15.566284
_cell_angle_alpha 90.000000
_cell_angle_beta 161.901241
_cell_angle_gamma 90.000000
_cell_volume 1565.956292
_symmetry_space_group_name_H-M "P 2/C"
_symmetry_group_IT_number 13
_symmetry_cell_setting 'monoclinic'
loop_
_space_group_symop_operation_xyz
x,y,z
-x,y,1/2-z
-x,-y,-z
x,-y,1/2+z
loop_
_atom_site_type_symbol
_atom_site_label
_atom_site_fract_x
_atom_site_fract_y
_atom_site_fract_z
Si Si1 0.712286 0.859073 0.760063
Si Si2 0.972245 0.056178 0.078856
Si Si3 0.465393 0.976902 0.615299
Si Si4 0.265825 0.453929 0.954186
Si Si5 0.792338 0.811390 0.484302
Si Si6 0.207179 0.624658 0.228304
Si Si7 0.791879 0.224882 0.785583
Si Si8 0.307983 0.556856 0.858686
O O1 0.849224 0.908068 0.822323
O O2 0.549700 0.904497 0.670170
O O3 0.497930 0.808053 0.514912
O O4 0.974924 0.817187 0.038768
O O5 0.162686 0.000054 0.300017
O O6 0.884580 0.114310 0.057200
O O7 0.684729 0.023839 0.777342
O O8 0.500000 0.986399 0.750000
O O9 0.302738 0.402645 0.912534
O O10 0.214290 0.522372 0.856183
O O11 0.000000 0.433085 0.750000
O O12 0.500000 0.458849 0.250000
O O13 0.500000 0.810536 0.250000
O O14 0.810824 0.781586 0.407255
O O15 0.000000 0.779414 0.750000
O O16 0.160746 0.700525 0.190816
O O17 0.468315 0.613050 0.416277
O O18 0.945825 0.583369 0.941662
O O19 0.500000 0.500000 0.000000
#
# Coordination Sequence:
#
# PCOD9231052 Si02
#       8
#     4   4   4   4   4   4   4   4
#     4  11  23  40  58  82 116 155 197 245 294 356
#     4  11  21  36  59  83 110 147 193 247 313 373
#     4  12  23  36  57  85 114 146 192 251 309 358
#     4  11  21  37  62  96 126 153 195 251 292 329
#     4  11  21  37  58  85 115 146 190 250 300 348
#     4  11  22  41  64  88 121 167 207 233 283 361
#     4  11  24  41  61  82 116 165 202 230 281 355
#     4  10  20  38  63  89 120 155 189 239 300 348
#
# _framework density 20.434797
#
# number of rings (size 3 to 8) (size 9 to 14) (size 15 to 20)
#    0.000    1.000    0.000   11.250    0.000    0.000 
#    0.000    5.625    0.000    0.000    0.000    0.000 
#    0.000    0.000    0.000    0.000    0.000    0.000 
#
# Total GULP energy -178605.124138 kJ/mol
# GULP energy per Si atom -5581.410129 kJ/mol
# Density = 2.038829 g / cm^3
# Si number density = 20.434797 Si / 1000 Ang^3
#
#
#
# Elastic Constant Matrix: (Units=GPa)
#
#
# Indices 1 2 3 4 5 6 
#
# 1 55.2347 31.7762 18.6513 0.0000 -0.9346 0.0000
# 2 31.7762 98.4114 11.7777 0.0000 -5.1688 0.0000
# 3 18.6513 11.7777 94.1357 0.0000 3.2153 0.0000
# 4 0.0000 0.0000 0.0000 -22.3178 0.0000 3.2792
# 5 -0.9346 -5.1688 3.2153 0.0000 22.7123 0.0000
# 6 0.0000 0.0000 0.0000 3.2792 0.0000 32.6309
#
#
#
# Elastic Compliance Matrix: (Units=1/GPa)
#
#
# Indices 1 2 3 4 5 6 
#
# 1 0.023476 -0.007138 -0.003754 0.000000 -0.000127 0.000000
# 2 -0.007138 0.012634 -0.000256 0.000000 0.002618 0.000000
# 3 -0.003754 -0.000256 0.011461 0.000000 -0.001835 0.000000
# 4 0.000000 0.000000 0.000000 -0.044155 0.000000 0.004437
# 5 -0.000127 0.002618 -0.001835 0.000000 0.044879 0.000000
# 6 0.000000 0.000000 0.000000 0.004437 0.000000 0.030200
#
#
# Mechanical properties :
#
#
# Convention : Reuss Voigt Hill
#
# Bulk Modulus (GPa) = 39.56215 41.35469 40.45842
# Shear Modulus (GPa) = 45.78044 18.97684 32.37864
#
# Velocity S-wave (km/s) = 4.73833 3.05069 3.98488
# Velocity P-wave (km/s) = 7.02410 5.71754 6.40423
#
# Compressibility (1/GPa) = 0.02527668
#
# Stress axis : x y z
#
# Youngs Moduli (GPa) = 42.59615 79.14999 87.24885
#
# Poissons Ratio (x) = 0.56495 0.32754
# Poissons Ratio (y) = 0.30404 0.02233
# Poissons Ratio (z) = 0.15991 0.02026
#
# Static dielectric constant tensor:
#      x y z
#    x 1.766330 0.000000 0.023470 
#    y 0.000000 1.763070 0.000000 
#    z 0.023470 0.000000 1.733990 
# 
# From -- ./inp_files/54008.got.cif
#   From: 2010.05.17/outbox.cif.g08.bks.cpg/sg13_28_cif.got.tgz:54008.got - 2010.06.03 16:44:36.
