data_PCOD9231066
_publ_section_title
;
Structure prediction by ZEFSAII (Michael W. Deem and Ramdas Pophale) SiO2 
 PCOD9231066
Probable space group: P 2/C
;
_chemical_formula_sum "Si O2"
_cell_formula_units_Z 22
_cell_length_a 16.464604
_cell_length_b 8.956190
_cell_length_c 8.623565
_cell_angle_alpha 90.000000
_cell_angle_beta 120.273251
_cell_angle_gamma 90.000000
_cell_volume 1098.220767
_symmetry_space_group_name_H-M "P 2/C"
_symmetry_group_IT_number 13
_symmetry_cell_setting 'monoclinic'
loop_
_space_group_symop_operation_xyz
x,y,z
-x,y,1/2-z
-x,-y,-z
x,-y,1/2+z
loop_
_atom_site_type_symbol
_atom_site_label
_atom_site_fract_x
_atom_site_fract_y
_atom_site_fract_z
Si Si1 0.653571 0.144170 0.217314
Si Si2 0.155189 0.379413 0.608982
Si Si3 0.692952 0.819071 0.118488
Si Si4 0.185250 0.686558 0.809320
Si Si5 0.484149 0.334418 0.919850
Si Si6 0.000000 0.260910 0.250000
O O1 0.668007 0.161564 0.414399
O O2 0.732651 0.236362 0.202683
O O3 0.672814 0.974431 0.185748
O O4 0.554575 0.213947 0.067057
O O5 0.202705 0.250424 0.758835
O O6 0.155886 0.538194 0.690186
O O7 0.215151 0.372515 0.507301
O O8 0.051762 0.346444 0.440798
O O9 0.620173 0.706295 0.127044
O O10 0.096018 0.797079 0.760059
O O11 0.500000 0.329097 0.750000
O O12 0.500000 0.500000 0.000000
#
# Coordination Sequence:
#
# PCOD9231066 Si02
#       6
#     4   4   4   4   4   2
#     4  12  25  43  65  93 131 171 210 257 315 380
#     4  10  20  38  63  93 125 165 210 265 314 371
#     4  12  25  43  65  93 131 171 210 257 315 380
#     4  10  20  38  63  93 125 165 210 265 314 371
#     4  12  25  44  69 100 130 166 210 256 307 370
#     4   8  22  36  68  88 134 152 226 258 330 362
#
# _framework density 20.032402000000001
#
# number of rings (size 3 to 8) (size 9 to 14) (size 15 to 20)
#    1.091    0.000    0.000    8.182    0.000    0.000 
#    0.000    0.909    0.000    0.000    0.000    0.000 
#    0.000    0.000    0.000    0.000    0.000    0.000 
#
# Total GULP energy -122551.045659 kJ/mol
# GULP energy per Si atom -5570.502075 kJ/mol
# Density = 1.998681 g / cm^3
# Si number density = 20.032402 Si / 1000 Ang^3
#
#
#
# Elastic Constant Matrix: (Units=GPa)
#
#
# Indices 1 2 3 4 5 6 
#
# 1 77.4670 1.1949 30.3389 0.0000 -2.5303 0.0000
# 2 1.1949 60.0883 20.9528 0.0000 9.7566 0.0000
# 3 30.3389 20.9528 130.8017 0.0000 -11.5800 0.0000
# 4 0.0000 0.0000 0.0000 14.4403 0.0000 -14.4923
# 5 -2.5303 9.7566 -11.5800 0.0000 48.7614 0.0000
# 6 0.0000 0.0000 0.0000 -14.4923 0.0000 7.1388
#
#
#
# Elastic Compliance Matrix: (Units=1/GPa)
#
#
# Indices 1 2 3 4 5 6 
#
# 1 0.014250 0.000979 -0.003487 0.000000 -0.000285 0.000000
# 2 0.000979 0.018618 -0.003611 0.000000 -0.004532 0.000000
# 3 -0.003487 -0.003611 0.009275 0.000000 0.002744 0.000000
# 4 0.000000 0.000000 0.000000 -0.066754 0.000000 -0.135516
# 5 -0.000285 -0.004532 0.002744 0.000000 0.022052 0.000000
# 6 0.000000 0.000000 0.000000 -0.135516 0.000000 -0.135030
#
#
# Mechanical properties :
#
#
# Convention : Reuss Voigt Hill
#
# Bulk Modulus (GPa) = 33.43921 41.48114 37.46018
# Shear Modulus (GPa) = -43.33404 28.45945 -7.43730
#
# Velocity S-wave (km/s) = -4.65606 3.77327 -1.92891
# Velocity P-wave (km/s) = 3.48948 6.30360 3.71207
#
# Compressibility (1/GPa) = 0.02990501
#
# Stress axis : x y z
#
# Youngs Moduli (GPa) = 70.17518 53.71285 107.81302
#
# Poissons Ratio (x) = -0.05258 0.37597
# Poissons Ratio (y) = -0.06869 0.38926
# Poissons Ratio (z) = 0.24472 0.19393
#
# Static dielectric constant tensor:
#      x y z
#    x 1.712120 0.000000 0.024490 
#    y 0.000000 1.693130 0.000000 
#    z 0.024490 0.000000 1.728910 
# 
# From -- ./inp_files/20979.got.cif
#   From: 2010.05.17/outbox.cif.g08.bks.cpg/sg13_11_cif.got.tgz:20979.got - 2010.06.03 16:44:36.
