data_PCOD9231063
_publ_section_title
;
Structure prediction by ZEFSAII (Michael W. Deem and Ramdas Pophale) SiO2 
 PCOD9231063
Probable space group: P 2/C
;
_chemical_formula_sum "Si O2"
_cell_formula_units_Z 32
_cell_length_a 12.039309
_cell_length_b 12.083733
_cell_length_c 10.525001
_cell_angle_alpha 90.000000
_cell_angle_beta 68.508960
_cell_angle_gamma 90.000000
_cell_volume 1424.719853
_symmetry_space_group_name_H-M "P 2/C"
_symmetry_group_IT_number 13
_symmetry_cell_setting 'monoclinic'
loop_
_space_group_symop_operation_xyz
x,y,z
-x,y,1/2-z
-x,-y,-z
x,-y,1/2+z
loop_
_atom_site_type_symbol
_atom_site_label
_atom_site_fract_x
_atom_site_fract_y
_atom_site_fract_z
Si Si1 0.983461 0.833563 0.897678
Si Si2 0.448568 0.620493 0.991792
Si Si3 0.014444 0.621036 0.059010
Si Si4 0.245353 0.895528 0.803938
Si Si5 0.388965 0.277256 0.891687
Si Si6 0.729513 0.643712 0.646928
Si Si7 0.272196 0.946784 0.510363
Si Si8 0.762531 0.407741 0.733737
O O1 0.864794 0.906094 0.946987
O O2 0.000000 0.784310 0.750000
O O3 0.101378 0.906674 0.869721
O O4 0.979968 0.730570 0.993118
O O5 0.556290 0.696535 0.993329
O O6 0.332949 0.640427 0.128888
O O7 0.500000 0.500000 0.000000
O O8 0.393652 0.630067 0.876306
O O9 0.901271 0.618201 0.203062
O O10 0.000000 0.500000 0.000000
O O11 0.158024 0.634059 0.998134
O O12 0.264496 0.763849 0.792973
O O13 0.291947 0.951884 0.654355
O O14 0.293789 0.946014 0.914952
O O15 0.500000 0.293075 0.750000
O O16 0.283652 0.357203 0.883004
O O17 0.345614 0.152447 0.916188
O O18 0.746266 0.540044 0.733400
#
# Coordination Sequence:
#
# PCOD9231063 Si02
#       8
#     4   4   4   4   4   4   4   4
#     4   9  18  37  66  94 126 169 215 266 331 405
#     4  11  23  38  62  90 128 172 220 263 314 393
#     4   9  18  36  56  94 132 161 199 261 330 396
#     4  10  24  41  67  98 127 174 217 281 330 399
#     4  10  22  40  64  93 122 173 220 266 324 387
#     4  10  22  40  60  94 134 160 220 258 328 398
#     4  11  22  43  69  93 132 171 226 272 336 385
#     4  10  20  38  63  92 130 166 205 267 330 390
#
# _framework density 22.460554999999999
#
# number of rings (size 3 to 8) (size 9 to 14) (size 15 to 20)
#    0.000    2.000    2.500    0.375    1.750    2.500 
#   11.250    2.500    0.000    0.000    0.000    0.000 
#    0.000    0.000    0.000    0.000    0.000    0.000 
#
# Total GULP energy -178461.723541 kJ/mol
# GULP energy per Si atom -5576.928861 kJ/mol
# Density = 2.240943 g / cm^3
# Si number density = 22.460555 Si / 1000 Ang^3
#
#
#
# Elastic Constant Matrix: (Units=GPa)
#
#
# Indices 1 2 3 4 5 6 
#
# 1 114.4793 3.5543 21.3299 0.0000 -6.2648 0.0000
# 2 3.5543 59.3280 19.6745 0.0000 0.4882 0.0000
# 3 21.3299 19.6745 60.7503 0.0000 -9.7305 0.0000
# 4 0.0000 0.0000 0.0000 10.9032 0.0000 -3.8230
# 5 -6.2648 0.4882 -9.7305 0.0000 27.6803 0.0000
# 6 0.0000 0.0000 0.0000 -3.8230 0.0000 12.8310
#
#
#
# Elastic Compliance Matrix: (Units=1/GPa)
#
#
# Indices 1 2 3 4 5 6 
#
# 1 0.009389 0.000529 -0.003316 0.000000 0.000950 0.000000
# 2 0.000529 0.019096 -0.006787 0.000000 -0.002603 0.000000
# 3 -0.003316 -0.006787 0.020899 0.000000 0.006716 0.000000
# 4 0.000000 0.000000 0.000000 0.102415 0.000000 0.030514
# 5 0.000950 -0.002603 0.006716 0.000000 0.038749 0.000000
# 6 0.000000 0.000000 0.000000 0.030514 0.000000 0.087028
#
#
# Mechanical properties :
#
#
# Convention : Reuss Voigt Hill
#
# Bulk Modulus (GPa) = 33.07292 35.96388 34.51840
# Shear Modulus (GPa) = 16.29725 22.94950 19.62337
#
# Velocity S-wave (km/s) = 2.69661 3.19998 2.95902
# Velocity P-wave (km/s) = 4.94494 5.44977 5.20348
#
# Compressibility (1/GPa) = 0.03023622
#
# Stress axis : x y z
#
# Youngs Moduli (GPa) = 106.51293 52.36720 47.84981
#
# Poissons Ratio (x) = -0.02772 0.15865
# Poissons Ratio (y) = -0.05637 0.32476
# Poissons Ratio (z) = 0.35316 0.35542
#
# Static dielectric constant tensor:
#      x y z
#    x 1.868910 0.000000 0.069890 
#    y 0.000000 1.786010 0.000000 
#    z 0.069890 0.000000 2.071180 
# 
# From -- ./inp_files/34137.got.cif
#   From: 2010.05.17/outbox.cif.g08.bks.cpg/sg13_18_cif.got.tgz:34137.got - 2010.06.03 16:44:36.
