data_PCOD9231824
_publ_section_title
;
Structure prediction by ZEFSAII (Michael W. Deem and Ramdas Pophale) SiO2 
 PCOD9231824
Probable space group: P 2/C
;
_chemical_formula_sum "Si O2"
_cell_formula_units_Z 24
_cell_length_a 25.152944
_cell_length_b 11.687852
_cell_length_c 8.746236
_cell_angle_alpha 90.000000
_cell_angle_beta 149.053320
_cell_angle_gamma 90.000000
_cell_volume 1322.241284
_symmetry_space_group_name_H-M "P 2/C"
_symmetry_group_IT_number 13
_symmetry_cell_setting 'monoclinic'
loop_
_space_group_symop_operation_xyz
x,y,z
-x,y,1/2-z
-x,-y,-z
x,-y,1/2+z
loop_
_atom_site_type_symbol
_atom_site_label
_atom_site_fract_x
_atom_site_fract_y
_atom_site_fract_z
Si Si1 0.331272 0.209966 0.451257
Si Si2 0.686560 0.131485 0.762464
Si Si3 0.500000 0.957628 0.250000
Si Si4 0.385629 0.568237 0.899077
Si Si5 0.388432 0.654083 0.555386
Si Si6 0.000000 0.027789 0.250000
Si Si7 0.851473 0.937064 0.134717
O O1 0.309913 0.208365 0.577606
O O2 0.341429 0.329905 0.392537
O O3 0.434743 0.131621 0.691445
O O4 0.237801 0.147005 0.136396
O O5 0.590247 0.041810 0.534332
O O6 0.667405 0.222617 0.580662
O O7 0.790324 0.057088 0.006504
O O8 0.392893 0.603704 0.738985
O O9 0.500000 0.555299 0.250000
O O10 0.337771 0.444826 0.823586
O O11 0.500000 0.679050 0.750000
O O12 0.085608 0.094974 0.558430
O O13 0.935625 0.952260 0.210104
#
# Coordination Sequence:
#
# PCOD9231824 Si02
#       7
#     4   4   2   4   4   2   4
#     4  11  21  35  53  85 115 154 186 228 272 342
#     4  11  21  35  53  85 115 154 186 228 272 342
#     4  10  22  30  54  76 126 150 182 220 270 322
#     4  11  22  36  55  77 112 155 194 230 269 322
#     4  11  22  36  55  77 112 155 194 230 269 322
#     4  10  20  42  56  84 110 150 180 250 274 356
#     4  10  22  36  62  82 118 142 194 222 304 326
#
# _framework density 18.150998999999999
#
# number of rings (size 3 to 8) (size 9 to 14) (size 15 to 20)
#    0.000    1.333    3.333    4.500    2.333    1.333 
#    0.000    0.000    0.000    0.000    0.000    7.000 
#    0.000    0.000    0.000    0.000    0.000    0.000 
#
# Total GULP energy -133754.798487 kJ/mol
# GULP energy per Si atom -5573.116604 kJ/mol
# Density = 1.810969 g / cm^3
# Si number density = 18.150999 Si / 1000 Ang^3
#
#
#
# Elastic Constant Matrix: (Units=GPa)
#
#
# Indices 1 2 3 4 5 6 
#
# 1 56.0193 20.2005 21.6080 0.0000 2.2605 0.0000
# 2 20.2005 85.3714 17.8620 0.0000 5.6014 0.0000
# 3 21.6080 17.8620 71.1355 0.0000 -3.1858 0.0000
# 4 0.0000 0.0000 0.0000 70.4378 0.0000 -8.9697
# 5 2.2605 5.6014 -3.1858 0.0000 24.0799 0.0000
# 6 0.0000 0.0000 0.0000 -8.9697 0.0000 13.1103
#
#
#
# Elastic Compliance Matrix: (Units=1/GPa)
#
#
# Indices 1 2 3 4 5 6 
#
# 1 0.021470 -0.003772 -0.005659 0.000000 -0.001887 0.000000
# 2 -0.003772 0.013293 -0.002328 0.000000 -0.003046 0.000000
# 3 -0.005659 -0.002328 0.016507 0.000000 0.003257 0.000000
# 4 0.000000 0.000000 0.000000 0.015552 0.000000 0.010640
# 5 -0.001887 -0.003046 0.003257 0.000000 0.042845 0.000000
# 6 0.000000 0.000000 0.000000 0.010640 0.000000 0.083556
#
#
# Mechanical properties :
#
#
# Convention : Reuss Voigt Hill
#
# Bulk Modulus (GPa) = 36.03491 36.87414 36.45452
# Shear Modulus (GPa) = 22.12456 31.71597 26.92026
#
# Velocity S-wave (km/s) = 3.49509 4.18465 3.85532
# Velocity P-wave (km/s) = 6.01527 6.61118 6.32025
#
# Compressibility (1/GPa) = 0.02775087
#
# Stress axis : x y z
#
# Youngs Moduli (GPa) = 46.57602 75.22644 60.57982
#
# Poissons Ratio (x) = 0.28379 0.34282
# Poissons Ratio (y) = 0.17571 0.14105
# Poissons Ratio (z) = 0.26357 0.17516
#
# Static dielectric constant tensor:
#      x y z
#    x 1.658670 0.000000 -0.034070 
#    y 0.000000 1.670720 0.000000 
#    z -0.034070 0.000000 1.644400 
# 
# From -- ./inp_files/18317.got.cif
#   From: 2010.05.17/outbox.cif.g08.bks.cpg/sg13_10_cif.got.tgz:18317.got - 2010.06.03 16:44:36.
