data_PCOD9231631
_publ_section_title
;
Structure prediction by ZEFSAII (Michael W. Deem and Ramdas Pophale) SiO2 
 PCOD9231631
Probable space group: P 2/C
;
_chemical_formula_sum "Si O2"
_cell_formula_units_Z 24
_cell_length_a 6.514505
_cell_length_b 17.358166
_cell_length_c 11.520591
_cell_angle_alpha 90.000000
_cell_angle_beta 62.629756
_cell_angle_gamma 90.000000
_cell_volume 1156.909860
_symmetry_space_group_name_H-M "P 2/C"
_symmetry_group_IT_number 13
_symmetry_cell_setting 'monoclinic'
loop_
_space_group_symop_operation_xyz
x,y,z
-x,y,1/2-z
-x,-y,-z
x,-y,1/2+z
loop_
_atom_site_type_symbol
_atom_site_label
_atom_site_fract_x
_atom_site_fract_y
_atom_site_fract_z
Si Si1 0.000000 0.810833 0.750000
Si Si2 0.500000 0.366295 0.250000
Si Si3 0.945111 0.874266 0.539565
Si Si4 0.023984 0.410767 0.466081
Si Si5 0.841295 0.728953 0.400784
Si Si6 0.652947 0.303819 0.450832
Si Si7 0.370114 0.019913 0.911730
O O1 0.863722 0.860218 0.693408
O O2 0.845829 0.759173 0.874690
O O3 0.256753 0.408556 0.328249
O O4 0.541761 0.317959 0.353749
O O5 0.879910 0.799871 0.479523
O O6 0.213594 0.902096 0.464008
O O7 0.802905 0.948178 0.541197
O O8 0.078243 0.351076 0.557227
O O9 0.000000 0.500000 0.500000
O O10 0.795340 0.376137 0.463779
O O11 0.577094 0.721174 0.423391
O O12 0.000000 0.743157 0.250000
O O13 0.500000 0.022705 0.750000
O O14 0.500000 0.000000 0.000000
#
# Coordination Sequence:
#
# PCOD9231631 Si02
#       7
#     2   2   4   4   4   4   4
#     4  12  20  44  74 102 130 176 244 294 346 418
#     4  10  20  40  66  96 130 170 232 294 346 412
#     4  11  26  43  70 105 137 182 240 292 354 437
#     4  11  24  43  68 101 139 189 238 294 359 420
#     4  11  27  43  65 103 144 188 235 291 362 435
#     4  11  22  42  68  99 134 177 236 295 350 417
#     4  11  27  47  71 104 144 190 236 301 365 431
#
# _framework density 20.744917000000001
#
# number of rings (size 3 to 8) (size 9 to 14) (size 15 to 20)
#    0.000    1.000    3.333    2.000    7.000    7.333 
#    0.000    0.000    0.000    0.000    0.000    0.000 
#    0.000    0.000    0.000    0.000    0.000    0.000 
#
# Total GULP energy -133692.723277 kJ/mol
# GULP energy per Si atom -5570.530137 kJ/mol
# Density = 2.069770 g / cm^3
# Si number density = 20.744917 Si / 1000 Ang^3
#
#
#
# Elastic Constant Matrix: (Units=GPa)
#
#
# Indices 1 2 3 4 5 6 
#
# 1 119.4217 43.2872 29.8530 0.0000 -5.9813 0.0000
# 2 43.2872 129.6315 20.9358 0.0000 4.2843 0.0000
# 3 29.8530 20.9358 90.3006 0.0000 -8.1335 0.0000
# 4 0.0000 0.0000 0.0000 18.5046 0.0000 6.6752
# 5 -5.9813 4.2843 -8.1335 0.0000 37.0329 0.0000
# 6 0.0000 0.0000 0.0000 6.6752 0.0000 8.8189
#
#
#
# Elastic Compliance Matrix: (Units=1/GPa)
#
#
# Indices 1 2 3 4 5 6 
#
# 1 0.010180 -0.003038 -0.002531 0.000000 0.001440 0.000000
# 2 -0.003038 0.008989 -0.001242 0.000000 -0.001803 0.000000
# 3 -0.002531 -0.001242 0.012421 0.000000 0.002463 0.000000
# 4 0.000000 0.000000 0.000000 0.074339 0.000000 -0.056269
# 5 0.001440 -0.001803 0.002463 0.000000 0.027985 0.000000
# 6 0.000000 0.000000 0.000000 -0.056269 0.000000 0.155985
#
#
# Mechanical properties :
#
#
# Convention : Reuss Voigt Hill
#
# Bulk Modulus (GPa) = 55.65939 58.61175 57.13557
# Shear Modulus (GPa) = 16.15457 29.22313 22.68885
#
# Velocity S-wave (km/s) = 2.79359 3.75732 3.31071
# Velocity P-wave (km/s) = 6.10689 6.86572 6.49740
#
# Compressibility (1/GPa) = 0.01796642
#
# Stress axis : x y z
#
# Youngs Moduli (GPa) = 98.23381 111.24886 80.51017
#
# Poissons Ratio (x) = 0.33798 0.20380
# Poissons Ratio (y) = 0.29844 0.10000
# Poissons Ratio (z) = 0.24867 0.13818
#
# Static dielectric constant tensor:
#      x y z
#    x 1.954080 0.000000 -0.033380 
#    y 0.000000 1.743880 0.000000 
#    z -0.033380 0.000000 1.869290 
# 
# From -- ./inp_files/26509.got.cif
#   From: 2010.05.17/outbox.cif.g08.bks.cpg/sg13_14_cif.got.tgz:26509.got - 2010.06.03 16:44:36.
