data_PCOD9231291
_publ_section_title
;
Structure prediction by ZEFSAII (Michael W. Deem and Ramdas Pophale) SiO2 
 PCOD9231291
Probable space group: P 2/C
;
_chemical_formula_sum "Si O2"
_cell_formula_units_Z 14
_cell_length_a 9.209515
_cell_length_b 13.079174
_cell_length_c 10.534179
_cell_angle_alpha 90.000000
_cell_angle_beta 150.294604
_cell_angle_gamma 90.000000
_cell_volume 628.777368
_symmetry_space_group_name_H-M "P 2/C"
_symmetry_group_IT_number 13
_symmetry_cell_setting 'monoclinic'
loop_
_space_group_symop_operation_xyz
x,y,z
-x,y,1/2-z
-x,-y,-z
x,-y,1/2+z
loop_
_atom_site_type_symbol
_atom_site_label
_atom_site_fract_x
_atom_site_fract_y
_atom_site_fract_z
Si Si1 0.163812 0.039934 0.500966
Si Si2 0.995589 0.261004 0.444065
Si Si3 0.456106 0.379399 0.961843
Si Si4 0.500000 0.274054 0.250000
O O1 0.500000 0.008957 0.750000
O O2 0.856009 0.836611 0.504778
O O3 0.000000 0.000000 0.500000
O O4 0.000000 0.005549 0.250000
O O5 0.770469 0.220405 0.384494
O O6 0.227171 0.336807 0.685847
O O7 0.770305 0.323370 0.184593
O O8 0.500000 0.500000 0.000000
O O9 0.367417 0.342728 0.036193
#
# Coordination Sequence:
#
# PCOD9231291 Si02
#       4
#     4   4   4   2
#     4  12  28  50  76 111 143 188 241 301 374 438
#     4  10  22  42  65  96 139 177 234 286 356 420
#     4  10  20  39  61  99 136 185 233 286 347 419
#     4   8  22  34  66  90 138 174 242 266 372 378
#
# _framework density 22.265433000000002
#
# number of rings (size 3 to 8) (size 9 to 14) (size 15 to 20)
#    1.714    0.000    0.000    4.286    2.000    2.286 
#    7.714    0.000    0.000    0.000    0.000    0.000 
#    0.000    0.000    0.000    0.000    0.000    0.000 
#
# Total GULP energy -78158.260689 kJ/mol
# GULP energy per Si atom -5582.732906 kJ/mol
# Density = 2.221476 g / cm^3
# Si number density = 22.265433 Si / 1000 Ang^3
#
#
#
# Elastic Constant Matrix: (Units=GPa)
#
#
# Indices 1 2 3 4 5 6 
#
# 1 117.1608 15.9374 56.9959 0.0000 11.0645 0.0000
# 2 15.9374 81.0941 38.2229 0.0000 10.4507 0.0000
# 3 56.9959 38.2229 188.4772 0.0000 25.9097 0.0000
# 4 0.0000 0.0000 0.0000 73.3542 0.0000 21.9908
# 5 11.0645 10.4507 25.9097 0.0000 32.4707 0.0000
# 6 0.0000 0.0000 0.0000 21.9908 0.0000 28.9308
#
#
#
# Elastic Compliance Matrix: (Units=1/GPa)
#
#
# Indices 1 2 3 4 5 6 
#
# 1 0.010064 -0.000528 -0.002795 0.000000 -0.001029 0.000000
# 2 -0.000528 0.013838 -0.002313 0.000000 -0.002428 0.000000
# 3 -0.002795 -0.002313 0.007174 0.000000 -0.004027 0.000000
# 4 0.000000 0.000000 0.000000 0.017656 0.000000 -0.013420
# 5 -0.001029 -0.002428 -0.004027 0.000000 0.035143 0.000000
# 6 0.000000 0.000000 0.000000 -0.013420 0.000000 0.044766
#
#
# Mechanical properties :
#
#
# Convention : Reuss Voigt Hill
#
# Bulk Modulus (GPa) = 50.49379 67.67162 59.08270
# Shear Modulus (GPa) = 34.12658 45.32286 39.72472
#
# Velocity S-wave (km/s) = 3.91924 4.51662 4.22849
# Velocity P-wave (km/s) = 6.57327 7.59335 7.10165
#
# Compressibility (1/GPa) = 0.01980441
#
# Stress axis : x y z
#
# Youngs Moduli (GPa) = 99.36514 72.26367 139.40176
#
# Poissons Ratio (x) = 0.03815 0.38960
# Poissons Ratio (y) = 0.05246 0.32242
# Poissons Ratio (z) = 0.27770 0.16714
#
# Static dielectric constant tensor:
#      x y z
#    x 1.862180 0.000000 0.006750 
#    y 0.000000 1.796620 0.000000 
#    z 0.006750 0.000000 1.782440 
# 
# From -- ./inp_files/34662.got.cif
#   From: 2010.05.17/outbox.cif.g08.bks.cpg/sg13_18_cif.got.tgz:34662.got - 2010.06.03 16:44:36.
