data_PCOD9231870
_publ_section_title
;
Structure prediction by ZEFSAII (Michael W. Deem and Ramdas Pophale) SiO2 
 PCOD9231870
Probable space group: P 2/C
;
_chemical_formula_sum "Si O2"
_cell_formula_units_Z 28
_cell_length_a 9.572458
_cell_length_b 14.564169
_cell_length_c 11.584915
_cell_angle_alpha 90.000000
_cell_angle_beta 59.590868
_cell_angle_gamma 90.000000
_cell_volume 1392.923929
_symmetry_space_group_name_H-M "P 2/C"
_symmetry_group_IT_number 13
_symmetry_cell_setting 'monoclinic'
loop_
_space_group_symop_operation_xyz
x,y,z
-x,y,1/2-z
-x,-y,-z
x,-y,1/2+z
loop_
_atom_site_type_symbol
_atom_site_label
_atom_site_fract_x
_atom_site_fract_y
_atom_site_fract_z
Si Si1 0.806314 0.445596 0.851902
Si Si2 0.307406 0.323447 0.802273
Si Si3 0.589345 0.988097 0.837064
Si Si4 0.164206 0.351464 0.105290
Si Si5 0.702478 0.279697 0.048521
Si Si6 0.663075 0.773247 0.806866
Si Si7 0.188190 0.846228 0.198821
O O1 0.713634 0.405070 0.780817
O O2 0.757395 0.549942 0.896504
O O3 0.000000 0.442583 0.750000
O O4 0.770044 0.373738 0.969286
O O5 0.500000 0.313195 0.750000
O O6 0.239168 0.232259 0.768669
O O7 0.187198 0.345181 0.958733
O O8 0.500000 0.007490 0.750000
O O9 0.638801 0.881565 0.810070
O O10 0.736249 0.059298 0.788979
O O11 0.500000 0.000000 0.000000
O O12 0.255613 0.261489 0.111948
O O13 0.000000 0.351850 0.250000
O O14 0.508559 0.278309 0.126868
O O15 0.759908 0.260510 0.153882
O O16 0.742436 0.193397 0.950293
O O17 0.000000 0.853507 0.250000
#
# Coordination Sequence:
#
# PCOD9231870 Si02
#       7
#     4   4   4   4   4   4   4
#     4  10  24  43  69  93 137 182 225 276 347 411
#     4  11  24  43  69 103 133 180 237 285 339 414
#     4  12  24  46  73 101 139 183 232 288 356 422
#     4  11  27  41  64 102 140 179 223 288 348 408
#     4  10  20  42  65  94 129 176 224 268 341 404
#     4  11  23  40  66  97 133 176 218 283 343 404
#     4  11  24  42  73  99 134 181 226 282 341 426
#
# _framework density 20.101597999999999
#
# number of rings (size 3 to 8) (size 9 to 14) (size 15 to 20)
#    0.000    1.143    2.857    3.857    8.000    4.000 
#    0.000    2.857    0.000    0.000    0.000    0.000 
#    0.000    0.000    0.000    0.000    0.000    0.000 
#
# Total GULP energy -156152.813316 kJ/mol
# GULP energy per Si atom -5576.886190 kJ/mol
# Density = 2.005585 g / cm^3
# Si number density = 20.101598 Si / 1000 Ang^3
#
#
#
# Elastic Constant Matrix: (Units=GPa)
#
#
# Indices 1 2 3 4 5 6 
#
# 1 93.2271 34.7466 21.2821 0.0000 0.7605 0.0000
# 2 34.7466 65.4934 17.0670 0.0000 -3.9683 0.0000
# 3 21.2821 17.0670 111.4747 0.0000 12.4188 0.0000
# 4 0.0000 0.0000 0.0000 12.0620 0.0000 1.5946
# 5 0.7605 -3.9683 12.4188 0.0000 28.3990 0.0000
# 6 0.0000 0.0000 0.0000 1.5946 0.0000 54.4163
#
#
#
# Elastic Compliance Matrix: (Units=1/GPa)
#
#
# Indices 1 2 3 4 5 6 
#
# 1 0.013637 -0.006893 -0.001472 0.000000 -0.000685 0.000000
# 2 -0.006893 0.019716 -0.002134 0.000000 0.003873 0.000000
# 3 -0.001472 -0.002134 0.010099 0.000000 -0.004675 0.000000
# 4 0.000000 0.000000 0.000000 0.083228 0.000000 -0.002439
# 5 -0.000685 0.003873 -0.004675 0.000000 0.037816 0.000000
# 6 0.000000 0.000000 0.000000 -0.002439 0.000000 0.018448
#
#
# Mechanical properties :
#
#
# Convention : Reuss Voigt Hill
#
# Bulk Modulus (GPa) = 44.53374 46.26518 45.39946
# Shear Modulus (GPa) = 23.64869 32.11541 27.88205
#
# Velocity S-wave (km/s) = 3.43367 4.00140 3.72836
# Velocity P-wave (km/s) = 6.15813 6.66438 6.41625
#
# Compressibility (1/GPa) = 0.02245489
#
# Stress axis : x y z
#
# Youngs Moduli (GPa) = 73.32916 50.71913 99.01740
#
# Poissons Ratio (x) = 0.34960 0.14575
# Poissons Ratio (y) = 0.50545 0.21132
# Poissons Ratio (z) = 0.10794 0.10824
#
# Static dielectric constant tensor:
#      x y z
#    x 1.707240 0.000000 0.016500 
#    y 0.000000 1.664690 0.000000 
#    z 0.016500 0.000000 1.728470 
# 
# From -- ./inp_files/30296.got.cif
#   From: 2010.05.17/outbox.cif.g08.bks.cpg/sg13_16_cif.got.tgz:30296.got - 2010.06.03 16:44:36.
