data_PCOD9231776
_publ_section_title
;
Structure prediction by ZEFSAII (Michael W. Deem and Ramdas Pophale) SiO2 
 PCOD9231776
Probable space group: P 2/C
;
_chemical_formula_sum "Si O2"
_cell_formula_units_Z 26
_cell_length_a 7.900477
_cell_length_b 7.915919
_cell_length_c 22.761569
_cell_angle_alpha 90.000000
_cell_angle_beta 128.661871
_cell_angle_gamma 90.000000
_cell_volume 1111.533145
_symmetry_space_group_name_H-M "P 2/C"
_symmetry_group_IT_number 13
_symmetry_cell_setting 'monoclinic'
loop_
_space_group_symop_operation_xyz
x,y,z
-x,y,1/2-z
-x,-y,-z
x,-y,1/2+z
loop_
_atom_site_type_symbol
_atom_site_label
_atom_site_fract_x
_atom_site_fract_y
_atom_site_fract_z
Si Si1 0.338623 0.957334 0.052187
Si Si2 0.213937 0.673301 0.733945
Si Si3 0.801668 0.483904 0.604534
Si Si4 0.810985 0.901572 0.095355
Si Si5 0.000000 0.044372 0.250000
Si Si6 0.322538 0.583011 0.047464
Si Si7 0.322380 0.709128 0.628122
O O1 0.574800 0.939857 0.072654
O O2 0.299045 0.770215 0.069252
O O3 0.337813 0.115869 0.095879
O O4 0.176957 0.999696 0.963192
O O5 0.187090 0.824033 0.774684
O O6 0.216591 0.743623 0.668137
O O7 0.453431 0.615976 0.802599
O O8 0.007448 0.548879 0.686085
O O9 0.835675 0.295434 0.588386
O O10 0.763436 0.594951 0.538171
O O11 0.575799 0.471445 0.591145
O O12 0.965350 0.943542 0.183193
O O13 0.220968 0.433687 0.064210
#
# Coordination Sequence:
#
# PCOD9231776 Si02
#       7
#     4   4   4   4   2   4   4
#     4  10  20  41  66  98 124 173 217 265 323 396
#     4  11  25  41  65  91 136 172 218 273 332 395
#     4  10  21  40  64 102 124 168 220 268 321 395
#     4  10  21  37  67  95 129 163 221 270 321 388
#     4  12  22  40  60  96 122 168 218 276 326 390
#     4  10  21  39  72  92 129 169 215 270 329 384
#     4  11  23  45  63  95 132 180 212 272 335 386
#
# _framework density 23.391113000000001
#
# number of rings (size 3 to 8) (size 9 to 14) (size 15 to 20)
#    0.000    1.538    3.077    1.846    2.154    3.692 
#    2.769    3.077    0.000    0.000    0.000    0.000 
#    0.000    0.000    0.000    0.000    0.000    0.000 
#
# Total GULP energy -145091.114637 kJ/mol
# GULP energy per Si atom -5580.427486 kJ/mol
# Density = 2.333787 g / cm^3
# Si number density = 23.391113 Si / 1000 Ang^3
#
#
#
# Elastic Constant Matrix: (Units=GPa)
#
#
# Indices 1 2 3 4 5 6 
#
# 1 35.1536 19.8658 29.2866 0.0000 -4.9784 0.0000
# 2 19.8658 131.7891 36.4960 0.0000 -20.2081 0.0000
# 3 29.2866 36.4960 93.8001 0.0000 -6.5867 0.0000
# 4 0.0000 0.0000 0.0000 37.3536 0.0000 -4.6738
# 5 -4.9784 -20.2081 -6.5867 0.0000 40.7736 0.0000
# 6 0.0000 0.0000 0.0000 -4.6738 0.0000 15.5953
#
#
#
# Elastic Compliance Matrix: (Units=1/GPa)
#
#
# Indices 1 2 3 4 5 6 
#
# 1 0.039484 -0.002585 -0.011201 0.000000 0.001731 0.000000
# 2 -0.002585 0.009271 -0.002528 0.000000 0.003871 0.000000
# 3 -0.011201 -0.002528 0.015129 0.000000 -0.000177 0.000000
# 4 0.000000 0.000000 0.000000 0.027814 0.000000 0.008336
# 5 0.001731 0.003871 -0.000177 0.000000 0.026627 0.000000
# 6 0.000000 0.000000 0.000000 0.008336 0.000000 0.066620
#
#
# Mechanical properties :
#
#
# Convention : Reuss Voigt Hill
#
# Bulk Modulus (GPa) = 31.99291 48.00439 39.99865
# Shear Modulus (GPa) = 21.93063 30.41746 26.17405
#
# Velocity S-wave (km/s) = 3.06529 3.61000 3.34874
# Velocity P-wave (km/s) = 5.12202 6.15980 5.66472
#
# Compressibility (1/GPa) = 0.03125692
#
# Stress axis : x y z
#
# Youngs Moduli (GPa) = 25.32700 107.86031 66.09632
#
# Poissons Ratio (x) = 0.27878 0.74032
# Poissons Ratio (y) = 0.06546 0.16712
# Poissons Ratio (z) = 0.28368 0.27272
#
# Static dielectric constant tensor:
#      x y z
#    x 1.970310 0.000000 0.056900 
#    y 0.000000 1.856660 0.000000 
#    z 0.056900 0.000000 1.898520 
# 
# From -- ./inp_files/75998.got.cif
#   From: 2010.05.17/outbox.cif.g08.bks.cpg/sg13_38_cif.got.tgz:75998.got - 2010.06.03 16:44:36.
