data_PCOD9231182
_publ_section_title
;
Structure prediction by ZEFSAII (Michael W. Deem and Ramdas Pophale) SiO2 
 PCOD9231182
Probable space group: P 2/C
;
_chemical_formula_sum "Si O2"
_cell_formula_units_Z 24
_cell_length_a 10.722840
_cell_length_b 9.305640
_cell_length_c 14.927789
_cell_angle_alpha 90.000000
_cell_angle_beta 38.441800
_cell_angle_gamma 90.000000
_cell_volume 926.074551
_symmetry_space_group_name_H-M "P 2/C"
_symmetry_group_IT_number 13
_symmetry_cell_setting 'monoclinic'
loop_
_space_group_symop_operation_xyz
x,y,z
-x,y,1/2-z
-x,-y,-z
x,-y,1/2+z
loop_
_atom_site_type_symbol
_atom_site_label
_atom_site_fract_x
_atom_site_fract_y
_atom_site_fract_z
Si Si1 0.178490 0.290976 0.086760
Si Si2 0.358521 0.894179 0.749269
Si Si3 0.375844 0.840029 0.138394
Si Si4 0.314582 0.426628 0.298361
Si Si5 0.721712 0.438293 0.869102
Si Si6 0.972351 0.236232 0.526060
O O1 0.180220 0.458392 0.113738
O O2 0.000000 0.225593 0.250000
O O3 0.399074 0.221230 0.974146
O O4 0.116923 0.276527 0.019622
O O5 0.500000 0.947700 0.750000
O O6 0.401008 0.724764 0.709727
O O7 0.384283 0.987875 0.645783
O O8 0.136216 0.887306 0.914315
O O9 0.277775 0.733575 0.119193
O O10 0.212357 0.808463 0.309124
O O11 0.500000 0.492355 0.250000
O O12 0.237402 0.518589 0.258071
O O13 0.129542 0.365778 0.460803
O O14 0.500000 0.500000 0.000000
#
# Coordination Sequence:
#
# PCOD9231182 Si02
#       6
#     4   4   4   4   4   4
#     4  11  21  42  63  90 134 178 209 266 326 386
#     4   9  19  39  65  98 135 161 210 282 332 374
#     4  11  23  38  67 101 126 170 226 271 323 396
#     4   9  20  39  62  93 132 164 210 275 329 380
#     4  10  23  42  60  89 132 174 218 264 323 386
#     4  10  20  38  67  98 127 165 220 265 331 384
#
# _framework density 25.915839999999999
#
# number of rings (size 3 to 8) (size 9 to 14) (size 15 to 20)
#    1.000    1.000    1.667    2.000    0.000    4.000 
#    6.000    7.500    0.000    3.000    0.000    0.000 
#    0.000    0.000    0.000    0.000    0.000    0.000 
#
# Total GULP energy -133801.909007 kJ/mol
# GULP energy per Si atom -5575.079542 kJ/mol
# Density = 2.585685 g / cm^3
# Si number density = 25.915840 Si / 1000 Ang^3
#
#
#
# Elastic Constant Matrix: (Units=GPa)
#
#
# Indices 1 2 3 4 5 6 
#
# 1 106.1891 18.6636 45.1914 0.0000 -21.3045 0.0000
# 2 18.6636 115.0524 8.8821 0.0000 -3.3577 0.0000
# 3 45.1914 8.8821 136.4287 0.0000 -25.9900 0.0000
# 4 0.0000 0.0000 0.0000 33.8789 0.0000 -5.3222
# 5 -21.3045 -3.3577 -25.9900 0.0000 35.1557 0.0000
# 6 0.0000 0.0000 0.0000 -5.3222 0.0000 37.5234
#
#
#
# Elastic Compliance Matrix: (Units=1/GPa)
#
#
# Indices 1 2 3 4 5 6 
#
# 1 0.011917 -0.001565 -0.002908 0.000000 0.004923 0.000000
# 2 -0.001565 0.008948 -0.000095 0.000000 -0.000164 0.000000
# 3 -0.002908 -0.000095 0.009267 0.000000 0.005080 0.000000
# 4 0.000000 0.000000 0.000000 0.030190 0.000000 0.004282
# 5 0.004923 -0.000164 0.005080 0.000000 0.035168 0.000000
# 6 0.000000 0.000000 0.000000 0.004282 0.000000 0.027257
#
#
# Mechanical properties :
#
#
# Convention : Reuss Voigt Hill
#
# Bulk Modulus (GPa) = 47.62891 55.90494 51.76693
# Shear Modulus (GPa) = 36.00168 40.30716 38.15442
#
# Velocity S-wave (km/s) = 3.73121 3.94802 3.84114
# Velocity P-wave (km/s) = 6.08118 6.51161 6.30007
#
# Compressibility (1/GPa) = 0.02099565
#
# Stress axis : x y z
#
# Youngs Moduli (GPa) = 83.91090 111.75501 107.91044
#
# Poissons Ratio (x) = 0.17490 0.31379
# Poissons Ratio (y) = 0.13133 0.01030
# Poissons Ratio (z) = 0.24400 0.01067
#
# Static dielectric constant tensor:
#      x y z
#    x 2.012530 0.000000 0.047060 
#    y 0.000000 2.196980 0.000000 
#    z 0.047060 0.000000 2.114020 
# 
# From -- ./inp_files/50782.got.cif
#   From: 2010.05.17/outbox.cif.g08.bks.cpg/sg13_26_cif.got.tgz:50782.got - 2010.06.03 16:44:36.
