data_PCOD9231345
_publ_section_title
;
Structure prediction by ZEFSAII (Michael W. Deem and Ramdas Pophale) SiO2 
 PCOD9231345
Probable space group: P 2/C
;
_chemical_formula_sum "Si O2"
_cell_formula_units_Z 32
_cell_length_a 11.501679
_cell_length_b 12.871526
_cell_length_c 10.797556
_cell_angle_alpha 90.000000
_cell_angle_beta 72.838061
_cell_angle_gamma 90.000000
_cell_volume 1527.340566
_symmetry_space_group_name_H-M "P 2/C"
_symmetry_group_IT_number 13
_symmetry_cell_setting 'monoclinic'
loop_
_space_group_symop_operation_xyz
x,y,z
-x,y,1/2-z
-x,-y,-z
x,-y,1/2+z
loop_
_atom_site_type_symbol
_atom_site_label
_atom_site_fract_x
_atom_site_fract_y
_atom_site_fract_z
Si Si1 0.928932 0.985879 0.892750
Si Si2 0.003774 0.663203 0.918866
Si Si3 0.521522 0.164159 0.580890
Si Si4 0.179142 0.814170 0.010779
Si Si5 0.596966 0.061785 0.120985
Si Si6 0.284966 0.712491 0.214593
Si Si7 0.895589 0.455296 0.686110
Si Si8 0.780099 0.790780 0.996774
O O1 0.000000 0.948365 0.750000
O O2 0.882944 0.101222 0.880838
O O3 0.820186 0.907022 0.952206
O O4 0.000000 0.000000 0.000000
O O5 0.089417 0.579504 0.823738
O O6 0.085747 0.752055 0.955534
O O7 0.938569 0.593066 0.043641
O O8 0.886177 0.721957 0.900486
O O9 0.446330 0.105103 0.497883
O O10 0.422603 0.242118 0.672556
O O11 0.640974 0.226775 0.499649
O O12 0.583993 0.063714 0.629634
O O13 0.241652 0.738442 0.089282
O O14 0.272839 0.884087 0.901051
O O15 0.500000 0.101797 0.250000
O O16 0.236995 0.593842 0.246112
O O17 0.221515 0.769530 0.353292
O O18 0.000000 0.418632 0.750000
#
# Coordination Sequence:
#
# PCOD9231345 Si02
#       8
#     4   4   4   4   4   4   4   4
#     4  12  25  37  56  91 139 177 211 255 317 392
#     4  10  22  37  61  92 120 163 207 264 334 369
#     4  10  21  37  59  92 122 167 215 246 302 381
#     4  11  21  38  60  91 124 171 215 257 318 397
#     4  10  21  37  58  85 128 173 205 249 303 375
#     4  10  21  37  69  88 119 167 218 262 314 380
#     4  10  20  39  64  88 116 156 217 275 320 376
#     4  11  21  38  57  94 133 162 203 262 315 381
#
# _framework density 20.951450000000001
#
# number of rings (size 3 to 8) (size 9 to 14) (size 15 to 20)
#    0.000    1.500    3.750    1.875    1.750    1.500 
#    2.250    0.000    0.000    5.250    0.000    0.000 
#    0.000    0.000    0.000    0.000    0.000    0.000 
#
# Total GULP energy -178150.985464 kJ/mol
# GULP energy per Si atom -5567.218296 kJ/mol
# Density = 2.090376 g / cm^3
# Si number density = 20.951450 Si / 1000 Ang^3
#
#
#
# Elastic Constant Matrix: (Units=GPa)
#
#
# Indices 1 2 3 4 5 6 
#
# 1 107.7704 60.9278 28.5977 0.0000 -36.2519 0.0000
# 2 60.9278 126.5512 27.3619 0.0000 -29.5484 0.0000
# 3 28.5977 27.3619 56.4571 0.0000 -26.9857 0.0000
# 4 0.0000 0.0000 0.0000 38.8619 0.0000 -16.8334
# 5 -36.2519 -29.5484 -26.9857 0.0000 35.1390 0.0000
# 6 0.0000 0.0000 0.0000 -16.8334 0.0000 26.2836
#
#
#
# Elastic Compliance Matrix: (Units=1/GPa)
#
#
# Indices 1 2 3 4 5 6 
#
# 1 0.016328 -0.004901 0.000294 0.000000 0.012950 0.000000
# 2 -0.004901 0.011363 -0.001381 0.000000 0.003438 0.000000
# 3 0.000294 -0.001381 0.028160 0.000000 0.020768 0.000000
# 4 0.000000 0.000000 0.000000 0.035611 0.000000 0.022807
# 5 0.012950 0.003438 0.020768 0.000000 0.060659 0.000000
# 6 0.000000 0.000000 0.000000 0.022807 0.000000 0.052653
#
#
# Mechanical properties :
#
#
# Convention : Reuss Voigt Hill
#
# Bulk Modulus (GPa) = 22.79205 58.28372 40.53789
# Shear Modulus (GPa) = 21.61006 31.64966 26.62986
#
# Velocity S-wave (km/s) = 3.21508 3.89088 3.56901
# Velocity P-wave (km/s) = 4.96834 6.93283 6.03111
#
# Compressibility (1/GPa) = 0.04387495
#
# Stress axis : x y z
#
# Youngs Moduli (GPa) = 61.24606 88.00565 35.51184
#
# Poissons Ratio (x) = 0.43131 -0.01046
# Poissons Ratio (y) = 0.30016 0.04904
# Poissons Ratio (z) = -0.01803 0.12154
#
# Static dielectric constant tensor:
#      x y z
#    x 1.829830 0.000000 -0.037040 
#    y 0.000000 1.784780 0.000000 
#    z -0.037040 0.000000 1.965820 
# 
# From -- ./inp_files/34141.got.cif
#   From: 2010.05.17/outbox.cif.g08.bks.cpg/sg13_18_cif.got.tgz:34141.got - 2010.06.03 16:44:36.
