data_PCOD9231286
_publ_section_title
;
Structure prediction by ZEFSAII (Michael W. Deem and Ramdas Pophale) SiO2 
 PCOD9231286
Probable space group: P 2/C
;
_chemical_formula_sum "Si O2"
_cell_formula_units_Z 26
_cell_length_a 10.959598
_cell_length_b 8.782051
_cell_length_c 13.175068
_cell_angle_alpha 90.000000
_cell_angle_beta 65.448167
_cell_angle_gamma 90.000000
_cell_volume 1153.418969
_symmetry_space_group_name_H-M "P 2/C"
_symmetry_group_IT_number 13
_symmetry_cell_setting 'monoclinic'
loop_
_space_group_symop_operation_xyz
x,y,z
-x,y,1/2-z
-x,-y,-z
x,-y,1/2+z
loop_
_atom_site_type_symbol
_atom_site_label
_atom_site_fract_x
_atom_site_fract_y
_atom_site_fract_z
Si Si1 0.500000 0.206403 0.250000
Si Si2 0.329594 0.925415 0.369640
Si Si3 0.599276 0.795213 0.365278
Si Si4 0.909989 0.473355 0.129690
Si Si5 0.188722 0.022443 0.597092
Si Si6 0.000000 0.727966 0.250000
Si Si7 0.611190 0.488415 0.286401
Si Si8 0.000000 0.217374 0.250000
O O1 0.383452 0.092888 0.322661
O O2 0.548866 0.320062 0.322794
O O3 0.446283 0.842827 0.395274
O O4 0.320660 0.835826 0.267330
O O5 0.199684 0.950266 0.482058
O O6 0.619896 0.613531 0.372072
O O7 0.667366 0.907073 0.422394
O O8 0.924871 0.615820 0.200122
O O9 0.749041 0.460210 0.177961
O O10 0.968510 0.326227 0.166644
O O11 0.000000 0.500000 0.000000
O O12 0.128709 0.889650 0.687765
O O13 0.091249 0.164053 0.649216
O O14 0.500000 0.560298 0.250000
#
# Coordination Sequence:
#
# PCOD9231286 Si02
#       8
#     2   4   4   4   4   2   4   2
#     4   8  20  36  60  96 120 156 216 258 304 376
#     4  10  21  37  64  92 124 164 210 261 318 378
#     4  10  20  39  61  90 127 162 208 264 308 380
#     4  11  25  44  68  89 129 171 212 264 319 376
#     4  11  23  40  62  90 129 166 210 257 321 370
#     4  10  24  42  58  96 128 162 214 262 304 390
#     4  10  20  39  67  92 125 166 208 267 318 369
#     4  10  28  42  62  96 124 168 220 260 306 396
#
# _framework density 22.541678999999998
#
# number of rings (size 3 to 8) (size 9 to 14) (size 15 to 20)
#    0.462    1.538    3.077    0.462    8.615    0.000 
#    0.000    3.846    0.000    0.000    0.000    0.000 
#    0.000    0.000    0.000    0.000    0.000    0.000 
#
# Total GULP energy -145027.880017 kJ/mol
# GULP energy per Si atom -5577.995385 kJ/mol
# Density = 2.249037 g / cm^3
# Si number density = 22.541679 Si / 1000 Ang^3
#
#
#
# Elastic Constant Matrix: (Units=GPa)
#
#
# Indices 1 2 3 4 5 6 
#
# 1 52.6879 11.2911 -8.8549 0.0000 -7.4045 0.0000
# 2 11.2911 137.9106 4.9930 0.0000 -8.2622 0.0000
# 3 -8.8549 4.9930 43.2691 0.0000 -5.4697 0.0000
# 4 0.0000 0.0000 0.0000 -11.6418 0.0000 -10.7875
# 5 -7.4045 -8.2622 -5.4697 0.0000 13.9292 0.0000
# 6 0.0000 0.0000 0.0000 -10.7875 0.0000 19.4265
#
#
#
# Elastic Compliance Matrix: (Units=1/GPa)
#
#
# Indices 1 2 3 4 5 6 
#
# 1 0.022234 -0.001238 0.006413 0.000000 0.013603 0.000000
# 2 -0.001238 0.007591 -0.000677 0.000000 0.003579 0.000000
# 3 0.006413 -0.000677 0.026181 0.000000 0.013288 0.000000
# 4 0.000000 0.000000 0.000000 -0.056715 0.000000 -0.031494
# 5 0.013603 0.003579 0.013288 0.000000 0.086364 0.000000
# 6 0.000000 0.000000 0.000000 -0.031494 0.000000 0.033988
#
#
# Mechanical properties :
#
#
# Convention : Reuss Voigt Hill
#
# Bulk Modulus (GPa) = 15.38378 27.63622 21.51000
# Shear Modulus (GPa) = 37.78857 19.43869 28.61363
#
# Velocity S-wave (km/s) = 4.09881 2.93976 3.56668
# Velocity P-wave (km/s) = 5.40738 4.87950 5.15021
#
# Compressibility (1/GPa) = 0.06500352
#
# Stress axis : x y z
#
# Youngs Moduli (GPa) = 44.97541 131.72928 38.19509
#
# Poissons Ratio (x) = 0.16303 -0.24493
# Poissons Ratio (y) = 0.05566 0.02585
# Poissons Ratio (z) = -0.28841 0.08916
#
# Static dielectric constant tensor:
#      x y z
#    x 1.870090 0.000000 -0.018340 
#    y 0.000000 1.835060 0.000000 
#    z -0.018340 0.000000 1.743710 
# 
# From -- ./inp_files/49933.got.cif
#   From: 2010.05.17/outbox.cif.g08.bks.cpg/sg13_25_cif.got.tgz:49933.got - 2010.06.03 16:44:36.
