data_PCOD9231270
_publ_section_title
;
Structure prediction by ZEFSAII (Michael W. Deem and Ramdas Pophale) SiO2 
 PCOD9231270
Probable space group: P 2/C
;
_chemical_formula_sum "Si O2"
_cell_formula_units_Z 28
_cell_length_a 14.240786
_cell_length_b 9.067417
_cell_length_c 13.935820
_cell_angle_alpha 90.000000
_cell_angle_beta 119.829347
_cell_angle_gamma 90.000000
_cell_volume 1561.079289
_symmetry_space_group_name_H-M "P 2/C"
_symmetry_group_IT_number 13
_symmetry_cell_setting 'monoclinic'
loop_
_space_group_symop_operation_xyz
x,y,z
-x,y,1/2-z
-x,-y,-z
x,-y,1/2+z
loop_
_atom_site_type_symbol
_atom_site_label
_atom_site_fract_x
_atom_site_fract_y
_atom_site_fract_z
Si Si1 0.916676 0.886383 0.341583
Si Si2 0.172432 0.378384 0.823381
Si Si3 0.000000 0.612616 0.750000
Si Si4 0.298302 0.404694 0.251687
Si Si5 0.143276 0.045260 0.480968
Si Si6 0.500000 0.664894 0.750000
Si Si7 0.716656 0.238264 0.438876
Si Si8 0.824194 0.174568 0.205077
O O1 0.896937 0.742653 0.268931
O O2 0.888007 0.867919 0.438840
O O3 0.841441 0.017875 0.263122
O O4 0.038313 0.948604 0.397201
O O5 0.093844 0.500771 0.831843
O O6 0.244738 0.461684 0.780478
O O7 0.245445 0.300917 0.940355
O O8 0.069847 0.723162 0.718817
O O9 0.422384 0.425522 0.282538
O O10 0.279156 0.262975 0.310318
O O11 0.241858 0.349771 0.123940
O O12 0.175107 0.147345 0.408232
O O13 0.234649 0.923719 0.548793
O O14 0.412158 0.757439 0.645064
#
# Coordination Sequence:
#
# PCOD9231270 Si02
#       8
#     4   4   2   4   4   2   4   4
#     4  11  21  34  56  90 124 160 194 234 287 359
#     4  11  22  35  61  88 124 152 199 243 290 365
#     4  10  22  34  52  90 126 152 184 236 282 366
#     4   9  22  40  60  86 114 153 200 255 295 357
#     4  11  21  34  62  86 121 165 196 235 291 359
#     4   8  20  44  62  76 118 152 208 250 316 342
#     4  10  20  39  61  83 112 158 197 253 297 348
#     4  11  19  38  58  84 124 159 195 226 298 357
#
# _framework density 17.936308
#
# number of rings (size 3 to 8) (size 9 to 14) (size 15 to 20)
#    0.857    0.857    4.286    0.857    0.000    2.857 
#    0.000    3.571    0.000    0.857    0.000    0.000 
#    0.000    0.000    0.000    0.000    0.000    0.000 
#
# Total GULP energy -155879.321905 kJ/mol
# GULP energy per Si atom -5567.118639 kJ/mol
# Density = 1.789548 g / cm^3
# Si number density = 17.936308 Si / 1000 Ang^3
#
#
#
# Elastic Constant Matrix: (Units=GPa)
#
#
# Indices 1 2 3 4 5 6 
#
# 1 95.9098 25.4854 27.4349 0.0000 -12.7711 0.0000
# 2 25.4854 64.9724 24.4696 0.0000 -10.0482 0.0000
# 3 27.4349 24.4696 86.4868 0.0000 -15.9119 0.0000
# 4 0.0000 0.0000 0.0000 15.0510 0.0000 -7.6050
# 5 -12.7711 -10.0482 -15.9119 0.0000 29.6561 0.0000
# 6 0.0000 0.0000 0.0000 -7.6050 0.0000 16.1490
#
#
#
# Elastic Compliance Matrix: (Units=1/GPa)
#
#
# Indices 1 2 3 4 5 6 
#
# 1 0.012437 -0.003524 -0.002421 0.000000 0.002863 0.000000
# 2 -0.003524 0.018573 -0.003616 0.000000 0.002836 0.000000
# 3 -0.002421 -0.003616 0.014353 0.000000 0.005433 0.000000
# 4 0.000000 0.000000 0.000000 0.087187 0.000000 0.041059
# 5 0.002863 0.002836 0.005433 0.000000 0.038829 0.000000
# 6 0.000000 0.000000 0.000000 0.041059 0.000000 0.081259
#
#
# Mechanical properties :
#
#
# Convention : Reuss Voigt Hill
#
# Bulk Modulus (GPa) = 38.10668 44.68319 41.39494
# Shear Modulus (GPa) = 17.82487 23.50315 20.66401
#
# Velocity S-wave (km/s) = 3.15586 3.62383 3.39791
# Velocity P-wave (km/s) = 5.87971 6.51734 6.20672
#
# Compressibility (1/GPa) = 0.02624212
#
# Stress axis : x y z
#
# Youngs Moduli (GPa) = 80.40792 53.84017 69.67117
#
# Poissons Ratio (x) = 0.18971 0.16871
# Poissons Ratio (y) = 0.28332 0.25190
# Poissons Ratio (z) = 0.19471 0.19466
#
# Static dielectric constant tensor:
#      x y z
#    x 1.637390 0.000000 -0.016230 
#    y 0.000000 1.610690 0.000000 
#    z -0.016230 0.000000 1.623540 
# 
# From -- ./inp_files/52821.got.cif
#   From: 2010.05.17/outbox.cif.g08.bks.cpg/sg13_27_cif.got.tgz:52821.got - 2010.06.03 16:44:36.
