data_PCOD9231120
_publ_section_title
;
Structure prediction by ZEFSAII (Michael W. Deem and Ramdas Pophale) SiO2 
 PCOD9231120
Probable space group: P 2/C
;
_chemical_formula_sum "Si O2"
_cell_formula_units_Z 28
_cell_length_a 11.392053
_cell_length_b 6.717500
_cell_length_c 19.124748
_cell_angle_alpha 90.000000
_cell_angle_beta 115.846191
_cell_angle_gamma 90.000000
_cell_volume 1317.141000
_symmetry_space_group_name_H-M "P 2/C"
_symmetry_group_IT_number 13
_symmetry_cell_setting 'monoclinic'
loop_
_space_group_symop_operation_xyz
x,y,z
-x,y,1/2-z
-x,-y,-z
x,-y,1/2+z
loop_
_atom_site_type_symbol
_atom_site_label
_atom_site_fract_x
_atom_site_fract_y
_atom_site_fract_z
Si Si1 0.735421 0.785305 0.784036
Si Si2 0.824101 0.740997 0.649566
Si Si3 0.500000 0.082155 0.750000
Si Si4 0.848093 0.197016 0.627889
Si Si5 0.000000 0.465331 0.750000
Si Si6 0.076739 0.903603 0.085783
Si Si7 0.688088 0.601448 0.367778
Si Si8 0.354715 0.523059 0.488551
O O1 0.774740 0.720794 0.716101
O O2 0.704967 0.579912 0.817295
O O3 0.609711 0.933256 0.747352
O O4 0.844738 0.921594 0.852055
O O5 0.959436 0.618701 0.678680
O O6 0.727011 0.652935 0.568351
O O7 0.840477 0.969559 0.642667
O O8 0.423274 0.236070 0.679789
O O9 0.879663 0.315526 0.707807
O O10 0.719343 0.281771 0.558761
O O11 0.971656 0.207235 0.608125
O O12 0.181471 0.735350 0.091745
O O13 0.000000 0.000000 0.000000
O O14 0.654411 0.495760 0.431465
O O15 0.500000 0.500000 0.500000
#
# Coordination Sequence:
#
# PCOD9231120 Si02
#       8
#     4   4   2   4   2   4   4   4
#     4  11  24  42  69  99 131 181 230 282 342 415
#     4  11  24  41  67 100 137 178 225 283 345 409
#     4  10  26  42  70  94 132 176 234 278 344 402
#     4  11  23  42  66  99 138 171 222 280 338 411
#     4  10  20  38  64  96 130 168 212 264 342 396
#     4  11  23  41  68 101 136 174 223 279 346 405
#     4  11  25  46  69  98 138 179 233 285 340 420
#     4  11  28  44  66  98 138 187 231 283 348 405
#
# _framework density 21.258165000000002
#
# number of rings (size 3 to 8) (size 9 to 14) (size 15 to 20)
#    0.000    1.143    0.000    5.143    6.000    8.571 
#    0.000    0.000    0.000    0.000    0.000    0.000 
#    0.000    0.000    0.000    0.000    0.000    0.000 
#
# Total GULP energy -156313.431315 kJ/mol
# GULP energy per Si atom -5582.622547 kJ/mol
# Density = 2.120978 g / cm^3
# Si number density = 21.258165 Si / 1000 Ang^3
#
#
#
# Elastic Constant Matrix: (Units=GPa)
#
#
# Indices 1 2 3 4 5 6 
#
# 1 84.0596 12.4312 33.4991 0.0000 10.0102 0.0000
# 2 12.4312 132.1243 15.6727 0.0000 14.1670 0.0000
# 3 33.4991 15.6727 72.5451 0.0000 7.6899 0.0000
# 4 0.0000 0.0000 0.0000 29.0704 0.0000 1.7313
# 5 10.0102 14.1670 7.6899 0.0000 40.1003 0.0000
# 6 0.0000 0.0000 0.0000 1.7313 0.0000 34.8021
#
#
#
# Elastic Compliance Matrix: (Units=1/GPa)
#
#
# Indices 1 2 3 4 5 6 
#
# 1 0.014826 -0.000373 -0.006520 0.000000 -0.002319 0.000000
# 2 -0.000373 0.008025 -0.001297 0.000000 -0.002493 0.000000
# 3 -0.006520 -0.001297 0.017204 0.000000 -0.001213 0.000000
# 4 0.000000 0.000000 0.000000 0.034501 0.000000 -0.001716
# 5 -0.002319 -0.002493 -0.001213 0.000000 0.026630 0.000000
# 6 0.000000 0.000000 0.000000 -0.001716 0.000000 0.028819
#
#
# Mechanical properties :
#
#
# Convention : Reuss Voigt Hill
#
# Bulk Modulus (GPa) = 42.23857 45.77056 44.00457
# Shear Modulus (GPa) = 32.40928 35.93630 34.17279
#
# Velocity S-wave (km/s) = 3.90879 4.11599 4.01373
# Velocity P-wave (km/s) = 6.34697 6.64576 6.49808
#
# Compressibility (1/GPa) = 0.02367504
#
# Stress axis : x y z
#
# Youngs Moduli (GPa) = 67.44978 124.61166 58.12595
#
# Poissons Ratio (x) = 0.04647 0.37897
# Poissons Ratio (y) = 0.02515 0.07540
# Poissons Ratio (z) = 0.43976 0.16165
#
# Static dielectric constant tensor:
#      x y z
#    x 4.794950 0.000000 1.391330 
#    y 0.000000 1.772380 0.000000 
#    z 1.391330 0.000000 2.410410 
# 
# From -- ./inp_files/77632.got.cif
#   From: 2010.05.17/outbox.cif.g08.bks.cpg/sg13_39_cif.got.tgz:77632.got - 2010.06.03 16:44:36.
