data_PCOD9231599
_publ_section_title
;
Structure prediction by ZEFSAII (Michael W. Deem and Ramdas Pophale) SiO2 
 PCOD9231599
Probable space group: P 2/C
;
_chemical_formula_sum "Si O2"
_cell_formula_units_Z 24
_cell_length_a 20.580025
_cell_length_b 9.203341
_cell_length_c 10.495048
_cell_angle_alpha 90.000000
_cell_angle_beta 146.767410
_cell_angle_gamma 90.000000
_cell_volume 1089.400014
_symmetry_space_group_name_H-M "P 2/C"
_symmetry_group_IT_number 13
_symmetry_cell_setting 'monoclinic'
loop_
_space_group_symop_operation_xyz
x,y,z
-x,y,1/2-z
-x,-y,-z
x,-y,1/2+z
loop_
_atom_site_type_symbol
_atom_site_label
_atom_site_fract_x
_atom_site_fract_y
_atom_site_fract_z
Si Si1 0.348578 0.124930 0.722419
Si Si2 0.482642 0.667191 0.858198
Si Si3 0.686659 0.111634 0.121853
Si Si4 0.323422 0.571556 0.793200
Si Si5 0.859204 0.314991 0.997712
Si Si6 0.924559 0.042538 0.996513
O O1 0.359371 0.075469 0.594814
O O2 0.223921 0.215612 0.541958
O O3 0.356312 0.991255 0.833617
O O4 0.452274 0.235224 0.930029
O O5 0.500000 0.740867 0.750000
O O6 0.353831 0.621712 0.697604
O O7 0.564111 0.524536 0.982296
O O8 0.675917 0.282049 0.126359
O O9 0.825294 0.076726 0.347974
O O10 0.211289 0.465908 0.626108
O O11 0.000000 0.344299 0.250000
O O12 0.136359 0.202004 0.613819
O O13 0.000000 0.047275 0.250000
O O14 0.000000 0.000000 0.000000
#
# Coordination Sequence:
#
# PCOD9231599 Si02
#       6
#     4   4   4   4   4   4
#     4  10  24  43  68  95 138 175 229 280 340 399
#     4  10  24  46  66  93 134 180 227 284 345 404
#     4  11  23  41  66 101 131 178 228 282 334 409
#     4  10  24  40  68  97 131 178 226 277 343 403
#     4   9  19  41  66  99 137 176 218 273 335 406
#     4  10  20  40  65  95 139 184 221 271 332 398
#
# _framework density 22.030474999999999
#
# number of rings (size 3 to 8) (size 9 to 14) (size 15 to 20)
#    0.000    2.000    0.000    3.000    9.333    1.333 
#    3.000    3.333    0.000    0.000    0.000    0.000 
#    0.000    0.000    0.000    0.000    0.000    0.000 
#
# Total GULP energy -133913.546470 kJ/mol
# GULP energy per Si atom -5579.731103 kJ/mol
# Density = 2.198033 g / cm^3
# Si number density = 22.030475 Si / 1000 Ang^3
#
#
#
# Elastic Constant Matrix: (Units=GPa)
#
#
# Indices 1 2 3 4 5 6 
#
# 1 141.7781 70.0760 53.7217 0.0000 -5.2875 0.0000
# 2 70.0760 132.8951 45.3204 0.0000 -2.7492 0.0000
# 3 53.7217 45.3204 83.2411 0.0000 -5.0536 0.0000
# 4 0.0000 0.0000 0.0000 24.0421 0.0000 18.6867
# 5 -5.2875 -2.7492 -5.0536 0.0000 48.1389 0.0000
# 6 0.0000 0.0000 0.0000 18.6867 0.0000 24.9395
#
#
#
# Elastic Compliance Matrix: (Units=1/GPa)
#
#
# Indices 1 2 3 4 5 6 
#
# 1 0.010915 -0.004118 -0.004774 0.000000 0.000463 0.000000
# 2 -0.004118 0.010794 -0.003230 0.000000 -0.000175 0.000000
# 3 -0.004774 -0.003230 0.016918 0.000000 0.001067 0.000000
# 4 0.000000 0.000000 0.000000 0.099596 0.000000 -0.074625
# 5 0.000463 -0.000175 0.001067 0.000000 0.020926 0.000000
# 6 0.000000 0.000000 0.000000 -0.074625 0.000000 0.096012
#
#
# Mechanical properties :
#
#
# Convention : Reuss Voigt Hill
#
# Bulk Modulus (GPa) = 69.52709 77.35006 73.43858
# Shear Modulus (GPa) = 17.59334 32.01050 24.80192
#
# Velocity S-wave (km/s) = 2.82900 3.81597 3.35894
# Velocity P-wave (km/s) = 6.50377 7.38933 6.96065
#
# Compressibility (1/GPa) = 0.01438288
#
# Stress axis : x y z
#
# Youngs Moduli (GPa) = 91.61901 92.64530 59.10978
#
# Poissons Ratio (x) = 0.38149 0.28220
# Poissons Ratio (y) = 0.37726 0.19091
# Poissons Ratio (z) = 0.43740 0.29923
#
# Static dielectric constant tensor:
#      x y z
#    x 1.911870 0.000000 -0.005660 
#    y 0.000000 1.827400 0.000000 
#    z -0.005660 0.000000 1.830970 
# 
# From -- ./inp_files/41645.got.cif
#   From: 2010.05.17/outbox.cif.g08.bks.cpg/sg13_21_cif.got.tgz:41645.got - 2010.06.03 16:44:36.
