data_PCOD9231700
_publ_section_title
;
Structure prediction by ZEFSAII (Michael W. Deem and Ramdas Pophale) SiO2 
 PCOD9231700
Probable space group: P 2/C
;
_chemical_formula_sum "Si O2"
_cell_formula_units_Z 24
_cell_length_a 15.271272
_cell_length_b 9.170912
_cell_length_c 8.878125
_cell_angle_alpha 90.000000
_cell_angle_beta 79.481657
_cell_angle_gamma 90.000000
_cell_volume 1222.501286
_symmetry_space_group_name_H-M "P 2/C"
_symmetry_group_IT_number 13
_symmetry_cell_setting 'monoclinic'
loop_
_space_group_symop_operation_xyz
x,y,z
-x,y,1/2-z
-x,-y,-z
x,-y,1/2+z
loop_
_atom_site_type_symbol
_atom_site_label
_atom_site_fract_x
_atom_site_fract_y
_atom_site_fract_z
Si Si1 0.289594 0.709046 0.049778
Si Si2 0.629313 0.396475 0.463512
Si Si3 0.287574 0.148935 0.226354
Si Si4 0.562953 0.917383 0.362596
Si Si5 0.000000 0.000000 0.500000
Si Si6 0.139434 0.089313 0.715225
Si Si7 0.500000 0.504316 0.750000
O O1 0.307798 0.538552 0.065124
O O2 0.378488 0.792178 0.078421
O O3 0.205954 0.775666 0.166227
O O4 0.276619 0.753178 0.878893
O O5 0.685043 0.250986 0.422005
O O6 0.572564 0.415720 0.632020
O O7 0.556752 0.402102 0.351329
O O8 0.201707 0.053042 0.217736
O O9 0.367414 0.034703 0.225294
O O10 0.500000 0.864482 0.250000
O O11 0.500000 0.000000 0.500000
O O12 0.075650 0.906748 0.379244
O O13 0.922034 0.939044 0.410137
#
# Coordination Sequence:
#
# PCOD9231700 Si02
#       7
#     4   4   4   4   2   4   2
#     4  11  23  41  58  90 124 163 209 259 306 372
#     4  11  24  39  61  79 129 175 216 264 300 357
#     4  11  23  42  58  89 125 165 204 266 301 372
#     4  11  24  36  58  82 120 163 211 266 310 343
#     4  10  20  40  72 102 114 152 188 256 308 416
#     4  10  22  41  70  96 122 148 201 247 330 374
#     4  10  24  36  52  86 112 176 234 248 288 350
#
# _framework density 19.631879000000001
#
# number of rings (size 3 to 8) (size 9 to 14) (size 15 to 20)
#    0.000    1.333    5.000    0.000    7.000    1.333 
#    0.000    0.000    0.000    6.000    0.000    0.000 
#    0.000    0.000    0.000    0.000    0.000    0.000 
#
# Total GULP energy -133656.559256 kJ/mol
# GULP energy per Si atom -5569.023302 kJ/mol
# Density = 1.958720 g / cm^3
# Si number density = 19.631879 Si / 1000 Ang^3
#
#
#
# Elastic Constant Matrix: (Units=GPa)
#
#
# Indices 1 2 3 4 5 6 
#
# 1 123.3800 33.0967 19.6526 0.0000 -7.7350 0.0000
# 2 33.0967 76.7828 -4.3557 0.0000 -5.4972 0.0000
# 3 19.6526 -4.3557 56.9805 0.0000 -17.3378 0.0000
# 4 0.0000 0.0000 0.0000 21.9975 0.0000 -9.2050
# 5 -7.7350 -5.4972 -17.3378 0.0000 36.0470 0.0000
# 6 0.0000 0.0000 0.0000 -9.2050 0.0000 10.7933
#
#
#
# Elastic Compliance Matrix: (Units=1/GPa)
#
#
# Indices 1 2 3 4 5 6 
#
# 1 0.009912 -0.004525 -0.003898 0.000000 -0.000438 0.000000
# 2 -0.004525 0.015410 0.003700 0.000000 0.003159 0.000000
# 3 -0.003898 0.003700 0.022368 0.000000 0.010486 0.000000
# 4 0.000000 0.000000 0.000000 0.070686 0.000000 0.060284
# 5 -0.000438 0.003159 0.010486 0.000000 0.033173 0.000000
# 6 0.000000 0.000000 0.000000 0.060284 0.000000 0.144062
#
#
# Mechanical properties :
#
#
# Convention : Reuss Voigt Hill
#
# Bulk Modulus (GPa) = 26.14798 39.32562 32.73680
# Shear Modulus (GPa) = 15.73290 27.68422 21.70856
#
# Velocity S-wave (km/s) = 2.83396 3.75929 3.32894
# Velocity P-wave (km/s) = 4.90475 6.23843 5.61135
#
# Compressibility (1/GPa) = 0.03824387
#
# Stress axis : x y z
#
# Youngs Moduli (GPa) = 100.88443 64.89175 44.70723
#
# Poissons Ratio (x) = 0.29364 0.17427
# Poissons Ratio (y) = 0.45651 -0.16541
# Poissons Ratio (z) = 0.39324 -0.24009
#
# Static dielectric constant tensor:
#      x y z
#    x 1.567870 0.000000 0.062930 
#    y 0.000000 1.685140 0.000000 
#    z 0.062930 0.000000 1.689130 
# 
# From -- ./inp_files/18081.got.cif
#   From: 2010.05.17/outbox.cif.g08.bks.cpg/sg13_10_cif.got.tgz:18081.got - 2010.06.03 16:44:36.
