data_PCOD9231658
_publ_section_title
;
Structure prediction by ZEFSAII (Michael W. Deem and Ramdas Pophale) SiO2 
 PCOD9231658
Probable space group: P 2/C
;
_chemical_formula_sum "Si O2"
_cell_formula_units_Z 30
_cell_length_a 8.332171
_cell_length_b 19.657403
_cell_length_c 8.962413
_cell_angle_alpha 90.000000
_cell_angle_beta 90.162668
_cell_angle_gamma 90.000000
_cell_volume 1467.937342
_symmetry_space_group_name_H-M "P 2/C"
_symmetry_group_IT_number 13
_symmetry_cell_setting 'monoclinic'
loop_
_space_group_symop_operation_xyz
x,y,z
-x,y,1/2-z
-x,-y,-z
x,-y,1/2+z
loop_
_atom_site_type_symbol
_atom_site_label
_atom_site_fract_x
_atom_site_fract_y
_atom_site_fract_z
Si Si1 0.334836 0.536718 0.459276
Si Si2 0.380490 0.790997 0.956539
Si Si3 0.633760 0.907456 0.003453
Si Si4 0.165574 0.561424 0.161323
Si Si5 0.831819 0.806884 0.830155
Si Si6 0.500000 0.994033 0.250000
Si Si7 0.822782 0.283734 0.811482
Si Si8 0.329740 0.693223 0.505055
O O1 0.500000 0.500000 0.500000
O O2 0.303050 0.546037 0.284019
O O3 0.195863 0.489691 0.527716
O O4 0.328503 0.612730 0.525600
O O5 0.489081 0.853055 0.011677
O O6 0.303977 0.810094 0.798427
O O7 0.242735 0.770331 0.071989
O O8 0.501685 0.726891 0.948878
O O9 0.787321 0.863229 0.954248
O O10 0.591455 0.959561 0.870486
O O11 0.626309 0.948475 0.157290
O O12 0.173358 0.640688 0.116557
O O13 0.000000 0.553050 0.250000
O O14 0.000000 0.815970 0.750000
O O15 0.808076 0.733014 0.904712
O O16 0.705126 0.290199 0.668739
O O17 0.000000 0.268757 0.750000
#
# Coordination Sequence:
#
# PCOD9231658 Si02
#       8
#     4   4   4   4   4   2   4   4
#     4  11  22  36  56  83 111 149 200 257 297 355
#     4  11  21  37  60  88 115 156 198 244 290 349
#     4  10  21  39  65  92 119 159 201 232 289 345
#     4  10  22  38  55  78 114 153 194 241 304 366
#     4  11  23  40  59  88 126 157 198 254 295 347
#     4  10  20  40  68  90 124 156 198 236 278 358
#     4  10  21  37  57  85 116 151 196 249 301 355
#     4  10  22  37  57  83 114 155 203 244 307 357
#
# _framework density 20.43684
#
# number of rings (size 3 to 8) (size 9 to 14) (size 15 to 20)
#    0.000    1.600    1.333    4.000    3.733    5.867 
#    0.000    0.667    0.000    0.000    0.000    0.000 
#    0.000    0.000    0.000    0.000    0.000    0.000 
#
# Total GULP energy -167669.955353 kJ/mol
# GULP energy per Si atom -5588.998512 kJ/mol
# Density = 2.039032 g / cm^3
# Si number density = 20.436840 Si / 1000 Ang^3
#
#
#
# Elastic Constant Matrix: (Units=GPa)
#
#
# Indices 1 2 3 4 5 6 
#
# 1 75.1331 31.4840 17.9216 0.0000 -18.0842 0.0000
# 2 31.4840 110.2718 41.5659 0.0000 -32.5701 0.0000
# 3 17.9216 41.5659 54.0499 0.0000 -24.9652 0.0000
# 4 0.0000 0.0000 0.0000 34.2212 0.0000 -7.0407
# 5 -18.0842 -32.5701 -24.9652 0.0000 33.2384 0.0000
# 6 0.0000 0.0000 0.0000 -7.0407 0.0000 11.8154
#
#
#
# Elastic Compliance Matrix: (Units=1/GPa)
#
#
# Indices 1 2 3 4 5 6 
#
# 1 0.015919 -0.002649 -0.000673 0.000000 0.005559 0.000000
# 2 -0.002649 0.014712 -0.006803 0.000000 0.007866 0.000000
# 3 -0.000673 -0.006803 0.031708 0.000000 0.016784 0.000000
# 4 0.000000 0.000000 0.000000 0.033305 0.000000 0.019846
# 5 0.005559 0.007866 0.016784 0.000000 0.053424 0.000000
# 6 0.000000 0.000000 0.000000 0.019846 0.000000 0.096462
#
#
# Mechanical properties :
#
#
# Convention : Reuss Voigt Hill
#
# Bulk Modulus (GPa) = 23.75901 46.82198 35.29049
# Shear Modulus (GPa) = 17.86932 25.75389 21.81161
#
# Velocity S-wave (km/s) = 2.96018 3.55374 3.27045
# Velocity P-wave (km/s) = 4.83057 6.30865 5.61843
#
# Compressibility (1/GPa) = 0.04208930
#
# Stress axis : x y z
#
# Youngs Moduli (GPa) = 62.81994 67.97037 31.53747
#
# Poissons Ratio (x) = 0.18007 0.02123
# Poissons Ratio (y) = 0.16642 0.21454
# Poissons Ratio (z) = 0.04228 0.46238
#
# Static dielectric constant tensor:
#      x y z
#    x 1.777460 0.000000 0.019600 
#    y 0.000000 1.721790 0.000000 
#    z 0.019600 0.000000 1.756570 
# 
# From -- ./inp_files/13501.got.cif
#   From: 2010.05.17/outbox.cif.g08.bks.cpg/sg13_7_cif.got.tgz:13501.got - 2010.06.03 16:44:36.
