data_PCOD9231851
_publ_section_title
;
Structure prediction by ZEFSAII (Michael W. Deem and Ramdas Pophale) SiO2 
 PCOD9231851
Probable space group: P 2/C
;
_chemical_formula_sum "Si O2"
_cell_formula_units_Z 14
_cell_length_a 6.274533
_cell_length_b 8.845522
_cell_length_c 13.218547
_cell_angle_alpha 90.000000
_cell_angle_beta 125.077328
_cell_angle_gamma 90.000000
_cell_volume 600.401968
_symmetry_space_group_name_H-M "P 2/C"
_symmetry_group_IT_number 13
_symmetry_cell_setting 'monoclinic'
loop_
_space_group_symop_operation_xyz
x,y,z
-x,y,1/2-z
-x,-y,-z
x,-y,1/2+z
loop_
_atom_site_type_symbol
_atom_site_label
_atom_site_fract_x
_atom_site_fract_y
_atom_site_fract_z
Si Si1 0.765217 0.595609 0.568169
Si Si2 0.500000 0.098590 0.750000
Si Si3 0.479461 0.195718 0.129096
Si Si4 0.059870 0.316204 0.604300
O O1 0.500000 0.500000 0.500000
O O2 0.717221 0.735062 0.630227
O O3 0.798672 0.652298 0.463351
O O4 0.000255 0.474868 0.642444
O O5 0.252976 0.201011 0.710080
O O6 0.536262 0.983163 0.853709
O O7 0.500000 0.259952 0.250000
O O8 0.215255 0.243738 0.001570
#
# Coordination Sequence:
#
# PCOD9231851 Si02
#       4
#     4   2   4   4
#     4   9  20  42  63  91 127 178 219 270 322 389
#     4  10  22  40  64 100 136 170 214 276 330 392
#     4   9  21  40  64  94 130 175 214 266 333 391
#     4  10  20  42  63  94 134 168 224 269 323 391
#
# _framework density 23.317710000000002
#
# number of rings (size 3 to 8) (size 9 to 14) (size 15 to 20)
#    0.857    1.714    0.000    0.857    0.000    2.286 
#   28.286   10.000    0.000    0.000    0.000    0.000 
#    0.000    0.000    0.000    0.000    0.000    0.000 
#
# Total GULP energy -78169.030692 kJ/mol
# GULP energy per Si atom -5583.502192 kJ/mol
# Density = 2.326464 g / cm^3
# Si number density = 23.317710 Si / 1000 Ang^3
#
#
#
# Elastic Constant Matrix: (Units=GPa)
#
#
# Indices 1 2 3 4 5 6 
#
# 1 120.0784 34.6553 15.3566 0.0000 0.6589 0.0000
# 2 34.6553 91.8514 8.7784 0.0000 20.8652 0.0000
# 3 15.3566 8.7784 54.0792 0.0000 17.6053 0.0000
# 4 0.0000 0.0000 0.0000 6.8154 0.0000 37.2035
# 5 0.6589 20.8652 17.6053 0.0000 44.1511 0.0000
# 6 0.0000 0.0000 0.0000 37.2035 0.0000 -7.0593
#
#
#
# Elastic Compliance Matrix: (Units=1/GPa)
#
#
# Indices 1 2 3 4 5 6 
#
# 1 0.009905 -0.004131 -0.003137 0.000000 0.003055 0.000000
# 2 -0.004131 0.013920 0.001189 0.000000 -0.006991 0.000000
# 3 -0.003137 0.001189 0.022244 0.000000 -0.009385 0.000000
# 4 0.000000 0.000000 0.000000 0.004929 0.000000 0.025976
# 5 0.003055 -0.006991 -0.009385 0.000000 0.029650 0.000000
# 6 0.000000 0.000000 0.000000 0.025976 0.000000 -0.004759
#
#
# Mechanical properties :
#
#
# Convention : Reuss Voigt Hill
#
# Bulk Modulus (GPa) = 29.48760 42.62106 36.05433
# Shear Modulus (GPa) = 50.32679 22.59600 36.46140
#
# Velocity S-wave (km/s) = 4.65080 3.11633 3.95863
# Velocity P-wave (km/s) = 6.44309 5.59167 6.03242
#
# Compressibility (1/GPa) = 0.03391256
#
# Stress axis : x y z
#
# Youngs Moduli (GPa) = 100.96363 71.83745 44.95525
#
# Poissons Ratio (x) = 0.29678 0.14101
# Poissons Ratio (y) = 0.41710 -0.05347
# Poissons Ratio (z) = 0.31668 -0.08545
#
# Static dielectric constant tensor:
#      x y z
#    x 1.870170 0.000000 -0.008790 
#    y 0.000000 1.892620 0.000000 
#    z -0.008790 0.000000 1.928490 
# 
# From -- ./inp_files/43147.got.cif
#   From: 2010.05.17/outbox.cif.g08.bks.cpg/sg13_22_cif.got.tgz:43147.got - 2010.06.03 16:44:36.
