data_PCOD9231210
_publ_section_title
;
Structure prediction by ZEFSAII (Michael W. Deem and Ramdas Pophale) SiO2 
 PCOD9231210
Probable space group: P 2/C
;
_chemical_formula_sum "Si O2"
_cell_formula_units_Z 20
_cell_length_a 8.424453
_cell_length_b 8.577759
_cell_length_c 18.132592
_cell_angle_alpha 90.000000
_cell_angle_beta 43.937705
_cell_angle_gamma 90.000000
_cell_volume 909.195374
_symmetry_space_group_name_H-M "P 2/C"
_symmetry_group_IT_number 13
_symmetry_cell_setting 'monoclinic'
loop_
_space_group_symop_operation_xyz
x,y,z
-x,y,1/2-z
-x,-y,-z
x,-y,1/2+z
loop_
_atom_site_type_symbol
_atom_site_label
_atom_site_fract_x
_atom_site_fract_y
_atom_site_fract_z
Si Si1 0.671706 0.853683 0.448680
Si Si2 0.500000 0.474292 0.750000
Si Si3 0.367626 0.268177 0.933784
Si Si4 0.257270 0.936709 0.919850
Si Si5 0.147618 0.268884 0.325529
Si Si6 0.000000 0.059179 0.250000
O O1 0.562697 0.723843 0.432200
O O2 0.709022 0.820967 0.522028
O O3 0.500000 0.000000 0.500000
O O4 0.896365 0.938829 0.343298
O O5 0.399266 0.378706 0.853183
O O6 0.709000 0.573799 0.715045
O O7 0.395977 0.093587 0.889981
O O8 0.118386 0.283550 0.057349
O O9 0.273739 0.844656 0.839914
O O10 0.000000 0.000000 0.000000
O O11 0.153863 0.179781 0.245260
#
# Coordination Sequence:
#
# PCOD9231210 Si02
#       6
#     4   2   4   4   4   2
#     4  10  20  38  69  99 127 165 222 293 331 381
#     4  12  28  40  66  98 142 196 218 266 342 426
#     4  10  23  45  65  97 136 171 229 283 335 402
#     4   9  18  40  68  97 125 167 220 294 328 376
#     4  11  25  43  67  98 138 179 226 279 339 412
#     4  12  22  40  70 104 130 170 226 280 350 400
#
# _framework density 21.997471999999998
#
# number of rings (size 3 to 8) (size 9 to 14) (size 15 to 20)
#    0.000    1.600    6.000    0.600    8.400    0.000 
#    0.000    9.000    0.000    0.000    0.000    0.000 
#    0.000    0.000    0.000    0.000    0.000    0.000 
#
# Total GULP energy -111483.292788 kJ/mol
# GULP energy per Si atom -5574.164639 kJ/mol
# Density = 2.194740 g / cm^3
# Si number density = 21.997472 Si / 1000 Ang^3
#
#
#
# Elastic Constant Matrix: (Units=GPa)
#
#
# Indices 1 2 3 4 5 6 
#
# 1 140.0488 29.3436 30.7397 0.0000 37.8975 0.0000
# 2 29.3436 53.4782 23.3085 0.0000 3.6651 0.0000
# 3 30.7397 23.3085 41.8154 0.0000 2.1458 0.0000
# 4 0.0000 0.0000 0.0000 18.6316 0.0000 3.8549
# 5 37.8975 3.6651 2.1458 0.0000 38.0558 0.0000
# 6 0.0000 0.0000 0.0000 3.8549 0.0000 40.0249
#
#
#
# Elastic Compliance Matrix: (Units=1/GPa)
#
#
# Indices 1 2 3 4 5 6 
#
# 1 0.012456 -0.003041 -0.006860 0.000000 -0.011724 0.000000
# 2 -0.003041 0.025541 -0.012065 0.000000 0.001249 0.000000
# 3 -0.006860 -0.012065 0.035375 0.000000 0.005999 0.000000
# 4 0.000000 0.000000 0.000000 0.054763 0.000000 -0.005274
# 5 -0.011724 0.001249 0.005999 0.000000 0.037494 0.000000
# 6 0.000000 0.000000 0.000000 -0.005274 0.000000 0.025492
#
#
# Mechanical properties :
#
#
# Convention : Reuss Voigt Hill
#
# Bulk Modulus (GPa) = 33.96829 44.68066 39.32447
# Shear Modulus (GPa) = 20.41919 29.47253 24.94586
#
# Velocity S-wave (km/s) = 3.05003 3.66432 3.37119
# Velocity P-wave (km/s) = 5.28006 6.18537 5.75056
#
# Compressibility (1/GPa) = 0.02943922
#
# Stress axis : x y z
#
# Youngs Moduli (GPa) = 80.28319 39.15279 28.26857
#
# Poissons Ratio (x) = 0.11907 0.19392
# Poissons Ratio (y) = 0.24416 0.34107
# Poissons Ratio (z) = 0.55073 0.47239
#
# Static dielectric constant tensor:
#      x y z
#    x 1.875520 0.000000 -0.069500 
#    y 0.000000 1.909420 0.000000 
#    z -0.069500 0.000000 1.993960 
# 
# From -- ./inp_files/63696.got.cif
#   From: 2010.05.17/outbox.cif.g08.bks.cpg/sg13_32_cif.got.tgz:63696.got - 2010.06.03 16:44:36.
