data_PCOD9231817
_publ_section_title
;
Structure prediction by ZEFSAII (Michael W. Deem and Ramdas Pophale) SiO2 
 PCOD9231817
Probable space group: P 2/C
;
_chemical_formula_sum "Si O2"
_cell_formula_units_Z 28
_cell_length_a 11.085596
_cell_length_b 9.195905
_cell_length_c 14.265961
_cell_angle_alpha 90.000000
_cell_angle_beta 122.433199
_cell_angle_gamma 90.000000
_cell_volume 1227.455931
_symmetry_space_group_name_H-M "P 2/C"
_symmetry_group_IT_number 13
_symmetry_cell_setting 'monoclinic'
loop_
_space_group_symop_operation_xyz
x,y,z
-x,y,1/2-z
-x,-y,-z
x,-y,1/2+z
loop_
_atom_site_type_symbol
_atom_site_label
_atom_site_fract_x
_atom_site_fract_y
_atom_site_fract_z
Si Si1 0.479717 0.147748 0.933252
Si Si2 0.675020 0.064427 0.254945
Si Si3 0.000000 0.598021 0.750000
Si Si4 0.794970 0.848404 0.612897
Si Si5 0.376850 0.413723 0.007792
Si Si6 0.051145 0.578855 0.426763
Si Si7 0.116121 0.913892 0.490109
Si Si8 0.500000 0.323705 0.250000
O O1 0.406074 0.084416 0.808092
O O2 0.644644 0.199361 0.001541
O O3 0.385927 0.258933 0.955612
O O4 0.500000 0.000000 0.000000
O O5 0.780900 0.100872 0.214685
O O6 0.744627 0.073988 0.385754
O O7 0.580720 0.209707 0.216567
O O8 0.898181 0.711916 0.654913
O O9 0.057771 0.487618 0.695251
O O10 0.852157 0.991022 0.586574
O O11 0.419357 0.413360 0.136392
O O12 0.500000 0.500000 0.000000
O O13 0.209174 0.452903 0.947964
O O14 0.061907 0.751399 0.448749
O O15 0.000000 0.500000 0.500000
O O16 0.000000 0.000000 0.500000
#
# Coordination Sequence:
#
# PCOD9231817 Si02
#       8
#     4   4   2   4   4   4   4   2
#     4  10  20  41  72 109 141 184 246 322 383 451
#     4  11  22  40  74 106 141 192 245 317 397 444
#     4  12  28  46  72  96 152 208 248 308 384 452
#     4  11  22  44  70 108 147 193 259 322 385 460
#     4  12  26  45  75 114 153 198 259 321 382 473
#     4  12  27  47  72 109 154 207 260 310 383 475
#     4  12  26  45  72 111 152 200 263 318 385 482
#     4  12  22  44  78 102 146 200 240 314 402 444
#
# _framework density 22.811409999999999
#
# number of rings (size 3 to 8) (size 9 to 14) (size 15 to 20)
#    0.000    0.571    4.286    6.000    0.000    2.857 
#    0.000    3.571    0.000    0.000    0.000    0.000 
#    0.000    0.000    0.000    0.000    0.000    0.000 
#
# Total GULP energy -156068.666126 kJ/mol
# GULP energy per Si atom -5573.880933 kJ/mol
# Density = 2.275949 g / cm^3
# Si number density = 22.811410 Si / 1000 Ang^3
#
#
#
# Elastic Constant Matrix: (Units=GPa)
#
#
# Indices 1 2 3 4 5 6 
#
# 1 88.5171 48.3606 -13.2714 0.0000 -18.3571 0.0000
# 2 48.3606 157.8262 48.7522 0.0000 -11.8537 0.0000
# 3 -13.2714 48.7522 76.9930 0.0000 -18.0499 0.0000
# 4 0.0000 0.0000 0.0000 -18.4873 0.0000 7.9508
# 5 -18.3571 -11.8537 -18.0499 0.0000 50.2075 0.0000
# 6 0.0000 0.0000 0.0000 7.9508 0.0000 17.4957
#
#
#
# Elastic Compliance Matrix: (Units=1/GPa)
#
#
# Indices 1 2 3 4 5 6 
#
# 1 0.019608 -0.008736 0.011039 0.000000 0.009075 0.000000
# 2 -0.008736 0.011770 -0.009889 0.000000 -0.003971 0.000000
# 3 0.011039 -0.009889 0.023536 0.000000 0.010163 0.000000
# 4 0.000000 0.000000 0.000000 -0.045248 0.000000 0.020563
# 5 0.009075 -0.003971 0.010163 0.000000 0.025951 0.000000
# 6 0.000000 0.000000 0.000000 0.020563 0.000000 0.047812
#
#
# Mechanical properties :
#
#
# Convention : Reuss Voigt Hill
#
# Bulk Modulus (GPa) = 25.16393 54.55767 39.86080
# Shear Modulus (GPa) = 44.70327 25.80947 35.25637
#
# Velocity S-wave (km/s) = 4.43164 3.36732 3.93562
# Velocity P-wave (km/s) = 6.10255 6.25198 6.17772
#
# Compressibility (1/GPa) = 0.03973942
#
# Stress axis : x y z
#
# Youngs Moduli (GPa) = 51.00085 84.96405 42.48897
#
# Poissons Ratio (x) = 0.74229 -0.46905
# Poissons Ratio (y) = 0.44557 0.42019
# Poissons Ratio (z) = -0.56301 0.84025
#
# Static dielectric constant tensor:
#      x y z
#    x 1.990370 0.000000 0.285970 
#    y 0.000000 1.914500 0.000000 
#    z 0.285970 0.000000 2.379790 
# 
# From -- ./inp_files/50493.got.cif
#   From: 2010.05.17/outbox.cif.g08.bks.cpg/sg13_26_cif.got.tgz:50493.got - 2010.06.03 16:44:36.
