data_PCOD9231832
_publ_section_title
;
Structure prediction by ZEFSAII (Michael W. Deem and Ramdas Pophale) SiO2 
 PCOD9231832
Probable space group: P 2/C
;
_chemical_formula_sum "Si O2"
_cell_formula_units_Z 28
_cell_length_a 13.621422
_cell_length_b 10.093618
_cell_length_c 18.208874
_cell_angle_alpha 90.000000
_cell_angle_beta 32.080939
_cell_angle_gamma 90.000000
_cell_volume 1329.665457
_symmetry_space_group_name_H-M "P 2/C"
_symmetry_group_IT_number 13
_symmetry_cell_setting 'monoclinic'
loop_
_space_group_symop_operation_xyz
x,y,z
-x,y,1/2-z
-x,-y,-z
x,-y,1/2+z
loop_
_atom_site_type_symbol
_atom_site_label
_atom_site_fract_x
_atom_site_fract_y
_atom_site_fract_z
Si Si1 0.043853 0.245587 0.099210
Si Si2 0.260751 0.251505 0.809393
Si Si3 0.367327 0.306732 0.994561
Si Si4 0.202903 0.411699 0.583248
Si Si5 0.574221 0.168216 0.999026
Si Si6 0.240073 0.989629 0.736253
Si Si7 0.966507 0.522081 0.106725
O O1 0.922486 0.115188 0.169258
O O2 0.921512 0.381084 0.173072
O O3 0.173978 0.263121 0.944837
O O4 0.174524 0.247814 0.087379
O O5 0.478789 0.274871 0.664868
O O6 0.181657 0.360366 0.801173
O O7 0.204445 0.107694 0.815148
O O8 0.450650 0.239397 0.014126
O O9 0.327007 0.462860 0.027466
O O10 0.306819 0.277344 0.535412
O O11 0.000000 0.415036 0.750000
O O12 0.150389 0.429015 0.531218
O O13 0.705481 0.063347 0.874188
O O14 0.426255 0.088773 0.141022
O O15 0.000000 0.500000 0.000000
#
# Coordination Sequence:
#
# PCOD9231832 Si02
#       7
#     4   4   4   4   4   4   4
#     4  10  21  38  67  89 123 166 219 260 325 395
#     4  10  20  42  60  92 124 167 208 268 327 385
#     4  10  22  36  63  94 122 161 208 267 319 387
#     4  11  22  38  65  98 122 170 217 268 328 387
#     4  10  23  41  57  91 134 163 212 262 329 380
#     4  10  22  40  61  89 127 174 211 267 324 387
#     4   9  21  40  65  93 126 164 219 268 325 389
#
# _framework density 21.057928
#
# number of rings (size 3 to 8) (size 9 to 14) (size 15 to 20)
#    0.000    2.000    0.000    3.000    6.000    0.000 
#   18.000    0.000    6.286    0.000    0.000    0.000 
#    0.000    0.000    0.000    0.000    0.000    0.000 
#
# Total GULP energy -156402.038686 kJ/mol
# GULP energy per Si atom -5585.787096 kJ/mol
# Density = 2.101000 g / cm^3
# Si number density = 21.057928 Si / 1000 Ang^3
#
#
#
# Elastic Constant Matrix: (Units=GPa)
#
#
# Indices 1 2 3 4 5 6 
#
# 1 95.5079 58.4304 19.5447 0.0000 -9.5225 0.0000
# 2 58.4304 158.2352 40.8458 0.0000 -29.7630 0.0000
# 3 19.5447 40.8458 62.9352 0.0000 -10.2694 0.0000
# 4 0.0000 0.0000 0.0000 36.0435 0.0000 -4.5792
# 5 -9.5225 -29.7630 -10.2694 0.0000 19.5348 0.0000
# 6 0.0000 0.0000 0.0000 -4.5792 0.0000 16.6815
#
#
#
# Elastic Compliance Matrix: (Units=1/GPa)
#
#
# Indices 1 2 3 4 5 6 
#
# 1 0.013634 -0.005027 -0.001243 0.000000 -0.001667 0.000000
# 2 -0.005027 0.011672 -0.003842 0.000000 0.013313 0.000000
# 3 -0.001243 -0.003842 0.019377 0.000000 0.003727 0.000000
# 4 0.000000 0.000000 0.000000 0.028747 0.000000 0.007891
# 5 -0.001667 0.013313 0.003727 0.000000 0.072621 0.000000
# 6 0.000000 0.000000 0.000000 0.007891 0.000000 0.062113
#
#
# Mechanical properties :
#
#
# Convention : Reuss Voigt Hill
#
# Bulk Modulus (GPa) = 40.88555 61.59112 51.23833
# Shear Modulus (GPa) = 21.13801 27.64246 24.39023
#
# Velocity S-wave (km/s) = 3.17172 3.62703 3.40699
# Velocity P-wave (km/s) = 5.73332 6.84488 6.31361
#
# Compressibility (1/GPa) = 0.02445852
#
# Stress axis : x y z
#
# Youngs Moduli (GPa) = 73.34537 85.67702 51.60764
#
# Poissons Ratio (x) = 0.43071 0.06417
# Poissons Ratio (y) = 0.36872 0.19826
# Poissons Ratio (z) = 0.09120 0.32914
#
# Static dielectric constant tensor:
#      x y z
#    x 1.755800 0.000000 0.028750 
#    y 0.000000 1.774150 0.000000 
#    z 0.028750 0.000000 1.805930 
# 
# From -- ./inp_files/79929.got.cif
#   From: 2010.05.17/outbox.cif.g08.bks.cpg/sg13_40_cif.got.tgz:79929.got - 2010.06.03 16:44:36.
