data_PCOD9231719
_publ_section_title
;
Structure prediction by ZEFSAII (Michael W. Deem and Ramdas Pophale) SiO2 
 PCOD9231719
Probable space group: P 2/C
;
_chemical_formula_sum "Si O2"
_cell_formula_units_Z 30
_cell_length_a 12.197048
_cell_length_b 6.749581
_cell_length_c 19.371511
_cell_angle_alpha 90.000000
_cell_angle_beta 115.103591
_cell_angle_gamma 90.000000
_cell_volume 1444.121531
_symmetry_space_group_name_H-M "P 2/C"
_symmetry_group_IT_number 13
_symmetry_cell_setting 'monoclinic'
loop_
_space_group_symop_operation_xyz
x,y,z
-x,y,1/2-z
-x,-y,-z
x,-y,1/2+z
loop_
_atom_site_type_symbol
_atom_site_label
_atom_site_fract_x
_atom_site_fract_y
_atom_site_fract_z
Si Si1 0.664851 0.376833 0.233397
Si Si2 0.876987 0.496170 0.586378
Si Si3 0.000000 0.004205 0.750000
Si Si4 0.237106 0.827437 0.866096
Si Si5 0.191332 0.736634 0.055190
Si Si6 0.608021 0.595277 0.874150
Si Si7 0.881650 0.330956 0.809363
Si Si8 0.730967 0.115190 0.507209
O O1 0.704672 0.201252 0.193077
O O2 0.532908 0.447461 0.173878
O O3 0.655252 0.324821 0.312137
O O4 0.764906 0.548163 0.254208
O O5 0.771908 0.613883 0.598997
O O6 0.895003 0.622547 0.521670
O O7 0.830868 0.277112 0.555653
O O8 0.001176 0.472464 0.660339
O O9 0.914365 0.144448 0.772315
O O10 0.904471 0.884238 0.679073
O O11 0.299807 0.987415 0.932755
O O12 0.312706 0.600129 0.089177
O O13 0.139004 0.735395 0.117521
O O14 0.217956 0.952361 0.032329
O O15 0.631002 0.755922 0.940191
#
# Coordination Sequence:
#
# PCOD9231719 Si02
#       8
#     4   4   2   4   4   4   4   4
#     4  10  22  41  65  90 128 169 210 254 321 360
#     4  10  20  41  60  90 127 159 205 257 310 383
#     4  12  24  38  58  96 130 158 210 256 312 382
#     4  11  23  39  61  91 127 170 203 258 316 373
#     4   9  21  38  65  89 121 162 206 261 312 365
#     4   9  21  44  63  92 124 164 216 266 295 372
#     4  11  21  38  63  90 124 167 201 259 317 372
#     4  10  21  41  64  92 128 160 214 257 307 370
#
# _framework density 20.773875
#
# number of rings (size 3 to 8) (size 9 to 14) (size 15 to 20)
#    0.000    1.867    1.333    2.000    1.867    1.067 
#    4.800    7.333    0.000    0.000    0.000    0.000 
#    0.000    0.000    0.000    0.000    0.000    0.000 
#
# Total GULP energy -167545.121107 kJ/mol
# GULP energy per Si atom -5584.837370 kJ/mol
# Density = 2.072659 g / cm^3
# Si number density = 20.773875 Si / 1000 Ang^3
#
#
#
# Elastic Constant Matrix: (Units=GPa)
#
#
# Indices 1 2 3 4 5 6 
#
# 1 53.8559 26.0659 31.3188 0.0000 6.1757 0.0000
# 2 26.0659 99.8824 41.0879 0.0000 -0.2250 0.0000
# 3 31.3188 41.0879 94.3015 0.0000 -3.1580 0.0000
# 4 0.0000 0.0000 0.0000 -68.6859 0.0000 36.8427
# 5 6.1757 -0.2250 -3.1580 0.0000 29.5097 0.0000
# 6 0.0000 0.0000 0.0000 36.8427 0.0000 -2.0387
#
#
#
# Elastic Compliance Matrix: (Units=1/GPa)
#
#
# Indices 1 2 3 4 5 6 
#
# 1 0.025074 -0.003714 -0.006911 0.000000 -0.006015 0.000000
# 2 -0.003714 0.012755 -0.004310 0.000000 0.000413 0.000000
# 3 -0.006911 -0.004310 0.014878 0.000000 0.003006 0.000000
# 4 0.000000 0.000000 0.000000 0.001675 0.000000 0.030265
# 5 -0.006015 0.000413 0.003006 0.000000 0.035471 0.000000
# 6 0.000000 0.000000 0.000000 0.030265 0.000000 0.056422
#
#
# Mechanical properties :
#
#
# Convention : Reuss Voigt Hill
#
# Bulk Modulus (GPa) = 43.78797 49.44279 46.61538
# Shear Modulus (GPa) = 27.20977 1.72816 14.46896
#
# Velocity S-wave (km/s) = 3.62305 0.91307 2.64199
# Velocity P-wave (km/s) = 6.21499 4.99637 5.63870
#
# Compressibility (1/GPa) = 0.02283732
#
# Stress axis : x y z
#
# Youngs Moduli (GPa) = 39.88153 78.40060 67.21363
#
# Poissons Ratio (x) = 0.29121 0.46449
# Poissons Ratio (y) = 0.14813 0.28969
# Poissons Ratio (z) = 0.27560 0.33791
#
# Static dielectric constant tensor:
#      x y z
#    x 1.724970 0.000000 -0.020210 
#    y 0.000000 1.728910 0.000000 
#    z -0.020210 0.000000 1.785330 
# 
# From -- ./inp_files/77557.got.cif
#   From: 2010.05.17/outbox.cif.g08.bks.cpg/sg13_39_cif.got.tgz:77557.got - 2010.06.03 16:44:36.
