data_PCOD9231195
_publ_section_title
;
Structure prediction by ZEFSAII (Michael W. Deem and Ramdas Pophale) SiO2 
 PCOD9231195
Probable space group: P 2/C
;
_chemical_formula_sum "Si O2"
_cell_formula_units_Z 26
_cell_length_a 13.076113
_cell_length_b 18.278686
_cell_length_c 5.764123
_cell_angle_alpha 90.000000
_cell_angle_beta 114.830575
_cell_angle_gamma 90.000000
_cell_volume 1250.342865
_symmetry_space_group_name_H-M "P 2/C"
_symmetry_group_IT_number 13
_symmetry_cell_setting 'monoclinic'
loop_
_space_group_symop_operation_xyz
x,y,z
-x,y,1/2-z
-x,-y,-z
x,-y,1/2+z
loop_
_atom_site_type_symbol
_atom_site_label
_atom_site_fract_x
_atom_site_fract_y
_atom_site_fract_z
Si Si1 0.110250 0.926632 0.971188
Si Si2 0.634210 0.704578 0.339076
Si Si3 0.635550 0.468261 0.868658
Si Si4 0.381017 0.175225 0.012666
Si Si5 0.353301 0.969289 0.247406
Si Si6 0.000000 0.824365 0.250000
Si Si7 0.207611 0.192959 0.210712
O O1 0.159449 0.865572 0.843781
O O2 0.000000 0.962687 0.750000
O O3 0.216730 0.976590 0.127118
O O4 0.066021 0.878049 0.140388
O O5 0.500000 0.717036 0.250000
O O6 0.654281 0.618560 0.363217
O O7 0.714019 0.746065 0.597325
O O8 0.655319 0.745920 0.117058
O O9 0.500000 0.481115 0.750000
O O10 0.676619 0.504452 0.663517
O O11 0.500000 0.178644 0.250000
O O12 0.288601 0.150834 0.109336
O O13 0.382065 0.116412 0.808351
O O14 0.392387 0.004939 0.529743
O O15 0.096064 0.778915 0.473364
#
# Coordination Sequence:
#
# PCOD9231195 Si02
#       7
#     4   4   4   4   4   2   4
#     4  10  22  39  63  88 119 157 207 273 337 392
#     4  11  22  35  65  95 126 173 217 260 315 378
#     4   9  20  36  56  90 137 173 207 254 313 378
#     4  12  25  41  64  89 128 167 222 271 314 385
#     4  12  27  44  62  87 124 168 216 270 335 391
#     4  10  20  38  68  86 122 158 204 280 334 384
#     4  11  20  39  62  96 125 160 214 271 319 380
#
# _framework density 20.794295999999999
#
# number of rings (size 3 to 8) (size 9 to 14) (size 15 to 20)
#    0.000    1.231    4.615    0.923    4.308    1.846 
#    0.000    0.000    0.000    0.000    0.000    1.077 
#    0.000    0.000    0.000    0.000    0.000    0.000 
#
# Total GULP energy -145341.738913 kJ/mol
# GULP energy per Si atom -5590.066881 kJ/mol
# Density = 2.074697 g / cm^3
# Si number density = 20.794296 Si / 1000 Ang^3
#
#
#
# Elastic Constant Matrix: (Units=GPa)
#
#
# Indices 1 2 3 4 5 6 
#
# 1 101.6834 34.4619 61.9142 0.0000 -12.7803 0.0000
# 2 34.4619 94.7629 60.2380 0.0000 -7.8006 0.0000
# 3 61.9142 60.2380 163.1431 0.0000 11.5646 0.0000
# 4 0.0000 0.0000 0.0000 26.6050 0.0000 -1.6560
# 5 -12.7803 -7.8006 11.5646 0.0000 56.0275 0.0000
# 6 0.0000 0.0000 0.0000 -1.6560 0.0000 13.3692
#
#
#
# Elastic Compliance Matrix: (Units=1/GPa)
#
#
# Indices 1 2 3 4 5 6 
#
# 1 0.013896 -0.001560 -0.004979 0.000000 0.003980 0.000000
# 2 -0.001560 0.014485 -0.004946 0.000000 0.002682 0.000000
# 3 -0.004979 -0.004946 0.010123 0.000000 -0.003914 0.000000
# 4 0.000000 0.000000 0.000000 0.037879 0.000000 0.004692
# 5 0.003980 0.002682 -0.003914 0.000000 0.019938 0.000000
# 6 0.000000 0.000000 0.000000 0.004692 0.000000 0.075380
#
#
# Mechanical properties :
#
#
# Convention : Reuss Voigt Hill
#
# Bulk Modulus (GPa) = 64.38554 74.75751 69.57152
# Shear Modulus (GPa) = 25.01885 32.73204 28.87545
#
# Velocity S-wave (km/s) = 3.47242 3.97178 3.73047
# Velocity P-wave (km/s) = 6.86347 7.55397 7.21698
#
# Compressibility (1/GPa) = 0.01553144
#
# Stress axis : x y z
#
# Youngs Moduli (GPa) = 71.96571 69.03662 98.78361
#
# Poissons Ratio (x) = 0.10772 0.49189
# Poissons Ratio (y) = 0.11229 0.48861
# Poissons Ratio (z) = 0.35835 0.34148
#
# Static dielectric constant tensor:
#      x y z
#    x 1.783020 0.000000 -0.010060 
#    y 0.000000 1.702340 0.000000 
#    z -0.010060 0.000000 1.858500 
# 
# From -- ./inp_files/5286.got.cif
#   From: 2010.05.17/outbox.cif.g08.bks.cpg/sg13_3_cif.got.tgz:5286.got - 2010.06.03 16:44:36.
