data_PCOD9231764
_publ_section_title
;
Structure prediction by ZEFSAII (Michael W. Deem and Ramdas Pophale) SiO2 
 PCOD9231764
Probable space group: P 2/C
;
_chemical_formula_sum "Si O2"
_cell_formula_units_Z 22
_cell_length_a 15.211406
_cell_length_b 9.033634
_cell_length_c 8.621100
_cell_angle_alpha 90.000000
_cell_angle_beta 126.461301
_cell_angle_gamma 90.000000
_cell_volume 952.774568
_symmetry_space_group_name_H-M "P 2/C"
_symmetry_group_IT_number 13
_symmetry_cell_setting 'monoclinic'
loop_
_space_group_symop_operation_xyz
x,y,z
-x,y,1/2-z
-x,-y,-z
x,-y,1/2+z
loop_
_atom_site_type_symbol
_atom_site_label
_atom_site_fract_x
_atom_site_fract_y
_atom_site_fract_z
Si Si1 0.368022 0.206503 0.769835
Si Si2 0.935304 0.122112 0.337532
Si Si3 0.713367 0.950910 0.009082
Si Si4 0.266333 0.548258 0.969536
Si Si5 0.815547 0.312251 0.423779
Si Si6 0.500000 0.569401 0.250000
O O1 0.274239 0.315228 0.599203
O O2 0.472434 0.314583 0.860866
O O3 0.369280 0.066031 0.656429
O O4 0.337807 0.140468 0.903122
O O5 0.818374 0.047893 0.173346
O O6 0.920413 0.257821 0.439817
O O7 0.000000 0.161172 0.250000
O O8 0.000000 0.000000 0.500000
O O9 0.757860 0.832969 0.931485
O O10 0.178409 0.429982 0.931831
O O11 0.389230 0.481605 0.107375
O O12 0.252724 0.608952 0.783781
#
# Coordination Sequence:
#
# PCOD9231764 Si02
#       6
#     4   4   4   4   4   2
#     4  10  20  41  65  97 143 176 224 273 331 394
#     4  12  23  42  73 101 129 164 227 278 337 401
#     4  12  21  41  70 100 133 182 218 281 346 383
#     4  10  23  45  64  95 141 181 218 264 339 395
#     4  12  24  44  71  96 136 183 215 281 343 398
#     4   8  22  42  64  96 140 174 238 266 312 406
#
# _framework density 23.090456
#
# number of rings (size 3 to 8) (size 9 to 14) (size 15 to 20)
#    1.091    0.000    5.455    1.091    0.000    1.455 
#    0.000    0.909    0.000    0.000    0.000    0.000 
#    0.000    0.000    0.000    0.000    0.000    0.000 
#
# Total GULP energy -122827.252935 kJ/mol
# GULP energy per Si atom -5583.056952 kJ/mol
# Density = 2.303790 g / cm^3
# Si number density = 23.090456 Si / 1000 Ang^3
#
#
#
# Elastic Constant Matrix: (Units=GPa)
#
#
# Indices 1 2 3 4 5 6 
#
# 1 92.5770 21.5280 30.4504 0.0000 -32.4476 0.0000
# 2 21.5280 85.1307 18.1669 0.0000 -18.7489 0.0000
# 3 30.4504 18.1669 62.2997 0.0000 -21.3790 0.0000
# 4 0.0000 0.0000 0.0000 20.5761 0.0000 -20.6195
# 5 -32.4476 -18.7489 -21.3790 0.0000 30.6753 0.0000
# 6 0.0000 0.0000 0.0000 -20.6195 0.0000 53.7376
#
#
#
# Elastic Compliance Matrix: (Units=1/GPa)
#
#
# Indices 1 2 3 4 5 6 
#
# 1 0.017559 -0.000205 -0.002881 0.000000 0.016441 0.000000
# 2 -0.000205 0.013678 -0.001438 0.000000 0.007141 0.000000
# 3 -0.002881 -0.001438 0.021728 0.000000 0.011217 0.000000
# 4 0.000000 0.000000 0.000000 0.078963 0.000000 0.030299
# 5 0.016441 0.007141 0.011217 0.000000 0.062173 0.000000
# 6 0.000000 0.000000 0.000000 0.030299 0.000000 0.030235
#
#
# Mechanical properties :
#
#
# Convention : Reuss Voigt Hill
#
# Bulk Modulus (GPa) = 22.76938 42.25536 32.51237
# Shear Modulus (GPa) = 20.15943 32.32193 26.24068
#
# Velocity S-wave (km/s) = 2.95797 3.74544 3.37475
# Velocity P-wave (km/s) = 4.64203 6.08639 5.41260
#
# Compressibility (1/GPa) = 0.04391864
#
# Stress axis : x y z
#
# Youngs Moduli (GPa) = 56.94933 73.10980 46.02323
#
# Poissons Ratio (x) = 0.01497 0.13259
# Poissons Ratio (y) = 0.01166 0.06617
# Poissons Ratio (z) = 0.16407 0.10512
#
# Static dielectric constant tensor:
#      x y z
#    x 1.885710 0.000000 -0.003380 
#    y 0.000000 2.126780 0.000000 
#    z -0.003380 0.000000 1.848070 
# 
# From -- ./inp_files/17995.got.cif
#   From: 2010.05.17/outbox.cif.g08.bks.cpg/sg13_9_cif.got.tgz:17995.got - 2010.06.03 16:44:36.
