data_PCOD9231566
_publ_section_title
;
Structure prediction by ZEFSAII (Michael W. Deem and Ramdas Pophale) SiO2 
 PCOD9231566
Probable space group: P 2/C
;
_chemical_formula_sum "Si O2"
_cell_formula_units_Z 18
_cell_length_a 15.758960
_cell_length_b 10.578695
_cell_length_c 12.629572
_cell_angle_alpha 90.000000
_cell_angle_beta 25.785917
_cell_angle_gamma 90.000000
_cell_volume 915.898433
_symmetry_space_group_name_H-M "P 2/C"
_symmetry_group_IT_number 13
_symmetry_cell_setting 'monoclinic'
loop_
_space_group_symop_operation_xyz
x,y,z
-x,y,1/2-z
-x,-y,-z
x,-y,1/2+z
loop_
_atom_site_type_symbol
_atom_site_label
_atom_site_fract_x
_atom_site_fract_y
_atom_site_fract_z
Si Si1 0.670339 0.298513 0.979492
Si Si2 0.684624 0.027021 0.865779
Si Si3 0.000000 0.411413 0.750000
Si Si4 0.030660 0.859930 0.838952
Si Si5 0.129625 0.585981 0.430514
O O1 0.649046 0.150676 0.977237
O O2 0.872019 0.326688 0.814787
O O3 0.687089 0.370566 0.847355
O O4 0.500000 0.339281 0.250000
O O5 0.861506 0.064271 0.589489
O O6 0.763886 0.911322 0.847676
O O7 0.500000 0.000000 0.000000
O O8 0.856119 0.503064 0.979137
O O9 0.000000 0.882117 0.750000
O O10 0.989387 0.713314 0.909364
O O11 0.000000 0.500000 0.500000
#
# Coordination Sequence:
#
# PCOD9231566 Si02
#       5
#     4   4   2   4   4
#     4  10  23  37  60  92 118 158 200 246 307 357
#     4  10  24  39  58  92 125 156 200 250 300 363
#     4  10  20  40  64  84 124 158 204 250 294 356
#     4  10  21  39  65  88 117 163 200 243 305 356
#     4   9  19  39  63  88 117 159 200 246 297 355
#
# _framework density 19.652835
#
# number of rings (size 3 to 8) (size 9 to 14) (size 15 to 20)
#    0.000    2.222    1.111    0.000    4.667    6.222 
#    0.000    6.667    0.000    0.000    0.000    0.000 
#    0.000    0.000    0.000    0.000    0.000    0.000 
#
# Total GULP energy -100350.783459 kJ/mol
# GULP energy per Si atom -5575.043525 kJ/mol
# Density = 1.960810 g / cm^3
# Si number density = 19.652835 Si / 1000 Ang^3
#
#
#
# Elastic Constant Matrix: (Units=GPa)
#
#
# Indices 1 2 3 4 5 6 
#
# 1 126.8419 58.4149 28.6435 0.0000 -5.8944 0.0000
# 2 58.4149 94.1342 15.5644 0.0000 -7.8937 0.0000
# 3 28.6435 15.5644 67.7882 0.0000 6.4235 0.0000
# 4 0.0000 0.0000 0.0000 0.5967 0.0000 0.0830
# 5 -5.8944 -7.8937 6.4235 0.0000 38.7512 0.0000
# 6 0.0000 0.0000 0.0000 0.0830 0.0000 29.2136
#
#
#
# Elastic Compliance Matrix: (Units=1/GPa)
#
#
# Indices 1 2 3 4 5 6 
#
# 1 0.011795 -0.006645 -0.003556 0.000000 0.001030 0.000000
# 2 -0.006645 0.015074 -0.000862 0.000000 0.002203 0.000000
# 3 -0.003556 -0.000862 0.016784 0.000000 -0.003499 0.000000
# 4 0.000000 0.000000 0.000000 1.676417 0.000000 -0.004763
# 5 0.001030 0.002203 -0.003499 0.000000 0.026991 0.000000
# 6 0.000000 0.000000 0.000000 -0.004763 0.000000 0.034244
#
#
# Mechanical properties :
#
#
# Convention : Reuss Voigt Hill
#
# Bulk Modulus (GPa) = 46.45302 54.89002 50.67152
# Shear Modulus (GPa) = 2.76151 26.12173 14.44162
#
# Velocity S-wave (km/s) = 1.18667 3.64972 2.71373
# Velocity P-wave (km/s) = 5.05625 6.76395 5.97146
#
# Compressibility (1/GPa) = 0.02152712
#
# Stress axis : x y z
#
# Youngs Moduli (GPa) = 84.78224 66.33969 59.58155
#
# Poissons Ratio (x) = 0.44083 0.21186
# Poissons Ratio (y) = 0.56338 0.05136
# Poissons Ratio (z) = 0.30146 0.05718
#
# Static dielectric constant tensor:
#      x y z
#    x 1.649070 0.000000 0.018350 
#    y 0.000000 1.691020 0.000000 
#    z 0.018350 0.000000 1.710770 
# 
# From -- ./inp_files/25794.got.cif
#   From: 2010.05.17/outbox.cif.g08.bks.cpg/sg13_13_cif.got.tgz:25794.got - 2010.06.03 16:44:36.
