data_PCOD9231040
_publ_section_title
;
Structure prediction by ZEFSAII (Michael W. Deem and Ramdas Pophale) SiO2 
 PCOD9231040
Probable space group: P 2/C
;
_chemical_formula_sum "Si O2"
_cell_formula_units_Z 20
_cell_length_a 25.598541
_cell_length_b 5.068355
_cell_length_c 14.977619
_cell_angle_alpha 90.000000
_cell_angle_beta 153.421329
_cell_angle_gamma 90.000000
_cell_volume 869.453636
_symmetry_space_group_name_H-M "P 2/C"
_symmetry_group_IT_number 13
_symmetry_cell_setting 'monoclinic'
loop_
_space_group_symop_operation_xyz
x,y,z
-x,y,1/2-z
-x,-y,-z
x,-y,1/2+z
loop_
_atom_site_type_symbol
_atom_site_label
_atom_site_fract_x
_atom_site_fract_y
_atom_site_fract_z
Si Si1 0.117879 0.542996 0.378165
Si Si2 0.209162 0.021709 0.425311
Si Si3 0.368782 0.322645 0.070507
Si Si4 0.337578 0.597501 0.840594
Si Si5 0.573909 0.739941 0.181077
O O1 0.117456 0.805490 0.318142
O O2 0.215635 0.611282 0.602820
O O3 0.000000 0.482723 0.250000
O O4 0.154604 0.302693 0.368800
O O5 0.268829 0.902241 0.427588
O O6 0.332648 0.027398 0.667543
O O7 0.500000 0.221123 0.250000
O O8 0.386581 0.521746 0.182872
O O9 0.326472 0.502292 0.924063
O O10 0.404453 0.379405 0.882826
O O11 0.440717 0.814935 0.997255
#
# Coordination Sequence:
#
# PCOD9231040 Si02
#       5
#     4   4   4   4   4
#     4  11  24  45  67  89 127 179 222 266 311 368
#     4  11  21  43  65  91 133 164 211 273 318 375
#     4  10  20  38  63 100 135 163 204 263 335 389
#     4   9  19  39  65  96 125 176 209 259 325 388
#     4   9  19  39  62  96 132 164 204 271 325 386
#
# _framework density 23.002949999999998
#
# number of rings (size 3 to 8) (size 9 to 14) (size 15 to 20)
#    0.000    2.000    4.000    0.600    0.000    3.200 
#   14.400    2.000    0.000    0.000    0.000    0.000 
#    0.000    0.000    0.000    0.000    0.000    0.000 
#
# Total GULP energy -111379.843029 kJ/mol
# GULP energy per Si atom -5568.992151 kJ/mol
# Density = 2.295059 g / cm^3
# Si number density = 23.002950 Si / 1000 Ang^3
#
#
#
# Elastic Constant Matrix: (Units=GPa)
#
#
# Indices 1 2 3 4 5 6 
#
# 1 92.3803 32.6761 17.0525 0.0000 14.4657 0.0000
# 2 32.6761 83.3884 12.9410 0.0000 6.1736 0.0000
# 3 17.0525 12.9410 43.5291 0.0000 22.6895 0.0000
# 4 0.0000 0.0000 0.0000 21.6126 0.0000 7.0387
# 5 14.4657 6.1736 22.6895 0.0000 56.7698 0.0000
# 6 0.0000 0.0000 0.0000 7.0387 0.0000 -10.0560
#
#
#
# Elastic Compliance Matrix: (Units=1/GPa)
#
#
# Indices 1 2 3 4 5 6 
#
# 1 0.013267 -0.004617 -0.002936 0.000000 -0.001705 0.000000
# 2 -0.004617 0.014180 -0.002800 0.000000 0.000753 0.000000
# 3 -0.002936 -0.002800 0.030830 0.000000 -0.011269 0.000000
# 4 0.000000 0.000000 0.000000 0.037680 0.000000 0.026374
# 5 -0.001705 0.000753 -0.011269 0.000000 0.022472 0.000000
# 6 0.000000 0.000000 0.000000 0.026374 0.000000 -0.080983
#
#
# Mechanical properties :
#
#
# Convention : Reuss Voigt Hill
#
# Bulk Modulus (GPa) = 26.61586 38.29303 32.45444
# Shear Modulus (GPa) = 70.74741 24.10717 47.42729
#
# Velocity S-wave (km/s) = 5.55181 3.24080 4.54562
# Velocity P-wave (km/s) = 7.25896 5.53957 6.45675
#
# Compressibility (1/GPa) = 0.03757159
#
# Stress axis : x y z
#
# Youngs Moduli (GPa) = 75.37625 70.52243 32.43618
#
# Poissons Ratio (x) = 0.32559 0.09523
# Poissons Ratio (y) = 0.34800 0.09081
# Poissons Ratio (z) = 0.22130 0.19744
#
# Static dielectric constant tensor:
#      x y z
#    x 1.922010 0.000000 -0.047900 
#    y 0.000000 2.014080 0.000000 
#    z -0.047900 0.000000 1.941060 
# 
# From -- ./inp_files/58095.got.cif
#   From: 2010.05.17/outbox.cif.g08.bks.cpg/sg13_30_cif.got.tgz:58095.got - 2010.06.03 16:44:36.
