data_PCOD9231307
_publ_section_title
;
Structure prediction by ZEFSAII (Michael W. Deem and Ramdas Pophale) SiO2 
 PCOD9231307
Probable space group: P 2/C
;
_chemical_formula_sum "Si O2"
_cell_formula_units_Z 30
_cell_length_a 14.389619
_cell_length_b 13.661749
_cell_length_c 22.875462
_cell_angle_alpha 90.000000
_cell_angle_beta 159.724211
_cell_angle_gamma 90.000000
_cell_volume 1558.396524
_symmetry_space_group_name_H-M "P 2/C"
_symmetry_group_IT_number 13
_symmetry_cell_setting 'monoclinic'
loop_
_space_group_symop_operation_xyz
x,y,z
-x,y,1/2-z
-x,-y,-z
x,-y,1/2+z
loop_
_atom_site_type_symbol
_atom_site_label
_atom_site_fract_x
_atom_site_fract_y
_atom_site_fract_z
Si Si1 0.306468 0.533652 0.188441
Si Si2 0.062578 0.223655 0.148899
Si Si3 0.545697 0.234502 0.927511
Si Si4 0.260269 0.769153 0.151287
Si Si5 0.000000 0.227638 0.750000
Si Si6 0.643637 0.428937 0.164442
Si Si7 0.240076 0.387054 0.822068
Si Si8 0.462127 0.887779 0.961027
O O1 0.500000 0.505707 0.250000
O O2 0.291722 0.651939 0.179509
O O3 0.422527 0.479956 0.313683
O O4 0.000000 0.500000 0.000000
O O5 0.225808 0.324252 0.249500
O O6 0.232306 0.137251 0.278613
O O7 0.799197 0.241475 0.033926
O O8 0.991460 0.209012 0.038619
O O9 0.309913 0.192349 0.746025
O O10 0.447010 0.335347 0.899220
O O11 0.606838 0.167329 0.019094
O O12 0.500000 0.802454 0.250000
O O13 0.026392 0.303045 0.711001
O O14 0.736169 0.161364 0.598381
O O15 0.844629 0.509057 0.253820
O O16 0.400483 0.412782 0.976008
O O17 0.500000 0.000000 0.000000
#
# Coordination Sequence:
#
# PCOD9231307 Si02
#       8
#     4   4   4   4   2   4   4   4
#     4  11  22  35  53  83 120 174 216 247 294 362
#     4  11  21  38  63  93 122 157 216 252 299 373
#     4  10  20  39  62  90 118 158 204 251 310 365
#     4   9  19  36  57  85 125 162 201 255 293 359
#     4  10  22  42  56  88 132 150 200 264 328 374
#     4  11  21  35  55  90 126 172 210 247 297 372
#     4  10  22  35  55  87 127 167 199 252 309 358
#     4  11  25  43  67  92 114 157 206 271 328 377
#
# _framework density 19.250557000000001
#
# number of rings (size 3 to 8) (size 9 to 14) (size 15 to 20)
#    0.000    1.600    5.333    0.400    1.867    3.200 
#    0.000    0.667    0.000    0.000    0.000    0.000 
#    0.000    0.000    0.000    0.000    0.000    0.000 
#
# Total GULP energy -167185.268272 kJ/mol
# GULP energy per Si atom -5572.842276 kJ/mol
# Density = 1.920674 g / cm^3
# Si number density = 19.250557 Si / 1000 Ang^3
#
#
#
# Elastic Constant Matrix: (Units=GPa)
#
#
# Indices 1 2 3 4 5 6 
#
# 1 97.4862 9.7998 44.6663 0.0000 -20.1162 0.0000
# 2 9.7998 79.5927 17.9886 0.0000 -9.0494 0.0000
# 3 44.6663 17.9886 66.9117 0.0000 -22.0357 0.0000
# 4 0.0000 0.0000 0.0000 18.7061 0.0000 -0.8168
# 5 -20.1162 -9.0494 -22.0357 0.0000 47.9441 0.0000
# 6 0.0000 0.0000 0.0000 -0.8168 0.0000 16.4649
#
#
#
# Elastic Compliance Matrix: (Units=1/GPa)
#
#
# Indices 1 2 3 4 5 6 
#
# 1 0.014957 0.000527 -0.009458 0.000000 0.002028 0.000000
# 2 0.000527 0.013438 -0.003601 0.000000 0.001102 0.000000
# 3 -0.009458 -0.003601 0.024387 0.000000 0.006561 0.000000
# 4 0.000000 0.000000 0.000000 0.053574 0.000000 0.002658
# 5 0.002028 0.001102 0.006561 0.000000 0.024932 0.000000
# 6 0.000000 0.000000 0.000000 0.002658 0.000000 0.060867
#
#
# Mechanical properties :
#
#
# Convention : Reuss Voigt Hill
#
# Bulk Modulus (GPa) = 36.07872 43.21112 39.64492
# Shear Modulus (GPa) = 22.07886 28.05875 25.06880
#
# Velocity S-wave (km/s) = 3.39030 3.82194 3.61257
# Velocity P-wave (km/s) = 5.84019 6.47855 6.16764
#
# Compressibility (1/GPa) = 0.02771717
#
# Stress axis : x y z
#
# Youngs Moduli (GPa) = 66.85892 74.41373 41.00466
#
# Poissons Ratio (x) = -0.03919 0.38782
# Poissons Ratio (y) = -0.03521 0.14767
# Poissons Ratio (z) = 0.63235 0.26799
#
# Static dielectric constant tensor:
#      x y z
#    x 1.699690 0.000000 -0.013850 
#    y 0.000000 1.664770 0.000000 
#    z -0.013850 0.000000 1.740310 
# 
# From -- ./inp_files/87559.got.cif
#   From: 2010.05.17/outbox.cif.g08.bks.cpg/sg13_44_cif.got.tgz:87559.got - 2010.06.03 16:44:36.
