data_PCOD9231578
_publ_section_title
;
Structure prediction by ZEFSAII (Michael W. Deem and Ramdas Pophale) SiO2 
 PCOD9231578
Probable space group: P 2/C
;
_chemical_formula_sum "Si O2"
_cell_formula_units_Z 30
_cell_length_a 10.993940
_cell_length_b 11.047727
_cell_length_c 12.152558
_cell_angle_alpha 90.000000
_cell_angle_beta 74.441439
_cell_angle_gamma 90.000000
_cell_volume 1421.939671
_symmetry_space_group_name_H-M "P 2/C"
_symmetry_group_IT_number 13
_symmetry_cell_setting 'monoclinic'
loop_
_space_group_symop_operation_xyz
x,y,z
-x,y,1/2-z
-x,-y,-z
x,-y,1/2+z
loop_
_atom_site_type_symbol
_atom_site_label
_atom_site_fract_x
_atom_site_fract_y
_atom_site_fract_z
Si Si1 0.286537 0.810168 0.943496
Si Si2 0.868255 0.831312 0.718983
Si Si3 0.636689 0.435362 0.942991
Si Si4 0.685993 0.963179 0.349188
Si Si5 0.930895 0.421110 0.165041
Si Si6 0.820075 0.394340 0.517840
Si Si7 0.351260 0.728364 0.270605
Si Si8 0.500000 0.091545 0.250000
O O1 0.157321 0.839117 0.907448
O O2 0.320551 0.681372 0.992208
O O3 0.389746 0.827173 0.824011
O O4 0.305428 0.912865 0.030671
O O5 0.846971 0.686832 0.733924
O O6 0.000000 0.851514 0.750000
O O7 0.777828 0.926073 0.801034
O O8 0.739576 0.535291 0.946931
O O9 0.500000 0.500000 0.000000
O O10 0.647130 0.382756 0.817136
O O11 0.713361 0.845240 0.268077
O O12 0.551765 0.010653 0.337586
O O13 0.858157 0.510665 0.104196
O O14 0.000000 0.486305 0.250000
O O15 0.044937 0.359161 0.066492
O O16 0.726003 0.301526 0.600417
O O17 0.500000 0.753535 0.250000
#
# Coordination Sequence:
#
# PCOD9231578 Si02
#       8
#     4   4   4   4   4   4   4   2
#     4  10  22  40  64  93 132 169 218 271 331 390
#     4  10  22  45  64  91 123 168 222 278 318 391
#     4  11  22  39  63  99 135 170 211 265 325 398
#     4  10  22  42  61  90 130 171 215 273 332 392
#     4  10  22  44  65  91 128 165 223 268 320 391
#     4  11  22  41  67  96 126 177 205 273 330 383
#     4  11  22  40  62  95 135 167 216 261 331 407
#     4  10  20  40  64  92 124 172 220 268 326 398
#
# _framework density 21.097943000000001
#
# number of rings (size 3 to 8) (size 9 to 14) (size 15 to 20)
#    0.000    1.600    3.333    1.200    0.000    1.600 
#   21.600    0.000    0.000    0.000    0.000    0.000 
#    0.000    0.000    0.000    0.000    0.000    0.000 
#
# Total GULP energy -167090.427321 kJ/mol
# GULP energy per Si atom -5569.680911 kJ/mol
# Density = 2.104992 g / cm^3
# Si number density = 21.097943 Si / 1000 Ang^3
#
#
#
# Elastic Constant Matrix: (Units=GPa)
#
#
# Indices 1 2 3 4 5 6 
#
# 1 103.7265 34.4804 38.8902 0.0000 18.1006 0.0000
# 2 34.4804 72.4213 36.4508 0.0000 -12.0560 0.0000
# 3 38.8902 36.4508 81.2527 0.0000 8.2866 0.0000
# 4 0.0000 0.0000 0.0000 14.5387 0.0000 1.8770
# 5 18.1006 -12.0560 8.2866 0.0000 38.8795 0.0000
# 6 0.0000 0.0000 0.0000 1.8770 0.0000 24.3124
#
#
#
# Elastic Compliance Matrix: (Units=1/GPa)
#
#
# Indices 1 2 3 4 5 6 
#
# 1 0.014435 -0.006673 -0.003086 0.000000 -0.008132 0.000000
# 2 -0.006673 0.023276 -0.008485 0.000000 0.012133 0.000000
# 3 -0.003086 -0.008485 0.018106 0.000000 -0.005053 0.000000
# 4 0.000000 0.000000 0.000000 0.069475 0.000000 -0.005364
# 5 -0.008132 0.012133 -0.005053 0.000000 0.034345 0.000000
# 6 0.000000 0.000000 0.000000 -0.005364 0.000000 0.041545
#
#
# Mechanical properties :
#
#
# Convention : Reuss Voigt Hill
#
# Bulk Modulus (GPa) = 51.73747 53.00482 52.37115
# Shear Modulus (GPa) = 20.48226 25.38472 22.93349
#
# Velocity S-wave (km/s) = 3.11918 3.47246 3.30055
# Velocity P-wave (km/s) = 6.12765 6.42301 6.27707
#
# Compressibility (1/GPa) = 0.01932835
#
# Stress axis : x y z
#
# Youngs Moduli (GPa) = 69.27559 42.96355 55.22942
#
# Poissons Ratio (x) = 0.28670 0.17045
# Poissons Ratio (y) = 0.46228 0.46863
# Poissons Ratio (z) = 0.21380 0.36455
#
# Static dielectric constant tensor:
#      x y z
#    x 1.816690 0.000000 0.026100 
#    y 0.000000 1.753140 0.000000 
#    z 0.026100 0.000000 1.787670 
# 
# From -- ./inp_files/33834.got.cif
#   From: 2010.05.17/outbox.cif.g08.bks.cpg/sg13_17_cif.got.tgz:33834.got - 2010.06.03 16:44:36.
