data_PCOD9231625
_publ_section_title
;
Structure prediction by ZEFSAII (Michael W. Deem and Ramdas Pophale) SiO2 
 PCOD9231625
Probable space group: P 2/C
;
_chemical_formula_sum "Si O2"
_cell_formula_units_Z 18
_cell_length_a 5.327160
_cell_length_b 20.983201
_cell_length_c 8.199330
_cell_angle_alpha 90.000000
_cell_angle_beta 62.771015
_cell_angle_gamma 90.000000
_cell_volume 814.963176
_symmetry_space_group_name_H-M "P 2/C"
_symmetry_group_IT_number 13
_symmetry_cell_setting 'monoclinic'
loop_
_space_group_symop_operation_xyz
x,y,z
-x,y,1/2-z
-x,-y,-z
x,-y,1/2+z
loop_
_atom_site_type_symbol
_atom_site_label
_atom_site_fract_x
_atom_site_fract_y
_atom_site_fract_z
Si Si1 0.500000 0.278786 0.750000
Si Si2 0.661869 0.059341 0.873587
Si Si3 0.946205 0.689411 0.572850
Si Si4 0.815923 0.552786 0.642765
Si Si5 0.273780 0.194527 0.550294
O O1 0.780127 0.317246 0.626554
O O2 0.490743 0.232828 0.596913
O O3 0.500000 0.073804 0.750000
O O4 0.638017 0.121724 0.996997
O O5 0.000000 0.046552 0.750000
O O6 0.500000 0.000000 0.000000
O O7 0.000000 0.691982 0.750000
O O8 0.781339 0.624250 0.580267
O O9 0.803054 0.756702 0.569020
O O10 0.500000 0.527019 0.750000
O O11 0.000000 0.563164 0.750000
O O12 0.000000 0.500000 0.500000
O O13 0.000000 0.189997 0.750000
#
# Coordination Sequence:
#
# PCOD9231625 Si02
#       5
#     2   4   4   4   4
#     4  10  20  40  66  92 134 184 216 292 352 412
#     4  11  23  45  69  99 140 182 235 288 349 421
#     4  10  24  41  69 102 139 176 241 290 352 416
#     4  11  26  46  71 102 141 184 233 290 348 422
#     4   9  20  40  65  94 132 182 228 283 350 417
#
# _framework density 22.086886
#
# number of rings (size 3 to 8) (size 9 to 14) (size 15 to 20)
#    0.000    1.778    1.111    1.333    7.778    2.667 
#    4.000    0.000    0.000    0.000    0.000    0.000 
#    0.000    0.000    0.000    0.000    0.000    0.000 
#
# Total GULP energy -100361.409019 kJ/mol
# GULP energy per Si atom -5575.633834 kJ/mol
# Density = 2.203662 g / cm^3
# Si number density = 22.086886 Si / 1000 Ang^3
#
#
#
# Elastic Constant Matrix: (Units=GPa)
#
#
# Indices 1 2 3 4 5 6 
#
# 1 115.4223 43.7275 40.2465 0.0000 -19.2685 0.0000
# 2 43.7275 182.6387 69.7392 0.0000 -3.4025 0.0000
# 3 40.2465 69.7392 75.9183 0.0000 -14.3477 0.0000
# 4 0.0000 0.0000 0.0000 46.3431 0.0000 -4.9371
# 5 -19.2685 -3.4025 -14.3477 0.0000 50.5749 0.0000
# 6 0.0000 0.0000 0.0000 -4.9371 0.0000 -11.1920
#
#
#
# Elastic Compliance Matrix: (Units=1/GPa)
#
#
# Indices 1 2 3 4 5 6 
#
# 1 0.011046 -0.000866 -0.004518 0.000000 0.002868 0.000000
# 2 -0.000866 0.008646 -0.007857 0.000000 -0.001977 0.000000
# 3 -0.004518 -0.007857 0.023626 0.000000 0.004452 0.000000
# 4 0.000000 0.000000 0.000000 0.020610 0.000000 -0.009091
# 5 0.002868 -0.001977 0.004452 0.000000 0.021996 0.000000
# 6 0.000000 0.000000 0.000000 -0.009091 0.000000 -0.085339
#
#
# Mechanical properties :
#
#
# Convention : Reuss Voigt Hill
#
# Bulk Modulus (GPa) = 59.39624 75.71176 67.55400
# Shear Modulus (GPa) = 153.00531 31.82961 92.41746
#
# Velocity S-wave (km/s) = 8.33215 3.80031 6.47561
# Velocity P-wave (km/s) = 10.93237 7.32188 9.30394
#
# Compressibility (1/GPa) = 0.01683608
#
# Stress axis : x y z
#
# Youngs Moduli (GPa) = 90.52840 115.66307 42.32618
#
# Poissons Ratio (x) = 0.10016 0.19124
# Poissons Ratio (y) = 0.07839 0.33254
# Poissons Ratio (z) = 0.40904 0.90873
#
# Static dielectric constant tensor:
#      x y z
#    x 1.894740 0.000000 -0.040480 
#    y 0.000000 1.844400 0.000000 
#    z -0.040480 0.000000 1.813950 
# 
# From -- ./inp_files/9334.got.cif
#   From: 2010.05.17/outbox.cif.g08.bks.cpg/sg13_5_cif.got.tgz:9334.got - 2010.06.03 16:44:36.
