data_PCOD9231929
_publ_section_title
;
Structure prediction by ZEFSAII (Michael W. Deem and Ramdas Pophale) SiO2 
 PCOD9231929
Probable space group: P 2/C
;
_chemical_formula_sum "Si O2"
_cell_formula_units_Z 20
_cell_length_a 18.643404
_cell_length_b 5.338846
_cell_length_c 8.459718
_cell_angle_alpha 90.000000
_cell_angle_beta 59.927347
_cell_angle_gamma 90.000000
_cell_volume 728.686477
_symmetry_space_group_name_H-M "P 2/C"
_symmetry_group_IT_number 13
_symmetry_cell_setting 'monoclinic'
loop_
_space_group_symop_operation_xyz
x,y,z
-x,y,1/2-z
-x,-y,-z
x,-y,1/2+z
loop_
_atom_site_type_symbol
_atom_site_label
_atom_site_fract_x
_atom_site_fract_y
_atom_site_fract_z
Si Si1 0.263865 0.377081 0.686000
Si Si2 0.000000 0.642679 0.750000
Si Si3 0.243313 0.993970 0.929210
Si Si4 0.603072 0.739442 0.922552
Si Si5 0.108751 0.719415 0.909912
Si Si6 0.500000 0.888799 0.750000
O O1 0.246708 0.140371 0.592898
O O2 0.355069 0.488583 0.557393
O O3 0.186439 0.561777 0.755534
O O4 0.261769 0.282013 0.870852
O O5 0.949686 0.791499 0.671507
O O6 0.060001 0.460035 0.583657
O O7 0.317242 0.858669 0.752314
O O8 0.152888 0.939050 0.957049
O O9 0.536151 0.728936 0.855629
O O10 0.566977 0.921180 0.096882
#
# Coordination Sequence:
#
# PCOD9231929 Si02
#       6
#     4   2   4   4   4   2
#     4  11  25  45  71 105 146 202 248 301 354 452
#     4  10  20  42  70 108 138 192 246 332 370 424
#     4  11  24  44  69 103 140 204 248 290 364 448
#     4  10  24  47  78 108 149 182 244 302 371 445
#     4  10  22  42  71  98 149 186 253 312 374 430
#     4  10  22  50  82 118 140 186 234 308 386 442
#
# _framework density 27.446643999999999
#
# number of rings (size 3 to 8) (size 9 to 14) (size 15 to 20)
#    0.000    1.600    2.000    1.200    2.800    4.800 
#    0.000   27.000    0.000    1.200    0.000    0.000 
#    0.000    0.000    0.000    0.000    0.000    0.000 
#
# Total GULP energy -112152.053915 kJ/mol
# GULP energy per Si atom -5607.602696 kJ/mol
# Density = 2.738417 g / cm^3
# Si number density = 27.446644 Si / 1000 Ang^3
#
#
#
# Elastic Constant Matrix: (Units=GPa)
#
#
# Indices 1 2 3 4 5 6 
#
# 1 217.8198 56.8310 44.5733 0.0000 24.8913 0.0000
# 2 56.8310 67.7220 28.3949 0.0000 14.1199 0.0000
# 3 44.5733 28.3949 153.8872 0.0000 -3.0822 0.0000
# 4 0.0000 0.0000 0.0000 55.0894 0.0000 -7.1297
# 5 24.8913 14.1199 -3.0822 0.0000 49.8715 0.0000
# 6 0.0000 0.0000 0.0000 -7.1297 0.0000 16.1077
#
#
#
# Elastic Compliance Matrix: (Units=1/GPa)
#
#
# Indices 1 2 3 4 5 6 
#
# 1 0.006148 -0.004335 -0.001019 0.000000 -0.001904 0.000000
# 2 -0.004335 0.020253 -0.002556 0.000000 -0.003729 0.000000
# 3 -0.001019 -0.002556 0.007299 0.000000 0.001683 0.000000
# 4 0.000000 0.000000 0.000000 0.019255 0.000000 0.008523
# 5 -0.001904 -0.003729 0.001683 0.000000 0.022162 0.000000
# 6 0.000000 0.000000 0.000000 0.008523 0.000000 0.065855
#
#
# Mechanical properties :
#
#
# Convention : Reuss Voigt Hill
#
# Bulk Modulus (GPa) = 55.92921 77.66969 66.79945
# Shear Modulus (GPa) = 30.72154 44.85570 37.78862
#
# Velocity S-wave (km/s) = 3.34925 4.04702 3.71455
# Velocity P-wave (km/s) = 5.94797 7.08503 6.54125
#
# Compressibility (1/GPa) = 0.01787975
#
# Stress axis : x y z
#
# Youngs Moduli (GPa) = 162.65052 49.37456 137.00891
#
# Poissons Ratio (x) = 0.21404 0.13962
# Poissons Ratio (y) = 0.70511 0.35021
# Poissons Ratio (z) = 0.16575 0.12621
#
# Static dielectric constant tensor:
#      x y z
#    x 2.126500 0.000000 0.039230 
#    y 0.000000 2.207110 0.000000 
#    z 0.039230 0.000000 2.110430 
# 
# From -- ./inp_files/22202.got.cif
#   From: 2010.05.17/outbox.cif.g08.bks.cpg/sg13_12_cif.got.tgz:22202.got - 2010.06.03 16:44:36.
