data_PCOD9231828
_publ_section_title
;
Structure prediction by ZEFSAII (Michael W. Deem and Ramdas Pophale) SiO2 
 PCOD9231828
Probable space group: P 2/C
;
_chemical_formula_sum "Si O2"
_cell_formula_units_Z 22
_cell_length_a 20.314772
_cell_length_b 5.003292
_cell_length_c 14.774025
_cell_angle_alpha 90.000000
_cell_angle_beta 44.279481
_cell_angle_gamma 90.000000
_cell_volume 1048.385321
_symmetry_space_group_name_H-M "P 2/C"
_symmetry_group_IT_number 13
_symmetry_cell_setting 'monoclinic'
loop_
_space_group_symop_operation_xyz
x,y,z
-x,y,1/2-z
-x,-y,-z
x,-y,1/2+z
loop_
_atom_site_type_symbol
_atom_site_label
_atom_site_fract_x
_atom_site_fract_y
_atom_site_fract_z
Si Si1 0.089766 0.576553 0.723660
Si Si2 0.917907 0.928407 0.148298
Si Si3 0.453942 0.243332 0.596030
Si Si4 0.302163 0.491001 0.524666
Si Si5 0.500000 0.375137 0.750000
Si Si6 0.287736 0.001292 0.165422
O O1 0.084730 0.375123 0.814381
O O2 0.199094 0.551168 0.582011
O O3 0.000000 0.508083 0.750000
O O4 0.076679 0.878923 0.770027
O O5 0.819668 0.007430 0.198629
O O6 0.000000 0.000000 0.000000
O O7 0.500000 0.500000 0.500000
O O8 0.478400 0.231018 0.677051
O O9 0.346145 0.161686 0.683320
O O10 0.500000 0.000000 0.500000
O O11 0.398252 0.489026 0.371552
O O12 0.294452 0.197117 0.573464
O O13 0.313201 0.709315 0.596578
#
# Coordination Sequence:
#
# PCOD9231828 Si02
#       6
#     4   4   4   4   2   4
#     4  10  21  39  61  89 130 160 205 274 317 364
#     4  10  21  37  64  89 121 169 210 253 323 392
#     4  12  24  41  63  91 129 167 215 272 319 376
#     4  10  22  38  62  88 122 170 209 259 320 385
#     4  12  24  40  68  94 124 172 228 244 334 396
#     4  10  20  42  58  86 128 164 204 268 322 364
#
# _framework density 20.984652000000001
#
# number of rings (size 3 to 8) (size 9 to 14) (size 15 to 20)
#    0.000    1.455    3.636    1.091    0.000    4.364 
#    0.000    1.818    0.000    0.000    0.000    0.000 
#    0.000    0.000    0.000    0.000    0.000    0.000 
#
# Total GULP energy -122494.649459 kJ/mol
# GULP energy per Si atom -5567.938612 kJ/mol
# Density = 2.093689 g / cm^3
# Si number density = 20.984652 Si / 1000 Ang^3
#
#
#
# Elastic Constant Matrix: (Units=GPa)
#
#
# Indices 1 2 3 4 5 6 
#
# 1 115.6671 -2.2614 47.0646 0.0000 -23.3796 0.0000
# 2 -2.2614 101.8760 11.6483 0.0000 -1.1464 0.0000
# 3 47.0646 11.6483 145.8454 0.0000 -39.8332 0.0000
# 4 0.0000 0.0000 0.0000 17.7497 0.0000 -10.0118
# 5 -23.3796 -1.1464 -39.8332 0.0000 41.6686 0.0000
# 6 0.0000 0.0000 0.0000 -10.0118 0.0000 21.2208
#
#
#
# Elastic Compliance Matrix: (Units=1/GPa)
#
#
# Indices 1 2 3 4 5 6 
#
# 1 0.010352 0.000547 -0.002428 0.000000 0.003503 0.000000
# 2 0.000547 0.009948 -0.001100 0.000000 -0.000471 0.000000
# 3 -0.002428 -0.001100 0.009944 0.000000 0.008113 0.000000
# 4 0.000000 0.000000 0.000000 0.076768 0.000000 0.036218
# 5 0.003503 -0.000471 0.008113 0.000000 0.033707 0.000000
# 6 0.000000 0.000000 0.000000 0.036218 0.000000 0.064211
#
#
# Mechanical properties :
#
#
# Convention : Reuss Voigt Hill
#
# Bulk Modulus (GPa) = 41.18054 52.92128 47.05091
# Shear Modulus (GPa) = 22.83257 36.59030 29.71143
#
# Velocity S-wave (km/s) = 3.30215 4.18026 3.76688
# Velocity P-wave (km/s) = 5.84856 6.96945 6.43346
#
# Compressibility (1/GPa) = 0.02428332
#
# Stress axis : x y z
#
# Youngs Moduli (GPa) = 96.60001 100.51856 100.56609
#
# Poissons Ratio (x) = -0.05496 0.24414
# Poissons Ratio (y) = -0.05282 0.11058
# Poissons Ratio (z) = 0.23451 0.11052
#
# Static dielectric constant tensor:
#      x y z
#    x 1.737660 0.000000 0.003970 
#    y 0.000000 1.729590 0.000000 
#    z 0.003970 0.000000 1.712770 
# 
# From -- ./inp_files/56455.got.cif
#   From: 2010.05.17/outbox.cif.g08.bks.cpg/sg13_29_cif.got.tgz:56455.got - 2010.06.03 16:44:36.
