data_PCOD9231593
_publ_section_title
;
Structure prediction by ZEFSAII (Michael W. Deem and Ramdas Pophale) SiO2 
 PCOD9231593
Probable space group: P 2/C
;
_chemical_formula_sum "Si O2"
_cell_formula_units_Z 16
_cell_length_a 6.933231
_cell_length_b 10.085190
_cell_length_c 18.460815
_cell_angle_alpha 90.000000
_cell_angle_beta 147.096144
_cell_angle_gamma 90.000000
_cell_volume 701.221356
_symmetry_space_group_name_H-M "P 2/C"
_symmetry_group_IT_number 13
_symmetry_cell_setting 'monoclinic'
loop_
_space_group_symop_operation_xyz
x,y,z
-x,y,1/2-z
-x,-y,-z
x,-y,1/2+z
loop_
_atom_site_type_symbol
_atom_site_label
_atom_site_fract_x
_atom_site_fract_y
_atom_site_fract_z
Si Si1 0.552126 0.593284 0.852847
Si Si2 0.722051 0.054197 0.999908
Si Si3 0.638602 0.691683 0.375743
Si Si4 0.288356 0.872453 0.783374
O O1 0.500000 0.583964 0.750000
O O2 0.465616 0.445114 0.851626
O O3 0.310652 0.715671 0.798235
O O4 0.949253 0.643225 0.997922
O O5 0.591765 0.187052 0.916910
O O6 0.658510 0.937151 0.922885
O O7 0.112710 0.085894 0.152797
O O8 0.500000 0.000000 0.000000
O O9 0.500000 0.722163 0.250000
O O10 0.000000 0.922486 0.750000
#
# Coordination Sequence:
#
# PCOD9231593 Si02
#       4
#     4   4   4   4
#     4  10  20  40  65  90 127 166 212 268 318 376
#     4  10  22  41  60  87 130 168 208 261 318 383
#     4  10  22  38  65  95 123 163 221 266 318 376
#     4  10  22  40  60  89 126 169 211 260 320 380
#
# _framework density 22.817329999999998
#
# number of rings (size 3 to 8) (size 9 to 14) (size 15 to 20)
#    0.000    2.000    2.500    0.000    3.500    2.000 
#    0.000    8.750    0.000    0.000    0.000    0.000 
#    0.000    0.000    0.000    0.000    0.000    0.000 
#
# Total GULP energy -89146.494102 kJ/mol
# GULP energy per Si atom -5571.655881 kJ/mol
# Density = 2.276540 g / cm^3
# Si number density = 22.817330 Si / 1000 Ang^3
#
#
#
# Elastic Constant Matrix: (Units=GPa)
#
#
# Indices 1 2 3 4 5 6 
#
# 1 69.7691 40.1017 36.5801 0.0000 -19.5491 0.0000
# 2 40.1017 191.0416 49.0205 0.0000 -28.7580 0.0000
# 3 36.5801 49.0205 145.5439 0.0000 -32.5806 0.0000
# 4 0.0000 0.0000 0.0000 40.2967 0.0000 -3.4345
# 5 -19.5491 -28.7580 -32.5806 0.0000 26.2586 0.0000
# 6 0.0000 0.0000 0.0000 -3.4345 0.0000 33.5447
#
#
#
# Elastic Compliance Matrix: (Units=1/GPa)
#
#
# Indices 1 2 3 4 5 6 
#
# 1 0.019263 -0.002090 -0.001993 0.000000 0.009579 0.000000
# 2 -0.002090 0.006562 -0.000588 0.000000 0.004901 0.000000
# 3 -0.001993 -0.000588 0.009821 0.000000 0.010058 0.000000
# 4 0.000000 0.000000 0.000000 0.025034 0.000000 0.002563
# 5 0.009579 0.004901 0.010058 0.000000 0.063062 0.000000
# 6 0.000000 0.000000 0.000000 0.002563 0.000000 0.030073
#
#
# Mechanical properties :
#
#
# Convention : Reuss Voigt Hill
#
# Bulk Modulus (GPa) = 38.01636 73.08435 55.55036
# Shear Modulus (GPa) = 29.08222 38.73016 33.90619
#
# Velocity S-wave (km/s) = 3.57398 4.12442 3.85903
# Velocity P-wave (km/s) = 5.80762 7.40141 6.65242
#
# Compressibility (1/GPa) = 0.02630446
#
# Stress axis : x y z
#
# Youngs Moduli (GPa) = 51.91169 152.39785 101.82003
#
# Poissons Ratio (x) = 0.31854 0.20295
# Poissons Ratio (y) = 0.10851 0.05983
# Poissons Ratio (z) = 0.10347 0.08955
#
# Static dielectric constant tensor:
#      x y z
#    x 1.364320 0.000000 0.128280 
#    y 0.000000 1.896480 0.000000 
#    z 0.128280 0.000000 1.872860 
# 
# From -- ./inp_files/11356.got.cif
#   From: 2010.05.17/outbox.cif.g08.bks.cpg/sg13_6_cif.got.tgz:11356.got - 2010.06.03 16:44:36.
