data_PCOD9231135
_publ_section_title
;
Structure prediction by ZEFSAII (Michael W. Deem and Ramdas Pophale) SiO2 
 PCOD9231135
Probable space group: P 2/C
;
_chemical_formula_sum "Si O2"
_cell_formula_units_Z 32
_cell_length_a 27.687533
_cell_length_b 8.111076
_cell_length_c 20.249674
_cell_angle_alpha 90.000000
_cell_angle_beta 162.070925
_cell_angle_gamma 90.000000
_cell_volume 1399.925966
_symmetry_space_group_name_H-M "P 2/C"
_symmetry_group_IT_number 13
_symmetry_cell_setting 'monoclinic'
loop_
_space_group_symop_operation_xyz
x,y,z
-x,y,1/2-z
-x,-y,-z
x,-y,1/2+z
loop_
_atom_site_type_symbol
_atom_site_label
_atom_site_fract_x
_atom_site_fract_y
_atom_site_fract_z
Si Si1 0.886578 0.204867 0.764298
Si Si2 0.490957 0.991600 0.601837
Si Si3 0.212898 0.772243 0.754933
Si Si4 0.290692 0.476224 0.789990
Si Si5 0.561208 0.691842 0.897057
Si Si6 0.670184 0.823422 0.233394
Si Si7 0.071817 0.417624 0.191318
Si Si8 0.021060 0.097780 0.200137
O O1 0.728947 0.224652 0.600566
O O2 0.902206 0.391815 0.755182
O O3 0.890362 0.053097 0.718908
O O4 0.038693 0.172674 0.008453
O O5 0.344512 0.093917 0.440233
O O6 0.617020 0.116475 0.735838
O O7 0.546128 0.847837 0.722477
O O8 0.432798 0.893736 0.460739
O O9 0.279041 0.672005 0.777252
O O10 0.182846 0.645887 0.776415
O O11 0.408867 0.424218 0.001837
O O12 0.331316 0.374137 0.777612
O O13 0.110169 0.419203 0.569913
O O14 0.500000 0.612569 0.750000
O O15 0.841880 0.894436 0.441528
O O16 0.088237 0.277783 0.268328
O O17 0.000000 0.075753 0.250000
#
# Coordination Sequence:
#
# PCOD9231135 Si02
#       8
#     4   4   4   4   4   4   4   4
#     4  11  21  39  65  91 116 154 202 256 303 355
#     4  10  21  35  58  81 118 154 197 247 293 351
#     4  11  18  36  66  94 109 147 204 260 305 343
#     4   9  18  36  61  86 115 150 198 249 297 352
#     4  11  22  36  56  85 122 158 192 243 306 363
#     4   9  20  39  53  82 118 155 198 244 288 353
#     4  10  20  38  65  93 120 142 207 265 290 345
#     4  11  24  38  62  87 120 166 200 238 307 361
#
# _framework density 22.858352
#
# number of rings (size 3 to 8) (size 9 to 14) (size 15 to 20)
#    0.000    1.750    3.750    1.500    1.750    2.000 
#    0.000    1.875    0.000    0.000    0.000    0.000 
#    0.000    0.000    0.000    0.000    0.000    0.000 
#
# Total GULP energy -178533.505919 kJ/mol
# GULP energy per Si atom -5579.172060 kJ/mol
# Density = 2.280633 g / cm^3
# Si number density = 22.858352 Si / 1000 Ang^3
#
#
#
# Elastic Constant Matrix: (Units=GPa)
#
#
# Indices 1 2 3 4 5 6 
#
# 1 27.4651 10.3554 -15.4508 0.0000 -0.5131 0.0000
# 2 10.3554 96.1399 -1.5911 0.0000 -1.1223 0.0000
# 3 -15.4508 -1.5911 36.6536 0.0000 6.0542 0.0000
# 4 0.0000 0.0000 0.0000 19.1903 0.0000 10.7079
# 5 -0.5131 -1.1223 6.0542 0.0000 21.5423 0.0000
# 6 0.0000 0.0000 0.0000 10.7079 0.0000 33.6336
#
#
#
# Elastic Compliance Matrix: (Units=1/GPa)
#
#
# Indices 1 2 3 4 5 6 
#
# 1 0.050618 -0.005150 0.021979 0.000000 -0.005240 0.000000
# 2 -0.005150 0.010937 -0.001856 0.000000 0.000969 0.000000
# 3 0.021979 -0.001856 0.038168 0.000000 -0.010300 0.000000
# 4 0.000000 0.000000 0.000000 0.063367 0.000000 -0.020174
# 5 -0.005240 0.000969 -0.010300 0.000000 0.049241 0.000000
# 6 0.000000 0.000000 0.000000 -0.020174 0.000000 0.036155
#
#
# Mechanical properties :
#
#
# Convention : Reuss Voigt Hill
#
# Bulk Modulus (GPa) = 7.71186 16.32061 12.01624
# Shear Modulus (GPa) = 19.10138 26.00292 22.55215
#
# Velocity S-wave (km/s) = 2.89388 3.37644 3.14443
# Velocity P-wave (km/s) = 3.81407 4.72820 4.29552
#
# Compressibility (1/GPa) = 0.12967038
#
# Stress axis : x y z
#
# Youngs Moduli (GPa) = 19.75578 91.43464 26.19986
#
# Poissons Ratio (x) = 0.47085 -0.57585
# Poissons Ratio (y) = 0.10173 0.04863
# Poissons Ratio (z) = -0.43422 0.16970
#
# Static dielectric constant tensor:
#      x y z
#    x 1.876100 0.000000 0.035810 
#    y 0.000000 1.912790 0.000000 
#    z 0.035810 0.000000 1.893290 
# 
# From -- ./inp_files/82544.got.cif
#   From: 2010.05.17/outbox.cif.g08.bks.cpg/sg13_42_cif.got.tgz:82544.got - 2010.06.03 16:44:36.
