data_PCOD9231553
_publ_section_title
;
Structure prediction by ZEFSAII (Michael W. Deem and Ramdas Pophale) SiO2 
 PCOD9231553
Probable space group: P 2/C
;
_chemical_formula_sum "Si O2"
_cell_formula_units_Z 26
_cell_length_a 7.636736
_cell_length_b 15.368955
_cell_length_c 14.532523
_cell_angle_alpha 90.000000
_cell_angle_beta 42.416395
_cell_angle_gamma 90.000000
_cell_volume 1150.492757
_symmetry_space_group_name_H-M "P 2/C"
_symmetry_group_IT_number 13
_symmetry_cell_setting 'monoclinic'
loop_
_space_group_symop_operation_xyz
x,y,z
-x,y,1/2-z
-x,-y,-z
x,-y,1/2+z
loop_
_atom_site_type_symbol
_atom_site_label
_atom_site_fract_x
_atom_site_fract_y
_atom_site_fract_z
Si Si1 0.500000 0.558093 0.750000
Si Si2 0.783147 0.683328 0.096184
Si Si3 0.728457 0.629701 0.482805
Si Si4 0.667649 0.875894 0.096942
Si Si5 0.038482 0.550453 0.631468
Si Si6 0.203473 0.019149 0.585145
Si Si7 0.726475 0.799170 0.398638
O O1 0.571999 0.615860 0.635914
O O2 0.772695 0.517729 0.681694
O O3 0.500000 0.670047 0.250000
O O4 0.811905 0.785620 0.062695
O O5 0.992915 0.663071 0.092293
O O6 0.838135 0.619888 0.987646
O O7 0.603276 0.708415 0.476487
O O8 0.779029 0.533996 0.423664
O O9 0.500000 0.907474 0.250000
O O10 0.451192 0.842553 0.109037
O O11 0.836451 0.950167 0.981367
O O12 0.000000 0.585919 0.750000
O O13 0.210102 0.121451 0.556102
O O14 0.000000 0.009421 0.750000
O O15 0.500000 0.000000 0.500000
O O16 0.000000 0.775017 0.250000
#
# Coordination Sequence:
#
# PCOD9231553 Si02
#       7
#     2   4   4   4   4   4   4
#     4  10  24  46  60  92 136 164 222 282 320 396
#     4  10  22  41  65  90 130 170 213 267 322 390
#     4  11  24  42  63  90 129 172 213 268 327 385
#     4  10  21  39  64  97 127 168 215 269 322 393
#     4  11  26  41  67  95 128 174 224 268 336 383
#     4   9  20  41  65  92 130 173 214 270 331 398
#     4  10  20  40  63  90 126 169 213 257 325 396
#
# _framework density 22.599012999999999
#
# number of rings (size 3 to 8) (size 9 to 14) (size 15 to 20)
#    0.000    1.846    0.000    4.154    6.462    1.231 
#    9.692   10.769    0.000    0.000    0.000    0.000 
#    0.000    0.000    0.000    0.000    0.000    0.000 
#
# Total GULP energy -145056.293788 kJ/mol
# GULP energy per Si atom -5579.088223 kJ/mol
# Density = 2.254758 g / cm^3
# Si number density = 22.599013 Si / 1000 Ang^3
#
#
#
# Elastic Constant Matrix: (Units=GPa)
#
#
# Indices 1 2 3 4 5 6 
#
# 1 75.3477 35.0220 34.0505 0.0000 5.7232 0.0000
# 2 35.0220 127.7248 49.3193 0.0000 11.4693 0.0000
# 3 34.0505 49.3193 95.6827 0.0000 2.1796 0.0000
# 4 0.0000 0.0000 0.0000 33.2442 0.0000 15.8392
# 5 5.7232 11.4693 2.1796 0.0000 28.4151 0.0000
# 6 0.0000 0.0000 0.0000 15.8392 0.0000 16.9193
#
#
#
# Elastic Compliance Matrix: (Units=1/GPa)
#
#
# Indices 1 2 3 4 5 6 
#
# 1 0.016701 -0.002655 -0.004530 0.000000 -0.001945 0.000000
# 2 -0.002655 0.010571 -0.004427 0.000000 -0.003393 0.000000
# 3 -0.004530 -0.004427 0.014309 0.000000 0.001602 0.000000
# 4 0.000000 0.000000 0.000000 0.054300 0.000000 -0.050834
# 5 -0.001945 -0.003393 0.001602 0.000000 0.036831 0.000000
# 6 0.000000 0.000000 0.000000 -0.050834 0.000000 0.106693
#
#
# Mechanical properties :
#
#
# Convention : Reuss Voigt Hill
#
# Bulk Modulus (GPa) = 54.47778 59.50430 56.99104
# Shear Modulus (GPa) = 18.60476 27.73996 23.17236
#
# Velocity S-wave (km/s) = 2.87236 3.50735 3.20561
# Velocity P-wave (km/s) = 5.92952 6.54138 6.24295
#
# Compressibility (1/GPa) = 0.01835611
#
# Stress axis : x y z
#
# Youngs Moduli (GPa) = 59.87634 94.59463 69.88768
#
# Poissons Ratio (x) = 0.25119 0.31662
# Poissons Ratio (y) = 0.15900 0.30937
# Poissons Ratio (z) = 0.27126 0.41874
#
# Static dielectric constant tensor:
#      x y z
#    x 1.958730 0.000000 0.154340 
#    y 0.000000 1.928100 0.000000 
#    z 0.154340 0.000000 1.634000 
# 
# From -- ./inp_files/47866.got.cif
#   From: 2010.05.17/outbox.cif.g08.bks.cpg/sg13_24_cif.got.tgz:47866.got - 2010.06.03 16:44:36.
