data_PCOD9231648
_publ_section_title
;
Structure prediction by ZEFSAII (Michael W. Deem and Ramdas Pophale) SiO2 
 PCOD9231648
Probable space group: P 2/C
;
_chemical_formula_sum "Si O2"
_cell_formula_units_Z 26
_cell_length_a 8.275590
_cell_length_b 9.033866
_cell_length_c 19.497453
_cell_angle_alpha 90.000000
_cell_angle_beta 53.122890
_cell_angle_gamma 90.000000
_cell_volume 1166.002476
_symmetry_space_group_name_H-M "P 2/C"
_symmetry_group_IT_number 13
_symmetry_cell_setting 'monoclinic'
loop_
_space_group_symop_operation_xyz
x,y,z
-x,y,1/2-z
-x,-y,-z
x,-y,1/2+z
loop_
_atom_site_type_symbol
_atom_site_label
_atom_site_fract_x
_atom_site_fract_y
_atom_site_fract_z
Si Si1 0.856813 0.366822 0.231261
Si Si2 0.536537 0.910407 0.059979
Si Si3 0.244497 0.326230 0.052940
Si Si4 0.500000 0.647946 0.250000
Si Si5 0.773653 0.706670 0.294011
Si Si6 0.760490 0.475067 0.066353
Si Si7 0.490624 0.216290 0.127658
O O1 0.793783 0.526987 0.279252
O O2 0.658633 0.271418 0.274431
O O3 0.000000 0.286189 0.250000
O O4 0.017658 0.376713 0.129938
O O5 0.367174 0.783964 0.113972
O O6 0.519662 0.041443 0.118716
O O7 0.743006 0.819938 0.998029
O O8 0.500000 0.000000 0.000000
O O9 0.375133 0.280143 0.087323
O O10 0.326080 0.453912 0.982350
O O11 0.657564 0.743371 0.253486
O O12 0.639899 0.553352 0.160751
O O13 0.000000 0.758671 0.250000
O O14 0.697560 0.304739 0.081430
O O15 0.000000 0.500000 0.000000
#
# Coordination Sequence:
#
# PCOD9231648 Si02
#       7
#     4   4   4   2   4   4   4
#     4   9  18  35  65  98 127 176 233 285 347 407
#     4  10  22  39  67  98 141 179 225 286 359 427
#     4  10  20  40  67  98 132 174 231 296 340 424
#     4  12  24  44  70 102 146 178 242 310 346 414
#     4  11  23  43  71 101 134 185 237 288 354 421
#     4  12  25  41  67  98 135 181 241 296 353 412
#     4  10  21  40  67  95 137 182 224 284 362 420
#
# _framework density 22.298407999999998
#
# number of rings (size 3 to 8) (size 9 to 14) (size 15 to 20)
#    0.000    1.538    3.077    1.385    0.000   11.692 
#    0.000    1.538    6.769    0.000    0.000    0.000 
#    0.000    0.000    0.000    0.000    0.000    0.000 
#
# Total GULP energy -144744.102173 kJ/mol
# GULP energy per Si atom -5567.080853 kJ/mol
# Density = 2.224766 g / cm^3
# Si number density = 22.298408 Si / 1000 Ang^3
#
#
#
# Elastic Constant Matrix: (Units=GPa)
#
#
# Indices 1 2 3 4 5 6 
#
# 1 102.9425 9.7472 30.4531 0.0000 -20.1305 0.0000
# 2 9.7472 108.4899 62.7251 0.0000 -26.9371 0.0000
# 3 30.4531 62.7251 153.6419 0.0000 -23.5402 0.0000
# 4 0.0000 0.0000 0.0000 29.7598 0.0000 -1.6378
# 5 -20.1305 -26.9371 -23.5402 0.0000 36.6599 0.0000
# 6 0.0000 0.0000 0.0000 -1.6378 0.0000 13.0755
#
#
#
# Elastic Compliance Matrix: (Units=1/GPa)
#
#
# Indices 1 2 3 4 5 6 
#
# 1 0.011352 0.001660 -0.001981 0.000000 0.006181 0.000000
# 2 0.001660 0.013793 -0.004733 0.000000 0.008007 0.000000
# 3 -0.001981 -0.004733 0.009022 0.000000 0.001227 0.000000
# 4 0.000000 0.000000 0.000000 0.033836 0.000000 0.004238
# 5 0.006181 0.008007 0.001227 0.000000 0.037344 0.000000
# 6 0.000000 0.000000 0.000000 0.004238 0.000000 0.077010
#
#
# Mechanical properties :
#
#
# Convention : Reuss Voigt Hill
#
# Bulk Modulus (GPa) = 41.56528 63.43610 52.50069
# Shear Modulus (GPa) = 24.93982 33.37564 29.15773
#
# Velocity S-wave (km/s) = 3.34796 3.87301 3.62002
# Velocity P-wave (km/s) = 5.79880 6.96497 6.40846
#
# Compressibility (1/GPa) = 0.02405854
#
# Stress axis : x y z
#
# Youngs Moduli (GPa) = 88.09272 72.50044 110.84406
#
# Poissons Ratio (x) = -0.12035 0.21954
# Poissons Ratio (y) = -0.14624 0.52466
# Poissons Ratio (z) = 0.17448 0.34317
#
# Static dielectric constant tensor:
#      x y z
#    x 1.918270 0.000000 0.066160 
#    y 0.000000 1.822580 0.000000 
#    z 0.066160 0.000000 1.957880 
# 
# From -- ./inp_files/75944.got.cif
#   From: 2010.05.17/outbox.cif.g08.bks.cpg/sg13_38_cif.got.tgz:75944.got - 2010.06.03 16:44:36.
