data_PCOD9231106
_publ_section_title
;
Structure prediction by ZEFSAII (Michael W. Deem and Ramdas Pophale) SiO2 
 PCOD9231106
Probable space group: P 2/C
;
_chemical_formula_sum "Si O2"
_cell_formula_units_Z 32
_cell_length_a 18.439533
_cell_length_b 5.331266
_cell_length_c 16.999850
_cell_angle_alpha 90.000000
_cell_angle_beta 123.055889
_cell_angle_gamma 90.000000
_cell_volume 1400.687839
_symmetry_space_group_name_H-M "P 2/C"
_symmetry_group_IT_number 13
_symmetry_cell_setting 'monoclinic'
loop_
_space_group_symop_operation_xyz
x,y,z
-x,y,1/2-z
-x,-y,-z
x,-y,1/2+z
loop_
_atom_site_type_symbol
_atom_site_label
_atom_site_fract_x
_atom_site_fract_y
_atom_site_fract_z
Si Si1 0.476569 0.709252 0.550879
Si Si2 0.087461 0.865511 0.673554
Si Si3 0.237514 0.985048 0.162154
Si Si4 0.006928 0.623514 0.417830
Si Si5 0.318588 0.274395 0.064206
Si Si6 0.643614 0.051557 0.130928
Si Si7 0.177449 0.382592 0.510644
Si Si8 0.207459 0.945470 0.884742
O O1 0.500000 0.500000 0.500000
O O2 0.414657 0.677633 0.589545
O O3 0.572034 0.790401 0.634786
O O4 0.418020 0.899256 0.464360
O O5 0.024766 0.091105 0.608069
O O6 0.166855 0.827427 0.658692
O O7 0.042892 0.595323 0.661203
O O8 0.133615 0.984728 0.777234
O O9 0.295138 0.098476 0.125250
O O10 0.299362 0.905924 0.270892
O O11 0.176831 0.768745 0.091005
O O12 0.000000 0.500000 0.500000
O O13 0.109205 0.604178 0.461864
O O14 0.276256 0.534021 0.062871
O O15 0.259349 0.171705 0.956638
O O16 0.714140 0.191196 0.117541
O O17 0.164067 0.204464 0.429051
#
# Coordination Sequence:
#
# PCOD9231106 Si02
#       8
#     4   4   4   4   4   4   4   4
#     4  10  20  38  64  92 125 165 212 272 329 399
#     4  11  25  44  68  95 128 180 224 278 328 402
#     4  10  22  41  63  90 125 173 217 267 338 399
#     4  12  25  42  68  95 133 172 227 274 338 394
#     4  10  22  39  62  91 130 166 215 270 336 393
#     4   9  20  40  63  88 122 165 217 265 327 405
#     4  11  23  39  63  90 132 171 212 280 330 400
#     4   9  22  42  61  91 125 170 218 266 335 392
#
# _framework density 22.84592
#
# number of rings (size 3 to 8) (size 9 to 14) (size 15 to 20)
#    0.000    1.750    1.250    1.875    5.250    3.000 
#    4.500    0.000    0.000    0.000    0.000    0.000 
#    0.000    0.000    0.000    0.000    0.000    0.000 
#
# Total GULP energy -178259.974281 kJ/mol
# GULP energy per Si atom -5570.624196 kJ/mol
# Density = 2.279392 g / cm^3
# Si number density = 22.845920 Si / 1000 Ang^3
#
#
#
# Elastic Constant Matrix: (Units=GPa)
#
#
# Indices 1 2 3 4 5 6 
#
# 1 104.5644 8.0993 7.4059 0.0000 16.9085 0.0000
# 2 8.0993 38.0567 0.5271 0.0000 3.0933 0.0000
# 3 7.4059 0.5271 87.3130 0.0000 4.7771 0.0000
# 4 0.0000 0.0000 0.0000 7.9531 0.0000 3.8867
# 5 16.9085 3.0933 4.7771 0.0000 24.5462 0.0000
# 6 0.0000 0.0000 0.0000 3.8867 0.0000 32.4442
#
#
#
# Elastic Compliance Matrix: (Units=1/GPa)
#
#
# Indices 1 2 3 4 5 6 
#
# 1 0.010896 -0.001728 -0.000521 0.000000 -0.007187 0.000000
# 2 -0.001728 0.026822 0.000106 0.000000 -0.002211 0.000000
# 3 -0.000521 0.000106 0.011601 0.000000 -0.001912 0.000000
# 4 0.000000 0.000000 0.000000 0.133557 0.000000 -0.016000
# 5 -0.007187 -0.002211 -0.001912 0.000000 0.046341 0.000000
# 6 0.000000 0.000000 0.000000 -0.016000 0.000000 0.032739
#
#
# Mechanical properties :
#
#
# Convention : Reuss Voigt Hill
#
# Bulk Modulus (GPa) = 22.20509 29.11097 25.65803
# Shear Modulus (GPa) = 17.77757 27.24882 22.51320
#
# Velocity S-wave (km/s) = 2.79256 3.45733 3.14257
# Velocity P-wave (km/s) = 4.48759 5.35793 4.94196
#
# Compressibility (1/GPa) = 0.04503472
#
# Stress axis : x y z
#
# Youngs Moduli (GPa) = 91.77418 37.28215 86.19795
#
# Poissons Ratio (x) = 0.06441 0.04487
# Poissons Ratio (y) = 0.15855 -0.00910
# Poissons Ratio (z) = 0.04778 -0.00394
#
# Static dielectric constant tensor:
#      x y z
#    x 1.933430 0.000000 -0.048600 
#    y 0.000000 1.810940 0.000000 
#    z -0.048600 0.000000 1.874630 
# 
# From -- ./inp_files/70293.got.cif
#   From: 2010.05.17/outbox.cif.g08.bks.cpg/sg13_36_cif.got.tgz:70293.got - 2010.06.03 16:44:36.
