data_PCOD9231233
_publ_section_title
;
Structure prediction by ZEFSAII (Michael W. Deem and Ramdas Pophale) SiO2 
 PCOD9231233
Probable space group: P 2/C
;
_chemical_formula_sum "Si O2"
_cell_formula_units_Z 28
_cell_length_a 6.224953
_cell_length_b 7.473933
_cell_length_c 32.657929
_cell_angle_alpha 90.000000
_cell_angle_beta 126.355433
_cell_angle_gamma 90.000000
_cell_volume 1223.661658
_symmetry_space_group_name_H-M "P 2/C"
_symmetry_group_IT_number 13
_symmetry_cell_setting 'monoclinic'
loop_
_space_group_symop_operation_xyz
x,y,z
-x,y,1/2-z
-x,-y,-z
x,-y,1/2+z
loop_
_atom_site_type_symbol
_atom_site_label
_atom_site_fract_x
_atom_site_fract_y
_atom_site_fract_z
Si Si1 0.693249 0.342696 0.904796
Si Si2 0.590714 0.047643 0.414943
Si Si3 0.500000 0.739483 0.750000
Si Si4 0.271326 0.503603 0.798097
Si Si5 0.500000 0.000000 0.000000
Si Si6 0.002740 0.312938 0.075894
Si Si7 0.938310 0.799944 0.661558
Si Si8 0.499460 0.670491 0.471705
O O1 0.486059 0.380631 0.845014
O O2 0.941388 0.477965 0.926917
O O3 0.555233 0.392951 0.932681
O O4 0.731814 0.133436 0.916474
O O5 0.736186 0.212324 0.409681
O O6 0.284706 0.048213 0.365274
O O7 0.597357 0.072488 0.464335
O O8 0.420110 0.612248 0.778935
O O9 0.762816 0.850022 0.791613
O O10 0.162685 0.648802 0.818480
O O11 0.000000 0.414958 0.750000
O O12 0.685323 0.840069 0.044898
O O13 0.951321 0.283142 0.117516
O O14 0.757538 0.224223 0.022328
O O15 0.500000 0.500000 0.500000
#
# Coordination Sequence:
#
# PCOD9231233 Si02
#       8
#     4   4   2   4   2   4   4   4
#     4  11  23  41  63 100 130 173 225 270 330 396
#     4  11  24  42  65  98 138 180 224 276 332 398
#     4  10  20  38  76  98 120 184 220 270 354 394
#     4  10  21  41  70  96 129 171 221 281 338 395
#     4  10  22  40  62  96 138 180 218 270 326 386
#     4  12  23  43  66  96 138 177 224 279 328 405
#     4  11  20  42  68  97 132 175 224 275 337 402
#     4  11  23  39  66  96 132 181 224 268 330 398
#
# _framework density 22.882142000000002
#
# number of rings (size 3 to 8) (size 9 to 14) (size 15 to 20)
#    0.000    1.143    4.286    2.143    0.000    3.429 
#    2.571    3.571    0.000    1.714    0.000    0.000 
#    0.000    0.000    0.000    0.000    0.000    0.000 
#
# Total GULP energy -156059.869261 kJ/mol
# GULP energy per Si atom -5573.566759 kJ/mol
# Density = 2.283006 g / cm^3
# Si number density = 22.882142 Si / 1000 Ang^3
#
#
#
# Elastic Constant Matrix: (Units=GPa)
#
#
# Indices 1 2 3 4 5 6 
#
# 1 106.5284 20.8307 44.4914 0.0000 -7.7247 0.0000
# 2 20.8307 78.3441 -15.0776 0.0000 -19.9601 0.0000
# 3 44.4914 -15.0776 109.1089 0.0000 -9.6194 0.0000
# 4 0.0000 0.0000 0.0000 28.2479 0.0000 -2.4284
# 5 -7.7247 -19.9601 -9.6194 0.0000 51.0209 0.0000
# 6 0.0000 0.0000 0.0000 -2.4284 0.0000 24.4361
#
#
#
# Elastic Compliance Matrix: (Units=1/GPa)
#
#
# Indices 1 2 3 4 5 6 
#
# 1 0.012734 -0.004805 -0.005951 0.000000 -0.001074 0.000000
# 2 -0.004805 0.016688 0.004858 0.000000 0.006717 0.000000
# 3 -0.005951 0.004858 0.012560 0.000000 0.003367 0.000000
# 4 0.000000 0.000000 0.000000 0.035706 0.000000 0.003548
# 5 -0.001074 0.006717 0.003367 0.000000 0.022700 0.000000
# 6 0.000000 0.000000 0.000000 0.003548 0.000000 0.041276
#
#
# Mechanical properties :
#
#
# Convention : Reuss Voigt Hill
#
# Bulk Modulus (GPa) = 33.12897 43.83002 38.47949
# Shear Modulus (GPa) = 30.57677 36.99012 33.78344
#
# Velocity S-wave (km/s) = 3.65947 4.02500 3.84658
# Velocity P-wave (km/s) = 5.68904 6.38726 6.04823
#
# Compressibility (1/GPa) = 0.03018506
#
# Stress axis : x y z
#
# Youngs Moduli (GPa) = 78.52729 59.92369 79.61734
#
# Poissons Ratio (x) = 0.28792 0.47383
# Poissons Ratio (y) = 0.37731 -0.38674
# Poissons Ratio (z) = 0.46734 -0.29108
#
# Static dielectric constant tensor:
#      x y z
#    x 1.852400 0.000000 0.046100 
#    y 0.000000 1.460600 0.000000 
#    z 0.046100 0.000000 1.865570 
# 
# From -- ./inp_files/95140.got.cif
#   From: 2010.05.17/outbox.cif.g08.bks.cpg/sg13_48_cif.got.tgz:95140.got - 2010.06.03 16:44:36.
