data_PCOD9231472
_publ_section_title
;
Structure prediction by ZEFSAII (Michael W. Deem and Ramdas Pophale) SiO2 
 PCOD9231472
Probable space group: P 2/C
;
_chemical_formula_sum "Si O2"
_cell_formula_units_Z 20
_cell_length_a 11.103845
_cell_length_b 4.914201
_cell_length_c 28.950550
_cell_angle_alpha 90.000000
_cell_angle_beta 141.590689
_cell_angle_gamma 90.000000
_cell_volume 981.447546
_symmetry_space_group_name_H-M "P 2/C"
_symmetry_group_IT_number 13
_symmetry_cell_setting 'monoclinic'
loop_
_space_group_symop_operation_xyz
x,y,z
-x,y,1/2-z
-x,-y,-z
x,-y,1/2+z
loop_
_atom_site_type_symbol
_atom_site_label
_atom_site_fract_x
_atom_site_fract_y
_atom_site_fract_z
Si Si1 0.972921 0.135034 0.853327
Si Si2 0.068630 0.791556 0.480051
Si Si3 0.323327 0.476089 0.621240
Si Si4 0.066401 0.668983 0.719413
Si Si5 0.577290 0.054301 0.209515
O O1 0.091112 0.093928 0.935661
O O2 0.958076 0.428715 0.825025
O O3 0.746624 0.050893 0.794204
O O4 0.044506 0.927753 0.835333
O O5 0.882312 0.596583 0.418108
O O6 0.252594 0.622057 0.552802
O O7 0.000000 0.000000 0.500000
O O8 0.453962 0.206580 0.656313
O O9 0.433907 0.709735 0.681906
O O10 0.000000 0.586919 0.750000
O O11 0.287225 0.785373 0.786913
#
# Coordination Sequence:
#
# PCOD9231472 Si02
#       5
#     4   4   4   4   4
#     4  10  23  38  63  93 116 161 203 247 297 360
#     4  11  25  40  60  88 134 169 191 233 304 371
#     4  11  22  38  59  87 127 165 192 237 299 357
#     4  10  21  40  65  89 116 151 205 268 310 336
#     4  10  20  40  58  92 114 157 207 253 286 354
#
# _framework density 20.378064999999999
#
# number of rings (size 3 to 8) (size 9 to 14) (size 15 to 20)
#    1.200    0.400    4.000    0.600    5.600    0.800 
#    7.200    0.000    0.000    7.200    0.000    0.000 
#    0.000    0.000    0.000    0.000    0.000    0.000 
#
# Total GULP energy -111348.867121 kJ/mol
# GULP energy per Si atom -5567.443356 kJ/mol
# Density = 2.033168 g / cm^3
# Si number density = 20.378065 Si / 1000 Ang^3
#
#
#
# Elastic Constant Matrix: (Units=GPa)
#
#
# Indices 1 2 3 4 5 6 
#
# 1 42.5513 22.6701 38.4363 0.0000 -12.4559 0.0000
# 2 22.6701 129.4154 29.1093 0.0000 -3.1364 0.0000
# 3 38.4363 29.1093 89.0470 0.0000 -15.3015 0.0000
# 4 0.0000 0.0000 0.0000 22.2679 0.0000 -0.2800
# 5 -12.4559 -3.1364 -15.3015 0.0000 24.3477 0.0000
# 6 0.0000 0.0000 0.0000 -0.2800 0.0000 24.8173
#
#
#
# Elastic Compliance Matrix: (Units=1/GPa)
#
#
# Indices 1 2 3 4 5 6 
#
# 1 0.042654 -0.003779 -0.015145 0.000000 0.011816 0.000000
# 2 -0.003779 0.008686 -0.001512 0.000000 -0.001764 0.000000
# 3 -0.015145 -0.001512 0.018942 0.000000 0.003962 0.000000
# 4 0.000000 0.000000 0.000000 0.044914 0.000000 0.000507
# 5 0.011816 -0.001764 0.003962 0.000000 0.049379 0.000000
# 6 0.000000 0.000000 0.000000 0.000507 0.000000 0.040300
#
#
# Mechanical properties :
#
#
# Convention : Reuss Voigt Hill
#
# Bulk Modulus (GPa) = 34.00113 49.04945 41.52529
# Shear Modulus (GPa) = 19.56557 25.67311 22.61934
#
# Velocity S-wave (km/s) = 3.10196 3.55327 3.33526
# Velocity P-wave (km/s) = 5.43607 6.39971 5.93747
#
# Compressibility (1/GPa) = 0.02941079
#
# Stress axis : x y z
#
# Youngs Moduli (GPa) = 23.44450 115.12454 52.79196
#
# Poissons Ratio (x) = 0.43503 0.79956
# Poissons Ratio (y) = 0.08859 0.07980
# Poissons Ratio (z) = 0.35508 0.17402
#
# Static dielectric constant tensor:
#      x y z
#    x 1.753450 0.000000 -0.019130 
#    y 0.000000 1.786660 0.000000 
#    z -0.019130 0.000000 1.791450 
# 
# From -- ./inp_files/64912.got.cif
#   From: 2010.05.17/outbox.cif.g08.bks.cpg/sg13_33_cif.got.tgz:64912.got - 2010.06.03 16:44:36.
