data_PCOD9231269
_publ_section_title
;
Structure prediction by ZEFSAII (Michael W. Deem and Ramdas Pophale) SiO2 
 PCOD9231269
Probable space group: P 2/C
;
_chemical_formula_sum "Si O2"
_cell_formula_units_Z 16
_cell_length_a 15.811305
_cell_length_b 5.509172
_cell_length_c 22.138561
_cell_angle_alpha 90.000000
_cell_angle_beta 20.536926
_cell_angle_gamma 90.000000
_cell_volume 676.513719
_symmetry_space_group_name_H-M "P 2/C"
_symmetry_group_IT_number 13
_symmetry_cell_setting 'monoclinic'
loop_
_space_group_symop_operation_xyz
x,y,z
-x,y,1/2-z
-x,-y,-z
x,-y,1/2+z
loop_
_atom_site_type_symbol
_atom_site_label
_atom_site_fract_x
_atom_site_fract_y
_atom_site_fract_z
Si Si1 0.699090 0.511613 0.978067
Si Si2 0.226823 0.756340 0.323005
Si Si3 0.398321 0.990770 0.001139
Si Si4 0.776830 0.458366 0.062299
O O1 0.407550 0.539237 0.181426
O O2 0.748963 0.761700 0.910453
O O3 0.817932 0.508423 0.964444
O O4 0.735526 0.260323 0.920131
O O5 0.383050 0.980938 0.194356
O O6 0.206893 0.702871 0.407520
O O7 0.973059 0.720849 0.460008
O O8 0.500000 0.000000 0.000000
O O9 0.500000 0.368288 0.250000
#
# Coordination Sequence:
#
# PCOD9231269 Si02
#       4
#     4   4   4   4
#     4   9  20  37  60  85 115 158 196 249 301 355
#     4   8  19  35  59  89 118 154 196 248 308 355
#     4  10  20  39  61  82 119 161 202 248 299 355
#     4   9  16  39  58  91 120 157 195 255 303 362
#
# _framework density 23.650665
#
# number of rings (size 3 to 8) (size 9 to 14) (size 15 to 20)
#    1.500    1.500    0.000    0.750    0.000    0.000 
#   18.000    7.500    0.000    0.000    0.000    0.000 
#    0.000    0.000    0.000    0.000    0.000    0.000 
#
# Total GULP energy -89183.615912 kJ/mol
# GULP energy per Si atom -5573.975995 kJ/mol
# Density = 2.359684 g / cm^3
# Si number density = 23.650665 Si / 1000 Ang^3
#
#
#
# Elastic Constant Matrix: (Units=GPa)
#
#
# Indices 1 2 3 4 5 6 
#
# 1 152.5606 73.9149 34.6433 0.0000 -22.4196 0.0000
# 2 73.9149 170.0720 21.7412 0.0000 0.2292 0.0000
# 3 34.6433 21.7412 114.1224 0.0000 -30.1056 0.0000
# 4 0.0000 0.0000 0.0000 -192.0889 0.0000 -20.7076
# 5 -22.4196 0.2292 -30.1056 0.0000 33.7052 0.0000
# 6 0.0000 0.0000 0.0000 -20.7076 0.0000 6.4463
#
#
#
# Elastic Compliance Matrix: (Units=1/GPa)
#
#
# Indices 1 2 3 4 5 6 
#
# 1 0.009516 -0.004071 -0.000571 0.000000 0.005848 0.000000
# 2 -0.004071 0.007819 -0.001285 0.000000 -0.003908 0.000000
# 3 -0.000571 -0.001285 0.011883 0.000000 0.010243 0.000000
# 4 0.000000 0.000000 0.000000 -0.003867 0.000000 -0.012422
# 5 0.005848 -0.003908 0.010243 0.000000 0.042734 0.000000
# 6 0.000000 0.000000 0.000000 -0.012422 0.000000 0.115226
#
#
# Mechanical properties :
#
#
# Convention : Reuss Voigt Hill
#
# Bulk Modulus (GPa) = 57.58747 77.48378 67.53562
# Shear Modulus (GPa) = 24.88176 -9.95711 7.46233
#
# Velocity S-wave (km/s) = 3.24706 -2.05407 1.77822
# Velocity P-wave (km/s) = 6.20160 5.21606 5.73006
#
# Compressibility (1/GPa) = 0.01736489
#
# Stress axis : x y z
#
# Youngs Moduli (GPa) = 105.08733 127.90140 84.15701
#
# Poissons Ratio (x) = 0.52064 0.04802
# Poissons Ratio (y) = 0.42777 0.10813
# Poissons Ratio (z) = 0.05996 0.16433
#
# Static dielectric constant tensor:
#      x y z
#    x 1.834840 0.000000 0.058520 
#    y 0.000000 1.891380 0.000000 
#    z 0.058520 0.000000 1.969430 
# 
# From -- ./inp_files/31102.got.cif
#   From: 2010.05.17/outbox.cif.g08.bks.cpg/sg13_16_cif.got.tgz:31102.got - 2010.06.03 16:44:36.
