data_PCOD9231043
_publ_section_title
;
Structure prediction by ZEFSAII (Michael W. Deem and Ramdas Pophale) SiO2 
 PCOD9231043
Probable space group: P 2/C
;
_chemical_formula_sum "Si O2"
_cell_formula_units_Z 20
_cell_length_a 16.955750
_cell_length_b 11.471363
_cell_length_c 14.121379
_cell_angle_alpha 90.000000
_cell_angle_beta 156.531237
_cell_angle_gamma 90.000000
_cell_volume 1093.865369
_symmetry_space_group_name_H-M "P 2/C"
_symmetry_group_IT_number 13
_symmetry_cell_setting 'monoclinic'
loop_
_space_group_symop_operation_xyz
x,y,z
-x,y,1/2-z
-x,-y,-z
x,-y,1/2+z
loop_
_atom_site_type_symbol
_atom_site_label
_atom_site_fract_x
_atom_site_fract_y
_atom_site_fract_z
Si Si1 0.148527 0.673135 0.189262
Si Si2 0.424313 0.642331 0.763650
Si Si3 0.971639 0.083557 0.557444
Si Si4 0.077647 0.518354 0.940886
Si Si5 0.294903 0.103231 0.072965
O O1 0.383244 0.687200 0.467427
O O2 0.018976 0.785390 0.074062
O O3 0.076726 0.566309 0.176021
O O4 0.109436 0.632132 0.039332
O O5 0.500000 0.583997 0.750000
O O6 0.282195 0.554751 0.661529
O O7 0.302514 0.755790 0.593877
O O8 0.766590 0.064445 0.389102
O O9 0.133224 0.066593 0.818045
O O10 0.000000 0.000000 0.500000
O O11 0.000000 0.540811 0.750000
O O12 0.500000 0.068406 0.250000
#
# Coordination Sequence:
#
# PCOD9231043 Si02
#       5
#     4   4   4   4   4
#     4  11  22  36  58  89 110 158 193 233 294 342
#     4  11  18  34  63  82 111 146 203 239 271 347
#     4  11  22  38  60  87 116 149 200 247 291 346
#     4  11  21  36  57  84 124 149 188 238 290 355
#     4  10  20  38  63  83 108 153 200 243 281 342
#
# _framework density 18.283785999999999
#
# number of rings (size 3 to 8) (size 9 to 14) (size 15 to 20)
#    0.000    1.200    8.000    0.600    0.000    0.800 
#    3.600    0.000    0.000    1.200    0.000    0.000 
#    0.000    0.000    0.000    0.000    0.000    0.000 
#
# Total GULP energy -111481.078192 kJ/mol
# GULP energy per Si atom -5574.053910 kJ/mol
# Density = 1.824217 g / cm^3
# Si number density = 18.283786 Si / 1000 Ang^3
#
#
#
# Elastic Constant Matrix: (Units=GPa)
#
#
# Indices 1 2 3 4 5 6 
#
# 1 147.0370 36.8509 46.7128 0.0000 -7.0247 0.0000
# 2 36.8509 35.1109 26.8523 0.0000 -12.8382 0.0000
# 3 46.7128 26.8523 63.5987 0.0000 -9.2782 0.0000
# 4 0.0000 0.0000 0.0000 15.8590 0.0000 -6.0400
# 5 -7.0247 -12.8382 -9.2782 0.0000 38.8080 0.0000
# 6 0.0000 0.0000 0.0000 -6.0400 0.0000 25.3623
#
#
#
# Elastic Compliance Matrix: (Units=1/GPa)
#
#
# Indices 1 2 3 4 5 6 
#
# 1 0.010075 -0.007948 -0.004312 0.000000 -0.001837 0.000000
# 2 -0.007948 0.052462 -0.014496 0.000000 0.012451 0.000000
# 3 -0.004312 -0.014496 0.025072 0.000000 0.000418 0.000000
# 4 0.000000 0.000000 0.000000 0.069345 0.000000 0.016514
# 5 -0.001837 0.012451 0.000418 0.000000 0.029654 0.000000
# 6 0.000000 0.000000 0.000000 0.016514 0.000000 0.043361
#
#
# Mechanical properties :
#
#
# Convention : Reuss Voigt Hill
#
# Bulk Modulus (GPa) = 29.32822 51.84206 40.58514
# Shear Modulus (GPa) = 16.95783 25.02792 20.99288
#
# Velocity S-wave (km/s) = 3.04876 3.70382 3.39214
# Velocity P-wave (km/s) = 5.33560 6.83423 6.13088
#
# Compressibility (1/GPa) = 0.03409685
#
# Stress axis : x y z
#
# Youngs Moduli (GPa) = 99.25326 19.06142 39.88447
#
# Poissons Ratio (x) = 0.15150 0.17200
# Poissons Ratio (y) = 0.78887 0.57817
# Poissons Ratio (z) = 0.42801 0.27631
#
# Static dielectric constant tensor:
#      x y z
#    x 1.682490 0.000000 0.033350 
#    y 0.000000 1.602950 0.000000 
#    z 0.033350 0.000000 1.666530 
# 
# From -- ./inp_files/33020.got.cif
#   From: 2010.05.17/outbox.cif.g08.bks.cpg/sg13_17_cif.got.tgz:33020.got - 2010.06.03 16:44:36.
