data_PCOD9231229
_publ_section_title
;
Structure prediction by ZEFSAII (Michael W. Deem and Ramdas Pophale) SiO2 
 PCOD9231229
Probable space group: P 2/C
;
_chemical_formula_sum "Si O2"
_cell_formula_units_Z 28
_cell_length_a 13.537860
_cell_length_b 6.978520
_cell_length_c 17.242033
_cell_angle_alpha 90.000000
_cell_angle_beta 56.671809
_cell_angle_gamma 90.000000
_cell_volume 1361.029600
_symmetry_space_group_name_H-M "P 2/C"
_symmetry_group_IT_number 13
_symmetry_cell_setting 'monoclinic'
loop_
_space_group_symop_operation_xyz
x,y,z
-x,y,1/2-z
-x,-y,-z
x,-y,1/2+z
loop_
_atom_site_type_symbol
_atom_site_label
_atom_site_fract_x
_atom_site_fract_y
_atom_site_fract_z
Si Si1 0.150143 0.620795 0.321349
Si Si2 0.398825 0.456396 0.645167
Si Si3 0.206776 0.663245 0.557703
Si Si4 0.000000 0.512375 0.750000
Si Si5 0.500000 0.494399 0.250000
Si Si6 0.545870 0.785403 0.971860
Si Si7 0.135843 0.943176 0.450377
Si Si8 0.244138 0.644195 0.910505
O O1 0.264237 0.580345 0.220285
O O2 0.164579 0.818058 0.361585
O O3 0.155601 0.458903 0.386562
O O4 0.043086 0.605811 0.307146
O O5 0.472558 0.381808 0.686337
O O6 0.429317 0.681580 0.621139
O O7 0.441082 0.341078 0.553259
O O8 0.110768 0.631619 0.667344
O O9 0.330803 0.743890 0.536923
O O10 0.156176 0.810153 0.516169
O O11 0.230830 0.468456 0.497770
O O12 0.622452 0.386294 0.178675
O O13 0.500000 0.000000 0.000000
O O14 0.211652 0.134692 0.427567
O O15 0.000000 0.000000 0.500000
#
# Coordination Sequence:
#
# PCOD9231229 Si02
#       8
#     4   4   4   2   2   4   4   4
#     4  10  23  43  67  97 129 178 219 274 335 401
#     4  10  22  43  65  95 136 166 217 273 333 392
#     4  11  24  44  69  96 131 182 219 271 341 403
#     4  12  22  44  70  90 136 182 220 274 344 396
#     4  10  20  38  72  96 124 170 210 272 328 394
#     4  11  24  42  66  96 135 173 216 273 334 404
#     4  11  24  44  65  97 131 173 229 280 327 399
#     4  10  22  44  69  94 134 171 224 274 335 395
#
# _framework density 20.572661
#
# number of rings (size 3 to 8) (size 9 to 14) (size 15 to 20)
#    0.000    1.429    2.857    1.714    2.000    4.571 
#    5.143    2.143    0.000    0.000    0.000    0.000 
#    0.000    0.000    0.000    0.000    0.000    0.000 
#
# Total GULP energy -156226.824799 kJ/mol
# GULP energy per Si atom -5579.529457 kJ/mol
# Density = 2.052584 g / cm^3
# Si number density = 20.572661 Si / 1000 Ang^3
#
#
#
# Elastic Constant Matrix: (Units=GPa)
#
#
# Indices 1 2 3 4 5 6 
#
# 1 97.8482 18.3743 22.2621 0.0000 17.4434 0.0000
# 2 18.3743 126.8178 41.9283 0.0000 -2.3219 0.0000
# 3 22.2621 41.9283 109.5562 0.0000 -13.2696 0.0000
# 4 0.0000 0.0000 0.0000 12.5413 0.0000 -2.7210
# 5 17.4434 -2.3219 -13.2696 0.0000 32.3845 0.0000
# 6 0.0000 0.0000 0.0000 -2.7210 0.0000 18.8728
#
#
#
# Elastic Compliance Matrix: (Units=1/GPa)
#
#
# Indices 1 2 3 4 5 6 
#
# 1 0.012569 -0.000916 -0.003190 0.000000 -0.008143 0.000000
# 2 -0.000916 0.009114 -0.003328 0.000000 -0.000217 0.000000
# 3 -0.003190 -0.003328 0.011815 0.000000 0.006321 0.000000
# 4 0.000000 0.000000 0.000000 0.082312 0.000000 0.011868
# 5 -0.008143 -0.000217 0.006321 0.000000 0.037840 0.000000
# 6 0.000000 0.000000 0.000000 0.011868 0.000000 0.054697
#
#
# Mechanical properties :
#
#
# Convention : Reuss Voigt Hill
#
# Bulk Modulus (GPa) = 53.67374 55.48350 54.57862
# Shear Modulus (GPa) = 21.79353 29.53689 25.66521
#
# Velocity S-wave (km/s) = 3.25829 3.79322 3.53588
# Velocity P-wave (km/s) = 6.34836 6.79800 6.57702
#
# Compressibility (1/GPa) = 0.01863109
#
# Stress axis : x y z
#
# Youngs Moduli (GPa) = 79.55911 109.71581 84.63527
#
# Poissons Ratio (x) = 0.10045 0.26999
# Poissons Ratio (y) = 0.07284 0.28171
# Poissons Ratio (z) = 0.25380 0.36519
#
# Static dielectric constant tensor:
#      x y z
#    x 3.525400 0.000000 2.040990 
#    y 0.000000 1.754760 0.000000 
#    z 2.040990 0.000000 4.091130 
# 
# From -- ./inp_files/67530.got.cif
#   From: 2010.05.17/outbox.cif.g08.bks.cpg/sg13_34_cif.got.tgz:67530.got - 2010.06.03 16:44:36.
