data_PCOD9231475
_publ_section_title
;
Structure prediction by ZEFSAII (Michael W. Deem and Ramdas Pophale) SiO2 
 PCOD9231475
Probable space group: P 2/C
;
_chemical_formula_sum "Si O2"
_cell_formula_units_Z 28
_cell_length_a 30.089399
_cell_length_b 7.320840
_cell_length_c 9.567766
_cell_angle_alpha 90.000000
_cell_angle_beta 143.425602
_cell_angle_gamma 90.000000
_cell_volume 1255.838061
_symmetry_space_group_name_H-M "P 2/C"
_symmetry_group_IT_number 13
_symmetry_cell_setting 'monoclinic'
loop_
_space_group_symop_operation_xyz
x,y,z
-x,y,1/2-z
-x,-y,-z
x,-y,1/2+z
loop_
_atom_site_type_symbol
_atom_site_label
_atom_site_fract_x
_atom_site_fract_y
_atom_site_fract_z
Si Si1 0.204258 0.591436 0.980363
Si Si2 0.960293 0.724777 0.000126
Si Si3 0.449559 0.408245 0.491007
Si Si4 0.645869 0.767598 0.207283
Si Si5 0.365292 0.081315 0.123893
Si Si6 0.058703 0.853469 0.021628
Si Si7 0.216082 0.725658 0.316415
O O1 0.118885 0.624553 0.716732
O O2 0.232700 0.400824 0.990748
O O3 0.264666 0.737192 0.075267
O O4 0.208315 0.602529 0.157808
O O5 0.937952 0.937804 0.918967
O O6 0.000000 0.696605 0.250000
O O7 0.026860 0.710262 0.054577
O O8 0.500000 0.500000 0.500000
O O9 0.392263 0.568882 0.391824
O O10 0.410802 0.232892 0.325072
O O11 0.500000 0.357337 0.750000
O O12 0.621068 0.880666 0.280726
O O13 0.623293 0.881282 0.011376
O O14 0.279415 0.129385 0.942572
O O15 0.137571 0.811425 0.154688
O O16 0.000000 0.848698 0.750000
#
# Coordination Sequence:
#
# PCOD9231475 Si02
#       7
#     4   4   4   4   4   4   4
#     4  11  24  42  63  94 131 175 228 280 339 402
#     4  10  22  38  61  89 124 172 224 279 340 399
#     4  12  26  48  74 108 147 181 225 280 344 414
#     4  11  26  47  74 106 141 184 235 280 345 413
#     4  11  26  47  73 106 141 187 231 282 344 412
#     4  10  20  40  59  86 127 168 219 281 338 394
#     4  11  24  41  65  92 131 176 226 283 338 401
#
# _framework density 22.295869
#
# number of rings (size 3 to 8) (size 9 to 14) (size 15 to 20)
#    0.000    1.143    4.286    0.857    4.000    3.429 
#    0.000    0.000    0.000    0.000    0.000    0.000 
#    0.000    0.000    0.000    0.000    0.000    0.000 
#
# Total GULP energy -156555.829088 kJ/mol
# GULP energy per Si atom -5591.279610 kJ/mol
# Density = 2.224512 g / cm^3
# Si number density = 22.295869 Si / 1000 Ang^3
#
#
#
# Elastic Constant Matrix: (Units=GPa)
#
#
# Indices 1 2 3 4 5 6 
#
# 1 73.2151 -12.8829 6.0232 0.0000 12.6286 0.0000
# 2 -12.8829 36.5762 1.6335 0.0000 7.5898 0.0000
# 3 6.0232 1.6335 64.2849 0.0000 14.7941 0.0000
# 4 0.0000 0.0000 0.0000 -44.7427 0.0000 -10.9586
# 5 12.6286 7.5898 14.7941 0.0000 21.5956 0.0000
# 6 0.0000 0.0000 0.0000 -10.9586 0.0000 32.5797
#
#
#
# Elastic Compliance Matrix: (Units=1/GPa)
#
#
# Indices 1 2 3 4 5 6 
#
# 1 0.017664 0.009177 0.001462 0.000000 -0.014556 0.000000
# 2 0.009177 0.034464 0.002715 0.000000 -0.019339 0.000000
# 3 0.001462 0.002715 0.018717 0.000000 -0.014631 0.000000
# 4 0.000000 0.000000 0.000000 -0.020649 0.000000 -0.006946
# 5 -0.014556 -0.019339 -0.014631 0.000000 0.071637 0.000000
# 6 0.000000 0.000000 0.000000 -0.006946 0.000000 0.028358
#
#
# Mechanical properties :
#
#
# Convention : Reuss Voigt Hill
#
# Bulk Modulus (GPa) = 10.25111 18.18043 14.21577
# Shear Modulus (GPa) = 32.05105 13.84000 22.94552
#
# Velocity S-wave (km/s) = 3.79559 2.49417 3.21150
# Velocity P-wave (km/s) = 4.88021 4.05788 4.48792
#
# Compressibility (1/GPa) = 0.09755041
#
# Stress axis : x y z
#
# Youngs Moduli (GPa) = 56.61388 29.01576 53.42778
#
# Poissons Ratio (x) = -0.26627 -0.07809
# Poissons Ratio (y) = -0.51952 -0.14505
# Poissons Ratio (z) = -0.08274 -0.07877
#
# Static dielectric constant tensor:
#      x y z
#    x 1.835050 0.000000 0.019670 
#    y 0.000000 1.894320 0.000000 
#    z 0.019670 0.000000 1.789110 
# 
# From -- ./inp_files/24597.got.cif
#   From: 2010.05.17/outbox.cif.g08.bks.cpg/sg13_13_cif.got.tgz:24597.got - 2010.06.03 16:44:36.
