data_PCOD9231166
_publ_section_title
;
Structure prediction by ZEFSAII (Michael W. Deem and Ramdas Pophale) SiO2 
 PCOD9231166
Probable space group: P 2/C
;
_chemical_formula_sum "Si O2"
_cell_formula_units_Z 28
_cell_length_a 21.833155
_cell_length_b 8.447109
_cell_length_c 24.782339
_cell_angle_alpha 90.000000
_cell_angle_beta 162.823934
_cell_angle_gamma 90.000000
_cell_volume 1349.719558
_symmetry_space_group_name_H-M "P 2/C"
_symmetry_group_IT_number 13
_symmetry_cell_setting 'monoclinic'
loop_
_space_group_symop_operation_xyz
x,y,z
-x,y,1/2-z
-x,-y,-z
x,-y,1/2+z
loop_
_atom_site_type_symbol
_atom_site_label
_atom_site_fract_x
_atom_site_fract_y
_atom_site_fract_z
Si Si1 0.081741 0.030015 0.877711
Si Si2 0.507255 0.068828 0.812025
Si Si3 0.083359 0.318215 0.560910
Si Si4 0.006250 0.696324 0.638666
Si Si5 0.137763 0.154747 0.030573
Si Si6 0.373507 0.542816 0.694920
Si Si7 0.434105 0.329309 0.555185
O O1 0.000000 0.060170 0.750000
O O2 0.041668 0.850403 0.864835
O O3 0.326176 0.053378 0.071372
O O4 0.010506 0.138150 0.867417
O O5 0.500000 0.173454 0.750000
O O6 0.599898 0.168600 0.939006
O O7 0.298524 0.992033 0.660223
O O8 0.334709 0.320130 0.775927
O O9 0.000000 0.500000 0.500000
O O10 0.005227 0.269105 0.435283
O O11 0.999275 0.189891 0.532834
O O12 0.820814 0.568390 0.486430
O O13 0.236331 0.641979 0.850738
O O14 0.277541 0.309192 0.144270
O O15 0.500000 0.592517 0.750000
O O16 0.528078 0.457285 0.866381
#
# Coordination Sequence:
#
# PCOD9231166 Si02
#       7
#     4   4   4   4   4   4   4
#     4  11  22  42  65  97 136 159 215 279 333 393
#     4  10  20  38  66  92 127 169 209 271 333 391
#     4  11  23  47  63  94 139 178 224 269 322 390
#     4  11  24  42  70  99 126 179 223 273 323 392
#     4  11  23  44  63  91 138 177 210 271 337 386
#     4  11  22  40  65  99 133 171 220 269 335 395
#     4  11  22  41  69  95 127 176 222 273 321 384
#
# _framework density 20.745049000000002
#
# number of rings (size 3 to 8) (size 9 to 14) (size 15 to 20)
#    0.000    1.143    4.286    6.000    0.000    2.857 
#    7.714    1.429    0.000    0.000    0.000    0.000 
#    0.000    0.000    0.000    0.000    0.000    0.000 
#
# Total GULP energy -155928.746420 kJ/mol
# GULP energy per Si atom -5568.883801 kJ/mol
# Density = 2.069783 g / cm^3
# Si number density = 20.745049 Si / 1000 Ang^3
#
#
#
# Elastic Constant Matrix: (Units=GPa)
#
#
# Indices 1 2 3 4 5 6 
#
# 1 107.8577 14.5425 50.1199 0.0000 1.2107 0.0000
# 2 14.5425 46.8711 19.2227 0.0000 -6.3391 0.0000
# 3 50.1199 19.2227 156.9801 0.0000 -15.9112 0.0000
# 4 0.0000 0.0000 0.0000 2.3528 0.0000 0.6093
# 5 1.2107 -6.3391 -15.9112 0.0000 35.9129 0.0000
# 6 0.0000 0.0000 0.0000 0.6093 0.0000 28.2290
#
#
#
# Elastic Compliance Matrix: (Units=1/GPa)
#
#
# Indices 1 2 3 4 5 6 
#
# 1 0.011265 -0.002360 -0.003548 0.000000 -0.002368 0.000000
# 2 -0.002360 0.023245 -0.001747 0.000000 0.003408 0.000000
# 3 -0.003548 -0.001747 0.008060 0.000000 0.003382 0.000000
# 4 0.000000 0.000000 0.000000 0.427421 0.000000 -0.009225
# 5 -0.002368 0.003408 0.003382 0.000000 0.030025 0.000000
# 6 0.000000 0.000000 0.000000 -0.009225 0.000000 0.035624
#
#
# Mechanical properties :
#
#
# Convention : Reuss Voigt Hill
#
# Bulk Modulus (GPa) = 36.68531 53.27544 44.98038
# Shear Modulus (GPa) = 8.92799 28.48720 18.70759
#
# Velocity S-wave (km/s) = 2.07678 3.70970 3.00623
# Velocity P-wave (km/s) = 4.84489 6.63972 5.81201
#
# Compressibility (1/GPa) = 0.02725887
#
# Stress axis : x y z
#
# Youngs Moduli (GPa) = 88.77201 43.01990 124.07503
#
# Poissons Ratio (x) = 0.10155 0.44016
# Poissons Ratio (y) = 0.20954 0.21680
# Poissons Ratio (z) = 0.31492 0.07517
#
# Static dielectric constant tensor:
#      x y z
#    x 1.769000 0.000000 -0.054060 
#    y 0.000000 1.809210 0.000000 
#    z -0.054060 0.000000 1.868600 
# 
# From -- ./inp_files/88532.got.cif
#   From: 2010.05.17/outbox.cif.g08.bks.cpg/sg13_45_cif.got.tgz:88532.got - 2010.06.03 16:44:36.
