data_PCOD9231054
_publ_section_title
;
Structure prediction by ZEFSAII (Michael W. Deem and Ramdas Pophale) SiO2 
 PCOD9231054
Probable space group: P 2/C
;
_chemical_formula_sum "Si O2"
_cell_formula_units_Z 28
_cell_length_a 23.797214
_cell_length_b 10.971812
_cell_length_c 30.124702
_cell_angle_alpha 90.000000
_cell_angle_beta 10.762407
_cell_angle_gamma 90.000000
_cell_volume 1468.781135
_symmetry_space_group_name_H-M "P 2/C"
_symmetry_group_IT_number 13
_symmetry_cell_setting 'monoclinic'
loop_
_space_group_symop_operation_xyz
x,y,z
-x,y,1/2-z
-x,-y,-z
x,-y,1/2+z
loop_
_atom_site_type_symbol
_atom_site_label
_atom_site_fract_x
_atom_site_fract_y
_atom_site_fract_z
Si Si1 0.325649 0.954741 0.263220
Si Si2 0.405968 0.333023 0.107434
Si Si3 0.536945 0.587691 0.036190
Si Si4 0.382718 0.059633 0.545440
Si Si5 0.277438 0.000759 0.961975
Si Si6 0.743724 0.323878 0.656840
Si Si7 0.874559 0.267715 0.395120
O O1 0.533716 0.019597 0.139135
O O2 0.268635 0.821163 0.326134
O O3 0.000000 0.000000 0.500000
O O4 0.513285 0.965108 0.072869
O O5 0.524864 0.357820 0.965018
O O6 0.046773 0.354027 0.394934
O O7 0.554951 0.441960 0.019637
O O8 0.477542 0.194991 0.065996
O O9 0.857992 0.647704 0.796637
O O10 0.304968 0.621155 0.255878
O O11 0.500000 0.000000 0.500000
O O12 0.028351 0.069941 0.811269
O O13 0.500000 0.972287 0.750000
O O14 0.190499 0.145043 0.027367
O O15 0.431515 0.344531 0.872971
O O16 0.000000 0.222174 0.250000
#
# Coordination Sequence:
#
# PCOD9231054 Si02
#       7
#     4   4   4   4   4   4   4
#     4  11  21  38  61  93 123 156 207 254 307 375
#     4  11  23  38  62  87 121 166 200 248 316 366
#     4  10  22  39  59  88 121 154 212 259 292 368
#     4  12  23  39  62  90 129 167 199 254 321 372
#     4  11  23  36  60  92 123 159 205 256 307 372
#     4  10  20  38  63  90 116 157 208 253 305 360
#     4   9  19  36  60  85 115 150 203 262 298 346
#
# _framework density 19.063426
#
# number of rings (size 3 to 8) (size 9 to 14) (size 15 to 20)
#    0.000    1.429    1.429    6.000    6.000    0.000 
#    0.000    4.286    6.286    0.000    0.000    0.000 
#    0.000    0.000    0.000    0.000    0.000    0.000 
#
# Total GULP energy -156023.000635 kJ/mol
# GULP energy per Si atom -5572.250023 kJ/mol
# Density = 1.902004 g / cm^3
# Si number density = 19.063426 Si / 1000 Ang^3
#
#
#
# Elastic Constant Matrix: (Units=GPa)
#
#
# Indices 1 2 3 4 5 6 
#
# 1 82.2618 -4.8487 21.2158 0.0000 -8.6284 0.0000
# 2 -4.8487 41.6646 1.5497 0.0000 -15.0360 0.0000
# 3 21.2158 1.5497 104.8292 0.0000 -8.5760 0.0000
# 4 0.0000 0.0000 0.0000 14.3881 0.0000 -5.4839
# 5 -8.6284 -15.0360 -8.5760 0.0000 32.2541 0.0000
# 6 0.0000 0.0000 0.0000 -5.4839 0.0000 19.1742
#
#
#
# Elastic Compliance Matrix: (Units=1/GPa)
#
#
# Indices 1 2 3 4 5 6 
#
# 1 0.013438 0.003270 -0.002401 0.000000 0.004481 0.000000
# 2 0.003270 0.029700 0.000106 0.000000 0.014748 0.000000
# 3 -0.002401 0.000106 0.010197 0.000000 0.002118 0.000000
# 4 0.000000 0.000000 0.000000 0.078005 0.000000 0.022310
# 5 0.004481 0.014748 0.002118 0.000000 0.039641 0.000000
# 6 0.000000 0.000000 0.000000 0.022310 0.000000 0.058534
#
#
# Mechanical properties :
#
#
# Convention : Reuss Voigt Hill
#
# Bulk Modulus (GPa) = 18.08821 29.39880 23.74350
# Shear Modulus (GPa) = 20.32558 27.21920 23.77239
#
# Velocity S-wave (km/s) = 3.26883 3.78275 3.53514
# Velocity P-wave (km/s) = 4.87401 5.87657 5.39861
#
# Compressibility (1/GPa) = 0.05528464
#
# Stress axis : x y z
#
# Youngs Moduli (GPa) = 74.41348 33.66976 98.06743
#
# Poissons Ratio (x) = -0.11011 0.23551
# Poissons Ratio (y) = -0.24335 -0.01036
# Poissons Ratio (z) = 0.17870 -0.00356
#
# Static dielectric constant tensor:
#      x y z
#    x 1.729300 0.000000 0.083340 
#    y 0.000000 1.645180 0.000000 
#    z 0.083340 0.000000 1.425880 
# 
# From -- ./inp_files/97708.got.cif
#   From: 2010.05.17/outbox.cif.g08.bks.cpg/sg13_49_cif.got.tgz:97708.got - 2010.06.03 16:44:36.
