data_PCOD9231302
_publ_section_title
;
Structure prediction by ZEFSAII (Michael W. Deem and Ramdas Pophale) SiO2 
 PCOD9231302
Probable space group: P 2/C
;
_chemical_formula_sum "Si O2"
_cell_formula_units_Z 26
_cell_length_a 5.236458
_cell_length_b 13.500918
_cell_length_c 21.210832
_cell_angle_alpha 90.000000
_cell_angle_beta 130.989934
_cell_angle_gamma 90.000000
_cell_volume 1131.891517
_symmetry_space_group_name_H-M "P 2/C"
_symmetry_group_IT_number 13
_symmetry_cell_setting 'monoclinic'
loop_
_space_group_symop_operation_xyz
x,y,z
-x,y,1/2-z
-x,-y,-z
x,-y,1/2+z
loop_
_atom_site_type_symbol
_atom_site_label
_atom_site_fract_x
_atom_site_fract_y
_atom_site_fract_z
Si Si1 0.284728 0.358972 0.344698
Si Si2 0.000000 0.283487 0.750000
Si Si3 0.059900 0.832471 0.135461
Si Si4 0.328515 0.765178 0.970767
Si Si5 0.684630 0.335471 0.910222
Si Si6 0.103082 0.025835 0.445309
Si Si7 0.787317 0.489383 0.345428
O O1 0.395164 0.276317 0.412366
O O2 0.582773 0.407799 0.352781
O O3 0.000000 0.320530 0.250000
O O4 0.089284 0.441699 0.354809
O O5 0.864403 0.213073 0.784120
O O6 0.288918 0.349515 0.829418
O O7 0.239708 0.769722 0.110135
O O8 0.099140 0.949481 0.132144
O O9 0.668115 0.806939 0.057759
O O10 0.069956 0.857096 0.927662
O O11 0.237747 0.676850 0.004129
O O12 0.887669 0.421076 0.907589
O O13 0.500000 0.000000 0.500000
O O14 0.000000 0.000000 0.500000
O O15 0.500000 0.528615 0.250000
#
# Coordination Sequence:
#
# PCOD9231302 Si02
#       7
#     4   2   4   4   4   4   4
#     4  10  24  43  61  88 126 167 215 261 306 371
#     4  10  22  36  58  94 128 156 208 254 318 376
#     4  10  21  38  61  91 128 164 205 259 313 377
#     4  10  23  39  64  90 124 166 212 256 311 369
#     4  11  22  37  64  91 126 163 205 261 319 377
#     4  10  20  39  62  88 121 161 200 247 313 366
#     4  10  23  39  62  86 125 166 206 259 320 367
#
# _framework density 22.970400999999999
#
# number of rings (size 3 to 8) (size 9 to 14) (size 15 to 20)
#    0.000    1.846    1.538    1.385    9.692    1.231 
#    1.385    0.000    0.000    1.846    0.000    0.000 
#    0.000    0.000    0.000    0.000    0.000    0.000 
#
# Total GULP energy -145366.030626 kJ/mol
# GULP energy per Si atom -5591.001178 kJ/mol
# Density = 2.291812 g / cm^3
# Si number density = 22.970401 Si / 1000 Ang^3
#
#
#
# Elastic Constant Matrix: (Units=GPa)
#
#
# Indices 1 2 3 4 5 6 
#
# 1 81.9059 -9.5855 13.7644 0.0000 -18.4928 0.0000
# 2 -9.5855 43.2938 24.4390 0.0000 -13.1778 0.0000
# 3 13.7644 24.4390 88.3294 0.0000 -29.1031 0.0000
# 4 0.0000 0.0000 0.0000 25.3031 0.0000 -8.5157
# 5 -18.4928 -13.1778 -29.1031 0.0000 38.8608 0.0000
# 6 0.0000 0.0000 0.0000 -8.5157 0.0000 30.0322
#
#
#
# Elastic Compliance Matrix: (Units=1/GPa)
#
#
# Indices 1 2 3 4 5 6 
#
# 1 0.015136 0.006727 -0.001454 0.000000 0.008395 0.000000
# 2 0.006727 0.031053 -0.006792 0.000000 0.008645 0.000000
# 3 -0.001454 -0.006792 0.016515 0.000000 0.009374 0.000000
# 4 0.000000 0.000000 0.000000 0.043690 0.000000 0.012388
# 5 0.008395 0.008645 0.009374 0.000000 0.039680 0.000000
# 6 0.000000 0.000000 0.000000 0.012388 0.000000 0.036810
#
#
# Mechanical properties :
#
#
# Convention : Reuss Voigt Hill
#
# Bulk Modulus (GPa) = 16.75933 30.08500 23.42216
# Shear Modulus (GPa) = 24.29427 31.16663 27.73045
#
# Velocity S-wave (km/s) = 3.25566 3.68750 3.47828
# Velocity P-wave (km/s) = 4.63080 5.59070 5.13323
#
# Compressibility (1/GPa) = 0.05966826
#
# Stress axis : x y z
#
# Youngs Moduli (GPa) = 66.06635 32.20328 60.54982
#
# Poissons Ratio (x) = -0.21664 0.08803
# Poissons Ratio (y) = -0.44445 0.41123
# Poissons Ratio (z) = 0.09605 0.21871
#
# Static dielectric constant tensor:
#      x y z
#    x 1.901870 0.000000 0.030720 
#    y 0.000000 1.892930 0.000000 
#    z 0.030720 0.000000 1.837660 
# 
# From -- ./inp_files/73499.got.cif
#   From: 2010.05.17/outbox.cif.g08.bks.cpg/sg13_37_cif.got.tgz:73499.got - 2010.06.03 16:44:36.
