data_PCOD9231368
_publ_section_title
;
Structure prediction by ZEFSAII (Michael W. Deem and Ramdas Pophale) SiO2 
 PCOD9231368
Probable space group: P 2/C
;
_chemical_formula_sum "Si O2"
_cell_formula_units_Z 26
_cell_length_a 9.442792
_cell_length_b 18.848473
_cell_length_c 15.548547
_cell_angle_alpha 90.000000
_cell_angle_beta 153.373746
_cell_angle_gamma 90.000000
_cell_volume 1240.246430
_symmetry_space_group_name_H-M "P 2/C"
_symmetry_group_IT_number 13
_symmetry_cell_setting 'monoclinic'
loop_
_space_group_symop_operation_xyz
x,y,z
-x,y,1/2-z
-x,-y,-z
x,-y,1/2+z
loop_
_atom_site_type_symbol
_atom_site_label
_atom_site_fract_x
_atom_site_fract_y
_atom_site_fract_z
Si Si1 0.429266 0.954746 0.048710
Si Si2 0.300785 0.268507 0.554976
Si Si3 0.330133 0.181724 0.884396
Si Si4 0.209126 0.538216 0.293510
Si Si5 0.144417 0.863014 0.692926
Si Si6 0.705985 0.426176 0.942402
Si Si7 0.500000 0.057533 0.250000
O O1 0.677607 0.889018 0.180416
O O2 0.444801 0.007367 0.137953
O O3 0.095227 0.915844 0.887586
O O4 0.500000 0.000000 0.000000
O O5 0.500000 0.261357 0.750000
O O6 0.509608 0.244298 0.585159
O O7 0.154275 0.347640 0.482688
O O8 0.028893 0.211109 0.409743
O O9 0.000000 0.199533 0.750000
O O10 0.558978 0.153843 0.084945
O O11 0.500000 0.500000 0.500000
O O12 0.401071 0.588167 0.336780
O O13 0.000000 0.576769 0.250000
O O14 0.971764 0.481931 0.118265
O O15 0.233037 0.892680 0.647226
O O16 0.500000 0.454291 0.750000
#
# Coordination Sequence:
#
# PCOD9231368 Si02
#       7
#     4   4   4   4   4   4   2
#     4  11  24  41  66  92 125 162 213 272 342 396
#     4  10  24  43  67  89 131 173 215 260 324 385
#     4  11  26  42  65  91 125 169 218 267 324 395
#     4   9  19  34  61  96 129 163 211 256 305 376
#     4  11  26  46  62  93 127 170 215 270 330 397
#     4  10  20  39  64  96 131 172 206 265 321 375
#     4  12  26  38  70  92 126 162 214 276 340 390
#
# _framework density 20.963577000000001
#
# number of rings (size 3 to 8) (size 9 to 14) (size 15 to 20)
#    0.000    1.538    1.538    2.769    8.615    4.308 
#    0.000    1.538    1.692    0.000    0.000    0.000 
#    0.000    0.000    0.000    0.000    0.000    0.000 
#
# Total GULP energy -144739.032539 kJ/mol
# GULP energy per Si atom -5566.885867 kJ/mol
# Density = 2.091586 g / cm^3
# Si number density = 20.963577 Si / 1000 Ang^3
#
#
#
# Elastic Constant Matrix: (Units=GPa)
#
#
# Indices 1 2 3 4 5 6 
#
# 1 92.9979 -3.3328 8.3826 0.0000 -6.4212 0.0000
# 2 -3.3328 75.6976 35.1576 0.0000 -5.0152 0.0000
# 3 8.3826 35.1576 50.0189 0.0000 -3.5652 0.0000
# 4 0.0000 0.0000 0.0000 23.7790 0.0000 -4.7924
# 5 -6.4212 -5.0152 -3.5652 0.0000 29.2140 0.0000
# 6 0.0000 0.0000 0.0000 -4.7924 0.0000 16.8515
#
#
#
# Elastic Compliance Matrix: (Units=1/GPa)
#
#
# Indices 1 2 3 4 5 6 
#
# 1 0.011292 0.002164 -0.003238 0.000000 0.002458 0.000000
# 2 0.002164 0.020112 -0.014344 0.000000 0.002178 0.000000
# 3 -0.003238 -0.014344 0.030658 0.000000 0.000567 0.000000
# 4 0.000000 0.000000 0.000000 0.044611 0.000000 0.012687
# 5 0.002458 0.002178 0.000567 0.000000 0.035214 0.000000
# 6 0.000000 0.000000 0.000000 0.012687 0.000000 0.062950
#
#
# Mechanical properties :
#
#
# Convention : Reuss Voigt Hill
#
# Bulk Modulus (GPa) = 32.02504 33.23656 32.63080
# Shear Modulus (GPa) = 20.31852 25.86938 23.09395
#
# Velocity S-wave (km/s) = 3.11662 3.51667 3.32267
# Velocity P-wave (km/s) = 5.31609 5.69018 5.50631
#
# Compressibility (1/GPa) = 0.03122557
#
# Stress axis : x y z
#
# Youngs Moduli (GPa) = 88.55729 49.72141 32.61814
#
# Poissons Ratio (x) = -0.10760 0.10563
# Poissons Ratio (y) = -0.19164 0.46787
# Poissons Ratio (z) = 0.28678 0.71320
#
# Static dielectric constant tensor:
#      x y z
#    x 0.494250 0.000000 -0.315870 
#    y 0.000000 1.794770 0.000000 
#    z -0.315870 0.000000 1.823940 
# 
# From -- ./inp_files/48188.got.cif
#   From: 2010.05.17/outbox.cif.g08.bks.cpg/sg13_25_cif.got.tgz:48188.got - 2010.06.03 16:44:36.
