data_PCOD9231519
_publ_section_title
;
Structure prediction by ZEFSAII (Michael W. Deem and Ramdas Pophale) SiO2 
 PCOD9231519
Probable space group: P 2/C
;
_chemical_formula_sum "Si O2"
_cell_formula_units_Z 20
_cell_length_a 16.905292
_cell_length_b 6.662923
_cell_length_c 8.238440
_cell_angle_alpha 90.000000
_cell_angle_beta 85.522397
_cell_angle_gamma 90.000000
_cell_volume 925.134611
_symmetry_space_group_name_H-M "P 2/C"
_symmetry_group_IT_number 13
_symmetry_cell_setting 'monoclinic'
loop_
_space_group_symop_operation_xyz
x,y,z
-x,y,1/2-z
-x,-y,-z
x,-y,1/2+z
loop_
_atom_site_type_symbol
_atom_site_label
_atom_site_fract_x
_atom_site_fract_y
_atom_site_fract_z
Si Si1 0.561115 0.120758 0.377782
Si Si2 0.058178 0.890600 0.365742
Si Si3 0.303968 0.196698 0.592204
Si Si4 0.829403 0.866074 0.882547
Si Si5 0.310252 0.609984 0.737192
O O1 0.500000 0.182870 0.250000
O O2 0.629771 0.953456 0.347251
O O3 0.500000 0.000000 0.500000
O O4 0.616376 0.317005 0.389591
O O5 0.125108 0.787445 0.465143
O O6 0.000000 0.775416 0.250000
O O7 0.105535 0.057650 0.255645
O O8 0.000000 0.000000 0.500000
O O9 0.298667 0.373449 0.723918
O O10 0.324349 0.298458 0.414765
O O11 0.225523 0.062747 0.575493
O O12 0.770065 0.706013 0.818274
#
# Coordination Sequence:
#
# PCOD9231519 Si02
#       5
#     4   4   4   4   4
#     4  11  24  44  62  86 123 158 201 254 304 353
#     4   9  18  34  64  93 114 160 202 242 302 355
#     4  11  25  39  62  91 120 162 204 246 299 356
#     4  10  20  40  62  86 125 159 202 248 294 356
#     4  11  25  39  62  92 119 161 207 243 299 358
#
# _framework density 21.618475
#
# number of rings (size 3 to 8) (size 9 to 14) (size 15 to 20)
#    0.000    1.600    4.000    0.000    5.600    1.600 
#    0.000    0.000    0.000   24.000    0.000    0.000 
#    0.000    0.000    0.000    0.000    0.000    0.000 
#
# Total GULP energy -111397.814921 kJ/mol
# GULP energy per Si atom -5569.890746 kJ/mol
# Density = 2.156927 g / cm^3
# Si number density = 21.618475 Si / 1000 Ang^3
#
#
#
# Elastic Constant Matrix: (Units=GPa)
#
#
# Indices 1 2 3 4 5 6 
#
# 1 147.2993 29.1234 36.8957 0.0000 19.1422 0.0000
# 2 29.1234 71.2078 2.5368 0.0000 10.7770 0.0000
# 3 36.8957 2.5368 50.1783 0.0000 13.8406 0.0000
# 4 0.0000 0.0000 0.0000 18.6199 0.0000 4.5153
# 5 19.1422 10.7770 13.8406 0.0000 52.1534 0.0000
# 6 0.0000 0.0000 0.0000 4.5153 0.0000 4.0128
#
#
#
# Elastic Compliance Matrix: (Units=1/GPa)
#
#
# Indices 1 2 3 4 5 6 
#
# 1 0.009161 -0.003372 -0.006291 0.000000 -0.000996 0.000000
# 2 -0.003372 0.015738 0.002416 0.000000 -0.002656 0.000000
# 3 -0.006291 0.002416 0.025823 0.000000 -0.005043 0.000000
# 4 0.000000 0.000000 0.000000 0.073860 0.000000 -0.083109
# 5 -0.000996 -0.002656 -0.005043 0.000000 0.021427 0.000000
# 6 0.000000 0.000000 0.000000 -0.083109 0.000000 0.342720
#
#
# Mechanical properties :
#
#
# Convention : Reuss Voigt Hill
#
# Bulk Modulus (GPa) = 27.60152 45.08856 36.34504
# Shear Modulus (GPa) = 9.70313 28.29919 19.00116
#
# Velocity S-wave (km/s) = 2.12087 3.62197 2.96789
# Velocity P-wave (km/s) = 4.33506 6.19624 5.34725
#
# Compressibility (1/GPa) = 0.03622989
#
# Stress axis : x y z
#
# Youngs Moduli (GPa) = 109.16239 63.53931 38.72475
#
# Poissons Ratio (x) = 0.21424 0.24360
# Poissons Ratio (y) = 0.36807 -0.09356
# Poissons Ratio (z) = 0.68669 -0.15352
#
# Static dielectric constant tensor:
#      x y z
#    x 1.860960 0.000000 -0.041500 
#    y 0.000000 1.696090 0.000000 
#    z -0.041500 0.000000 1.889400 
# 
# From -- ./inp_files/20513.got.cif
#   From: 2010.05.17/outbox.cif.g08.bks.cpg/sg13_11_cif.got.tgz:20513.got - 2010.06.03 16:44:36.
