data_PCOD9231127
_publ_section_title
;
Structure prediction by ZEFSAII (Michael W. Deem and Ramdas Pophale) SiO2 
 PCOD9231127
Probable space group: P 2/C
;
_chemical_formula_sum "Si O2"
_cell_formula_units_Z 20
_cell_length_a 25.786831
_cell_length_b 7.193062
_cell_length_c 14.873841
_cell_angle_alpha 90.000000
_cell_angle_beta 159.611468
_cell_angle_gamma 90.000000
_cell_volume 961.155513
_symmetry_space_group_name_H-M "P 2/C"
_symmetry_group_IT_number 13
_symmetry_cell_setting 'monoclinic'
loop_
_space_group_symop_operation_xyz
x,y,z
-x,y,1/2-z
-x,-y,-z
x,-y,1/2+z
loop_
_atom_site_type_symbol
_atom_site_label
_atom_site_fract_x
_atom_site_fract_y
_atom_site_fract_z
Si Si1 0.429599 0.232490 0.543577
Si Si2 0.198211 0.098437 0.893906
Si Si3 0.131341 0.900100 0.596799
Si Si4 0.473398 0.639512 0.813017
Si Si5 0.689843 0.091127 0.757267
O O1 0.500000 0.153654 0.750000
O O2 0.254167 0.262064 0.281816
O O3 0.515454 0.418181 0.658822
O O4 0.420297 0.078754 0.451509
O O5 0.038201 0.161797 0.672039
O O6 0.172044 0.010010 0.753936
O O7 0.318791 0.262706 0.087362
O O8 0.257523 0.937452 0.056469
O O9 0.169183 0.042711 0.577781
O O10 0.500000 0.678133 0.750000
O O11 0.605348 0.727825 0.086633
#
# Coordination Sequence:
#
# PCOD9231127 Si02
#       5
#     4   4   4   4   4
#     4   9  20  37  60  82 124 155 189 244 293 342
#     4  11  20  36  68  90 114 161 200 242 304 351
#     4   9  21  39  61  88 122 156 192 248 300 347
#     4  11  20  37  61  87 118 159 198 241 292 356
#     4  10  20  38  65  84 121 154 197 242 294 352
#
# _framework density 20.808287
#
# number of rings (size 3 to 8) (size 9 to 14) (size 15 to 20)
#    1.200    0.800    2.000    3.000    0.000    0.800 
#    0.000    6.000   13.200    0.000    0.000    0.000 
#    0.000    0.000    0.000    0.000    0.000    0.000 
#
# Total GULP energy -111567.932914 kJ/mol
# GULP energy per Si atom -5578.396646 kJ/mol
# Density = 2.076093 g / cm^3
# Si number density = 20.808287 Si / 1000 Ang^3
#
#
#
# Elastic Constant Matrix: (Units=GPa)
#
#
# Indices 1 2 3 4 5 6 
#
# 1 58.3188 2.5785 19.7931 0.0000 9.1824 0.0000
# 2 2.5785 52.8486 10.1671 0.0000 2.3154 0.0000
# 3 19.7931 10.1671 102.7876 0.0000 27.3244 0.0000
# 4 0.0000 0.0000 0.0000 16.9858 0.0000 5.2513
# 5 9.1824 2.3154 27.3244 0.0000 38.7409 0.0000
# 6 0.0000 0.0000 0.0000 5.2513 0.0000 22.2807
#
#
#
# Elastic Compliance Matrix: (Units=1/GPa)
#
#
# Indices 1 2 3 4 5 6 
#
# 1 0.018515 -0.000239 -0.002928 0.000000 -0.002309 0.000000
# 2 -0.000239 0.019294 -0.001933 0.000000 0.000267 0.000000
# 3 -0.002928 -0.001933 0.012638 0.000000 -0.008104 0.000000
# 4 0.000000 0.000000 0.000000 0.063500 0.000000 -0.014966
# 5 -0.002309 0.000267 -0.008104 0.000000 0.032060 0.000000
# 6 0.000000 0.000000 0.000000 -0.014966 0.000000 0.048409
#
#
# Mechanical properties :
#
#
# Convention : Reuss Voigt Hill
#
# Bulk Modulus (GPa) = 24.84674 31.00360 27.92517
# Shear Modulus (GPa) = 22.93240 27.69589 25.31414
#
# Velocity S-wave (km/s) = 3.32336 3.65225 3.49168
# Velocity P-wave (km/s) = 5.16653 5.71990 5.45024
#
# Compressibility (1/GPa) = 0.04024672
#
# Stress axis : x y z
#
# Youngs Moduli (GPa) = 54.01043 51.82985 79.12488
#
# Poissons Ratio (x) = 0.01238 0.23166
# Poissons Ratio (y) = 0.01290 0.15299
# Poissons Ratio (z) = 0.15813 0.10021
#
# Static dielectric constant tensor:
#      x y z
#    x 1.823570 0.000000 0.036890 
#    y 0.000000 1.720380 0.000000 
#    z 0.036890 0.000000 1.779490 
# 
# From -- ./inp_files/58564.got.cif
#   From: 2010.05.17/outbox.cif.g08.bks.cpg/sg13_30_cif.got.tgz:58564.got - 2010.06.03 16:44:36.
