data_PCOD9231581
_publ_section_title
;
Structure prediction by ZEFSAII (Michael W. Deem and Ramdas Pophale) SiO2 
 PCOD9231581
Probable space group: P 2/C
;
_chemical_formula_sum "Si O2"
_cell_formula_units_Z 22
_cell_length_a 16.422157
_cell_length_b 12.996868
_cell_length_c 9.380956
_cell_angle_alpha 90.000000
_cell_angle_beta 151.252320
_cell_angle_gamma 90.000000
_cell_volume 962.983592
_symmetry_space_group_name_H-M "P 2/C"
_symmetry_group_IT_number 13
_symmetry_cell_setting 'monoclinic'
loop_
_space_group_symop_operation_xyz
x,y,z
-x,y,1/2-z
-x,-y,-z
x,-y,1/2+z
loop_
_atom_site_type_symbol
_atom_site_label
_atom_site_fract_x
_atom_site_fract_y
_atom_site_fract_z
Si Si1 0.500000 0.231210 0.250000
Si Si2 0.831001 0.527663 0.655744
Si Si3 0.393051 0.283469 0.778390
Si Si4 0.774932 0.931949 0.153111
Si Si5 0.500000 0.899113 0.250000
Si Si6 0.000000 0.032618 0.250000
Si Si7 0.354489 0.446183 0.365623
O O1 0.584200 0.284723 0.515902
O O2 0.649167 0.159002 0.417870
O O3 0.770017 0.644421 0.515288
O O4 0.807199 0.456382 0.482888
O O5 0.688171 0.502225 0.552401
O O6 0.000000 0.500000 0.000000
O O7 0.412249 0.171506 0.737535
O O8 0.569927 0.334737 0.996056
O O9 0.888111 0.903414 0.464978
O O10 0.885700 0.966529 0.186415
O O11 0.654735 0.024688 0.026349
O O12 0.500000 0.500000 0.500000
#
# Coordination Sequence:
#
# PCOD9231581 Si02
#       7
#     2   4   4   4   2   2   4
#     4  11  24  40  67 100 130 180 239 264 314 395
#     4  11  23  42  67  94 127 167 212 274 347 397
#     4  11  22  39  66  97 130 170 229 282 312 388
#     4  10  22  40  68  96 132 188 216 270 332 392
#     4  11  20  42  69  92 130 176 243 264 312 397
#     4  10  20  40  64  92 132 168 222 264 344 384
#     4  10  21  40  67  89 121 171 212 264 332 396
#
# _framework density 22.845662999999998
#
# number of rings (size 3 to 8) (size 9 to 14) (size 15 to 20)
#    0.000    1.455    1.818    4.364    5.091    2.909 
#    0.000    7.273   16.000    0.000    0.000    0.000 
#    0.000    0.000    0.000    0.000    0.000    0.000 
#
# Total GULP energy -122548.332379 kJ/mol
# GULP energy per Si atom -5570.378745 kJ/mol
# Density = 2.279367 g / cm^3
# Si number density = 22.845663 Si / 1000 Ang^3
#
#
#
# Elastic Constant Matrix: (Units=GPa)
#
#
# Indices 1 2 3 4 5 6 
#
# 1 107.9725 6.5094 32.6684 0.0000 -8.2532 0.0000
# 2 6.5094 63.6606 38.0146 0.0000 -3.0354 0.0000
# 3 32.6684 38.0146 171.7901 0.0000 -17.7234 0.0000
# 4 0.0000 0.0000 0.0000 18.2685 0.0000 -9.3228
# 5 -8.2532 -3.0354 -17.7234 0.0000 43.9412 0.0000
# 6 0.0000 0.0000 0.0000 -9.3228 0.0000 15.3890
#
#
#
# Elastic Compliance Matrix: (Units=1/GPa)
#
#
# Indices 1 2 3 4 5 6 
#
# 1 0.009883 0.000110 -0.001786 0.000000 0.001144 0.000000
# 2 0.000110 0.018107 -0.004066 0.000000 -0.000368 0.000000
# 3 -0.001786 -0.004066 0.007301 0.000000 0.002328 0.000000
# 4 0.000000 0.000000 0.000000 0.079236 0.000000 0.048002
# 5 0.001144 -0.000368 0.002328 0.000000 0.023886 0.000000
# 6 0.000000 0.000000 0.000000 0.048002 0.000000 0.094061
#
#
# Mechanical properties :
#
#
# Convention : Reuss Voigt Hill
#
# Bulk Modulus (GPa) = 42.00262 55.31200 48.65731
# Shear Modulus (GPa) = 19.84974 33.26846 26.55910
#
# Velocity S-wave (km/s) = 2.95085 3.82019 3.41331
# Velocity P-wave (km/s) = 5.48044 6.61228 6.07279
#
# Compressibility (1/GPa) = 0.02380804
#
# Stress axis : x y z
#
# Youngs Moduli (GPa) = 101.18710 55.22617 136.97531
#
# Poissons Ratio (x) = -0.00610 0.24461
# Poissons Ratio (y) = -0.01117 0.55693
# Poissons Ratio (z) = 0.18070 0.22454
#
# Static dielectric constant tensor:
#      x y z
#    x 1.987210 0.000000 0.032480 
#    y 0.000000 1.943280 0.000000 
#    z 0.032480 0.000000 2.034730 
# 
# From -- ./inp_files/12595.got.cif
#   From: 2010.05.17/outbox.cif.g08.bks.cpg/sg13_7_cif.got.tgz:12595.got - 2010.06.03 16:44:36.
