data_PCOD9231701
_publ_section_title
;
Structure prediction by ZEFSAII (Michael W. Deem and Ramdas Pophale) SiO2 
 PCOD9231701
Probable space group: P 2/C
;
_chemical_formula_sum "Si O2"
_cell_formula_units_Z 28
_cell_length_a 16.377474
_cell_length_b 4.985232
_cell_length_c 14.101497
_cell_angle_alpha 90.000000
_cell_angle_beta 90.622737
_cell_angle_gamma 90.000000
_cell_volume 1151.255876
_symmetry_space_group_name_H-M "P 2/C"
_symmetry_group_IT_number 13
_symmetry_cell_setting 'monoclinic'
loop_
_space_group_symop_operation_xyz
x,y,z
-x,y,1/2-z
-x,-y,-z
x,-y,1/2+z
loop_
_atom_site_type_symbol
_atom_site_label
_atom_site_fract_x
_atom_site_fract_y
_atom_site_fract_z
Si Si1 0.740542 0.905629 0.706749
Si Si2 0.099449 0.886326 0.891488
Si Si3 0.441344 0.786848 0.447973
Si Si4 0.500000 0.620891 0.250000
Si Si5 0.342414 0.267848 0.478039
Si Si6 0.321101 0.566848 0.190357
Si Si7 0.046772 0.291223 0.568932
Si Si8 0.000000 0.484205 0.250000
O O1 0.825670 0.004666 0.664442
O O2 0.706956 0.713354 0.620469
O O3 0.736997 0.685649 0.790109
O O4 0.695317 0.170205 0.745001
O O5 0.060826 0.667607 0.821275
O O6 0.119443 0.798569 0.000128
O O7 0.022667 0.075283 0.908843
O O8 0.472739 0.790259 0.340711
O O9 0.419317 0.476386 0.467998
O O10 0.500000 0.000000 0.500000
O O11 0.358866 0.948186 0.470714
O O12 0.416106 0.476274 0.214069
O O13 0.312270 0.340469 0.581682
O O14 0.000000 0.500000 0.500000
O O15 0.062896 0.384231 0.675387
#
# Coordination Sequence:
#
# PCOD9231701 Si02
#       8
#     4   4   4   2   4   4   4   2
#     4  12  27  48  67 106 151 187 234 303 363 431
#     4  10  23  42  69 101 143 178 236 292 350 433
#     4  12  25  41  73 100 132 183 243 304 356 416
#     4  12  24  44  74  96 142 188 246 304 350 428
#     4  12  25  47  66 103 143 184 242 295 362 438
#     4  12  28  44  72 103 139 194 245 289 370 424
#     4   9  20  41  68 100 129 181 228 285 350 421
#     4  10  20  40  72 102 134 172 244 278 350 424
#
# _framework density 24.321265
#
# number of rings (size 3 to 8) (size 9 to 14) (size 15 to 20)
#    0.000    0.857    4.286    1.714    4.000    2.286 
#    7.714    0.000    0.000    0.000    0.000    0.000 
#    0.000    0.000    0.000    0.000    0.000    0.000 
#
# Total GULP energy -155882.164043 kJ/mol
# GULP energy per Si atom -5567.220144 kJ/mol
# Density = 2.426591 g / cm^3
# Si number density = 24.321265 Si / 1000 Ang^3
#
#
#
# Elastic Constant Matrix: (Units=GPa)
#
#
# Indices 1 2 3 4 5 6 
#
# 1 36.8167 7.4439 27.0264 0.0000 -15.9069 0.0000
# 2 7.4439 113.1164 51.0321 0.0000 -12.1416 0.0000
# 3 27.0264 51.0321 178.0260 0.0000 -19.7251 0.0000
# 4 0.0000 0.0000 0.0000 139.7439 0.0000 64.1796
# 5 -15.9069 -12.1416 -19.7251 0.0000 35.0098 0.0000
# 6 0.0000 0.0000 0.0000 64.1796 0.0000 30.2479
#
#
#
# Elastic Compliance Matrix: (Units=1/GPa)
#
#
# Indices 1 2 3 4 5 6 
#
# 1 0.036297 0.001066 -0.004211 0.000000 0.014489 0.000000
# 2 0.001066 0.010319 -0.002847 0.000000 0.002459 0.000000
# 3 -0.004211 -0.002847 0.007201 0.000000 0.001156 0.000000
# 4 0.000000 0.000000 0.000000 0.280211 0.000000 -0.594547
# 5 0.014489 0.002459 0.001156 0.000000 0.036651 0.000000
# 6 0.000000 0.000000 0.000000 -0.594547 0.000000 1.294560
#
#
# Mechanical properties :
#
#
# Convention : Reuss Voigt Hill
#
# Bulk Modulus (GPa) = 23.90449 55.44043 39.67246
# Shear Modulus (GPa) = 2.95654 57.16412 30.06033
#
# Velocity S-wave (km/s) = 1.10375 4.85333 3.51945
# Velocity P-wave (km/s) = 3.38738 7.36552 5.73259
#
# Compressibility (1/GPa) = 0.04183315
#
# Stress axis : x y z
#
# Youngs Moduli (GPa) = 27.55042 96.91058 138.87518
#
# Poissons Ratio (x) = -0.10333 0.58474
# Poissons Ratio (y) = -0.02937 0.39543
# Poissons Ratio (z) = 0.11600 0.27594
#
# Static dielectric constant tensor:
#      x y z
#    x 0.846810 0.000000 -1.241630 
#    y 0.000000 1.973850 0.000000 
#    z -1.241630 0.000000 0.664460 
# 
# From -- ./inp_files/54459.got.cif
#   From: 2010.05.17/outbox.cif.g08.bks.cpg/sg13_28_cif.got.tgz:54459.got - 2010.06.03 16:44:36.
