data_PCOD9231808
_publ_section_title
;
Structure prediction by ZEFSAII (Michael W. Deem and Ramdas Pophale) SiO2 
 PCOD9231808
Probable space group: P 2/C
;
_chemical_formula_sum "Si O2"
_cell_formula_units_Z 20
_cell_length_a 14.447578
_cell_length_b 12.050174
_cell_length_c 10.367348
_cell_angle_alpha 90.000000
_cell_angle_beta 33.479501
_cell_angle_gamma 90.000000
_cell_volume 995.659164
_symmetry_space_group_name_H-M "P 2/C"
_symmetry_group_IT_number 13
_symmetry_cell_setting 'monoclinic'
loop_
_space_group_symop_operation_xyz
x,y,z
-x,y,1/2-z
-x,-y,-z
x,-y,1/2+z
loop_
_atom_site_type_symbol
_atom_site_label
_atom_site_fract_x
_atom_site_fract_y
_atom_site_fract_z
Si Si1 0.613957 0.468044 0.743489
Si Si2 0.186438 0.321986 0.580302
Si Si3 0.582248 0.877826 0.785646
Si Si4 0.891178 0.975084 0.000098
Si Si5 0.731192 0.749356 0.231459
O O1 0.500000 0.464736 0.750000
O O2 0.749040 0.563210 0.555466
O O3 0.692336 0.348006 0.677679
O O4 0.500000 0.500000 0.000000
O O5 0.306546 0.225196 0.390588
O O6 0.204136 0.312071 0.714042
O O7 0.000000 0.300749 0.750000
O O8 0.500000 0.928376 0.750000
O O9 0.712135 0.960809 0.703673
O O10 0.436107 0.820019 0.038305
O O11 0.857291 0.843664 0.037706
O O12 0.000000 0.009795 0.750000
O O13 0.000000 0.000000 0.000000
#
# Coordination Sequence:
#
# PCOD9231808 Si02
#       5
#     4   4   4   4   4
#     4  12  23  45  68  97 135 177 230 282 330 410
#     4  11  22  41  69  95 133 181 219 277 354 404
#     4  10  20  41  70  96 132 181 228 274 346 420
#     4  12  26  45  68 102 144 173 227 293 345 407
#     4  11  24  42  69  99 133 182 232 272 342 416
#
# _framework density 20.087194
#
# number of rings (size 3 to 8) (size 9 to 14) (size 15 to 20)
#    0.000    0.800    4.000    5.400    0.000    4.000 
#    3.600    0.000    0.000    0.000    0.000    0.000 
#    0.000    0.000    0.000    0.000    0.000    0.000 
#
# Total GULP energy -111805.761030 kJ/mol
# GULP energy per Si atom -5590.288051 kJ/mol
# Density = 2.004147 g / cm^3
# Si number density = 20.087194 Si / 1000 Ang^3
#
#
#
# Elastic Constant Matrix: (Units=GPa)
#
#
# Indices 1 2 3 4 5 6 
#
# 1 127.7447 30.6533 50.0868 0.0000 -11.6668 0.0000
# 2 30.6533 92.2360 13.8047 0.0000 -5.0851 0.0000
# 3 50.0868 13.8047 64.8012 0.0000 -13.9651 0.0000
# 4 0.0000 0.0000 0.0000 31.9463 0.0000 -14.9136
# 5 -11.6668 -5.0851 -13.9651 0.0000 30.2963 0.0000
# 6 0.0000 0.0000 0.0000 -14.9136 0.0000 42.5154
#
#
#
# Elastic Compliance Matrix: (Units=1/GPa)
#
#
# Indices 1 2 3 4 5 6 
#
# 1 0.011827 -0.002643 -0.008541 0.000000 0.000174 0.000000
# 2 -0.002643 0.011810 -0.000295 0.000000 0.000829 0.000000
# 3 -0.008541 -0.000295 0.023734 0.000000 0.007602 0.000000
# 4 0.000000 0.000000 0.000000 0.037432 0.000000 0.013131
# 5 0.000174 0.000829 0.007602 0.000000 0.036717 0.000000
# 6 0.000000 0.000000 0.000000 0.013131 0.000000 0.028127
#
#
# Mechanical properties :
#
#
# Convention : Reuss Voigt Hill
#
# Bulk Modulus (GPa) = 40.95911 52.65237 46.80574
# Shear Modulus (GPa) = 27.66369 33.63406 30.64887
#
# Velocity S-wave (km/s) = 3.71506 4.09639 3.91038
# Velocity P-wave (km/s) = 6.23195 6.97443 6.61362
#
# Compressibility (1/GPa) = 0.02441459
#
# Stress axis : x y z
#
# Youngs Moduli (GPa) = 84.55315 84.67554 42.13297
#
# Poissons Ratio (x) = 0.22376 0.35985
# Poissons Ratio (y) = 0.22344 0.01242
# Poissons Ratio (z) = 0.72216 0.02495
#
# Static dielectric constant tensor:
#      x y z
#    x 1.661920 0.000000 0.174460 
#    y 0.000000 1.830310 0.000000 
#    z 0.174460 0.000000 1.136440 
# 
# From -- ./inp_files/36817.got.cif
#   From: 2010.05.17/outbox.cif.g08.bks.cpg/sg13_19_cif.got.tgz:36817.got - 2010.06.03 16:44:36.
