data_PCOD9231508
_publ_section_title
;
Structure prediction by ZEFSAII (Michael W. Deem and Ramdas Pophale) SiO2 
 PCOD9231508
Probable space group: P 2/C
;
_chemical_formula_sum "Si O2"
_cell_formula_units_Z 32
_cell_length_a 14.187863
_cell_length_b 5.328458
_cell_length_c 18.206884
_cell_angle_alpha 90.000000
_cell_angle_beta 86.008139
_cell_angle_gamma 90.000000
_cell_volume 1373.090802
_symmetry_space_group_name_H-M "P 2/C"
_symmetry_group_IT_number 13
_symmetry_cell_setting 'monoclinic'
loop_
_space_group_symop_operation_xyz
x,y,z
-x,y,1/2-z
-x,-y,-z
x,-y,1/2+z
loop_
_atom_site_type_symbol
_atom_site_label
_atom_site_fract_x
_atom_site_fract_y
_atom_site_fract_z
Si Si1 0.020538 0.294260 0.333750
Si Si2 0.753222 0.385596 0.539847
Si Si3 0.147871 0.193512 0.565715
Si Si4 0.063833 0.188856 0.909994
Si Si5 0.293846 0.459906 0.294109
Si Si6 0.830827 0.566323 0.823155
Si Si7 0.677097 0.836194 0.914206
Si Si8 0.394330 0.036960 0.728873
O O1 0.907755 0.257130 0.358406
O O2 0.000000 0.359268 0.250000
O O3 0.056828 0.529529 0.377835
O O4 0.068810 0.032410 0.349542
O O5 0.811452 0.588603 0.489722
O O6 0.836549 0.182502 0.552871
O O7 0.717374 0.491679 0.619102
O O8 0.664393 0.289236 0.495041
O O9 0.136269 0.298484 0.650491
O O10 0.039462 0.155216 0.547146
O O11 0.238683 0.022297 0.570323
O O12 0.191661 0.411398 0.261146
O O13 0.354299 0.211454 0.272469
O O14 0.334258 0.716915 0.255294
O O15 0.728572 0.623256 0.862940
O O16 0.610247 0.973580 0.858748
O O17 0.500000 0.081728 0.750000
#
# Coordination Sequence:
#
# PCOD9231508 Si02
#       8
#     4   4   4   4   4   4   4   4
#     4  11  22  36  56  86 129 176 233 291 330 365
#     4  11  26  39  63 101 142 181 225 283 341 395
#     4  10  20  40  61  89 131 185 235 269 323 393
#     4  11  24  38  58  91 133 188 236 278 315 391
#     4  11  24  43  72 104 137 172 221 291 351 410
#     4   9  19  38  60  89 121 177 227 271 324 393
#     4  10  21  41  69  90 133 179 223 269 338 414
#     4  11  25  49  78 104 129 172 228 280 351 443
#
# _framework density 23.305087
#
# number of rings (size 3 to 8) (size 9 to 14) (size 15 to 20)
#    0.000    1.500    2.500    1.875    3.500    3.500 
#    0.000    1.250    0.000    0.000    0.000    0.000 
#    0.000    0.000    0.000    0.000    0.000    0.000 
#
# Total GULP energy -178318.094446 kJ/mol
# GULP energy per Si atom -5572.440451 kJ/mol
# Density = 2.325204 g / cm^3
# Si number density = 23.305087 Si / 1000 Ang^3
#
#
#
# Elastic Constant Matrix: (Units=GPa)
#
#
# Indices 1 2 3 4 5 6 
#
# 1 64.7870 19.2097 26.1127 0.0000 31.4455 0.0000
# 2 19.2097 104.1849 33.0667 0.0000 10.3415 0.0000
# 3 26.1127 33.0667 126.5430 0.0000 30.1105 0.0000
# 4 0.0000 0.0000 0.0000 23.4177 0.0000 7.8918
# 5 31.4455 10.3415 30.1105 0.0000 30.1202 0.0000
# 6 0.0000 0.0000 0.0000 7.8918 0.0000 20.9878
#
#
#
# Elastic Compliance Matrix: (Units=1/GPa)
#
#
# Indices 1 2 3 4 5 6 
#
# 1 0.032591 -0.003307 0.002578 0.000000 -0.035467 0.000000
# 2 -0.003307 0.010831 -0.002735 0.000000 0.002468 0.000000
# 3 0.002578 -0.002735 0.011156 0.000000 -0.012905 0.000000
# 4 0.000000 0.000000 0.000000 0.048899 0.000000 -0.018387
# 5 -0.035467 0.002468 -0.012905 0.000000 0.082281 0.000000
# 6 0.000000 0.000000 0.000000 -0.018387 0.000000 0.054561
#
#
# Mechanical properties :
#
#
# Convention : Reuss Voigt Hill
#
# Bulk Modulus (GPa) = 20.98628 50.25479 35.62053
# Shear Modulus (GPa) = 19.00201 29.38021 24.19111
#
# Velocity S-wave (km/s) = 2.85855 3.55445 3.22532
# Velocity P-wave (km/s) = 4.46314 6.20131 5.40258
#
# Compressibility (1/GPa) = 0.04765018
#
# Stress axis : x y z
#
# Youngs Moduli (GPa) = 30.68317 92.32617 89.63977
#
# Poissons Ratio (x) = 0.30532 -0.23110
# Poissons Ratio (y) = 0.10147 0.24517
# Poissons Ratio (z) = -0.07910 0.25252
#
# Static dielectric constant tensor:
#      x y z
#    x 1.998920 0.000000 -0.122590 
#    y 0.000000 1.979390 0.000000 
#    z -0.122590 0.000000 2.074700 
# 
# From -- ./inp_files/67575.got.cif
#   From: 2010.05.17/outbox.cif.g08.bks.cpg/sg13_34_cif.got.tgz:67575.got - 2010.06.03 16:44:36.
