data_PCOD9231565
_publ_section_title
;
Structure prediction by ZEFSAII (Michael W. Deem and Ramdas Pophale) SiO2 
 PCOD9231565
Probable space group: P 2/C
;
_chemical_formula_sum "Si O2"
_cell_formula_units_Z 16
_cell_length_a 12.346596
_cell_length_b 11.088571
_cell_length_c 7.976963
_cell_angle_alpha 90.000000
_cell_angle_beta 140.543976
_cell_angle_gamma 90.000000
_cell_volume 694.010820
_symmetry_space_group_name_H-M "P 2/C"
_symmetry_group_IT_number 13
_symmetry_cell_setting 'monoclinic'
loop_
_space_group_symop_operation_xyz
x,y,z
-x,y,1/2-z
-x,-y,-z
x,-y,1/2+z
loop_
_atom_site_type_symbol
_atom_site_label
_atom_site_fract_x
_atom_site_fract_y
_atom_site_fract_z
Si Si1 0.865277 0.644776 0.949711
Si Si2 0.000000 0.999349 0.250000
Si Si3 0.256011 0.928541 0.313476
Si Si4 0.000000 0.412152 0.250000
Si Si5 0.437320 0.809579 0.991233
O O1 0.929760 0.652560 0.832780
O O2 0.688863 0.714033 0.739817
O O3 0.000000 0.691463 0.250000
O O4 0.859708 0.504200 0.000929
O O5 0.092828 0.080519 0.497529
O O6 0.839408 0.925030 0.125121
O O7 0.401291 0.837666 0.433630
O O8 0.341919 0.061729 0.409223
O O9 0.500000 0.769752 0.250000
#
# Coordination Sequence:
#
# PCOD9231565 Si02
#       5
#     4   2   4   2   4
#     4   9  19  40  72 100 139 180 232 279 364 421
#     4  10  20  40  64  80 120 200 234 270 334 382
#     4  10  22  39  62  88 140 180 238 279 332 399
#     4   8  18  42  74 102 134 180 230 302 338 434
#     4  11  22  39  60 102 140 182 224 293 343 410
#
# _framework density 23.054396000000001
#
# number of rings (size 3 to 8) (size 9 to 14) (size 15 to 20)
#    0.750    1.500    2.500    0.000    1.750    1.000 
#    0.000    3.750    0.000    0.000    0.000    0.000 
#    0.000    4.000    0.000    0.000    0.000    0.000 
#
# Total GULP energy -89262.218935 kJ/mol
# GULP energy per Si atom -5578.888683 kJ/mol
# Density = 2.300192 g / cm^3
# Si number density = 23.054396 Si / 1000 Ang^3
#
#
#
# Elastic Constant Matrix: (Units=GPa)
#
#
# Indices 1 2 3 4 5 6 
#
# 1 178.8086 32.5222 50.7482 0.0000 15.5878 0.0000
# 2 32.5222 50.1933 28.0873 0.0000 19.5883 0.0000
# 3 50.7482 28.0873 140.3618 0.0000 -1.1015 0.0000
# 4 0.0000 0.0000 0.0000 19.8562 0.0000 18.3399
# 5 15.5878 19.5883 -1.1015 0.0000 51.5805 0.0000
# 6 0.0000 0.0000 0.0000 18.3399 0.0000 1.1363
#
#
#
# Elastic Compliance Matrix: (Units=1/GPa)
#
#
# Indices 1 2 3 4 5 6 
#
# 1 0.006739 -0.002959 -0.001852 0.000000 -0.000953 0.000000
# 2 -0.002959 0.028352 -0.004682 0.000000 -0.009973 0.000000
# 3 -0.001852 -0.004682 0.008751 0.000000 0.002525 0.000000
# 4 0.000000 0.000000 0.000000 -0.003621 0.000000 0.058446
# 5 -0.000953 -0.009973 0.002525 0.000000 0.023516 0.000000
# 6 0.000000 0.000000 0.000000 0.058446 0.000000 -0.063278
#
#
# Mechanical properties :
#
#
# Convention : Reuss Voigt Hill
#
# Bulk Modulus (GPa) = 40.23039 65.78656 53.00847
# Shear Modulus (GPa) = 180.31408 31.71501 106.01455
#
# Velocity S-wave (km/s) = 8.85337 3.71301 6.78855
# Velocity P-wave (km/s) = 11.04526 6.85414 9.19176
#
# Compressibility (1/GPa) = 0.02485683
#
# Stress axis : x y z
#
# Youngs Moduli (GPa) = 148.38175 35.27102 114.27549
#
# Poissons Ratio (x) = 0.10435 0.21165
# Poissons Ratio (y) = 0.43899 0.53504
# Poissons Ratio (z) = 0.27482 0.16514
#
# Static dielectric constant tensor:
#      x y z
#    x 2.208220 0.000000 -0.306170 
#    y 0.000000 1.917530 0.000000 
#    z -0.306170 0.000000 2.067680 
# 
# From -- ./inp_files/15715.got.cif
#   From: 2010.05.17/outbox.cif.g08.bks.cpg/sg13_8_cif.got.tgz:15715.got - 2010.06.03 16:44:36.
