data_PCOD9231520
_publ_section_title
;
Structure prediction by ZEFSAII (Michael W. Deem and Ramdas Pophale) SiO2 
 PCOD9231520
Probable space group: P 2/C
;
_chemical_formula_sum "Si O2"
_cell_formula_units_Z 32
_cell_length_a 16.058180
_cell_length_b 9.199805
_cell_length_c 24.014880
_cell_angle_alpha 90.000000
_cell_angle_beta 151.569365
_cell_angle_gamma 90.000000
_cell_volume 1689.073329
_symmetry_space_group_name_H-M "P 2/C"
_symmetry_group_IT_number 13
_symmetry_cell_setting 'monoclinic'
loop_
_space_group_symop_operation_xyz
x,y,z
-x,y,1/2-z
-x,-y,-z
x,-y,1/2+z
loop_
_atom_site_type_symbol
_atom_site_label
_atom_site_fract_x
_atom_site_fract_y
_atom_site_fract_z
Si Si1 0.556152 0.753455 0.930036
Si Si2 0.983751 0.672103 0.498784
Si Si3 0.371113 0.158524 0.726472
Si Si4 0.965913 0.259914 0.118376
Si Si5 0.172381 0.485986 0.884458
Si Si6 0.339292 0.813780 0.697498
Si Si7 0.346964 0.913181 0.021654
Si Si8 0.314843 0.736330 0.892065
O O1 0.406486 0.741979 0.794794
O O2 0.472273 0.736332 0.941581
O O3 0.709731 0.636402 0.018464
O O4 0.628041 0.915322 0.963517
O O5 0.798401 0.739451 0.370425
O O6 0.000000 0.500000 0.500000
O O7 0.992377 0.710724 0.569374
O O8 0.154269 0.746166 0.571636
O O9 0.500000 0.193348 0.750000
O O10 0.317198 0.988432 0.689334
O O11 0.490818 0.162935 0.851712
O O12 0.143729 0.226514 0.255325
O O13 0.889244 0.401482 0.104449
O O14 0.825686 0.133593 0.046499
O O15 0.280268 0.583880 0.903342
O O16 0.000000 0.431527 0.750000
O O17 0.500000 0.789187 0.750000
O O18 0.335779 0.853617 0.952861
#
# Coordination Sequence:
#
# PCOD9231520 Si02
#       8
#     4   4   4   4   4   4   4   4
#     4  11  21  38  63  93 119 155 210 256 299 362
#     4  12  25  40  64  93 122 160 214 258 307 377
#     4  10  21  43  65  89 125 163 200 253 318 370
#     4  10  21  42  60  85 123 168 197 244 314 367
#     4   9  21  37  58  85 126 162 194 245 310 364
#     4  10  24  43  63  88 122 163 207 259 316 367
#     4  10  21  38  65  92 120 162 203 251 304 371
#     4  10  20  40  62  86 125 163 203 245 308 370
#
# _framework density 18.945298999999999
#
# number of rings (size 3 to 8) (size 9 to 14) (size 15 to 20)
#    0.000    1.750    2.500    2.250    1.750    3.500 
#    4.500    0.000    0.000    0.000    0.000    0.000 
#    0.000    0.000    0.000    0.000    0.000    0.000 
#
# Total GULP energy -178680.064050 kJ/mol
# GULP energy per Si atom -5583.752002 kJ/mol
# Density = 1.890218 g / cm^3
# Si number density = 18.945299 Si / 1000 Ang^3
#
#
#
# Elastic Constant Matrix: (Units=GPa)
#
#
# Indices 1 2 3 4 5 6 
#
# 1 55.5707 -3.0847 4.4929 0.0000 8.5344 0.0000
# 2 -3.0847 46.9597 48.6429 0.0000 16.1313 0.0000
# 3 4.4929 48.6429 97.8664 0.0000 12.0314 0.0000
# 4 0.0000 0.0000 0.0000 41.4781 0.0000 -5.8370
# 5 8.5344 16.1313 12.0314 0.0000 34.4521 0.0000
# 6 0.0000 0.0000 0.0000 -5.8370 0.0000 18.0831
#
#
#
# Elastic Compliance Matrix: (Units=1/GPa)
#
#
# Indices 1 2 3 4 5 6 
#
# 1 0.019858 0.007855 -0.003928 0.000000 -0.007226 0.000000
# 2 0.007855 0.053979 -0.024913 0.000000 -0.018520 0.000000
# 3 -0.003928 -0.024913 0.022180 0.000000 0.004892 0.000000
# 4 0.000000 0.000000 0.000000 0.025256 0.000000 0.008153
# 5 -0.007226 -0.018520 0.004892 0.000000 0.037779 0.000000
# 6 0.000000 0.000000 0.000000 0.008153 0.000000 0.057932
#
#
# Mechanical properties :
#
#
# Convention : Reuss Voigt Hill
#
# Bulk Modulus (GPa) = 18.50308 33.38877 25.94593
# Shear Modulus (GPa) = 18.05247 28.82569 23.43908
#
# Velocity S-wave (km/s) = 3.09021 3.90490 3.52120
# Velocity P-wave (km/s) = 4.74556 6.16385 5.50061
#
# Compressibility (1/GPa) = 0.05404507
#
# Stress axis : x y z
#
# Youngs Moduli (GPa) = 50.35671 18.52577 45.08650
#
# Poissons Ratio (x) = -0.14552 0.17708
# Poissons Ratio (y) = -0.39554 1.12325
# Poissons Ratio (z) = 0.19778 0.46154
#
# Static dielectric constant tensor:
#      x y z
#    x 1.663390 0.000000 0.002700 
#    y 0.000000 1.626930 0.000000 
#    z 0.002700 0.000000 1.659980 
# 
# From -- ./inp_files/87418.got.cif
#   From: 2010.05.17/outbox.cif.g08.bks.cpg/sg13_44_cif.got.tgz:87418.got - 2010.06.03 16:44:36.
