data_PCOD9231885
_publ_section_title
;
Structure prediction by ZEFSAII (Michael W. Deem and Ramdas Pophale) SiO2 
 PCOD9231885
Probable space group: P 2/C
;
_chemical_formula_sum "Si O2"
_cell_formula_units_Z 18
_cell_length_a 12.930646
_cell_length_b 6.747374
_cell_length_c 18.718548
_cell_angle_alpha 90.000000
_cell_angle_beta 30.694094
_cell_angle_gamma 90.000000
_cell_volume 833.650499
_symmetry_space_group_name_H-M "P 2/C"
_symmetry_group_IT_number 13
_symmetry_cell_setting 'monoclinic'
loop_
_space_group_symop_operation_xyz
x,y,z
-x,y,1/2-z
-x,-y,-z
x,-y,1/2+z
loop_
_atom_site_type_symbol
_atom_site_label
_atom_site_fract_x
_atom_site_fract_y
_atom_site_fract_z
Si Si1 0.977142 0.267879 0.022374
Si Si2 0.000000 0.890627 0.250000
Si Si3 0.394850 0.954121 0.678392
Si Si4 0.187014 0.997993 0.997439
Si Si5 0.589581 0.281651 0.937663
O O1 0.790412 0.167058 0.177123
O O2 0.934985 0.177098 0.969603
O O3 0.166798 0.178409 0.953776
O O4 0.000000 0.500000 0.000000
O O5 0.925377 0.025034 0.360206
O O6 0.811890 0.753641 0.338966
O O7 0.585384 0.940822 0.618233
O O8 0.440780 0.844057 0.576842
O O9 0.392429 0.183442 0.652038
O O10 0.500000 0.500000 0.000000
#
# Coordination Sequence:
#
# PCOD9231885 Si02
#       5
#     4   2   4   4   4
#     4  11  24  42  68 103 137 183 237 289 355 427
#     4  10  20  42  66  96 142 180 234 288 356 414
#     4  10  22  43  64  97 139 180 231 289 352 421
#     4  10  23  42  66  96 141 186 221 298 355 410
#     4  10  22  39  66 100 136 183 228 288 350 421
#
# _framework density 21.591781999999998
#
# number of rings (size 3 to 8) (size 9 to 14) (size 15 to 20)
#    0.000    1.778    2.222    0.667    3.111    3.556 
#    0.000    5.556    0.000    0.000    0.000    0.000 
#    0.000    0.000    0.000    0.000    0.000    0.000 
#
# Total GULP energy -100359.609564 kJ/mol
# GULP energy per Si atom -5575.533865 kJ/mol
# Density = 2.154264 g / cm^3
# Si number density = 21.591782 Si / 1000 Ang^3
#
#
#
# Elastic Constant Matrix: (Units=GPa)
#
#
# Indices 1 2 3 4 5 6 
#
# 1 104.6722 36.1356 14.8941 0.0000 10.9184 0.0000
# 2 36.1356 155.6305 9.4278 0.0000 4.8075 0.0000
# 3 14.8941 9.4278 95.0621 0.0000 9.2600 0.0000
# 4 0.0000 0.0000 0.0000 27.0525 0.0000 1.9552
# 5 10.9184 4.8075 9.2600 0.0000 37.1650 0.0000
# 6 0.0000 0.0000 0.0000 1.9552 0.0000 12.5030
#
#
#
# Elastic Compliance Matrix: (Units=1/GPa)
#
#
# Indices 1 2 3 4 5 6 
#
# 1 0.010807 -0.002357 -0.001209 0.000000 -0.002569 0.000000
# 2 -0.002357 0.006996 -0.000311 0.000000 -0.000135 0.000000
# 3 -0.001209 -0.000311 0.010967 0.000000 -0.002337 0.000000
# 4 0.000000 0.000000 0.000000 0.037388 0.000000 -0.005847
# 5 -0.002569 -0.000135 -0.002337 0.000000 0.028262 0.000000
# 6 0.000000 0.000000 0.000000 -0.005847 0.000000 0.080895
#
#
# Mechanical properties :
#
#
# Convention : Reuss Voigt Hill
#
# Bulk Modulus (GPa) = 47.58374 52.91998 50.25186
# Shear Modulus (GPa) = 26.30543 35.00457 30.65500
#
# Velocity S-wave (km/s) = 3.49421 4.03078 3.77205
# Velocity P-wave (km/s) = 6.19396 6.79893 6.50348
#
# Compressibility (1/GPa) = 0.02101558
#
# Stress axis : x y z
#
# Youngs Moduli (GPa) = 92.53031 142.94471 91.17893
#
# Poissons Ratio (x) = 0.33688 0.11026
# Poissons Ratio (y) = 0.21807 0.02839
# Poissons Ratio (z) = 0.11190 0.04451
#
# Static dielectric constant tensor:
#      x y z
#    x 1.805640 0.000000 0.004710 
#    y 0.000000 1.797090 0.000000 
#    z 0.004710 0.000000 1.901290 
# 
# From -- ./inp_files/76974.got.cif
#   From: 2010.05.17/outbox.cif.g08.bks.cpg/sg13_39_cif.got.tgz:76974.got - 2010.06.03 16:44:36.
