data_PCOD9231679
_publ_section_title
;
Structure prediction by ZEFSAII (Michael W. Deem and Ramdas Pophale) SiO2 
 PCOD9231679
Probable space group: P 2/C
;
_chemical_formula_sum "Si O2"
_cell_formula_units_Z 24
_cell_length_a 19.340072
_cell_length_b 5.560555
_cell_length_c 12.261944
_cell_angle_alpha 90.000000
_cell_angle_beta 50.381783
_cell_angle_gamma 90.000000
_cell_volume 1015.784062
_symmetry_space_group_name_H-M "P 2/C"
_symmetry_group_IT_number 13
_symmetry_cell_setting 'monoclinic'
loop_
_space_group_symop_operation_xyz
x,y,z
-x,y,1/2-z
-x,-y,-z
x,-y,1/2+z
loop_
_atom_site_type_symbol
_atom_site_label
_atom_site_fract_x
_atom_site_fract_y
_atom_site_fract_z
Si Si1 0.500000 0.492321 0.250000
Si Si2 0.113762 0.042140 0.771331
Si Si3 0.947733 0.297694 0.484787
Si Si4 0.431773 0.186125 0.005806
Si Si5 0.329286 0.351852 0.322913
Si Si6 0.278757 0.133081 0.976494
Si Si7 0.000000 0.410308 0.750000
O O1 0.494045 0.645285 0.367203
O O2 0.412523 0.336315 0.323140
O O3 0.191138 0.889168 0.640358
O O4 0.071877 0.246046 0.738156
O O5 0.131997 0.176496 0.868156
O O6 0.026177 0.886791 0.881156
O O7 0.932663 0.425610 0.387374
O O8 0.000000 0.500000 0.500000
O O9 0.371527 0.318948 0.159343
O O10 0.360132 0.111041 0.983459
O O11 0.500000 0.000000 0.000000
O O12 0.275267 0.107003 0.404295
O O13 0.289172 0.615561 0.397659
#
# Coordination Sequence:
#
# PCOD9231679 Si02
#       7
#     2   4   4   4   4   4   2
#     4  10  22  42  74  94 140 180 238 292 334 416
#     4  10  22  44  65 101 138 178 234 291 355 416
#     4   9  20  40  69  93 129 181 231 284 345 418
#     4  11  22  45  74 104 140 190 238 283 353 422
#     4  11  24  44  67 106 137 188 234 285 357 415
#     4  11  27  45  68 105 151 180 230 303 345 418
#     4  10  20  40  70 100 126 180 232 292 354 434
#
# _framework density 23.627068000000001
#
# number of rings (size 3 to 8) (size 9 to 14) (size 15 to 20)
#    0.000    1.667    0.000    4.000    4.667    4.667 
#   12.000    1.667    0.000    0.000    0.000    0.000 
#    0.000    0.000    0.000    0.000    0.000    0.000 
#
# Total GULP energy -133723.053119 kJ/mol
# GULP energy per Si atom -5571.793880 kJ/mol
# Density = 2.357329 g / cm^3
# Si number density = 23.627068 Si / 1000 Ang^3
#
#
#
# Elastic Constant Matrix: (Units=GPa)
#
#
# Indices 1 2 3 4 5 6 
#
# 1 58.8143 34.2564 27.7221 0.0000 2.9134 0.0000
# 2 34.2564 155.7227 107.2401 0.0000 15.5488 0.0000
# 3 27.7221 107.2401 177.4403 0.0000 6.4956 0.0000
# 4 0.0000 0.0000 0.0000 188.2924 0.0000 60.2010
# 5 2.9134 15.5488 6.4956 0.0000 33.0518 0.0000
# 6 0.0000 0.0000 0.0000 60.2010 0.0000 42.8285
#
#
#
# Elastic Compliance Matrix: (Units=1/GPa)
#
#
# Indices 1 2 3 4 5 6 
#
# 1 0.019566 -0.003794 -0.000772 0.000000 0.000212 0.000000
# 2 -0.003794 0.012257 -0.006664 0.000000 -0.004122 0.000000
# 3 -0.000772 -0.006664 0.009737 0.000000 0.001290 0.000000
# 4 0.000000 0.000000 0.000000 0.009646 0.000000 -0.013558
# 5 0.000212 -0.004122 0.001290 0.000000 0.031923 0.000000
# 6 0.000000 0.000000 0.000000 -0.013558 0.000000 0.042407
#
#
# Mechanical properties :
#
#
# Convention : Reuss Voigt Hill
#
# Bulk Modulus (GPa) = 52.35599 81.15716 66.75658
# Shear Modulus (GPa) = 32.39146 67.68513 50.03829
#
# Velocity S-wave (km/s) = 3.70665 5.35812 4.60699
# Velocity P-wave (km/s) = 6.36604 8.52661 7.52428
#
# Compressibility (1/GPa) = 0.01910001
#
# Stress axis : x y z
#
# Youngs Moduli (GPa) = 51.11007 81.58369 102.70294
#
# Poissons Ratio (x) = 0.30952 0.07925
# Poissons Ratio (y) = 0.19390 0.68445
# Poissons Ratio (z) = 0.03944 0.54371
#
# Static dielectric constant tensor:
#      x y z
#    x 1.968270 0.000000 0.050710 
#    y 0.000000 1.997720 0.000000 
#    z 0.050710 0.000000 1.963080 
# 
# From -- ./inp_files/41246.got.cif
#   From: 2010.05.17/outbox.cif.g08.bks.cpg/sg13_21_cif.got.tgz:41246.got - 2010.06.03 16:44:36.
