data_PCOD9231506
_publ_section_title
;
Structure prediction by ZEFSAII (Michael W. Deem and Ramdas Pophale) SiO2 
 PCOD9231506
Probable space group: P 2/C
;
_chemical_formula_sum "Si O2"
_cell_formula_units_Z 18
_cell_length_a 15.043508
_cell_length_b 7.104514
_cell_length_c 15.634060
_cell_angle_alpha 90.000000
_cell_angle_beta 145.626948
_cell_angle_gamma 90.000000
_cell_volume 943.365275
_symmetry_space_group_name_H-M "P 2/C"
_symmetry_group_IT_number 13
_symmetry_cell_setting 'monoclinic'
loop_
_space_group_symop_operation_xyz
x,y,z
-x,y,1/2-z
-x,-y,-z
x,-y,1/2+z
loop_
_atom_site_type_symbol
_atom_site_label
_atom_site_fract_x
_atom_site_fract_y
_atom_site_fract_z
Si Si1 0.353438 0.665974 0.792825
Si Si2 0.872738 0.417688 0.969765
Si Si3 0.286305 0.351854 0.887335
Si Si4 0.177941 0.057873 0.665726
Si Si5 0.000000 0.522551 0.750000
O O1 0.264155 0.573390 0.641325
O O2 0.310636 0.522977 0.837534
O O3 0.281171 0.871651 0.747755
O O4 0.540908 0.680661 0.937811
O O5 0.790910 0.223786 0.877304
O O6 0.000000 0.500000 0.000000
O O7 0.959713 0.380412 0.127944
O O8 0.213512 0.171165 0.781052
O O9 0.156923 0.408053 0.853284
O O10 0.000000 0.000000 0.500000
#
# Coordination Sequence:
#
# PCOD9231506 Si02
#       5
#     4   4   4   4   2
#     4  10  20  40  61  88 123 160 204 254 310 370
#     4  11  21  39  61  89 121 162 201 251 315 368
#     4  10  22  36  62  91 120 162 205 254 314 368
#     4  11  18  36  63  86 120 163 200 248 306 373
#     4  12  20  40  62  88 120 158 208 252 310 370
#
# _framework density 19.080627
#
# number of rings (size 3 to 8) (size 9 to 14) (size 15 to 20)
#    0.000    1.333    6.667    0.667    0.000    0.889 
#    0.000   10.000    0.000   16.000    0.000    0.000 
#    0.000    0.000    0.000    0.000    0.000    0.000 
#
# Total GULP energy -100218.588855 kJ/mol
# GULP energy per Si atom -5567.699381 kJ/mol
# Density = 1.903720 g / cm^3
# Si number density = 19.080627 Si / 1000 Ang^3
#
#
#
# Elastic Constant Matrix: (Units=GPa)
#
#
# Indices 1 2 3 4 5 6 
#
# 1 51.8695 9.4676 30.0119 0.0000 18.7636 0.0000
# 2 9.4676 104.2048 11.5806 0.0000 6.8287 0.0000
# 3 30.0119 11.5806 114.9866 0.0000 17.2797 0.0000
# 4 0.0000 0.0000 0.0000 39.9590 0.0000 7.3712
# 5 18.7636 6.8287 17.2797 0.0000 47.4466 0.0000
# 6 0.0000 0.0000 0.0000 7.3712 0.0000 8.7194
#
#
#
# Elastic Compliance Matrix: (Units=1/GPa)
#
#
# Indices 1 2 3 4 5 6 
#
# 1 0.025459 -0.001200 -0.005329 0.000000 -0.007955 0.000000
# 2 -0.001200 0.009816 -0.000565 0.000000 -0.000732 0.000000
# 3 -0.005329 -0.000565 0.010384 0.000000 -0.001593 0.000000
# 4 0.000000 0.000000 0.000000 0.029649 0.000000 -0.025065
# 5 -0.007955 -0.000732 -0.001593 0.000000 0.024908 0.000000
# 6 0.000000 0.000000 0.000000 -0.025065 0.000000 0.135876
#
#
# Mechanical properties :
#
#
# Convention : Reuss Voigt Hill
#
# Bulk Modulus (GPa) = 31.77461 41.46457 36.61959
# Shear Modulus (GPa) = 19.17396 33.89173 26.53285
#
# Velocity S-wave (km/s) = 3.17344 4.21912 3.73307
# Velocity P-wave (km/s) = 5.48786 6.74633 6.14937
#
# Compressibility (1/GPa) = 0.03147167
#
# Stress axis : x y z
#
# Youngs Moduli (GPa) = 39.27895 101.87120 96.30397
#
# Poissons Ratio (x) = 0.12221 0.51317
# Poissons Ratio (y) = 0.04712 0.05446
# Poissons Ratio (z) = 0.20930 0.05760
#
# Static dielectric constant tensor:
#      x y z
#    x 2.513790 0.000000 -0.246060 
#    y 0.000000 1.691810 0.000000 
#    z -0.246060 0.000000 1.787670 
# 
# From -- ./inp_files/52443.got.cif
#   From: 2010.05.17/outbox.cif.g08.bks.cpg/sg13_27_cif.got.tgz:52443.got - 2010.06.03 16:44:36.
