data_PCOD9231339
_publ_section_title
;
Structure prediction by ZEFSAII (Michael W. Deem and Ramdas Pophale) SiO2 
 PCOD9231339
Probable space group: P 2/C
;
_chemical_formula_sum "Si O2"
_cell_formula_units_Z 22
_cell_length_a 7.876048
_cell_length_b 14.968245
_cell_length_c 17.293055
_cell_angle_alpha 90.000000
_cell_angle_beta 151.963799
_cell_angle_gamma 90.000000
_cell_volume 958.243600
_symmetry_space_group_name_H-M "P 2/C"
_symmetry_group_IT_number 13
_symmetry_cell_setting 'monoclinic'
loop_
_space_group_symop_operation_xyz
x,y,z
-x,y,1/2-z
-x,-y,-z
x,-y,1/2+z
loop_
_atom_site_type_symbol
_atom_site_label
_atom_site_fract_x
_atom_site_fract_y
_atom_site_fract_z
Si Si1 0.489680 0.213608 0.443718
Si Si2 0.000000 0.338593 0.750000
Si Si3 0.342269 0.943567 0.608547
Si Si4 0.410821 0.079469 0.906790
Si Si5 0.419897 0.635546 0.803686
Si Si6 0.162493 0.552728 0.172536
O O1 0.766350 0.277255 0.599891
O O2 0.661724 0.136841 0.456023
O O3 0.333472 0.156559 0.454279
O O4 0.298190 0.284730 0.310633
O O5 0.780049 0.399412 0.721929
O O6 0.500000 0.903232 0.750000
O O7 0.568195 0.027879 0.665460
O O8 0.000000 0.000000 0.500000
O O9 0.000000 0.109265 0.750000
O O10 0.500000 0.000000 0.000000
O O11 0.500000 0.670712 0.750000
O O12 0.146404 0.553046 0.683344
O O13 0.793418 0.590517 0.986280
O O14 0.500000 0.567090 0.250000
#
# Coordination Sequence:
#
# PCOD9231339 Si02
#       6
#     4   2   4   4   4   4
#     4  10  21  38  61  89 128 160 208 261 309 377
#     4  10  22  40  64  92 130 166 212 260 310 378
#     4  11  23  40  66  91 123 166 209 263 325 380
#     4  10  20  39  64  84 123 162 203 254 318 377
#     4  10  20  39  66  90 127 163 209 261 306 380
#     4  10  21  39  66  90 124 168 211 253 321 367
#
# _framework density 22.958670999999999
#
# number of rings (size 3 to 8) (size 9 to 14) (size 15 to 20)
#    0.000    1.818    0.909    4.909    0.000    2.909 
#    6.545    0.000   44.000    0.000    0.000    0.000 
#    0.000    0.000    0.000    0.000    0.000    0.000 
#
# Total GULP energy -122469.161296 kJ/mol
# GULP energy per Si atom -5566.780059 kJ/mol
# Density = 2.290642 g / cm^3
# Si number density = 22.958671 Si / 1000 Ang^3
#
#
#
# Elastic Constant Matrix: (Units=GPa)
#
#
# Indices 1 2 3 4 5 6 
#
# 1 107.0069 66.0161 36.1990 0.0000 -29.7001 0.0000
# 2 66.0161 139.8840 31.0755 0.0000 -18.8053 0.0000
# 3 36.1990 31.0755 83.7260 0.0000 -27.2025 0.0000
# 4 0.0000 0.0000 0.0000 43.0512 0.0000 -23.4320
# 5 -29.7001 -18.8053 -27.2025 0.0000 42.7906 0.0000
# 6 0.0000 0.0000 0.0000 -23.4320 0.0000 46.4097
#
#
#
# Elastic Compliance Matrix: (Units=1/GPa)
#
#
# Indices 1 2 3 4 5 6 
#
# 1 0.015717 -0.005979 -0.002376 0.000000 0.006771 0.000000
# 2 -0.005979 0.010204 -0.001378 0.000000 -0.000542 0.000000
# 3 -0.002376 -0.001378 0.016069 0.000000 0.007960 0.000000
# 4 0.000000 0.000000 0.000000 0.032030 0.000000 0.016172
# 5 0.006771 -0.000542 0.007960 0.000000 0.032891 0.000000
# 6 0.000000 0.000000 0.000000 0.016172 0.000000 0.029712
#
#
# Mechanical properties :
#
#
# Convention : Reuss Voigt Hill
#
# Bulk Modulus (GPa) = 44.40031 66.35533 55.37782
# Shear Modulus (GPa) = 30.56262 39.60538 35.08400
#
# Velocity S-wave (km/s) = 3.65252 4.15791 3.91338
# Velocity P-wave (km/s) = 6.09665 7.21219 6.67776
#
# Compressibility (1/GPa) = 0.02252237
#
# Stress axis : x y z
#
# Youngs Moduli (GPa) = 63.62498 98.00123 62.23209
#
# Poissons Ratio (x) = 0.58598 0.14788
# Poissons Ratio (y) = 0.38044 0.08577
# Poissons Ratio (z) = 0.15119 0.13506
#
# Static dielectric constant tensor:
#      x y z
#    x 1.905260 0.000000 -0.011670 
#    y 0.000000 1.944910 0.000000 
#    z -0.011670 0.000000 2.035200 
# 
# From -- ./inp_files/64586.got.cif
#   From: 2010.05.17/outbox.cif.g08.bks.cpg/sg13_33_cif.got.tgz:64586.got - 2010.06.03 16:44:36.
