data_PCOD9231571
_publ_section_title
;
Structure prediction by ZEFSAII (Michael W. Deem and Ramdas Pophale) SiO2 
 PCOD9231571
Probable space group: P 2/C
;
_chemical_formula_sum "Si O2"
_cell_formula_units_Z 24
_cell_length_a 13.185947
_cell_length_b 5.298493
_cell_length_c 17.081488
_cell_angle_alpha 90.000000
_cell_angle_beta 60.139572
_cell_angle_gamma 90.000000
_cell_volume 1034.973206
_symmetry_space_group_name_H-M "P 2/C"
_symmetry_group_IT_number 13
_symmetry_cell_setting 'monoclinic'
loop_
_space_group_symop_operation_xyz
x,y,z
-x,y,1/2-z
-x,-y,-z
x,-y,1/2+z
loop_
_atom_site_type_symbol
_atom_site_label
_atom_site_fract_x
_atom_site_fract_y
_atom_site_fract_z
Si Si1 0.412628 0.008645 0.838211
Si Si2 0.837184 0.454229 0.475774
Si Si3 0.789619 0.712779 0.168268
Si Si4 0.408531 0.385138 0.649305
Si Si5 0.385426 0.687919 0.991952
Si Si6 0.022272 0.039164 0.584491
O O1 0.500000 0.842819 0.750000
O O2 0.303350 0.088076 0.829151
O O3 0.497868 0.234169 0.833976
O O4 0.359445 0.888158 0.935374
O O5 0.829237 0.433529 0.574190
O O6 0.707602 0.464825 0.488870
O O7 0.895059 0.721380 0.434290
O O8 0.915878 0.221575 0.415182
O O9 0.709150 0.553726 0.258533
O O10 0.896976 0.865279 0.164194
O O11 0.482212 0.609673 0.581892
O O12 0.376637 0.224169 0.584194
O O13 0.000000 0.000000 0.500000
#
# Coordination Sequence:
#
# PCOD9231571 Si02
#       6
#     4   4   4   4   4   4
#     4  10  21  36  61  92 123 166 213 264 323 389
#     4  11  22  38  68  90 126 166 214 265 318 378
#     4  10  20  40  64  89 127 158 222 264 324 383
#     4  10  23  40  57  93 128 169 207 268 329 393
#     4  11  22  38  62  88 133 166 214 259 337 389
#     4  10  21  39  63  96 121 163 214 271 317 369
#
# _framework density 23.189008999999999
#
# number of rings (size 3 to 8) (size 9 to 14) (size 15 to 20)
#    0.000    1.667    1.667    4.500    2.333    0.000 
#    3.000    0.833    0.000    8.000    0.000    0.000 
#    0.000    0.000    0.000    0.000    0.000    0.000 
#
# Total GULP energy -133962.522184 kJ/mol
# GULP energy per Si atom -5581.771758 kJ/mol
# Density = 2.313623 g / cm^3
# Si number density = 23.189009 Si / 1000 Ang^3
#
#
#
# Elastic Constant Matrix: (Units=GPa)
#
#
# Indices 1 2 3 4 5 6 
#
# 1 63.4566 26.6653 38.5067 0.0000 -8.2520 0.0000
# 2 26.6653 80.8166 16.6152 0.0000 -16.2180 0.0000
# 3 38.5067 16.6152 89.7203 0.0000 -9.5233 0.0000
# 4 0.0000 0.0000 0.0000 15.0493 0.0000 -14.1644
# 5 -8.2520 -16.2180 -9.5233 0.0000 28.7720 0.0000
# 6 0.0000 0.0000 0.0000 -14.1644 0.0000 -53.3306
#
#
#
# Elastic Compliance Matrix: (Units=1/GPa)
#
#
# Indices 1 2 3 4 5 6 
#
# 1 0.023804 -0.005887 -0.009072 0.000000 0.000506 0.000000
# 2 -0.005887 0.015698 0.000393 0.000000 0.007290 0.000000
# 3 -0.009072 0.000393 0.015250 0.000000 0.002667 0.000000
# 4 0.000000 0.000000 0.000000 0.053160 0.000000 -0.014119
# 5 0.000506 0.007290 0.002667 0.000000 0.039893 0.000000
# 6 0.000000 0.000000 0.000000 -0.014119 0.000000 -0.015001
#
#
# Mechanical properties :
#
#
# Convention : Reuss Voigt Hill
#
# Bulk Modulus (GPa) = 39.03288 44.17421 41.60354
# Shear Modulus (GPa) = 29.32967 8.24523 18.78745
#
# Velocity S-wave (km/s) = 3.56027 1.88769 2.84947
# Velocity P-wave (km/s) = 5.81118 4.88284 5.36712
#
# Compressibility (1/GPa) = 0.02561942
#
# Stress axis : x y z
#
# Youngs Moduli (GPa) = 42.01015 63.70099 65.57504
#
# Poissons Ratio (x) = 0.37503 0.59492
# Poissons Ratio (y) = 0.24733 -0.02580
# Poissons Ratio (z) = 0.38113 -0.02506
#
# Static dielectric constant tensor:
#      x y z
#    x 1.936800 0.000000 0.009310 
#    y 0.000000 1.992180 0.000000 
#    z 0.009310 0.000000 1.975540 
# 
# From -- ./inp_files/78978.got.cif
#   From: 2010.05.17/outbox.cif.g08.bks.cpg/sg13_40_cif.got.tgz:78978.got - 2010.06.03 16:44:36.
