data_PCOD9231200
_publ_section_title
;
Structure prediction by ZEFSAII (Michael W. Deem and Ramdas Pophale) SiO2 
 PCOD9231200
Probable space group: P 2/C
;
_chemical_formula_sum "Si O2"
_cell_formula_units_Z 28
_cell_length_a 9.180004
_cell_length_b 13.189647
_cell_length_c 11.378026
_cell_angle_alpha 90.000000
_cell_angle_beta 78.173361
_cell_angle_gamma 90.000000
_cell_volume 1348.418159
_symmetry_space_group_name_H-M "P 2/C"
_symmetry_group_IT_number 13
_symmetry_cell_setting 'monoclinic'
loop_
_space_group_symop_operation_xyz
x,y,z
-x,y,1/2-z
-x,-y,-z
x,-y,1/2+z
loop_
_atom_site_type_symbol
_atom_site_label
_atom_site_fract_x
_atom_site_fract_y
_atom_site_fract_z
Si Si1 0.162775 0.284798 0.722906
Si Si2 0.255689 0.676397 0.472998
Si Si3 0.165445 0.177342 0.185891
Si Si4 0.672513 0.647479 0.693568
Si Si5 0.458897 0.937274 0.624152
Si Si6 0.844515 0.485582 0.329402
Si Si7 0.587421 0.738289 0.487505
O O1 0.141232 0.394581 0.665151
O O2 0.297059 0.230044 0.632502
O O3 0.000000 0.233878 0.750000
O O4 0.213645 0.310351 0.845881
O O5 0.173154 0.764578 0.560473
O O6 0.200999 0.573235 0.544906
O O7 0.432837 0.692755 0.464025
O O8 0.232028 0.261656 0.264806
O O9 0.283483 0.086946 0.158745
O O10 0.000000 0.149184 0.250000
O O11 0.500000 0.660097 0.750000
O O12 0.725676 0.546424 0.749547
O O13 0.672336 0.657041 0.554667
O O14 0.500000 0.973402 0.750000
O O15 0.541896 0.830849 0.580532
O O16 0.500000 0.000000 0.500000
O O17 0.000000 0.445612 0.250000
#
# Coordination Sequence:
#
# PCOD9231200 Si02
#       7
#     4   4   4   4   4   4   4
#     4  11  27  37  54  86 126 171 209 264 319 360
#     4  10  21  39  56  85 118 157 215 256 312 362
#     4  10  20  38  68  94 120 157 202 255 304 376
#     4  11  17  36  65  90 113 155 218 247 301 362
#     4  11  23  44  71  99 127 164 206 256 319 391
#     4  10  23  37  55  86 122 166 210 267 310 359
#     4  11  22  41  63  86 121 162 208 255 312 380
#
# _framework density 20.765072
#
# number of rings (size 3 to 8) (size 9 to 14) (size 15 to 20)
#    0.000    1.429    5.714    2.143    6.000    5.143 
#    0.000    1.429    0.000    0.000    0.000    0.000 
#    0.000    0.000    0.000    0.000    0.000    0.000 
#
# Total GULP energy -156229.754552 kJ/mol
# GULP energy per Si atom -5579.634091 kJ/mol
# Density = 2.071781 g / cm^3
# Si number density = 20.765072 Si / 1000 Ang^3
#
#
#
# Elastic Constant Matrix: (Units=GPa)
#
#
# Indices 1 2 3 4 5 6 
#
# 1 88.5881 11.2978 62.5406 0.0000 -34.5354 0.0000
# 2 11.2978 15.5391 -1.4457 0.0000 -15.3197 0.0000
# 3 62.5406 -1.4457 141.3325 0.0000 -18.5295 0.0000
# 4 0.0000 0.0000 0.0000 42.4123 0.0000 -24.8237
# 5 -34.5354 -15.3197 -18.5295 0.0000 36.3873 0.0000
# 6 0.0000 0.0000 0.0000 -24.8237 0.0000 38.6490
#
#
#
# Elastic Compliance Matrix: (Units=1/GPa)
#
#
# Indices 1 2 3 4 5 6 
#
# 1 0.024699 0.000265 -0.008399 0.000000 0.019276 0.000000
# 2 0.000265 0.118473 0.008215 0.000000 0.054314 0.000000
# 3 -0.008399 0.008215 0.011020 0.000000 0.001099 0.000000
# 4 0.000000 0.000000 0.000000 0.037781 0.000000 0.024266
# 5 0.019276 0.054314 0.001099 0.000000 0.069204 0.000000
# 6 0.000000 0.000000 0.000000 0.024266 0.000000 0.041460
#
#
# Mechanical properties :
#
#
# Convention : Reuss Voigt Hill
#
# Bulk Modulus (GPa) = 6.47861 43.36056 24.91959
# Shear Modulus (GPa) = 14.12726 35.02751 24.57738
#
# Velocity S-wave (km/s) = 2.61116 4.11158 3.44407
# Velocity P-wave (km/s) = 3.49537 6.59295 5.27658
#
# Compressibility (1/GPa) = 0.15435406
#
# Stress axis : x y z
#
# Youngs Moduli (GPa) = 40.48772 8.44077 90.74053
#
# Poissons Ratio (x) = -0.00224 0.76217
# Poissons Ratio (y) = -0.01074 -0.74547
# Poissons Ratio (z) = 0.34008 -0.06934
#
# Static dielectric constant tensor:
#      x y z
#    x 1.754710 0.000000 0.004570 
#    y 0.000000 1.783100 0.000000 
#    z 0.004570 0.000000 1.896060 
# 
# From -- ./inp_files/30070.got.cif
#   From: 2010.05.17/outbox.cif.g08.bks.cpg/sg13_16_cif.got.tgz:30070.got - 2010.06.03 16:44:36.
