data_PCOD9231278
_publ_section_title
;
Structure prediction by ZEFSAII (Michael W. Deem and Ramdas Pophale) SiO2 
 PCOD9231278
Probable space group: P 2/C
;
_chemical_formula_sum "Si O2"
_cell_formula_units_Z 32
_cell_length_a 8.589567
_cell_length_b 12.860108
_cell_length_c 24.161573
_cell_angle_alpha 90.000000
_cell_angle_beta 147.913913
_cell_angle_gamma 90.000000
_cell_volume 1417.729318
_symmetry_space_group_name_H-M "P 2/C"
_symmetry_group_IT_number 13
_symmetry_cell_setting 'monoclinic'
loop_
_space_group_symop_operation_xyz
x,y,z
-x,y,1/2-z
-x,-y,-z
x,-y,1/2+z
loop_
_atom_site_type_symbol
_atom_site_label
_atom_site_fract_x
_atom_site_fract_y
_atom_site_fract_z
Si Si1 0.801179 0.675223 0.460711
Si Si2 0.843309 0.455996 0.352095
Si Si3 0.386000 0.063975 0.114766
Si Si4 0.185643 0.894369 0.985249
Si Si5 0.220501 0.251619 0.986987
Si Si6 0.175180 0.345520 0.354296
Si Si7 0.727509 0.311401 0.775973
Si Si8 0.989282 0.895530 0.683665
O O1 0.793242 0.770480 0.501914
O O2 0.469657 0.664425 0.337276
O O3 0.973924 0.578305 0.538987
O O4 0.007450 0.711937 0.472319
O O5 0.500000 0.417000 0.250000
O O6 0.812114 0.577187 0.328246
O O7 0.050345 0.407720 0.367780
O O8 0.676390 0.093421 0.234137
O O9 0.118223 0.072297 0.076563
O O10 0.344126 0.144574 0.050451
O O11 0.410588 0.951498 0.093767
O O12 0.199229 0.930830 0.925858
O O13 0.024996 0.245273 0.872120
O O14 0.480887 0.333359 0.054215
O O15 0.000000 0.391472 0.250000
O O16 0.077257 0.226126 0.331027
O O17 0.500000 0.258016 0.750000
O O18 0.000000 0.938439 0.750000
#
# Coordination Sequence:
#
# PCOD9231278 Si02
#       8
#     4   4   4   4   4   4   4   4
#     4  10  21  40  64  89 123 163 213 261 313 377
#     4  11  23  37  63  92 118 162 213 264 310 375
#     4  10  21  38  61  93 122 161 210 266 312 374
#     4  10  22  37  63  91 120 162 213 260 314 375
#     4  10  20  39  61  86 129 162 200 262 319 374
#     4  11  21  36  60  91 122 157 202 259 316 368
#     4   9  22  40  60  90 123 167 211 255 322 383
#     4  11  21  37  58  88 125 159 205 255 309 380
#
# _framework density 22.571303
#
# number of rings (size 3 to 8) (size 9 to 14) (size 15 to 20)
#    0.000    1.750    3.750    1.125    1.750    7.500 
#    0.000    4.375    0.000    0.000    0.000    0.000 
#    0.000    0.000    0.000    0.000    0.000    0.000 
#
# Total GULP energy -178284.140708 kJ/mol
# GULP energy per Si atom -5571.379397 kJ/mol
# Density = 2.251993 g / cm^3
# Si number density = 22.571303 Si / 1000 Ang^3
#
#
#
# Elastic Constant Matrix: (Units=GPa)
#
#
# Indices 1 2 3 4 5 6 
#
# 1 59.3252 12.6396 13.8131 0.0000 -13.3553 0.0000
# 2 12.6396 37.8582 10.1726 0.0000 -8.6342 0.0000
# 3 13.8131 10.1726 114.7550 0.0000 -16.4154 0.0000
# 4 0.0000 0.0000 0.0000 9.8596 0.0000 12.7040
# 5 -13.3553 -8.6342 -16.4154 0.0000 38.7861 0.0000
# 6 0.0000 0.0000 0.0000 12.7040 0.0000 5.5907
#
#
#
# Elastic Compliance Matrix: (Units=1/GPa)
#
#
# Indices 1 2 3 4 5 6 
#
# 1 0.019327 -0.004988 -0.001161 0.000000 0.005053 0.000000
# 2 -0.004988 0.029423 -0.001401 0.000000 0.004239 0.000000
# 3 -0.001161 -0.001401 0.009448 0.000000 0.003287 0.000000
# 4 0.000000 0.000000 0.000000 -0.052609 0.000000 0.119546
# 5 0.005053 0.004239 0.003287 0.000000 0.029857 0.000000
# 6 0.000000 0.000000 0.000000 0.119546 0.000000 -0.092780
#
#
# Mechanical properties :
#
#
# Convention : Reuss Voigt Hill
#
# Bulk Modulus (GPa) = 23.20371 31.68766 27.44569
# Shear Modulus (GPa) = -179.42736 22.53483 -78.44626
#
# Velocity S-wave (km/s) = -8.92559 3.16315 -5.90172
# Velocity P-wave (km/s) = 9.79383 5.23546 5.85273
#
# Compressibility (1/GPa) = 0.04309656
#
# Stress axis : x y z
#
# Youngs Moduli (GPa) = 51.74121 33.98689 105.83762
#
# Poissons Ratio (x) = 0.16953 0.12292
# Poissons Ratio (y) = 0.25809 0.14832
# Poissons Ratio (z) = 0.06009 0.04763
#
# Static dielectric constant tensor:
#      x y z
#    x 1.887760 0.000000 -0.027620 
#    y 0.000000 1.844690 0.000000 
#    z -0.027620 0.000000 1.950330 
# 
# From -- ./inp_files/85353.got.cif
#   From: 2010.05.17/outbox.cif.g08.bks.cpg/sg13_43_cif.got.tgz:85353.got - 2010.06.03 16:44:36.
