data_PCOD9231093
_publ_section_title
;
Structure prediction by ZEFSAII (Michael W. Deem and Ramdas Pophale) SiO2 
 PCOD9231093
Probable space group: P 2/C
;
_chemical_formula_sum "Si O2"
_cell_formula_units_Z 26
_cell_length_a 5.160955
_cell_length_b 13.494281
_cell_length_c 21.029347
_cell_angle_alpha 90.000000
_cell_angle_beta 64.212543
_cell_angle_gamma 90.000000
_cell_volume 1318.705635
_symmetry_space_group_name_H-M "P 2/C"
_symmetry_group_IT_number 13
_symmetry_cell_setting 'monoclinic'
loop_
_space_group_symop_operation_xyz
x,y,z
-x,y,1/2-z
-x,-y,-z
x,-y,1/2+z
loop_
_atom_site_type_symbol
_atom_site_label
_atom_site_fract_x
_atom_site_fract_y
_atom_site_fract_z
Si Si1 0.663241 0.082569 0.299681
Si Si2 0.514717 0.277449 0.119086
Si Si3 0.334743 0.855069 0.200746
Si Si4 0.022606 0.458297 0.851473
Si Si5 0.529819 0.340907 0.619858
Si Si6 0.860938 0.633836 0.953733
Si Si7 0.500000 0.398583 0.250000
O O1 0.500000 0.091932 0.250000
O O2 0.532983 0.161941 0.361985
O O3 0.000000 0.102975 0.250000
O O4 0.633069 0.968771 0.325005
O O5 0.298428 0.314898 0.088502
O O6 0.454955 0.332420 0.192412
O O7 0.836464 0.311135 0.066662
O O8 0.500000 0.845508 0.250000
O O9 0.445395 0.772245 0.140791
O O10 0.000000 0.837555 0.250000
O O11 0.235291 0.373312 0.853512
O O12 0.220174 0.534199 0.791508
O O13 0.750480 0.411148 0.845626
O O14 0.919520 0.521713 0.924010
O O15 0.664900 0.359197 0.536451
#
# Coordination Sequence:
#
# PCOD9231093 Si02
#       7
#     4   4   4   4   4   4   2
#     4  10  20  38  64  90 120 153 191 247 314 357
#     4  11  22  39  64  90 125 148 199 248 310 345
#     4  10  23  41  62  91 117 154 204 250 298 355
#     4  11  24  38  62  84 124 160 207 243 299 346
#     4  12  24  42  62  82 126 166 204 240 295 350
#     4  11  24  41  58  90 122 168 198 241 291 373
#     4  10  24  38  58  98 116 150 200 264 292 346
#
# _framework density 19.716301999999999
#
# number of rings (size 3 to 8) (size 9 to 14) (size 15 to 20)
#    0.000    1.231    0.769    5.538    5.385    2.462 
#    0.000    1.538    0.000    0.000    0.000    0.000 
#    0.000    0.000    0.000    0.000    0.000    0.000 
#
# Total GULP energy -145513.709897 kJ/mol
# GULP energy per Si atom -5596.681150 kJ/mol
# Density = 1.967143 g / cm^3
# Si number density = 19.716302 Si / 1000 Ang^3
#
#
#
# Elastic Constant Matrix: (Units=GPa)
#
#
# Indices 1 2 3 4 5 6 
#
# 1 91.1639 22.3647 -1.7663 0.0000 -8.6155 0.0000
# 2 22.3647 98.5218 15.8334 0.0000 -15.9422 0.0000
# 3 -1.7663 15.8334 45.5067 0.0000 -11.2326 0.0000
# 4 0.0000 0.0000 0.0000 16.1762 0.0000 -4.6746
# 5 -8.6155 -15.9422 -11.2326 0.0000 18.8262 0.0000
# 6 0.0000 0.0000 0.0000 -4.6746 0.0000 -22.9989
#
#
#
# Elastic Compliance Matrix: (Units=1/GPa)
#
#
# Indices 1 2 3 4 5 6 
#
# 1 0.012067 -0.002327 0.002527 0.000000 0.005060 0.000000
# 2 -0.002327 0.012354 -0.002427 0.000000 0.007949 0.000000
# 3 0.002527 -0.002427 0.026615 0.000000 0.014981 0.000000
# 4 0.000000 0.000000 0.000000 0.058389 0.000000 -0.011868
# 5 0.005060 0.007949 0.014981 0.000000 0.071103 0.000000
# 6 0.000000 0.000000 0.000000 -0.011868 0.000000 -0.041068
#
#
# Mechanical properties :
#
#
# Convention : Reuss Voigt Hill
#
# Bulk Modulus (GPa) = 21.46675 34.22844 27.84759
# Shear Modulus (GPa) = 31.35934 15.65141 23.50538
#
# Velocity S-wave (km/s) = 3.99247 2.82056 3.45654
# Velocity P-wave (km/s) = 5.67138 5.29203 5.48498
#
# Compressibility (1/GPa) = 0.04658368
#
# Stress axis : x y z
#
# Youngs Moduli (GPa) = 82.86959 80.94230 37.57264
#
# Poissons Ratio (x) = 0.18832 -0.09494
# Poissons Ratio (y) = 0.19281 0.09118
# Poissons Ratio (z) = -0.20939 0.19642
#
# Static dielectric constant tensor:
#      x y z
#    x 1.697500 0.000000 -0.005210 
#    y 0.000000 1.690540 0.000000 
#    z -0.005210 0.000000 1.667940 
# 
# From -- ./inp_files/73391.got.cif
#   From: 2010.05.17/outbox.cif.g08.bks.cpg/sg13_37_cif.got.tgz:73391.got - 2010.06.03 16:44:36.
