data_PCOD9231712
_publ_section_title
;
Structure prediction by ZEFSAII (Michael W. Deem and Ramdas Pophale) SiO2 
 PCOD9231712
Probable space group: P 2/C
;
_chemical_formula_sum "Si O2"
_cell_formula_units_Z 22
_cell_length_a 15.775572
_cell_length_b 5.491655
_cell_length_c 12.425191
_cell_angle_alpha 90.000000
_cell_angle_beta 55.180381
_cell_angle_gamma 90.000000
_cell_volume 883.710713
_symmetry_space_group_name_H-M "P 2/C"
_symmetry_group_IT_number 13
_symmetry_cell_setting 'monoclinic'
loop_
_space_group_symop_operation_xyz
x,y,z
-x,y,1/2-z
-x,-y,-z
x,-y,1/2+z
loop_
_atom_site_type_symbol
_atom_site_label
_atom_site_fract_x
_atom_site_fract_y
_atom_site_fract_z
Si Si1 0.493452 0.748628 0.434548
Si Si2 0.000000 0.233789 0.750000
Si Si3 0.851468 0.151985 0.244515
Si Si4 0.285784 0.792237 0.247435
Si Si5 0.285623 0.475957 0.029802
Si Si6 0.142610 0.556927 0.967478
O O1 0.500000 0.500000 0.500000
O O2 0.599694 0.764708 0.290137
O O3 0.386344 0.693703 0.451597
O O4 0.500000 0.000000 0.500000
O O5 0.055925 0.393145 0.618835
O O6 0.078040 0.059735 0.759353
O O7 0.812667 0.306165 0.373207
O O8 0.744885 0.058119 0.268160
O O9 0.895145 0.301816 0.112148
O O10 0.290101 0.640920 0.132937
O O11 0.189321 0.695689 0.387108
O O12 0.249299 0.635692 0.954020
#
# Coordination Sequence:
#
# PCOD9231712 Si02
#       6
#     4   2   4   4   4   4
#     4  10  20  40  76 107 146 197 241 302 392 470
#     4  12  26  48  72 100 146 212 254 330 406 456
#     4  11  24  46  70 105 143 191 260 320 384 472
#     4  10  22  43  70 104 144 188 243 318 375 467
#     4  10  22  44  70 102 147 190 238 315 395 461
#     4  11  26  44  70 105 146 189 258 318 389 468
#
# _framework density 24.895023999999999
#
# number of rings (size 3 to 8) (size 9 to 14) (size 15 to 20)
#    0.000    1.455    3.636    0.545    2.545    2.182 
#    0.000    0.000    4.000    0.000    0.000    0.000 
#    0.000    0.000    0.000    0.000    0.000    0.000 
#
# Total GULP energy -122632.256965 kJ/mol
# GULP energy per Si atom -5574.193498 kJ/mol
# Density = 2.483836 g / cm^3
# Si number density = 24.895024 Si / 1000 Ang^3
#
#
#
# Elastic Constant Matrix: (Units=GPa)
#
#
# Indices 1 2 3 4 5 6 
#
# 1 141.2081 37.9185 80.3000 0.0000 -0.2595 0.0000
# 2 37.9185 87.1843 58.2188 0.0000 -0.0966 0.0000
# 3 80.3000 58.2188 103.7050 0.0000 7.9676 0.0000
# 4 0.0000 0.0000 0.0000 -16.5915 0.0000 -4.8340
# 5 -0.2595 -0.0966 7.9676 0.0000 42.6695 0.0000
# 6 0.0000 0.0000 0.0000 -4.8340 0.0000 59.6880
#
#
#
# Elastic Compliance Matrix: (Units=1/GPa)
#
#
# Indices 1 2 3 4 5 6 
#
# 1 0.013003 0.001892 -0.011299 0.000000 0.002193 0.000000
# 2 0.001892 0.018792 -0.012194 0.000000 0.002331 0.000000
# 3 -0.011299 -0.012194 0.025613 0.000000 -0.004879 0.000000
# 4 0.000000 0.000000 0.000000 -0.058883 0.000000 -0.004769
# 5 0.002193 0.002331 -0.004879 0.000000 0.024366 0.000000
# 6 0.000000 0.000000 0.000000 -0.004769 0.000000 0.016368
#
#
# Mechanical properties :
#
#
# Convention : Reuss Voigt Hill
#
# Bulk Modulus (GPa) = 70.39451 76.10800 73.25125
# Shear Modulus (GPa) = 57.34181 27.53054 42.43617
#
# Velocity S-wave (km/s) = 4.80452 3.32906 4.13316
# Velocity P-wave (km/s) = 7.68868 6.73905 7.22948
#
# Compressibility (1/GPa) = 0.01420565
#
# Stress axis : x y z
#
# Youngs Moduli (GPa) = 76.90430 53.21301 39.04338
#
# Poissons Ratio (x) = -0.10070 0.44117
# Poissons Ratio (y) = -0.14553 0.47610
# Poissons Ratio (z) = 0.86897 0.64889
#
# Static dielectric constant tensor:
#      x y z
#    x 2.164410 0.000000 0.039190 
#    y 0.000000 0.487910 0.000000 
#    z 0.039190 0.000000 2.074510 
# 
# From -- ./inp_files/54239.got.cif
#   From: 2010.05.17/outbox.cif.g08.bks.cpg/sg13_28_cif.got.tgz:54239.got - 2010.06.03 16:44:36.
