data_PCOD9231494
_publ_section_title
;
Structure prediction by ZEFSAII (Michael W. Deem and Ramdas Pophale) SiO2 
 PCOD9231494
Probable space group: P 2/C
;
_chemical_formula_sum "Si O2"
_cell_formula_units_Z 32
_cell_length_a 12.377375
_cell_length_b 11.309127
_cell_length_c 23.711322
_cell_angle_alpha 90.000000
_cell_angle_beta 149.966474
_cell_angle_gamma 90.000000
_cell_volume 1661.205113
_symmetry_space_group_name_H-M "P 2/C"
_symmetry_group_IT_number 13
_symmetry_cell_setting 'monoclinic'
loop_
_space_group_symop_operation_xyz
x,y,z
-x,y,1/2-z
-x,-y,-z
x,-y,1/2+z
loop_
_atom_site_type_symbol
_atom_site_label
_atom_site_fract_x
_atom_site_fract_y
_atom_site_fract_z
Si Si1 0.555053 0.407632 0.834073
Si Si2 0.433680 0.949653 0.155585
Si Si3 0.961758 0.615205 0.167272
Si Si4 0.073917 0.657131 0.718404
Si Si5 0.445249 0.625088 0.589217
Si Si6 0.790865 0.205317 0.799302
Si Si7 0.207054 0.802619 0.563232
Si Si8 0.923195 0.758209 0.535082
O O1 0.500000 0.469753 0.750000
O O2 0.519566 0.494492 0.870019
O O3 0.387067 0.299156 0.759465
O O4 0.793151 0.352104 0.948265
O O5 0.500000 0.921741 0.250000
O O6 0.649040 0.909424 0.219459
O O7 0.356114 0.083901 0.121025
O O8 0.233436 0.870209 0.044535
O O9 0.035014 0.481573 0.185953
O O10 0.088801 0.720543 0.194232
O O11 0.000000 0.628218 0.250000
O O12 0.715116 0.622818 0.036025
O O13 0.328046 0.679294 0.826063
O O14 0.000000 0.676070 0.750000
O O15 0.957905 0.730842 0.616536
O O16 0.321762 0.695050 0.583124
O O17 0.974860 0.176416 0.928059
O O18 0.143018 0.778019 0.599141
#
# Coordination Sequence:
#
# PCOD9231494 Si02
#       8
#     4   4   4   4   4   4   4   4
#     4  11  20  35  59  93 132 169 202 247 341 404
#     4  11  23  39  64  94 121 172 218 255 320 391
#     4  10  22  41  66  90 126 175 218 263 316 389
#     4  11  25  41  62  94 132 170 215 268 318 383
#     4  11  25  38  61  98 130 164 214 269 323 389
#     4  10  20  40  60  89 130 163 211 266 322 381
#     4  11  24  38  61  96 130 165 215 265 322 386
#     4  11  22  40  62  92 129 171 204 267 321 385
#
# _framework density 19.263124999999999
#
# number of rings (size 3 to 8) (size 9 to 14) (size 15 to 20)
#    0.000    1.250    5.000    1.125    3.500    4.500 
#    0.000    0.000    0.000   10.500    0.000    0.000 
#    0.000    0.000    0.000    0.000    0.000    0.000 
#
# Total GULP energy -178599.200751 kJ/mol
# GULP energy per Si atom -5581.225023 kJ/mol
# Density = 1.921928 g / cm^3
# Si number density = 19.263125 Si / 1000 Ang^3
#
#
#
# Elastic Constant Matrix: (Units=GPa)
#
#
# Indices 1 2 3 4 5 6 
#
# 1 37.0156 15.4623 37.0102 0.0000 1.9394 0.0000
# 2 15.4623 62.8764 35.5637 0.0000 -7.1011 0.0000
# 3 37.0102 35.5637 115.6477 0.0000 -4.3235 0.0000
# 4 0.0000 0.0000 0.0000 25.5169 0.0000 5.7390
# 5 1.9394 -7.1011 -4.3235 0.0000 33.9479 0.0000
# 6 0.0000 0.0000 0.0000 5.7390 0.0000 21.0078
#
#
#
# Elastic Compliance Matrix: (Units=1/GPa)
#
#
# Indices 1 2 3 4 5 6 
#
# 1 0.040949 -0.003736 -0.012130 0.000000 -0.004666 0.000000
# 2 -0.003736 0.019966 -0.004803 0.000000 0.003778 0.000000
# 3 -0.012130 -0.004803 0.014061 0.000000 0.001479 0.000000
# 4 0.000000 0.000000 0.000000 0.041755 0.000000 -0.011407
# 5 -0.004666 0.003778 0.001479 0.000000 0.030702 0.000000
# 6 0.000000 0.000000 0.000000 -0.011407 0.000000 0.050718
#
#
# Mechanical properties :
#
#
# Convention : Reuss Voigt Hill
#
# Bulk Modulus (GPa) = 29.72824 43.51247 36.62036
# Shear Modulus (GPa) = 19.94388 24.59477 22.26932
#
# Velocity S-wave (km/s) = 3.22116 3.57708 3.40378
# Velocity P-wave (km/s) = 5.41301 6.30065 5.87362
#
# Compressibility (1/GPa) = 0.03363804
#
# Stress axis : x y z
#
# Youngs Moduli (GPa) = 24.42045 50.08418 71.11704
#
# Poissons Ratio (x) = 0.18711 0.86268
# Poissons Ratio (y) = 0.09123 0.34159
# Poissons Ratio (z) = 0.29623 0.24056
#
# Static dielectric constant tensor:
#      x y z
#    x 1.690780 0.000000 0.012930 
#    y 0.000000 1.680280 0.000000 
#    z 0.012930 0.000000 1.679900 
# 
# From -- ./inp_files/78660.got.cif
#   From: 2010.05.17/outbox.cif.g08.bks.cpg/sg13_40_cif.got.tgz:78660.got - 2010.06.03 16:44:36.
