data_PCOD9231677
_publ_section_title
;
Structure prediction by ZEFSAII (Michael W. Deem and Ramdas Pophale) SiO2 
 PCOD9231677
Probable space group: P 2/C
;
_chemical_formula_sum "Si O2"
_cell_formula_units_Z 20
_cell_length_a 9.821660
_cell_length_b 11.706017
_cell_length_c 11.221428
_cell_angle_alpha 90.000000
_cell_angle_beta 136.424541
_cell_angle_gamma 90.000000
_cell_volume 889.316424
_symmetry_space_group_name_H-M "P 2/C"
_symmetry_group_IT_number 13
_symmetry_cell_setting 'monoclinic'
loop_
_space_group_symop_operation_xyz
x,y,z
-x,y,1/2-z
-x,-y,-z
x,-y,1/2+z
loop_
_atom_site_type_symbol
_atom_site_label
_atom_site_fract_x
_atom_site_fract_y
_atom_site_fract_z
Si Si1 0.060869 0.130913 0.523346
Si Si2 0.274279 0.745119 0.564117
Si Si3 0.373665 0.508114 0.544706
Si Si4 0.391707 0.120786 0.932169
Si Si5 0.667423 0.740977 0.462241
O O1 0.232943 0.138795 0.729659
O O2 0.165997 0.169059 0.468532
O O3 0.889365 0.222329 0.443570
O O4 0.000000 0.000000 0.500000
O O5 0.500000 0.742944 0.750000
O O6 0.249227 0.625329 0.477729
O O7 0.275183 0.853557 0.477645
O O8 0.500000 0.507634 0.750000
O O9 0.500000 0.500000 0.500000
O O10 0.258894 0.388113 0.477350
O O11 0.557842 0.215975 0.011036
O O12 0.500000 0.000000 0.000000
O O13 0.500000 0.740355 0.250000
#
# Coordination Sequence:
#
# PCOD9231677 Si02
#       5
#     4   4   4   4   4
#     4  11  23  40  62  95 131 169 222 273 332 407
#     4  11  23  39  63  91 131 170 219 273 334 398
#     4  10  20  40  69  96 128 173 226 278 337 403
#     4  11  21  38  65  90 124 172 214 273 339 397
#     4   9  20  38  62  88 123 164 215 271 334 391
#
# _framework density 22.489183000000001
#
# number of rings (size 3 to 8) (size 9 to 14) (size 15 to 20)
#    0.000    1.600    2.000    3.000    0.000    2.400 
#    0.000    3.000    0.000    0.000    0.000    0.000 
#    0.000    0.000    0.000    0.000    0.000    0.000 
#
# Total GULP energy -111523.459506 kJ/mol
# GULP energy per Si atom -5576.172975 kJ/mol
# Density = 2.243800 g / cm^3
# Si number density = 22.489183 Si / 1000 Ang^3
#
#
#
# Elastic Constant Matrix: (Units=GPa)
#
#
# Indices 1 2 3 4 5 6 
#
# 1 97.2687 23.6996 11.8125 0.0000 6.7567 0.0000
# 2 23.6996 143.7289 2.1225 0.0000 22.5366 0.0000
# 3 11.8125 2.1225 59.3279 0.0000 3.6250 0.0000
# 4 0.0000 0.0000 0.0000 15.4798 0.0000 -0.1074
# 5 6.7567 22.5366 3.6250 0.0000 29.2362 0.0000
# 6 0.0000 0.0000 0.0000 -0.1074 0.0000 33.8803
#
#
#
# Elastic Compliance Matrix: (Units=1/GPa)
#
#
# Indices 1 2 3 4 5 6 
#
# 1 0.010999 -0.001621 -0.002069 0.000000 -0.001036 0.000000
# 2 -0.001621 0.008153 0.000395 0.000000 -0.005959 0.000000
# 3 -0.002069 0.000395 0.017374 0.000000 -0.001981 0.000000
# 4 0.000000 0.000000 0.000000 0.064602 0.000000 0.000205
# 5 -0.001036 -0.005959 -0.001981 0.000000 0.039283 0.000000
# 6 0.000000 0.000000 0.000000 0.000205 0.000000 0.029516
#
#
# Mechanical properties :
#
#
# Convention : Reuss Voigt Hill
#
# Bulk Modulus (GPa) = 33.40214 41.73276 37.56745
# Shear Modulus (GPa) = 26.81036 33.23199 30.02118
#
# Velocity S-wave (km/s) = 3.45649 3.84824 3.65761
# Velocity P-wave (km/s) = 5.55109 6.19212 5.88035
#
# Compressibility (1/GPa) = 0.02993820
#
# Stress axis : x y z
#
# Youngs Moduli (GPa) = 90.91857 122.64876 57.55646
#
# Poissons Ratio (x) = 0.19876 0.11906
# Poissons Ratio (y) = 0.14734 -0.02274
# Poissons Ratio (z) = 0.18808 -0.04846
#
# Static dielectric constant tensor:
#      x y z
#    x 1.825920 0.000000 -0.030370 
#    y 0.000000 1.860050 0.000000 
#    z -0.030370 0.000000 1.861410 
# 
# From -- ./inp_files/29243.got.cif
#   From: 2010.05.17/outbox.cif.g08.bks.cpg/sg13_15_cif.got.tgz:29243.got - 2010.06.03 16:44:36.
