data_PCOD9231022
_publ_section_title
;
Structure prediction by ZEFSAII (Michael W. Deem and Ramdas Pophale) SiO2 
 PCOD9231022
Probable space group: P 2/C
;
_chemical_formula_sum "Si O2"
_cell_formula_units_Z 24
_cell_length_a 19.423682
_cell_length_b 9.472403
_cell_length_c 14.974660
_cell_angle_alpha 90.000000
_cell_angle_beta 22.041163
_cell_angle_gamma 90.000000
_cell_volume 1033.940549
_symmetry_space_group_name_H-M "P 2/C"
_symmetry_group_IT_number 13
_symmetry_cell_setting 'monoclinic'
loop_
_space_group_symop_operation_xyz
x,y,z
-x,y,1/2-z
-x,-y,-z
x,-y,1/2+z
loop_
_atom_site_type_symbol
_atom_site_label
_atom_site_fract_x
_atom_site_fract_y
_atom_site_fract_z
Si Si1 0.105296 0.421337 0.538950
Si Si2 0.672810 0.758752 0.391866
Si Si3 0.810651 0.976153 0.778883
Si Si4 0.504592 0.528000 0.349248
Si Si5 0.353312 0.222852 0.150555
Si Si6 0.001377 0.726298 0.641134
O O1 0.298576 0.480888 0.346627
O O2 0.159650 0.298544 0.405689
O O3 0.992105 0.556033 0.637756
O O4 0.000000 0.360436 0.750000
O O5 0.640884 0.598253 0.460174
O O6 0.473298 0.798418 0.593794
O O7 0.737843 0.868025 0.390092
O O8 0.817594 0.764033 0.135190
O O9 0.671267 0.919634 0.872497
O O10 0.848358 0.840969 0.796013
O O11 0.000000 0.000000 0.500000
O O12 0.500000 0.558625 0.250000
O O13 0.451842 0.663274 0.469751
O O14 0.000000 0.738278 0.750000
#
# Coordination Sequence:
#
# PCOD9231022 Si02
#       6
#     4   4   4   4   4   4
#     4  10  21  38  63  94 125 157 206 267 322 363
#     4  10  20  45  62  89 130 165 204 260 313 377
#     4  10  24  39  61  92 126 170 211 250 315 377
#     4  11  23  39  65  96 124 161 214 265 316 372
#     4  11  21  40  66  92 122 167 210 260 317 371
#     4  10  20  38  62  92 128 160 207 262 311 374
#
# _framework density 23.212167000000001
#
# number of rings (size 3 to 8) (size 9 to 14) (size 15 to 20)
#    0.000    1.667    3.333    1.500    4.667    3.333 
#    0.000   12.500    0.000    0.000    0.000    0.000 
#    0.000    0.000    0.000    0.000    0.000    0.000 
#
# Total GULP energy -133947.900763 kJ/mol
# GULP energy per Si atom -5581.162532 kJ/mol
# Density = 2.315934 g / cm^3
# Si number density = 23.212167 Si / 1000 Ang^3
#
#
#
# Elastic Constant Matrix: (Units=GPa)
#
#
# Indices 1 2 3 4 5 6 
#
# 1 49.3595 32.1264 8.3132 0.0000 -3.4177 0.0000
# 2 32.1264 100.7383 24.8191 0.0000 -13.1438 0.0000
# 3 8.3132 24.8191 63.2954 0.0000 8.5424 0.0000
# 4 0.0000 0.0000 0.0000 -0.5731 0.0000 -18.7666
# 5 -3.4177 -13.1438 8.5424 0.0000 27.9584 0.0000
# 6 0.0000 0.0000 0.0000 -18.7666 0.0000 31.4214
#
#
#
# Elastic Compliance Matrix: (Units=1/GPa)
#
#
# Indices 1 2 3 4 5 6 
#
# 1 0.025581 -0.008249 -0.000025 0.000000 -0.000743 0.000000
# 2 -0.008249 0.015027 -0.005868 0.000000 0.007849 0.000000
# 3 -0.000025 -0.005868 0.019271 0.000000 -0.008650 0.000000
# 4 0.000000 0.000000 0.000000 -0.084879 0.000000 -0.050694
# 5 -0.000743 0.007849 -0.008650 0.000000 0.042010 0.000000
# 6 0.000000 0.000000 0.000000 -0.050694 0.000000 0.001548
#
#
# Mechanical properties :
#
#
# Convention : Reuss Voigt Hill
#
# Bulk Modulus (GPa) = 31.65094 38.21230 34.93162
# Shear Modulus (GPa) = 87.14771 21.63698 54.39235
#
# Velocity S-wave (km/s) = 6.13396 3.05641 4.84598
# Velocity P-wave (km/s) = 7.98952 5.38084 6.81123
#
# Compressibility (1/GPa) = 0.03159464
#
# Stress axis : x y z
#
# Youngs Moduli (GPa) = 39.09122 66.54548 51.89226
#
# Poissons Ratio (x) = 0.54893 0.00130
# Poissons Ratio (y) = 0.32246 0.30452
# Poissons Ratio (z) = 0.00098 0.39051
#
# Static dielectric constant tensor:
#      x y z
#    x 1.922280 0.000000 -0.064440 
#    y 0.000000 1.872690 0.000000 
#    z -0.064440 0.000000 1.906540 
# 
# From -- ./inp_files/71077.got.cif
#   From: 2010.05.17/outbox.cif.g08.bks.cpg/sg13_36_cif.got.tgz:71077.got - 2010.06.03 16:44:36.
