data_PCOD9231618
_publ_section_title
;
Structure prediction by ZEFSAII (Michael W. Deem and Ramdas Pophale) SiO2 
 PCOD9231618
Probable space group: P 2/C
;
_chemical_formula_sum "Si O2"
_cell_formula_units_Z 14
_cell_length_a 8.844167
_cell_length_b 8.229621
_cell_length_c 9.202027
_cell_angle_alpha 90.000000
_cell_angle_beta 51.098856
_cell_angle_gamma 90.000000
_cell_volume 521.229013
_symmetry_space_group_name_H-M "P 2/C"
_symmetry_group_IT_number 13
_symmetry_cell_setting 'monoclinic'
loop_
_space_group_symop_operation_xyz
x,y,z
-x,y,1/2-z
-x,-y,-z
x,-y,1/2+z
loop_
_atom_site_type_symbol
_atom_site_label
_atom_site_fract_x
_atom_site_fract_y
_atom_site_fract_z
Si Si1 0.229278 0.397270 0.629159
Si Si2 0.135917 0.158165 0.939362
Si Si3 0.500000 0.008489 0.250000
Si Si4 0.267833 0.705129 0.778243
O O1 0.230899 0.246372 0.741841
O O2 0.319069 0.561239 0.639338
O O3 0.296724 0.353276 0.427496
O O4 0.000000 0.422187 0.750000
O O5 0.322532 0.100548 0.916938
O O6 0.965693 0.273401 0.099771
O O7 0.000000 0.000000 0.000000
O O8 0.611707 0.127076 0.295578
#
# Coordination Sequence:
#
# PCOD9231618 Si02
#       4
#     4   4   2   4
#     4  10  20  40  66  91 123 164 209 255 309 370
#     4   9  19  38  61  89 125 164 205 254 309 363
#     4  10  22  40  60  94 130 162 206 258 310 370
#     4  10  22  41  66  93 124 165 208 255 311 370
#
# _framework density 26.859594000000001
#
# number of rings (size 3 to 8) (size 9 to 14) (size 15 to 20)
#    0.000    2.286    0.000    3.429    0.000    3.429 
#    0.000   51.429    0.000    5.143    0.000    0.000 
#    0.000    0.000    0.000    0.000    0.000    0.000 
#
# Total GULP energy -78262.493271 kJ/mol
# GULP energy per Si atom -5590.178091 kJ/mol
# Density = 2.679846 g / cm^3
# Si number density = 26.859594 Si / 1000 Ang^3
#
#
#
# Elastic Constant Matrix: (Units=GPa)
#
#
# Indices 1 2 3 4 5 6 
#
# 1 147.2097 66.8256 68.0888 0.0000 -8.2977 0.0000
# 2 66.8256 137.5692 48.1029 0.0000 5.6988 0.0000
# 3 68.0888 48.1029 148.5181 0.0000 -46.2413 0.0000
# 4 0.0000 0.0000 0.0000 11.9393 0.0000 -35.7482
# 5 -8.2977 5.6988 -46.2413 0.0000 51.2910 0.0000
# 6 0.0000 0.0000 0.0000 -35.7482 0.0000 27.3830
#
#
#
# Elastic Compliance Matrix: (Units=1/GPa)
#
#
# Indices 1 2 3 4 5 6 
#
# 1 0.010130 -0.003445 -0.004030 0.000000 -0.001612 0.000000
# 2 -0.003445 0.010229 -0.003144 0.000000 -0.004528 0.000000
# 3 -0.004030 -0.003144 0.013214 0.000000 0.011610 0.000000
# 4 0.000000 0.000000 0.000000 -0.028794 0.000000 -0.037590
# 5 -0.001612 -0.004528 0.011610 0.000000 0.030206 0.000000
# 6 0.000000 0.000000 0.000000 -0.037590 0.000000 -0.012554
#
#
# Mechanical properties :
#
#
# Convention : Reuss Voigt Hill
#
# Bulk Modulus (GPa) = 81.06502 88.81461 84.93981
# Shear Modulus (GPa) = 104.64553 34.80797 69.72675
#
# Velocity S-wave (km/s) = 6.24858 3.60380 5.10060
# Velocity P-wave (km/s) = 9.07228 7.10313 8.14742
#
# Compressibility (1/GPa) = 0.01233578
#
# Stress axis : x y z
#
# Youngs Moduli (GPa) = 98.71603 97.75987 75.67737
#
# Poissons Ratio (x) = 0.33676 0.30501
# Poissons Ratio (y) = 0.34005 0.23790
# Poissons Ratio (z) = 0.39786 0.30732
#
# Static dielectric constant tensor:
#      x y z
#    x 2.109870 0.000000 -0.057280 
#    y 0.000000 2.194080 0.000000 
#    z -0.057280 0.000000 2.129610 
# 
# From -- ./inp_files/28435.got.cif
#   From: 2010.05.17/outbox.cif.g08.bks.cpg/sg13_15_cif.got.tgz:28435.got - 2010.06.03 16:44:36.
