data_PCOD9231107
_publ_section_title
;
Structure prediction by ZEFSAII (Michael W. Deem and Ramdas Pophale) SiO2 
 PCOD9231107
Probable space group: P 2/C
;
_chemical_formula_sum "Si O2"
_cell_formula_units_Z 20
_cell_length_a 9.716263
_cell_length_b 11.875478
_cell_length_c 9.354893
_cell_angle_alpha 90.000000
_cell_angle_beta 62.764105
_cell_angle_gamma 90.000000
_cell_volume 959.741707
_symmetry_space_group_name_H-M "P 2/C"
_symmetry_group_IT_number 13
_symmetry_cell_setting 'monoclinic'
loop_
_space_group_symop_operation_xyz
x,y,z
-x,y,1/2-z
-x,-y,-z
x,-y,1/2+z
loop_
_atom_site_type_symbol
_atom_site_label
_atom_site_fract_x
_atom_site_fract_y
_atom_site_fract_z
Si Si1 0.107143 0.552283 0.573072
Si Si2 0.310095 0.145950 0.339439
Si Si3 0.822984 0.309984 0.885729
Si Si4 0.338024 0.945439 0.524245
Si Si5 0.334269 0.728876 0.325538
O O1 0.198317 0.444582 0.593703
O O2 0.210832 0.648897 0.458586
O O3 0.000000 0.597649 0.750000
O O4 0.000000 0.500000 0.500000
O O5 0.500000 0.160589 0.250000
O O6 0.224124 0.255064 0.441506
O O7 0.265265 0.106042 0.202247
O O8 0.262906 0.047026 0.472047
O O9 0.716542 0.255633 0.813817
O O10 0.000000 0.292064 0.750000
O O11 0.353500 0.843891 0.404530
O O12 0.500000 0.000000 0.500000
O O13 0.500000 0.669992 0.250000
#
# Coordination Sequence:
#
# PCOD9231107 Si02
#       5
#     4   4   4   4   4
#     4  11  24  47  68  95 143 184 217 281 347 397
#     4  10  20  38  64  92 128 172 220 275 329 396
#     4  11  24  44  65  96 143 179 219 282 341 400
#     4  10  21  39  65  98 135 168 218 285 342 385
#     4  12  24  41  71 100 130 181 232 277 333 403
#
# _framework density 20.838940999999998
#
# number of rings (size 3 to 8) (size 9 to 14) (size 15 to 20)
#    0.000    1.200    4.000    5.400    2.800    1.600 
#    0.000    5.000    0.000    0.000    0.000    0.000 
#    0.000    0.000    0.000    0.000    0.000    0.000 
#
# Total GULP energy -111713.178339 kJ/mol
# GULP energy per Si atom -5585.658917 kJ/mol
# Density = 2.079151 g / cm^3
# Si number density = 20.838941 Si / 1000 Ang^3
#
#
#
# Elastic Constant Matrix: (Units=GPa)
#
#
# Indices 1 2 3 4 5 6 
#
# 1 49.4505 10.1719 1.3772 0.0000 10.8532 0.0000
# 2 10.1719 84.7438 24.2272 0.0000 -8.1298 0.0000
# 3 1.3772 24.2272 92.8579 0.0000 4.5511 0.0000
# 4 0.0000 0.0000 0.0000 44.7334 0.0000 -5.4225
# 5 10.8532 -8.1298 4.5511 0.0000 38.7274 0.0000
# 6 0.0000 0.0000 0.0000 -5.4225 0.0000 48.1106
#
#
#
# Elastic Compliance Matrix: (Units=1/GPa)
#
#
# Indices 1 2 3 4 5 6 
#
# 1 0.022531 -0.003675 0.000977 0.000000 -0.007201 0.000000
# 2 -0.003675 0.013728 -0.003741 0.000000 0.004351 0.000000
# 3 0.000977 -0.003741 0.011851 0.000000 -0.002452 0.000000
# 4 0.000000 0.000000 0.000000 0.022664 0.000000 0.002554
# 5 -0.007201 0.004351 -0.002452 0.000000 0.029041 0.000000
# 6 0.000000 0.000000 0.000000 0.002554 0.000000 0.021073
#
#
# Mechanical properties :
#
#
# Convention : Reuss Voigt Hill
#
# Bulk Modulus (GPa) = 28.38111 33.17830 30.77971
# Shear Modulus (GPa) = 34.36213 39.06601 36.71407
#
# Velocity S-wave (km/s) = 4.06512 4.33444 4.20194
# Velocity P-wave (km/s) = 5.97348 6.40357 6.19226
#
# Compressibility (1/GPa) = 0.03523471
#
# Stress axis : x y z
#
# Youngs Moduli (GPa) = 44.38288 72.84304 84.38290
#
# Poissons Ratio (x) = 0.26767 -0.08248
# Poissons Ratio (y) = 0.16309 0.31564
# Poissons Ratio (z) = -0.04338 0.27247
#
# Static dielectric constant tensor:
#      x y z
#    x 1.788200 0.000000 0.027380 
#    y 0.000000 1.761790 0.000000 
#    z 0.027380 0.000000 1.771030 
# 
# From -- ./inp_files/15498.got.cif
#   From: 2010.05.17/outbox.cif.g08.bks.cpg/sg13_8_cif.got.tgz:15498.got - 2010.06.03 16:44:36.
