data_PCOD9231867
_publ_section_title
;
Structure prediction by ZEFSAII (Michael W. Deem and Ramdas Pophale) SiO2 
 PCOD9231867
Probable space group: P 2/C
;
_chemical_formula_sum "Si O2"
_cell_formula_units_Z 26
_cell_length_a 4.943767
_cell_length_b 9.425492
_cell_length_c 21.479204
_cell_angle_alpha 90.000000
_cell_angle_beta 77.941020
_cell_angle_gamma 90.000000
_cell_volume 978.789572
_symmetry_space_group_name_H-M "P 2/C"
_symmetry_group_IT_number 13
_symmetry_cell_setting 'monoclinic'
loop_
_space_group_symop_operation_xyz
x,y,z
-x,y,1/2-z
-x,-y,-z
x,-y,1/2+z
loop_
_atom_site_type_symbol
_atom_site_label
_atom_site_fract_x
_atom_site_fract_y
_atom_site_fract_z
Si Si1 0.586091 0.555915 0.095079
Si Si2 0.000000 0.593593 0.250000
Si Si3 0.707385 0.314929 0.460145
Si Si4 0.290454 0.926364 0.704824
Si Si5 0.449975 0.634128 0.682504
Si Si6 0.149936 0.788981 0.139919
Si Si7 0.137986 0.845905 0.999731
O O1 0.719593 0.587915 0.022827
O O2 0.710347 0.459824 0.143899
O O3 0.429337 0.695818 0.123016
O O4 0.363292 0.428561 0.089434
O O5 0.232116 0.488943 0.212458
O O6 0.946457 0.705861 0.196192
O O7 0.461023 0.199020 0.482010
O O8 0.997820 0.238381 0.449758
O O9 0.500000 0.973696 0.750000
O O10 0.384334 0.791508 0.658890
O O11 0.000000 0.884887 0.750000
O O12 0.226096 0.058441 0.662931
O O13 0.500000 0.692505 0.750000
O O14 0.048466 0.796146 0.073630
O O15 0.000000 0.000000 0.000000
#
# Coordination Sequence:
#
# PCOD9231867 Si02
#       7
#     4   2   4   4   4   4   4
#     4   9  22  42  68  97 129 176 219 283 330 393
#     4  10  20  42  64  98 130 174 220 278 324 410
#     4  10  23  46  67  99 130 175 226 275 331 396
#     4  11  24  45  64  96 136 177 218 269 329 399
#     4  10  22  40  65  95 132 173 222 272 335 397
#     4  10  23  41  69  99 135 177 223 274 337 397
#     4  11  25  45  69 101 136 178 224 278 337 398
#
# _framework density 26.563421000000002
#
# number of rings (size 3 to 8) (size 9 to 14) (size 15 to 20)
#    0.000    1.846    1.538    0.462    4.308   10.462 
#    8.308    0.000    0.000    0.000    0.000    0.000 
#    0.000    0.000    0.000    0.000    0.000    0.000 
#
# Total GULP energy -145055.309538 kJ/mol
# GULP energy per Si atom -5579.050367 kJ/mol
# Density = 2.650296 g / cm^3
# Si number density = 26.563421 Si / 1000 Ang^3
#
#
#
# Elastic Constant Matrix: (Units=GPa)
#
#
# Indices 1 2 3 4 5 6 
#
# 1 101.7088 23.2277 8.3488 0.0000 9.6162 0.0000
# 2 23.2277 165.8805 19.9688 0.0000 -6.6812 0.0000
# 3 8.3488 19.9688 46.2597 0.0000 -9.2074 0.0000
# 4 0.0000 0.0000 0.0000 36.6662 0.0000 9.6392
# 5 9.6162 -6.6812 -9.2074 0.0000 31.3364 0.0000
# 6 0.0000 0.0000 0.0000 9.6392 0.0000 45.1030
#
#
#
# Elastic Compliance Matrix: (Units=1/GPa)
#
#
# Indices 1 2 3 4 5 6 
#
# 1 0.010733 -0.001412 -0.002170 0.000000 -0.004232 0.000000
# 2 -0.001412 0.006555 -0.002347 0.000000 0.001141 0.000000
# 3 -0.002170 -0.002347 0.024487 0.000000 0.007360 0.000000
# 4 0.000000 0.000000 0.000000 0.028897 0.000000 -0.006176
# 5 -0.004232 0.001141 0.007360 0.000000 0.035616 0.000000
# 6 0.000000 0.000000 0.000000 -0.006176 0.000000 0.023491
#
#
# Mechanical properties :
#
#
# Convention : Reuss Voigt Hill
#
# Bulk Modulus (GPa) = 33.42737 46.32662 39.87699
# Shear Modulus (GPa) = 32.97949 40.10803 36.54376
#
# Velocity S-wave (km/s) = 3.52737 3.88995 3.71309
# Velocity P-wave (km/s) = 5.40380 6.13625 5.78164
#
# Compressibility (1/GPa) = 0.02991560
#
# Stress axis : x y z
#
# Youngs Moduli (GPa) = 93.17290 152.56177 40.83809
#
# Poissons Ratio (x) = 0.21544 0.08861
# Poissons Ratio (y) = 0.13157 0.09587
# Poissons Ratio (z) = 0.20217 0.35813
#
# Static dielectric constant tensor:
#      x y z
#    x 1.955690 0.000000 -0.489680 
#    y 0.000000 2.191930 0.000000 
#    z -0.489680 0.000000 0.609760 
# 
# From -- ./inp_files/83391.got.cif
#   From: 2010.05.17/outbox.cif.g08.bks.cpg/sg13_42_cif.got.tgz:83391.got - 2010.06.03 16:44:36.
