data_PCOD9231060
_publ_section_title
;
Structure prediction by ZEFSAII (Michael W. Deem and Ramdas Pophale) SiO2 
 PCOD9231060
Probable space group: P 2/C
;
_chemical_formula_sum "Si O2"
_cell_formula_units_Z 18
_cell_length_a 7.682744
_cell_length_b 5.581320
_cell_length_c 16.119186
_cell_angle_alpha 90.000000
_cell_angle_beta 108.180833
_cell_angle_gamma 90.000000
_cell_volume 656.681770
_symmetry_space_group_name_H-M "P 2/C"
_symmetry_group_IT_number 13
_symmetry_cell_setting 'monoclinic'
loop_
_space_group_symop_operation_xyz
x,y,z
-x,y,1/2-z
-x,-y,-z
x,-y,1/2+z
loop_
_atom_site_type_symbol
_atom_site_label
_atom_site_fract_x
_atom_site_fract_y
_atom_site_fract_z
Si Si1 0.288763 0.462910 0.992285
Si Si2 0.808478 0.953595 0.530618
Si Si3 0.500000 0.643614 0.250000
Si Si4 0.697952 0.328528 0.161902
Si Si5 0.865061 0.036971 0.802079
O O1 0.255276 0.199675 0.018746
O O2 0.199939 0.490099 0.885865
O O3 0.212584 0.704026 0.021626
O O4 0.500000 0.500000 0.000000
O O5 0.008100 0.992817 0.599320
O O6 0.682253 0.896730 0.594991
O O7 0.527245 0.469121 0.175139
O O8 0.318492 0.806365 0.217545
O O9 0.801647 0.220630 0.255684
O O10 0.000000 0.132535 0.750000
#
# Coordination Sequence:
#
# PCOD9231060 Si02
#       5
#     4   4   2   4   4
#     4  10  20  38  63  92 122 169 218 255 309 379
#     4   9  21  35  61  89 121 161 207 263 311 370
#     4  12  22  36  64  94 138 166 206 264 334 382
#     4   9  21  33  58  91 124 164 203 255 318 372
#     4  10  21  38  59  94 133 160 215 260 331 379
#
# _framework density 27.410537999999999
#
# number of rings (size 3 to 8) (size 9 to 14) (size 15 to 20)
#    1.333    0.889    0.000    4.000    3.111    0.889 
#    0.000    0.000    0.000    2.667    0.000    0.000 
#    0.000    0.000    0.000    0.000    0.000    0.000 
#
# Total GULP energy -100483.908585 kJ/mol
# GULP energy per Si atom -5582.439366 kJ/mol
# Density = 2.734815 g / cm^3
# Si number density = 27.410538 Si / 1000 Ang^3
#
#
#
# Elastic Constant Matrix: (Units=GPa)
#
#
# Indices 1 2 3 4 5 6 
#
# 1 171.8408 77.1342 34.8258 0.0000 22.2582 0.0000
# 2 77.1342 209.9883 47.2145 0.0000 35.5838 0.0000
# 3 34.8258 47.2145 82.9985 0.0000 36.4021 0.0000
# 4 0.0000 0.0000 0.0000 40.3219 0.0000 10.5530
# 5 22.2582 35.5838 36.4021 0.0000 41.3181 0.0000
# 6 0.0000 0.0000 0.0000 10.5530 0.0000 50.4206
#
#
#
# Elastic Compliance Matrix: (Units=1/GPa)
#
#
# Indices 1 2 3 4 5 6 
#
# 1 0.007191 -0.002195 -0.001465 0.000000 -0.000693 0.000000
# 2 -0.002195 0.006404 -0.001339 0.000000 -0.003153 0.000000
# 3 -0.001465 -0.001339 0.020491 0.000000 -0.016110 0.000000
# 4 0.000000 0.000000 0.000000 0.026238 0.000000 -0.005492
# 5 -0.000693 -0.003153 -0.016110 0.000000 0.041485 0.000000
# 6 0.000000 0.000000 0.000000 -0.005492 0.000000 0.020983
#
#
# Mechanical properties :
#
#
# Convention : Reuss Voigt Hill
#
# Bulk Modulus (GPa) = 41.51420 87.01959 64.26689
# Shear Modulus (GPa) = 35.50710 46.78901 41.14806
#
# Velocity S-wave (km/s) = 3.60305 4.13603 3.87871
# Velocity P-wave (km/s) = 5.69978 7.39085 6.59970
#
# Compressibility (1/GPa) = 0.02408815
#
# Stress axis : x y z
#
# Youngs Moduli (GPa) = 139.06042 156.15990 48.80290
#
# Poissons Ratio (x) = 0.34272 0.07149
# Poissons Ratio (y) = 0.30519 0.06535
# Poissons Ratio (z) = 0.20371 0.20911
#
# Static dielectric constant tensor:
#      x y z
#    x 2.157930 0.000000 -0.003720 
#    y 0.000000 2.150310 0.000000 
#    z -0.003720 0.000000 2.364120 
# 
# From -- ./inp_files/84042.got.cif
#   From: 2010.05.17/outbox.cif.g08.bks.cpg/sg13_43_cif.got.tgz:84042.got - 2010.06.03 16:44:36.
