data_PCOD9231222
_publ_section_title
;
Structure prediction by ZEFSAII (Michael W. Deem and Ramdas Pophale) SiO2 
 PCOD9231222
Probable space group: P 2/C
;
_chemical_formula_sum "Si O2"
_cell_formula_units_Z 22
_cell_length_a 12.118951
_cell_length_b 7.549822
_cell_length_c 15.670745
_cell_angle_alpha 90.000000
_cell_angle_beta 145.142399
_cell_angle_gamma 90.000000
_cell_volume 819.477637
_symmetry_space_group_name_H-M "P 2/C"
_symmetry_group_IT_number 13
_symmetry_cell_setting 'monoclinic'
loop_
_space_group_symop_operation_xyz
x,y,z
-x,y,1/2-z
-x,-y,-z
x,-y,1/2+z
loop_
_atom_site_type_symbol
_atom_site_label
_atom_site_fract_x
_atom_site_fract_y
_atom_site_fract_z
Si Si1 0.194579 0.915003 0.584461
Si Si2 0.500000 0.456648 0.750000
Si Si3 0.954876 0.275702 0.818944
Si Si4 0.827408 0.875923 0.702889
Si Si5 0.350055 0.556478 0.828793
Si Si6 0.572698 0.888078 0.396911
O O1 0.253232 0.998190 0.529823
O O2 0.378360 0.002288 0.751882
O O3 0.000000 0.000000 0.500000
O O4 0.125229 0.728539 0.498100
O O5 0.440682 0.576251 0.792605
O O6 0.393391 0.302592 0.625993
O O7 0.870907 0.078030 0.752241
O O8 0.790622 0.389756 0.759019
O O9 0.000000 0.339399 0.750000
O O10 0.789565 0.727968 0.749847
O O11 0.620522 0.868018 0.524859
O O12 0.000000 0.812537 0.750000
O O13 0.500000 0.500000 0.000000
#
# Coordination Sequence:
#
# PCOD9231222 Si02
#       6
#     4   2   4   4   4   4
#     4  10  20  38  71 112 147 205 257 322 402 473
#     4  10  22  46  72 106 160 204 270 332 396 480
#     4  11  23  46  76 113 153 203 268 327 403 485
#     4  11  23  47  78 114 157 209 267 331 408 483
#     4  12  26  47  77 111 162 214 261 338 407 478
#     4  10  20  42  76 105 163 208 259 341 399 472
#
# _framework density 26.846371000000001
#
# number of rings (size 3 to 8) (size 9 to 14) (size 15 to 20)
#    0.000    1.455    5.455    2.727    0.000    0.727 
#    0.000    3.636    0.000    2.182    0.000    0.000 
#    0.000    0.000    0.000    0.000    0.000    0.000 
#
# Total GULP energy -122592.807193 kJ/mol
# GULP energy per Si atom -5572.400327 kJ/mol
# Density = 2.678527 g / cm^3
# Si number density = 26.846371 Si / 1000 Ang^3
#
#
#
# Elastic Constant Matrix: (Units=GPa)
#
#
# Indices 1 2 3 4 5 6 
#
# 1 157.3031 11.7814 16.1677 0.0000 8.8959 0.0000
# 2 11.7814 92.6386 1.0878 0.0000 17.6538 0.0000
# 3 16.1677 1.0878 133.7924 0.0000 -13.5424 0.0000
# 4 0.0000 0.0000 0.0000 31.0786 0.0000 4.2241
# 5 8.8959 17.6538 -13.5424 0.0000 48.5689 0.0000
# 6 0.0000 0.0000 0.0000 4.2241 0.0000 44.0228
#
#
#
# Elastic Compliance Matrix: (Units=1/GPa)
#
#
# Indices 1 2 3 4 5 6 
#
# 1 0.006565 -0.000587 -0.000915 0.000000 -0.001244 0.000000
# 2 -0.000587 0.011688 -0.000456 0.000000 -0.004268 0.000000
# 3 -0.000915 -0.000456 0.007844 0.000000 0.002520 0.000000
# 4 0.000000 0.000000 0.000000 0.032602 0.000000 -0.003128
# 5 -0.001244 -0.004268 0.002520 0.000000 0.023071 0.000000
# 6 0.000000 0.000000 0.000000 -0.003128 0.000000 0.023016
#
#
# Mechanical properties :
#
#
# Convention : Reuss Voigt Hill
#
# Bulk Modulus (GPa) = 45.08252 49.08976 47.08614
# Shear Modulus (GPa) = 43.06817 48.38054 45.72436
#
# Velocity S-wave (km/s) = 4.00965 4.24975 4.13144
# Velocity P-wave (km/s) = 6.18592 6.51196 6.35103
#
# Compressibility (1/GPa) = 0.02218155
#
# Stress axis : x y z
#
# Youngs Moduli (GPa) = 152.31168 85.55785 127.49259
#
# Poissons Ratio (x) = 0.05024 0.11660
# Poissons Ratio (y) = 0.08943 0.05815
# Poissons Ratio (z) = 0.13929 0.03902
#
# Static dielectric constant tensor:
#      x y z
#    x 2.252720 0.000000 -0.143990 
#    y 0.000000 2.171800 0.000000 
#    z -0.143990 0.000000 2.155610 
# 
# From -- ./inp_files/66164.got.cif
#   From: 2010.05.17/outbox.cif.g08.bks.cpg/sg13_34_cif.got.tgz:66164.got - 2010.06.03 16:44:36.
