data_PCOD9231171
_publ_section_title
;
Structure prediction by ZEFSAII (Michael W. Deem and Ramdas Pophale) SiO2 
 PCOD9231171
Probable space group: P 2/C
;
_chemical_formula_sum "Si O2"
_cell_formula_units_Z 22
_cell_length_a 19.756692
_cell_length_b 5.187081
_cell_length_c 13.121526
_cell_angle_alpha 90.000000
_cell_angle_beta 40.844769
_cell_angle_gamma 90.000000
_cell_volume 879.442100
_symmetry_space_group_name_H-M "P 2/C"
_symmetry_group_IT_number 13
_symmetry_cell_setting 'monoclinic'
loop_
_space_group_symop_operation_xyz
x,y,z
-x,y,1/2-z
-x,-y,-z
x,-y,1/2+z
loop_
_atom_site_type_symbol
_atom_site_label
_atom_site_fract_x
_atom_site_fract_y
_atom_site_fract_z
Si Si1 0.560517 0.747519 0.969870
Si Si2 0.260888 0.461656 0.672742
Si Si3 0.605807 0.060410 0.097231
Si Si4 0.000000 0.551665 0.750000
Si Si5 0.798700 0.831483 0.937087
Si Si6 0.931290 0.197244 0.642550
O O1 0.681134 0.659235 0.817615
O O2 0.500000 0.500000 0.000000
O O3 0.500000 0.000000 0.000000
O O4 0.565159 0.806040 0.085010
O O5 0.336125 0.226370 0.556189
O O6 0.239058 0.594988 0.588915
O O7 0.148078 0.366414 0.834479
O O8 0.500000 0.197202 0.250000
O O9 0.690542 0.978347 0.086462
O O10 0.896929 0.723975 0.886383
O O11 0.985287 0.377196 0.665717
O O12 0.854821 0.023787 0.796197
O O13 0.000000 0.000000 0.500000
#
# Coordination Sequence:
#
# PCOD9231171 Si02
#       6
#     4   4   4   2   4   4
#     4  11  21  40  64  89 129 179 220 278 332 404
#     4   9  20  38  63  92 132 174 223 279 348 412
#     4  10  21  40  66  94 132 176 223 277 348 406
#     4  10  20  38  66  94 136 174 236 288 352 424
#     4   9  20  39  63  88 128 172 221 285 343 413
#     4  10  21  40  67  95 132 182 230 294 359 422
#
# _framework density 25.015858000000001
#
# number of rings (size 3 to 8) (size 9 to 14) (size 15 to 20)
#    0.000    2.182    1.818    0.545    0.000    5.818 
#    0.000   12.727    8.000    0.000    0.000    0.000 
#    0.000    0.000    0.000    0.000    0.000    0.000 
#
# Total GULP energy -122534.528212 kJ/mol
# GULP energy per Si atom -5569.751282 kJ/mol
# Density = 2.495892 g / cm^3
# Si number density = 25.015858 Si / 1000 Ang^3
#
#
#
# Elastic Constant Matrix: (Units=GPa)
#
#
# Indices 1 2 3 4 5 6 
#
# 1 159.3686 64.9623 73.9411 0.0000 -52.5204 0.0000
# 2 64.9623 125.3571 42.0658 0.0000 -20.9961 0.0000
# 3 73.9411 42.0658 108.5467 0.0000 -32.6530 0.0000
# 4 0.0000 0.0000 0.0000 29.1372 0.0000 -12.9935
# 5 -52.5204 -20.9961 -32.6530 0.0000 39.6504 0.0000
# 6 0.0000 0.0000 0.0000 -12.9935 0.0000 56.5097
#
#
#
# Elastic Compliance Matrix: (Units=1/GPa)
#
#
# Indices 1 2 3 4 5 6 
#
# 1 0.014084 -0.003674 -0.004178 0.000000 0.013269 0.000000
# 2 -0.003674 0.010329 -0.001753 0.000000 -0.000841 0.000000
# 3 -0.004178 -0.001753 0.014349 0.000000 0.005354 0.000000
# 4 0.000000 0.000000 0.000000 0.038241 0.000000 0.008793
# 5 0.013269 -0.000841 0.005354 0.000000 0.046759 0.000000
# 6 0.000000 0.000000 0.000000 0.008793 0.000000 0.019718
#
#
# Mechanical properties :
#
#
# Convention : Reuss Voigt Hill
#
# Bulk Modulus (GPa) = 51.15013 83.91229 67.53121
# Shear Modulus (GPa) = 29.54960 39.21302 34.38131
#
# Velocity S-wave (km/s) = 3.44064 3.96350 3.71129
# Velocity P-wave (km/s) = 6.02291 7.38662 6.73935
#
# Compressibility (1/GPa) = 0.01955029
#
# Stress axis : x y z
#
# Youngs Moduli (GPa) = 71.00423 96.81941 69.69248
#
# Poissons Ratio (x) = 0.35570 0.29121
# Poissons Ratio (y) = 0.26086 0.12217
# Poissons Ratio (z) = 0.29669 0.16972
#
# Static dielectric constant tensor:
#      x y z
#    x 2.075410 0.000000 -0.078670 
#    y 0.000000 2.309910 0.000000 
#    z -0.078670 0.000000 2.122050 
# 
# From -- ./inp_files/56282.got.cif
#   From: 2010.05.17/outbox.cif.g08.bks.cpg/sg13_29_cif.got.tgz:56282.got - 2010.06.03 16:44:36.
