data_PCOD9231561
_publ_section_title
;
Structure prediction by ZEFSAII (Michael W. Deem and Ramdas Pophale) SiO2 
 PCOD9231561
Probable space group: P 2/C
;
_chemical_formula_sum "Si O2"
_cell_formula_units_Z 22
_cell_length_a 15.316653
_cell_length_b 7.151068
_cell_length_c 9.408325
_cell_angle_alpha 90.000000
_cell_angle_beta 60.892202
_cell_angle_gamma 90.000000
_cell_volume 900.352185
_symmetry_space_group_name_H-M "P 2/C"
_symmetry_group_IT_number 13
_symmetry_cell_setting 'monoclinic'
loop_
_space_group_symop_operation_xyz
x,y,z
-x,y,1/2-z
-x,-y,-z
x,-y,1/2+z
loop_
_atom_site_type_symbol
_atom_site_label
_atom_site_fract_x
_atom_site_fract_y
_atom_site_fract_z
Si Si1 0.500000 0.948615 0.250000
Si Si2 0.362254 0.701242 0.853219
Si Si3 0.207058 0.579264 0.500434
Si Si4 0.085135 0.785075 0.392910
Si Si5 0.598478 0.645221 0.003195
Si Si6 0.000000 0.526032 0.250000
Si Si7 0.000000 0.036998 0.250000
O O1 0.594300 0.090512 0.173059
O O2 0.517065 0.801556 0.108090
O O3 0.380484 0.637313 0.678038
O O4 0.418347 0.562070 0.919228
O O5 0.247852 0.634310 0.966523
O O6 0.180191 0.665720 0.368359
O O7 0.297174 0.693822 0.499140
O O8 0.104252 0.580728 0.669272
O O9 0.046287 0.875450 0.569683
O O10 0.001336 0.649145 0.391268
O O11 0.091580 0.926253 0.255771
#
# Coordination Sequence:
#
# PCOD9231561 Si02
#       7
#     2   4   4   4   4   2   2
#     4  12  24  48  78 108 142 186 232 300 376 430
#     4  10  25  47  74 105 147 183 241 299 357 434
#     4  10  23  43  69 103 139 186 243 290 343 421
#     4  10  20  40  63  95 136 188 232 289 349 408
#     4  10  25  47  73 109 142 187 238 297 364 428
#     4  11  21  40  74  94 136 196 240 281 353 412
#     4   9  21  38  62  96 138 184 238 289 345 412
#
# _framework density 24.434882999999999
#
# number of rings (size 3 to 8) (size 9 to 14) (size 15 to 20)
#    1.091    0.727    0.000    3.273    0.000    5.818 
#   13.091    0.000    0.000    0.000    0.000    0.000 
#    0.000    0.000    0.000    0.000    0.000    0.000 
#
# Total GULP energy -122476.065097 kJ/mol
# GULP energy per Si atom -5567.093868 kJ/mol
# Density = 2.437927 g / cm^3
# Si number density = 24.434883 Si / 1000 Ang^3
#
#
#
# Elastic Constant Matrix: (Units=GPa)
#
#
# Indices 1 2 3 4 5 6 
#
# 1 108.0852 30.5819 9.8965 0.0000 5.3447 0.0000
# 2 30.5819 105.4136 51.9686 0.0000 7.3624 0.0000
# 3 9.8965 51.9686 120.9356 0.0000 16.0434 0.0000
# 4 0.0000 0.0000 0.0000 75.6637 0.0000 60.4516
# 5 5.3447 7.3624 16.0434 0.0000 42.1671 0.0000
# 6 0.0000 0.0000 0.0000 60.4516 0.0000 125.5970
#
#
#
# Elastic Compliance Matrix: (Units=1/GPa)
#
#
# Indices 1 2 3 4 5 6 
#
# 1 0.010147 -0.003210 0.000680 0.000000 -0.000984 0.000000
# 2 -0.003210 0.013053 -0.005369 0.000000 0.000171 0.000000
# 3 0.000680 -0.005369 0.010961 0.000000 -0.003319 0.000000
# 4 0.000000 0.000000 0.000000 0.021474 0.000000 -0.010336
# 5 -0.000984 0.000171 -0.003319 0.000000 0.025073 0.000000
# 6 0.000000 0.000000 0.000000 -0.010336 0.000000 0.012937
#
#
# Mechanical properties :
#
#
# Convention : Reuss Voigt Hill
#
# Bulk Modulus (GPa) = 54.46212 57.70316 56.08264
# Shear Modulus (GPa) = 43.26645 64.81804 54.04224
#
# Velocity S-wave (km/s) = 4.21251 5.15601 4.70796
# Velocity P-wave (km/s) = 6.78214 7.68845 7.24947
#
# Compressibility (1/GPa) = 0.01836139
#
# Stress axis : x y z
#
# Youngs Moduli (GPa) = 98.55480 76.61271 91.23507
#
# Poissons Ratio (x) = 0.24593 -0.06201
# Poissons Ratio (y) = 0.31636 0.48984
# Poissons Ratio (z) = -0.06698 0.41133
#
# Static dielectric constant tensor:
#      x y z
#    x 1.994680 0.000000 -0.036560 
#    y 0.000000 2.177550 0.000000 
#    z -0.036560 0.000000 1.927970 
# 
# From -- ./inp_files/20743.got.cif
#   From: 2010.05.17/outbox.cif.g08.bks.cpg/sg13_11_cif.got.tgz:20743.got - 2010.06.03 16:44:36.
