data_PCOD9231970
_publ_section_title
;
Structure prediction by ZEFSAII (Michael W. Deem and Ramdas Pophale) SiO2 
 PCOD9231970
Probable space group: P 2/C
;
_chemical_formula_sum "Si O2"
_cell_formula_units_Z 26
_cell_length_a 29.121080
_cell_length_b 6.394168
_cell_length_c 13.976259
_cell_angle_alpha 90.000000
_cell_angle_beta 149.272990
_cell_angle_gamma 90.000000
_cell_volume 1329.717363
_symmetry_space_group_name_H-M "P 2/C"
_symmetry_group_IT_number 13
_symmetry_cell_setting 'monoclinic'
loop_
_space_group_symop_operation_xyz
x,y,z
-x,y,1/2-z
-x,-y,-z
x,-y,1/2+z
loop_
_atom_site_type_symbol
_atom_site_label
_atom_site_fract_x
_atom_site_fract_y
_atom_site_fract_z
Si Si1 0.785854 0.130695 0.360729
Si Si2 0.231001 0.490969 0.039665
Si Si3 0.896248 0.255423 0.045149
Si Si4 0.369611 0.154067 0.985949
Si Si5 0.229782 0.512804 0.314049
Si Si6 0.437210 0.488476 0.979413
Si Si7 0.500000 0.817767 0.250000
O O1 0.795552 0.255865 0.476666
O O2 0.767724 0.304946 0.246591
O O3 0.872466 0.989168 0.496702
O O4 0.702813 0.970342 0.208047
O O5 0.333620 0.504667 0.260383
O O6 0.165148 0.642767 0.980878
O O7 0.226950 0.531958 0.920519
O O8 0.000000 0.294565 0.250000
O O9 0.857663 0.363249 0.880370
O O10 0.418877 0.973017 0.133367
O O11 0.314542 0.333749 0.943411
O O12 0.440647 0.274608 0.046321
O O13 0.500000 0.500000 0.000000
O O14 0.465158 0.673350 0.101598
#
# Coordination Sequence:
#
# PCOD9231970 Si02
#       7
#     4   4   4   4   4   4   2
#     4  10  20  43  65  90 131 174 210 262 329 377
#     4  11  23  43  66  98 133 169 215 268 328 380
#     4  10  23  44  69  98 130 169 216 266 327 392
#     4  11  22  43  61  90 132 175 217 265 317 378
#     4  10  23  41  69  95 132 167 210 270 326 383
#     4  12  27  41  64  98 133 173 219 269 318 383
#     4  12  26  42  64  92 130 178 226 268 314 378
#
# _framework density 19.553025999999999
#
# number of rings (size 3 to 8) (size 9 to 14) (size 15 to 20)
#    0.000    1.231    6.154    0.462    6.462    7.385 
#    0.000    1.538    0.000    0.000    0.000    0.000 
#    0.000    0.000    0.000    0.000    0.000    0.000 
#
# Total GULP energy -145130.395574 kJ/mol
# GULP energy per Si atom -5581.938291 kJ/mol
# Density = 1.950852 g / cm^3
# Si number density = 19.553026 Si / 1000 Ang^3
#
#
#
# Elastic Constant Matrix: (Units=GPa)
#
#
# Indices 1 2 3 4 5 6 
#
# 1 108.2970 46.0402 64.7716 0.0000 -10.2827 0.0000
# 2 46.0402 111.7546 41.9416 0.0000 5.6398 0.0000
# 3 64.7716 41.9416 124.4110 0.0000 12.1958 0.0000
# 4 0.0000 0.0000 0.0000 20.1696 0.0000 2.4835
# 5 -10.2827 5.6398 12.1958 0.0000 30.9326 0.0000
# 6 0.0000 0.0000 0.0000 2.4835 0.0000 10.8732
#
#
#
# Elastic Compliance Matrix: (Units=1/GPa)
#
#
# Indices 1 2 3 4 5 6 
#
# 1 0.016997 -0.004367 -0.008331 0.000000 0.009731 0.000000
# 2 -0.004367 0.011374 -0.001264 0.000000 -0.003027 0.000000
# 3 -0.008331 -0.001264 0.013575 0.000000 -0.007891 0.000000
# 4 0.000000 0.000000 0.000000 0.051014 0.000000 -0.011652
# 5 0.009731 -0.003027 -0.007891 0.000000 0.039226 0.000000
# 6 0.000000 0.000000 0.000000 -0.011652 0.000000 0.094631
#
#
# Mechanical properties :
#
#
# Convention : Reuss Voigt Hill
#
# Bulk Modulus (GPa) = 71.31498 72.21881 71.76689
# Shear Modulus (GPa) = 19.27413 25.17570 22.22492
#
# Velocity S-wave (km/s) = 3.14305 3.59215 3.37508
# Velocity P-wave (km/s) = 7.05149 7.36341 7.20913
#
# Compressibility (1/GPa) = 0.01402230
#
# Stress axis : x y z
#
# Youngs Moduli (GPa) = 58.83464 87.91609 73.66571
#
# Poissons Ratio (x) = 0.38391 0.61369
# Poissons Ratio (y) = 0.25692 0.09314
# Poissons Ratio (z) = 0.49013 0.11116
#
# Static dielectric constant tensor:
#      x y z
#    x 1.658030 0.000000 0.017130 
#    y 0.000000 1.718200 0.000000 
#    z 0.017130 0.000000 1.714980 
# 
# From -- ./inp_files/59790.got.cif
#   From: 2010.05.17/outbox.cif.g08.bks.cpg/sg13_30_cif.got.tgz:59790.got - 2010.06.03 16:44:36.
