data_PCOD9231933
_publ_section_title
;
Structure prediction by ZEFSAII (Michael W. Deem and Ramdas Pophale) SiO2 
 PCOD9231933
Probable space group: P 2/C
;
_chemical_formula_sum "Si O2"
_cell_formula_units_Z 26
_cell_length_a 11.685817
_cell_length_b 14.516644
_cell_length_c 8.755788
_cell_angle_alpha 90.000000
_cell_angle_beta 55.414841
_cell_angle_gamma 90.000000
_cell_volume 1222.840792
_symmetry_space_group_name_H-M "P 2/C"
_symmetry_group_IT_number 13
_symmetry_cell_setting 'monoclinic'
loop_
_space_group_symop_operation_xyz
x,y,z
-x,y,1/2-z
-x,-y,-z
x,-y,1/2+z
loop_
_atom_site_type_symbol
_atom_site_label
_atom_site_fract_x
_atom_site_fract_y
_atom_site_fract_z
Si Si1 0.135210 0.602542 0.252912
Si Si2 0.694361 0.425617 0.338507
Si Si3 0.835087 0.925316 0.916277
Si Si4 0.943939 0.760268 0.963555
Si Si5 0.664324 0.709408 0.619900
Si Si6 0.500000 0.462268 0.750000
Si Si7 0.802848 0.881461 0.607214
O O1 0.179340 0.496949 0.244134
O O2 0.102179 0.666375 0.422377
O O3 0.000000 0.606224 0.250000
O O4 0.264560 0.650509 0.067310
O O5 0.728855 0.331275 0.228483
O O6 0.611269 0.411003 0.558546
O O7 0.590793 0.476896 0.297661
O O8 0.821031 0.835235 0.032830
O O9 0.759725 0.906081 0.813465
O O10 0.000000 0.927896 0.750000
O O11 0.813174 0.021691 0.014354
O O12 0.000000 0.739891 0.750000
O O13 0.056360 0.819073 0.978874
O O14 0.500000 0.699509 0.750000
O O15 0.703004 0.815578 0.587916
#
# Coordination Sequence:
#
# PCOD9231933 Si02
#       7
#     4   4   4   4   4   2   4
#     4  12  25  42  69 100 134 179 213 288 346 390
#     4  11  22  44  66  96 127 177 231 269 331 397
#     4   9  19  35  64 100 128 177 209 270 328 401
#     4   9  20  40  64 101 135 170 222 270 324 404
#     4  12  25  45  67  95 129 177 230 273 328 405
#     4  10  20  42  70  86 122 178 230 266 304 410
#     4  10  21  37  65  95 131 171 217 267 329 392
#
# _framework density 21.261968
#
# number of rings (size 3 to 8) (size 9 to 14) (size 15 to 20)
#    0.000    1.846    3.846    2.769    4.308    3.077 
#    0.000    1.538    0.000    0.000    0.000    0.000 
#    0.000    0.000    0.000    0.000    0.000    0.000 
#
# Total GULP energy -145161.063621 kJ/mol
# GULP energy per Si atom -5583.117832 kJ/mol
# Density = 2.121357 g / cm^3
# Si number density = 21.261968 Si / 1000 Ang^3
#
#
#
# Elastic Constant Matrix: (Units=GPa)
#
#
# Indices 1 2 3 4 5 6 
#
# 1 46.9869 12.9280 4.6994 0.0000 -7.3030 0.0000
# 2 12.9280 104.1696 37.4439 0.0000 -1.1133 0.0000
# 3 4.6994 37.4439 75.1586 0.0000 1.0681 0.0000
# 4 0.0000 0.0000 0.0000 13.1298 0.0000 11.6811
# 5 -7.3030 -1.1133 1.0681 0.0000 18.8982 0.0000
# 6 0.0000 0.0000 0.0000 11.6811 0.0000 21.9869
#
#
#
# Elastic Compliance Matrix: (Units=1/GPa)
#
#
# Indices 1 2 3 4 5 6 
#
# 1 0.023442 -0.002731 -0.000232 0.000000 0.008911 0.000000
# 2 -0.002731 0.012032 -0.005823 0.000000 -0.000017 0.000000
# 3 -0.000232 -0.005823 0.016240 0.000000 -0.001351 0.000000
# 4 0.000000 0.000000 0.000000 0.144427 0.000000 -0.076730
# 5 0.008911 -0.000017 -0.001351 0.000000 0.056434 0.000000
# 6 0.000000 0.000000 0.000000 -0.076730 0.000000 0.086247
#
#
# Mechanical properties :
#
#
# Convention : Reuss Voigt Hill
#
# Bulk Modulus (GPa) = 29.28939 37.38420 33.33680
# Shear Modulus (GPa) = 13.59534 22.21922 17.90728
#
# Velocity S-wave (km/s) = 2.53142 3.23619 2.90525
# Velocity P-wave (km/s) = 4.72753 5.62003 5.19299
#
# Compressibility (1/GPa) = 0.03414205
#
# Stress axis : x y z
#
# Youngs Moduli (GPa) = 42.65834 83.11469 61.57651
#
# Poissons Ratio (x) = 0.22696 0.01428
# Poissons Ratio (y) = 0.11649 0.35857
# Poissons Ratio (z) = 0.00990 0.48399
#
# Static dielectric constant tensor:
#      x y z
#    x 1.828400 0.000000 0.004990 
#    y 0.000000 1.776430 0.000000 
#    z 0.004990 0.000000 1.801950 
# 
# From -- ./inp_files/16406.got.cif
#   From: 2010.05.17/outbox.cif.g08.bks.cpg/sg13_9_cif.got.tgz:16406.got - 2010.06.03 16:44:36.
