data_PCOD9231359
_publ_section_title
;
Structure prediction by ZEFSAII (Michael W. Deem and Ramdas Pophale) SiO2 
 PCOD9231359
Probable space group: P 2/C
;
_chemical_formula_sum "Si O2"
_cell_formula_units_Z 32
_cell_length_a 28.703278
_cell_length_b 9.142990
_cell_length_c 10.412669
_cell_angle_alpha 90.000000
_cell_angle_beta 145.890835
_cell_angle_gamma 90.000000
_cell_volume 1532.384304
_symmetry_space_group_name_H-M "P 2/C"
_symmetry_group_IT_number 13
_symmetry_cell_setting 'monoclinic'
loop_
_space_group_symop_operation_xyz
x,y,z
-x,y,1/2-z
-x,-y,-z
x,-y,1/2+z
loop_
_atom_site_type_symbol
_atom_site_label
_atom_site_fract_x
_atom_site_fract_y
_atom_site_fract_z
Si Si1 0.427487 0.362767 0.661526
Si Si2 0.701686 0.592783 0.205924
Si Si3 0.385358 0.197980 0.801055
Si Si4 0.359098 0.892630 0.830191
Si Si5 0.851853 0.453638 0.689422
Si Si6 0.776666 0.794089 0.166559
Si Si7 0.907843 0.649886 0.055243
Si Si8 0.767533 0.894576 0.732659
O O1 0.500000 0.444266 0.750000
O O2 0.348860 0.470446 0.487995
O O3 0.443294 0.288976 0.835667
O O4 0.407616 0.229199 0.519621
O O5 0.639854 0.700452 0.138723
O O6 0.760375 0.511678 0.441935
O O7 0.759973 0.689154 0.248294
O O8 0.301891 0.163214 0.526639
O O9 0.410144 0.036809 0.907214
O O10 0.313431 0.821088 0.604598
O O11 0.283337 0.933463 0.754022
O O12 0.837624 0.291238 0.711540
O O13 0.902960 0.446081 0.674172
O O14 0.887794 0.553736 0.883860
O O15 0.806267 0.954841 0.271369
O O16 0.000000 0.712498 0.250000
O O17 0.836094 0.770843 0.905532
#
# Coordination Sequence:
#
# PCOD9231359 Si02
#       8
#     4   4   4   4   4   4   4   4
#     4  11  25  40  58  93 130 162 201 256 322 377
#     4  12  21  39  66  94 121 162 215 260 310 367
#     4  10  21  39  64  88 116 161 211 257 303 364
#     4  10  20  40  64  88 119 160 215 261 304 368
#     4  12  22  41  66  95 126 168 220 257 305 381
#     4  11  21  36  68  94 114 157 222 266 301 358
#     4  12  25  42  63  96 135 169 201 260 329 379
#     4  10  20  39  64  92 116 159 213 261 301 367
#
# _framework density 20.882490000000001
#
# number of rings (size 3 to 8) (size 9 to 14) (size 15 to 20)
#    0.000    1.000    6.250    1.875    0.000    1.000 
#    0.000    1.875    0.000    0.000    0.000    0.000 
#    0.000    0.000    0.000    0.000    0.000    0.000 
#
# Total GULP energy -178793.455815 kJ/mol
# GULP energy per Si atom -5587.295494 kJ/mol
# Density = 2.083496 g / cm^3
# Si number density = 20.882490 Si / 1000 Ang^3
#
#
#
# Elastic Constant Matrix: (Units=GPa)
#
#
# Indices 1 2 3 4 5 6 
#
# 1 71.6690 18.6830 4.4386 0.0000 -18.6718 0.0000
# 2 18.6830 80.1780 7.0878 0.0000 -12.5079 0.0000
# 3 4.4386 7.0878 12.1756 0.0000 -3.2467 0.0000
# 4 0.0000 0.0000 0.0000 14.1381 0.0000 -5.5857
# 5 -18.6718 -12.5079 -3.2467 0.0000 23.8025 0.0000
# 6 0.0000 0.0000 0.0000 -5.5857 0.0000 35.0968
#
#
#
# Elastic Compliance Matrix: (Units=1/GPa)
#
#
# Indices 1 2 3 4 5 6 
#
# 1 0.017916 -0.002016 -0.001964 0.000000 0.012727 0.000000
# 2 -0.002016 0.014284 -0.006227 0.000000 0.005076 0.000000
# 3 -0.001964 -0.006227 0.088405 0.000000 0.007246 0.000000
# 4 0.000000 0.000000 0.000000 0.075477 0.000000 0.012012
# 5 0.012727 0.005076 0.007246 0.000000 0.055651 0.000000
# 6 0.000000 0.000000 0.000000 0.012012 0.000000 0.030404
#
#
# Mechanical properties :
#
#
# Convention : Reuss Voigt Hill
#
# Bulk Modulus (GPa) = 9.98092 24.93791 17.45942
# Shear Modulus (GPa) = 14.88327 23.52837 19.20582
#
# Velocity S-wave (km/s) = 2.67257 3.36028 3.03596
# Velocity P-wave (km/s) = 3.78331 5.19839 4.54625
#
# Compressibility (1/GPa) = 0.10019116
#
# Stress axis : x y z
#
# Youngs Moduli (GPa) = 55.81650 70.00734 11.31164
#
# Poissons Ratio (x) = 0.14111 0.02222
# Poissons Ratio (y) = 0.11251 0.07044
# Poissons Ratio (z) = 0.10962 0.43594
#
# Static dielectric constant tensor:
#      x y z
#    x 1.794310 0.000000 -0.002890 
#    y 0.000000 1.745090 0.000000 
#    z -0.002890 0.000000 1.745400 
# 
# From -- ./inp_files/42783.got.cif
#   From: 2010.05.17/outbox.cif.g08.bks.cpg/sg13_22_cif.got.tgz:42783.got - 2010.06.03 16:44:36.
