data_PCOD9231068
_publ_section_title
;
Structure prediction by ZEFSAII (Michael W. Deem and Ramdas Pophale) SiO2 
 PCOD9231068
Probable space group: P 2/C
;
_chemical_formula_sum "Si O2"
_cell_formula_units_Z 28
_cell_length_a 18.988517
_cell_length_b 5.326046
_cell_length_c 13.014541
_cell_angle_alpha 90.000000
_cell_angle_beta 112.937910
_cell_angle_gamma 90.000000
_cell_volume 1212.133268
_symmetry_space_group_name_H-M "P 2/C"
_symmetry_group_IT_number 13
_symmetry_cell_setting 'monoclinic'
loop_
_space_group_symop_operation_xyz
x,y,z
-x,y,1/2-z
-x,-y,-z
x,-y,1/2+z
loop_
_atom_site_type_symbol
_atom_site_label
_atom_site_fract_x
_atom_site_fract_y
_atom_site_fract_z
Si Si1 0.265539 0.375507 0.607320
Si Si2 0.009679 0.250777 0.575236
Si Si3 0.829055 0.933037 0.322239
Si Si4 0.576284 0.912750 0.486806
Si Si5 0.739795 0.067304 0.107195
Si Si6 0.847764 0.240208 0.537475
Si Si7 0.577772 0.591640 0.857974
O O1 0.247076 0.229899 0.701157
O O2 0.187790 0.525045 0.540781
O O3 0.343927 0.529522 0.658154
O O4 0.272379 0.220589 0.504867
O O5 0.094897 0.213961 0.667304
O O6 0.000000 0.500000 0.500000
O O7 0.937450 0.262052 0.611495
O O8 0.000000 0.000000 0.500000
O O9 0.800731 0.149993 0.228281
O O10 0.843615 0.032733 0.445262
O O11 0.653315 0.941181 0.597773
O O12 0.586681 0.126915 0.405657
O O13 0.500000 0.000000 0.500000
O O14 0.570092 0.629743 0.439455
O O15 0.787100 0.825213 0.091821
O O16 0.500000 0.578277 0.750000
#
# Coordination Sequence:
#
# PCOD9231068 Si02
#       7
#     4   4   4   4   4   4   4
#     4  10  21  40  63  90 129 170 211 272 325 379
#     4  10  20  38  63  94 124 162 213 265 312 377
#     4  10  22  38  65  93 121 175 218 256 329 392
#     4  11  24  43  62  94 130 164 209 276 321 375
#     4  10  23  40  61  93 130 165 218 264 321 391
#     4  10  20  40  64  86 130 168 207 271 322 377
#     4  11  24  42  66  93 126 168 217 261 328 390
#
# _framework density 23.099768000000001
#
# number of rings (size 3 to 8) (size 9 to 14) (size 15 to 20)
#    0.000    1.714    2.857    0.857    2.000    2.857 
#    0.000    0.000    0.000    0.000    0.000    0.000 
#    0.000    0.000    0.000    0.000    0.000    0.000 
#
# Total GULP energy -155946.191740 kJ/mol
# GULP energy per Si atom -5569.506848 kJ/mol
# Density = 2.304719 g / cm^3
# Si number density = 23.099768 Si / 1000 Ang^3
#
#
#
# Elastic Constant Matrix: (Units=GPa)
#
#
# Indices 1 2 3 4 5 6 
#
# 1 138.6386 4.8891 34.1248 0.0000 32.4442 0.0000
# 2 4.8891 72.8890 2.3604 0.0000 4.7668 0.0000
# 3 34.1248 2.3604 74.4663 0.0000 32.9754 0.0000
# 4 0.0000 0.0000 0.0000 12.0682 0.0000 7.8364
# 5 32.4442 4.7668 32.9754 0.0000 41.3489 0.0000
# 6 0.0000 0.0000 0.0000 7.8364 0.0000 26.6338
#
#
#
# Elastic Compliance Matrix: (Units=1/GPa)
#
#
# Indices 1 2 3 4 5 6 
#
# 1 0.008949 -0.000173 -0.001538 0.000000 -0.005775 0.000000
# 2 -0.000173 0.013835 0.000444 0.000000 -0.001813 0.000000
# 3 -0.001538 0.000444 0.021037 0.000000 -0.015621 0.000000
# 4 0.000000 0.000000 0.000000 0.102433 0.000000 -0.030139
# 5 -0.005775 -0.001813 -0.015621 0.000000 0.041383 0.000000
# 6 0.000000 0.000000 0.000000 -0.030139 0.000000 0.046414
#
#
# Mechanical properties :
#
#
# Convention : Reuss Voigt Hill
#
# Bulk Modulus (GPa) = 24.22073 40.97139 32.59606
# Shear Modulus (GPa) = 19.97217 32.31815 26.14516
#
# Velocity S-wave (km/s) = 2.94361 3.74447 3.36793
# Velocity P-wave (km/s) = 4.69693 6.03904 5.40976
#
# Compressibility (1/GPa) = 0.04128694
#
# Stress axis : x y z
#
# Youngs Moduli (GPa) = 111.74125 72.27895 47.53507
#
# Poissons Ratio (x) = 0.01249 0.07311
# Poissons Ratio (y) = 0.01931 -0.02108
# Poissons Ratio (z) = 0.17187 -0.03206
#
# Static dielectric constant tensor:
#      x y z
#    x 1.978110 0.000000 -0.050140 
#    y 0.000000 1.935430 0.000000 
#    z -0.050140 0.000000 1.995350 
# 
# From -- ./inp_files/54697.got.cif
#   From: 2010.05.17/outbox.cif.g08.bks.cpg/sg13_28_cif.got.tgz:54697.got - 2010.06.03 16:44:36.
