data_PCOD9231138
_publ_section_title
;
Structure prediction by ZEFSAII (Michael W. Deem and Ramdas Pophale) SiO2 
 PCOD9231138
Probable space group: P 2/C
;
_chemical_formula_sum "Si O2"
_cell_formula_units_Z 30
_cell_length_a 8.811091
_cell_length_b 5.859231
_cell_length_c 25.639475
_cell_angle_alpha 90.000000
_cell_angle_beta 106.454259
_cell_angle_gamma 90.000000
_cell_volume 1269.459791
_symmetry_space_group_name_H-M "P 2/C"
_symmetry_group_IT_number 13
_symmetry_cell_setting 'monoclinic'
loop_
_space_group_symop_operation_xyz
x,y,z
-x,y,1/2-z
-x,-y,-z
x,-y,1/2+z
loop_
_atom_site_type_symbol
_atom_site_label
_atom_site_fract_x
_atom_site_fract_y
_atom_site_fract_z
Si Si1 0.620505 0.935157 0.606208
Si Si2 0.064691 0.200643 0.853749
Si Si3 0.000000 0.092558 0.250000
Si Si4 0.498431 0.210446 0.805258
Si Si5 0.677377 0.487625 0.994008
Si Si6 0.792503 0.723503 0.401302
Si Si7 0.263774 0.572668 0.814234
Si Si8 0.708279 0.992263 0.983783
O O1 0.569361 0.060014 0.654740
O O2 0.477638 0.983772 0.552679
O O3 0.790422 0.045646 0.611947
O O4 0.641341 0.677117 0.627140
O O5 0.960046 0.300131 0.890163
O O6 0.139524 0.402988 0.827929
O O7 0.975988 0.051968 0.800682
O O8 0.157742 0.240835 0.274880
O O9 0.500000 0.090790 0.750000
O O10 0.671778 0.269190 0.841895
O O11 0.385488 0.431418 0.791156
O O12 0.716242 0.451790 0.935886
O O13 0.744952 0.741886 0.009319
O O14 0.500000 0.500000 0.000000
O O15 0.265223 0.767426 0.982481
O O16 0.796446 0.953387 0.437418
#
# Coordination Sequence:
#
# PCOD9231138 Si02
#       8
#     4   4   2   4   4   4   4   4
#     4   9  20  37  53  79 110 154 194 234 295 356
#     4  10  21  37  53  81 113 152 204 241 301 350
#     4  10  22  34  52  72 108 156 202 246 290 350
#     4  10  21  35  52  79 113 147 197 246 288 349
#     4  10  20  38  65  94 121 151 196 249 308 361
#     4   9  22  35  59  86 116 153 196 253 294 356
#     4  10  21  35  54  72 107 160 195 244 291 348
#     4   9  20  38  63  89 118 152 192 241 300 356
#
# _framework density 23.632099
#
# number of rings (size 3 to 8) (size 9 to 14) (size 15 to 20)
#    0.800    1.600    0.000    1.600    9.333    2.667 
#    2.400    0.000    0.000    1.600    0.000    0.000 
#    0.000    0.000    0.000    0.000    0.000    0.000 
#
# Total GULP energy -167281.314053 kJ/mol
# GULP energy per Si atom -5576.043802 kJ/mol
# Density = 2.357831 g / cm^3
# Si number density = 23.632099 Si / 1000 Ang^3
#
#
#
# Elastic Constant Matrix: (Units=GPa)
#
#
# Indices 1 2 3 4 5 6 
#
# 1 93.3983 10.3780 34.1081 0.0000 -12.8160 0.0000
# 2 10.3780 125.5355 36.6550 0.0000 7.9215 0.0000
# 3 34.1081 36.6550 123.2272 0.0000 -5.0118 0.0000
# 4 0.0000 0.0000 0.0000 33.6144 0.0000 3.3137
# 5 -12.8160 7.9215 -5.0118 0.0000 29.2535 0.0000
# 6 0.0000 0.0000 0.0000 3.3137 0.0000 1.1940
#
#
#
# Elastic Compliance Matrix: (Units=1/GPa)
#
#
# Indices 1 2 3 4 5 6 
#
# 1 0.012607 -0.000445 -0.003150 0.000000 0.005104 0.000000
# 2 -0.000445 0.008978 -0.002673 0.000000 -0.003084 0.000000
# 3 -0.003150 -0.002673 0.009824 0.000000 0.001027 0.000000
# 4 0.000000 0.000000 0.000000 0.040953 0.000000 -0.113656
# 5 0.005104 -0.003084 0.001027 0.000000 0.037431 0.000000
# 6 0.000000 0.000000 0.000000 -0.113656 0.000000 1.152948
#
#
# Mechanical properties :
#
#
# Convention : Reuss Voigt Hill
#
# Bulk Modulus (GPa) = 52.98281 56.04922 54.51601
# Shear Modulus (GPa) = 3.90148 30.21372 17.05760
#
# Velocity S-wave (km/s) = 1.28628 3.57950 2.68954
# Velocity P-wave (km/s) = 4.96735 6.39161 5.72395
#
# Compressibility (1/GPa) = 0.01887405
#
# Stress axis : x y z
#
# Youngs Moduli (GPa) = 79.32236 111.38755 101.79467
#
# Poissons Ratio (x) = 0.04952 0.32061
# Poissons Ratio (y) = 0.03527 0.27208
# Poissons Ratio (z) = 0.24983 0.29772
#
# Static dielectric constant tensor:
#      x y z
#    x 1.897370 0.000000 -0.011550 
#    y 0.000000 1.956180 0.000000 
#    z -0.011550 0.000000 1.963410 
# 
# From -- ./inp_files/95502.got.cif
#   From: 2010.05.17/outbox.cif.g08.bks.cpg/sg13_48_cif.got.tgz:95502.got - 2010.06.03 16:44:36.
