data_PCOD9231276
_publ_section_title
;
Structure prediction by ZEFSAII (Michael W. Deem and Ramdas Pophale) SiO2 
 PCOD9231276
Probable space group: P 2/C
;
_chemical_formula_sum "Si O2"
_cell_formula_units_Z 20
_cell_length_a 5.303294
_cell_length_b 12.913071
_cell_length_c 12.034148
_cell_angle_alpha 90.000000
_cell_angle_beta 78.630180
_cell_angle_gamma 90.000000
_cell_volume 807.947026
_symmetry_space_group_name_H-M "P 2/C"
_symmetry_group_IT_number 13
_symmetry_cell_setting 'monoclinic'
loop_
_space_group_symop_operation_xyz
x,y,z
-x,y,1/2-z
-x,-y,-z
x,-y,1/2+z
loop_
_atom_site_type_symbol
_atom_site_label
_atom_site_fract_x
_atom_site_fract_y
_atom_site_fract_z
Si Si1 0.140163 0.800304 0.353756
Si Si2 0.342897 0.382482 0.952571
Si Si3 0.139580 0.563911 0.847038
Si Si4 0.287457 0.989106 0.924338
Si Si5 0.292326 0.758646 0.919743
O O1 0.302424 0.697706 0.356763
O O2 0.000000 0.800475 0.250000
O O3 0.938377 0.785234 0.473290
O O4 0.293799 0.907076 0.351515
O O5 0.362602 0.492680 0.884188
O O6 0.520975 0.312980 0.019136
O O7 0.091128 0.412750 0.046003
O O8 0.000000 0.519214 0.750000
O O9 0.234810 0.681482 0.823063
O O10 0.344869 0.874732 0.872662
O O11 0.500000 0.000000 0.000000
O O12 0.000000 0.000000 0.000000
#
# Coordination Sequence:
#
# PCOD9231276 Si02
#       5
#     4   4   4   4   4
#     4  10  21  37  61  93 125 165 213 262 316 382
#     4  10  20  39  61  86 124 162 205 265 322 373
#     4  10  22  38  60  89 122 161 210 262 320 388
#     4  10  20  39  63  89 127 170 211 265 322 378
#     4  10  21  38  62  86 124 168 204 262 322 379
#
# _framework density 24.754096000000001
#
# number of rings (size 3 to 8) (size 9 to 14) (size 15 to 20)
#    0.000    2.000    2.000    1.200    0.000    2.400 
#    0.000    2.000    8.800    0.000    0.000    0.000 
#    0.000    0.000    0.000    0.000    0.000    0.000 
#
# Total GULP energy -111352.444612 kJ/mol
# GULP energy per Si atom -5567.622231 kJ/mol
# Density = 2.469775 g / cm^3
# Si number density = 24.754096 Si / 1000 Ang^3
#
#
#
# Elastic Constant Matrix: (Units=GPa)
#
#
# Indices 1 2 3 4 5 6 
#
# 1 101.3746 39.8020 23.6404 0.0000 3.6296 0.0000
# 2 39.8020 260.3370 23.0920 0.0000 22.3718 0.0000
# 3 23.6404 23.0920 75.0616 0.0000 -0.3919 0.0000
# 4 0.0000 0.0000 0.0000 236.6673 0.0000 -258.7510
# 5 3.6296 22.3718 -0.3919 0.0000 50.9164 0.0000
# 6 0.0000 0.0000 0.0000 -258.7510 0.0000 394.3673
#
#
#
# Elastic Compliance Matrix: (Units=1/GPa)
#
#
# Indices 1 2 3 4 5 6 
#
# 1 0.011144 -0.001414 -0.003076 0.000000 -0.000197 0.000000
# 2 -0.001414 0.004290 -0.000884 0.000000 -0.001791 0.000000
# 3 -0.003076 -0.000884 0.014567 0.000000 0.000720 0.000000
# 4 0.000000 0.000000 0.000000 0.014948 0.000000 0.009808
# 5 -0.000197 -0.001791 0.000720 0.000000 0.020446 0.000000
# 6 0.000000 0.000000 0.000000 0.009808 0.000000 0.008971
#
#
# Mechanical properties :
#
#
# Convention : Reuss Voigt Hill
#
# Bulk Modulus (GPa) = 51.93904 67.76021 59.84962
# Shear Modulus (GPa) = 54.62649 159.73944 107.18296
#
# Velocity S-wave (km/s) = 4.70272 8.04180 6.58734
# Velocity P-wave (km/s) = 7.10739 10.66115 9.06022
#
# Compressibility (1/GPa) = 0.01925334
#
# Stress axis : x y z
#
# Youngs Moduli (GPa) = 89.73530 233.12022 68.64969
#
# Poissons Ratio (x) = 0.32964 0.21115
# Poissons Ratio (y) = 0.12689 0.06066
# Poissons Ratio (z) = 0.27600 0.20600
#
# Static dielectric constant tensor:
#      x y z
#    x 2.034980 0.000000 -0.063260 
#    y 0.000000 1.995070 0.000000 
#    z -0.063260 0.000000 1.939940 
# 
# From -- ./inp_files/43471.got.cif
#   From: 2010.05.17/outbox.cif.g08.bks.cpg/sg13_22_cif.got.tgz:43471.got - 2010.06.03 16:44:36.
