data_PCOD9231489
_publ_section_title
;
Structure prediction by ZEFSAII (Michael W. Deem and Ramdas Pophale) SiO2 
 PCOD9231489
Probable space group: P 2/C
;
_chemical_formula_sum "Si O2"
_cell_formula_units_Z 32
_cell_length_a 18.149362
_cell_length_b 11.892240
_cell_length_c 13.670150
_cell_angle_alpha 90.000000
_cell_angle_beta 30.026643
_cell_angle_gamma 90.000000
_cell_volume 1476.447175
_symmetry_space_group_name_H-M "P 2/C"
_symmetry_group_IT_number 13
_symmetry_cell_setting 'monoclinic'
loop_
_space_group_symop_operation_xyz
x,y,z
-x,y,1/2-z
-x,-y,-z
x,-y,1/2+z
loop_
_atom_site_type_symbol
_atom_site_label
_atom_site_fract_x
_atom_site_fract_y
_atom_site_fract_z
Si Si1 0.124855 0.890461 0.762192
Si Si2 0.471119 0.487734 0.173114
Si Si3 0.362557 0.013896 0.843499
Si Si4 0.865544 0.715236 0.606268
Si Si5 0.250000 0.482614 0.771537
Si Si6 0.651863 0.750194 0.673315
Si Si7 0.194179 0.266898 0.706582
Si Si8 0.786327 0.069734 0.680366
O O1 0.216866 0.946801 0.569876
O O2 0.161999 0.763550 0.753534
O O3 0.176333 0.959666 0.799415
O O4 0.948354 0.897562 0.951475
O O5 0.500000 0.522531 0.250000
O O6 0.318514 0.530242 0.301143
O O7 0.465992 0.350043 0.176221
O O8 0.607506 0.527956 0.951713
O O9 0.500000 0.056905 0.750000
O O10 0.333092 0.056588 0.767363
O O11 0.383501 0.879377 0.808786
O O12 0.868531 0.580597 0.596983
O O13 0.746026 0.749688 0.663705
O O14 0.022601 0.763319 0.392551
O O15 0.202893 0.370805 0.770956
O O16 0.742014 0.710570 0.473562
O O17 0.265150 0.162064 0.681593
#
# Coordination Sequence:
#
# PCOD9231489 Si02
#       8
#     4   4   4   4   4   4   4   4
#     4  10  21  42  64  89 127 167 207 254 316 379
#     4  10  20  40  60  86 118 163 198 245 313 375
#     4  12  25  40  60  97 129 169 212 261 314 372
#     4  10  22  40  64  93 122 160 206 260 311 375
#     4  10  22  39  62  89 122 161 202 255 311 368
#     4  11  21  37  66  94 121 154 209 263 313 368
#     4  11  21  39  65  94 121 156 211 263 308 366
#     4  10  22  40  64  91 126 167 205 257 318 370
#
# _framework density 21.673651
#
# number of rings (size 3 to 8) (size 9 to 14) (size 15 to 20)
#    0.000    1.500    3.750    1.500    0.000    1.500 
#    9.000    0.000    0.000    0.000    0.000    0.000 
#    0.000    0.000    0.000    0.000    0.000    0.000 
#
# Total GULP energy -178607.621912 kJ/mol
# GULP energy per Si atom -5581.488185 kJ/mol
# Density = 2.162432 g / cm^3
# Si number density = 21.673651 Si / 1000 Ang^3
#
#
#
# Elastic Constant Matrix: (Units=GPa)
#
#
# Indices 1 2 3 4 5 6 
#
# 1 118.3283 21.4641 5.7311 0.0000 -6.9980 0.0000
# 2 21.4641 40.9774 -8.5165 0.0000 1.0868 0.0000
# 3 5.7311 -8.5165 37.1860 0.0000 5.6921 0.0000
# 4 0.0000 0.0000 0.0000 22.6222 0.0000 3.1940
# 5 -6.9980 1.0868 5.6921 0.0000 26.0214 0.0000
# 6 0.0000 0.0000 0.0000 3.1940 0.0000 34.6033
#
#
#
# Elastic Compliance Matrix: (Units=1/GPa)
#
#
# Indices 1 2 3 4 5 6 
#
# 1 0.009929 -0.006020 -0.003473 0.000000 0.003681 0.000000
# 2 -0.006020 0.029424 0.008383 0.000000 -0.004682 0.000000
# 3 -0.003473 0.008383 0.030567 0.000000 -0.007970 0.000000
# 4 0.000000 0.000000 0.000000 0.044788 0.000000 -0.004134
# 5 0.003681 -0.004682 -0.007970 0.000000 0.041359 0.000000
# 6 0.000000 0.000000 0.000000 -0.004134 0.000000 0.029281
#
#
# Mechanical properties :
#
#
# Convention : Reuss Voigt Hill
#
# Bulk Modulus (GPa) = 14.77095 25.98325 20.37710
# Shear Modulus (GPa) = 23.79445 28.50357 26.14901
#
# Velocity S-wave (km/s) = 3.31698 3.63040 3.47722
# Velocity P-wave (km/s) = 4.63678 5.43944 5.05407
#
# Compressibility (1/GPa) = 0.06770047
#
# Stress axis : x y z
#
# Youngs Moduli (GPa) = 100.71516 33.98639 32.71501
#
# Poissons Ratio (x) = 0.20460 0.11360
# Poissons Ratio (y) = 0.60632 -0.27426
# Poissons Ratio (z) = 0.34974 -0.28491
#
# Static dielectric constant tensor:
#      x y z
#    x 1.796830 0.000000 -0.010180 
#    y 0.000000 1.809030 0.000000 
#    z -0.010180 0.000000 1.803850 
# 
# From -- ./inp_files/55788.got.cif
#   From: 2010.05.17/outbox.cif.g08.bks.cpg/sg13_28_cif.got.tgz:55788.got - 2010.06.03 16:44:36.
