data_PCOD9231244
_publ_section_title
;
Structure prediction by ZEFSAII (Michael W. Deem and Ramdas Pophale) SiO2 
 PCOD9231244
Probable space group: P 2/C
;
_chemical_formula_sum "Si O2"
_cell_formula_units_Z 22
_cell_length_a 11.759944
_cell_length_b 8.115734
_cell_length_c 22.595222
_cell_angle_alpha 90.000000
_cell_angle_beta 23.113092
_cell_angle_gamma 90.000000
_cell_volume 846.528624
_symmetry_space_group_name_H-M "P 2/C"
_symmetry_group_IT_number 13
_symmetry_cell_setting 'monoclinic'
loop_
_space_group_symop_operation_xyz
x,y,z
-x,y,1/2-z
-x,-y,-z
x,-y,1/2+z
loop_
_atom_site_type_symbol
_atom_site_label
_atom_site_fract_x
_atom_site_fract_y
_atom_site_fract_z
Si Si1 0.380594 0.655150 0.092067
Si Si2 0.068075 0.644525 0.090723
Si Si3 0.000000 0.941320 0.250000
Si Si4 0.289961 0.789496 0.453477
Si Si5 0.561059 0.532734 0.782729
Si Si6 0.814658 0.004768 0.210727
O O1 0.095511 0.610427 0.268305
O O2 0.275316 0.817851 0.106708
O O3 0.619546 0.717081 0.025044
O O4 0.500000 0.500000 0.000000
O O5 0.891568 0.515495 0.134948
O O6 0.970899 0.829513 0.123272
O O7 0.402245 0.621095 0.914201
O O8 0.899327 0.033979 0.239408
O O9 0.404976 0.647979 0.356058
O O10 0.486326 0.954972 0.356060
O O11 0.962237 0.848147 0.605150
O O12 0.500000 0.617826 0.750000
#
# Coordination Sequence:
#
# PCOD9231244 Si02
#       6
#     4   4   2   4   4   4
#     4   9  19  33  53  83 116 144 184 223 277 328
#     4   9  21  35  58  83 112 144 182 235 277 334
#     4   8  18  32  50  70 116 146 174 234 252 326
#     4   9  21  37  54  81 110 149 181 234 272 331
#     4  10  20  39  58  83 109 143 189 241 286 327
#     4   9  19  37  51  77 115 141 186 219 275 323
#
# _framework density 25.988489000000001
#
# number of rings (size 3 to 8) (size 9 to 14) (size 15 to 20)
#    0.000    3.636    0.000    0.545   10.182    4.364 
#    3.273    4.545    0.000    0.000    0.000    0.000 
#    0.000    0.000    0.000    0.000    0.000    0.000 
#
# Total GULP energy -122787.621491 kJ/mol
# GULP energy per Si atom -5581.255522 kJ/mol
# Density = 2.592934 g / cm^3
# Si number density = 25.988489 Si / 1000 Ang^3
#
#
#
# Elastic Constant Matrix: (Units=GPa)
#
#
# Indices 1 2 3 4 5 6 
#
# 1 44.1273 -7.9930 11.9643 0.0000 4.4532 0.0000
# 2 -7.9930 63.7579 37.2953 0.0000 8.6626 0.0000
# 3 11.9643 37.2953 102.8253 0.0000 -9.7352 0.0000
# 4 0.0000 0.0000 0.0000 44.0292 0.0000 -7.2489
# 5 4.4532 8.6626 -9.7352 0.0000 19.8879 0.0000
# 6 0.0000 0.0000 0.0000 -7.2489 0.0000 8.0265
#
#
#
# Elastic Compliance Matrix: (Units=1/GPa)
#
#
# Indices 1 2 3 4 5 6 
#
# 1 0.028483 0.010699 -0.008640 0.000000 -0.015268 0.000000
# 2 0.010699 0.027609 -0.013238 0.000000 -0.020901 0.000000
# 3 -0.008640 -0.013238 0.017051 0.000000 0.016047 0.000000
# 4 0.000000 0.000000 0.000000 0.026679 0.000000 0.024094
# 5 -0.015268 -0.020901 0.016047 0.000000 0.070660 0.000000
# 6 0.000000 0.000000 0.000000 0.024094 0.000000 0.146347
#
#
# Mechanical properties :
#
#
# Convention : Reuss Voigt Hill
#
# Bulk Modulus (GPa) = 19.69050 32.58265 26.13657
# Shear Modulus (GPa) = 14.04039 25.68497 19.86268
#
# Velocity S-wave (km/s) = 2.32686 3.14717 2.76757
# Velocity P-wave (km/s) = 3.84865 5.07649 4.50460
#
# Compressibility (1/GPa) = 0.05078591
#
# Stress axis : x y z
#
# Youngs Moduli (GPa) = 35.10841 36.22030 58.64668
#
# Poissons Ratio (x) = -0.38753 0.50673
# Poissons Ratio (y) = -0.37564 0.77634
# Poissons Ratio (z) = 0.30335 0.47947
#
# Static dielectric constant tensor:
#      x y z
#    x 2.149300 0.000000 0.005080 
#    y 0.000000 2.064980 0.000000 
#    z 0.005080 0.000000 2.032370 
# 
# From -- ./inp_files/92766.got.cif
#   From: 2010.05.17/outbox.cif.g08.bks.cpg/sg13_47_cif.got.tgz:92766.got - 2010.06.03 16:44:36.
