data_PCOD9231016
_publ_section_title
;
Structure prediction by ZEFSAII (Michael W. Deem and Ramdas Pophale) SiO2 
 PCOD9231016
Probable space group: P 2/C
;
_chemical_formula_sum "Si O2"
_cell_formula_units_Z 32
_cell_length_a 8.821466
_cell_length_b 15.530293
_cell_length_c 12.109703
_cell_angle_alpha 90.000000
_cell_angle_beta 92.009100
_cell_angle_gamma 90.000000
_cell_volume 1658.008873
_symmetry_space_group_name_H-M "P 2/C"
_symmetry_group_IT_number 13
_symmetry_cell_setting 'monoclinic'
loop_
_space_group_symop_operation_xyz
x,y,z
-x,y,1/2-z
-x,-y,-z
x,-y,1/2+z
loop_
_atom_site_type_symbol
_atom_site_label
_atom_site_fract_x
_atom_site_fract_y
_atom_site_fract_z
Si Si1 0.672128 0.104899 0.513936
Si Si2 0.325999 0.324000 0.750954
Si Si3 0.687140 0.589949 0.477696
Si Si4 0.199326 0.754440 0.642295
Si Si5 0.176328 0.849484 0.253064
Si Si6 0.330198 0.604665 0.495733
Si Si7 0.314440 0.092717 0.536990
Si Si8 0.161633 0.248169 0.399342
O O1 0.723504 0.162475 0.411998
O O2 0.754582 0.139448 0.624578
O O3 0.492038 0.112544 0.526694
O O4 0.712112 0.004492 0.503249
O O5 0.500000 0.289048 0.750000
O O6 0.314879 0.393517 0.653857
O O7 0.207473 0.249339 0.722050
O O8 0.300360 0.359205 0.872432
O O9 0.512727 0.599714 0.513223
O O10 0.734309 0.491837 0.499304
O O11 0.783742 0.664330 0.539284
O O12 0.265852 0.669948 0.584411
O O13 0.220708 0.752877 0.774557
O O14 0.020047 0.756627 0.611945
O O15 0.265115 0.903042 0.163213
O O16 0.000000 0.870634 0.250000
O O17 0.223616 0.165437 0.467353
#
# Coordination Sequence:
#
# PCOD9231016 Si02
#       8
#     4   4   4   4   4   4   4   4
#     4  11  25  44  67  94 124 164 214 261 308 371
#     4  10  20  38  62  91 126 161 208 263 306 364
#     4  10  22  39  64  94 124 164 212 261 311 371
#     4  11  25  43  62  91 129 166 206 258 319 379
#     4  12  24  40  66  95 128 165 204 257 318 374
#     4  10  22  39  64  94 124 164 212 261 311 371
#     4  11  25  44  67  94 124 164 214 261 308 371
#     4  11  25  43  62  91 129 166 206 258 319 379
#
# _framework density 19.300259
#
# number of rings (size 3 to 8) (size 9 to 14) (size 15 to 20)
#    0.000    1.250    2.500    2.625    3.500    4.500 
#    0.000    0.000    0.000    0.000    0.000    0.000 
#    0.000    0.000    0.000    0.000    0.000    0.000 
#
# Total GULP energy -178869.556447 kJ/mol
# GULP energy per Si atom -5589.673639 kJ/mol
# Density = 1.925633 g / cm^3
# Si number density = 19.300259 Si / 1000 Ang^3
#
#
#
# Elastic Constant Matrix: (Units=GPa)
#
#
# Indices 1 2 3 4 5 6 
#
# 1 28.1439 24.3207 8.5427 0.0000 -10.8633 0.0000
# 2 24.3207 83.6902 9.0968 0.0000 -5.2385 0.0000
# 3 8.5427 9.0968 74.2252 0.0000 -13.7229 0.0000
# 4 0.0000 0.0000 0.0000 19.7158 0.0000 9.3773
# 5 -10.8633 -5.2385 -13.7229 0.0000 29.1864 0.0000
# 6 0.0000 0.0000 0.0000 9.3773 0.0000 23.2088
#
#
#
# Elastic Compliance Matrix: (Units=1/GPa)
#
#
# Indices 1 2 3 4 5 6 
#
# 1 0.055517 -0.014900 -0.001355 0.000000 0.017352 0.000000
# 2 -0.014900 0.016179 -0.000828 0.000000 -0.003031 0.000000
# 3 -0.001355 -0.000828 0.014905 0.000000 0.006355 0.000000
# 4 0.000000 0.000000 0.000000 0.062787 0.000000 -0.025368
# 5 0.017352 -0.003031 0.006355 0.000000 0.043165 0.000000
# 6 0.000000 0.000000 0.000000 -0.025368 0.000000 0.053337
#
#
# Mechanical properties :
#
#
# Convention : Reuss Voigt Hill
#
# Bulk Modulus (GPa) = 19.07190 29.99775 24.53482
# Shear Modulus (GPa) = 16.80480 24.02879 20.41680
#
# Velocity S-wave (km/s) = 2.95397 3.53228 3.25599
# Velocity P-wave (km/s) = 4.64087 5.67560 5.18412
#
# Compressibility (1/GPa) = 0.05243317
#
# Stress axis : x y z
#
# Youngs Moduli (GPa) = 18.01266 61.80823 67.09182
#
# Poissons Ratio (x) = 0.92093 0.09094
# Poissons Ratio (y) = 0.26839 0.05558
# Poissons Ratio (z) = 0.02441 0.05121
#
# Static dielectric constant tensor:
#      x y z
#    x 1.663480 0.000000 -0.011290 
#    y 0.000000 1.660210 0.000000 
#    z -0.011290 0.000000 1.645220 
# 
# From -- ./inp_files/30419.got.cif
#   From: 2010.05.17/outbox.cif.g08.bks.cpg/sg13_16_cif.got.tgz:30419.got - 2010.06.03 16:44:36.
