data_PCOD9231393
_publ_section_title
;
Structure prediction by ZEFSAII (Michael W. Deem and Ramdas Pophale) SiO2 
 PCOD9231393
Probable space group: P 2/C
;
_chemical_formula_sum "Si O2"
_cell_formula_units_Z 28
_cell_length_a 7.235397
_cell_length_b 9.521574
_cell_length_c 19.734444
_cell_angle_alpha 90.000000
_cell_angle_beta 65.629992
_cell_angle_gamma 90.000000
_cell_volume 1238.416143
_symmetry_space_group_name_H-M "P 2/C"
_symmetry_group_IT_number 13
_symmetry_cell_setting 'monoclinic'
loop_
_space_group_symop_operation_xyz
x,y,z
-x,y,1/2-z
-x,-y,-z
x,-y,1/2+z
loop_
_atom_site_type_symbol
_atom_site_label
_atom_site_fract_x
_atom_site_fract_y
_atom_site_fract_z
Si Si1 0.309152 0.296591 0.501131
Si Si2 0.886337 0.787542 0.113437
Si Si3 0.500000 0.688896 0.250000
Si Si4 0.692549 0.401790 0.528363
Si Si5 0.020345 0.621868 0.633596
Si Si6 0.828002 0.895323 0.602830
Si Si7 0.500000 0.177821 0.250000
Si Si8 0.686644 0.563141 0.786139
O O1 0.508840 0.319802 0.518284
O O2 0.125775 0.564704 0.551714
O O3 0.183568 0.441735 0.304328
O O4 0.265599 0.174678 0.451316
O O5 0.710848 0.768538 0.198138
O O6 0.786979 0.698568 0.068588
O O7 0.116688 0.726086 0.081983
O O8 0.911452 0.948143 0.084993
O O9 0.436441 0.581267 0.198663
O O10 0.652777 0.564274 0.552287
O O11 0.976190 0.782322 0.617303
O O12 0.174020 0.586837 0.670681
O O13 0.656866 0.912762 0.685830
O O14 0.418681 0.287328 0.206951
#
# Coordination Sequence:
#
# PCOD9231393 Si02
#       8
#     4   4   2   4   4   4   2   4
#     4  11  25  43  68 100 134 175 230 275 333 395
#     4  12  26  46  65 100 142 178 220 276 345 402
#     4  11  25  42  70  92 138 176 224 284 342 390
#     4  11  25  41  71  99 134 176 226 283 329 388
#     4  10  20  39  66 100 133 169 225 276 329 400
#     4  11  23  42  67  97 140 181 216 276 340 409
#     4   9  19  36  64  92 126 176 222 272 326 398
#     4   9  20  37  68 100 126 169 227 279 330 384
#
# _framework density 22.609525000000001
#
# number of rings (size 3 to 8) (size 9 to 14) (size 15 to 20)
#    0.000    1.429    1.429    3.000   10.000    0.571 
#    2.571    0.000    3.143    0.000    0.000    0.000 
#    0.000    0.000    0.000    0.000    0.000    0.000 
#
# Total GULP energy -155888.270122 kJ/mol
# GULP energy per Si atom -5567.438219 kJ/mol
# Density = 2.255807 g / cm^3
# Si number density = 22.609525 Si / 1000 Ang^3
#
#
#
# Elastic Constant Matrix: (Units=GPa)
#
#
# Indices 1 2 3 4 5 6 
#
# 1 49.5144 20.4708 -1.4004 0.0000 -2.0455 0.0000
# 2 20.4708 106.1927 1.7631 0.0000 -4.4059 0.0000
# 3 -1.4004 1.7631 61.8061 0.0000 -13.5588 0.0000
# 4 0.0000 0.0000 0.0000 5.5879 0.0000 -2.5578
# 5 -2.0455 -4.4059 -13.5588 0.0000 39.8994 0.0000
# 6 0.0000 0.0000 0.0000 -2.5578 0.0000 25.2070
#
#
#
# Elastic Compliance Matrix: (Units=1/GPa)
#
#
# Indices 1 2 3 4 5 6 
#
# 1 0.022001 -0.004216 0.000826 0.000000 0.000943 0.000000
# 2 -0.004216 0.010268 -0.000202 0.000000 0.000849 0.000000
# 3 0.000826 -0.000202 0.017514 0.000000 0.005972 0.000000
# 4 0.000000 0.000000 0.000000 0.187676 0.000000 0.019044
# 5 0.000943 0.000849 0.005972 0.000000 0.027234 0.000000
# 6 0.000000 0.000000 0.000000 0.019044 0.000000 0.041604
#
#
# Mechanical properties :
#
#
# Convention : Reuss Voigt Hill
#
# Bulk Modulus (GPa) = 23.47472 28.79779 26.13626
# Shear Modulus (GPa) = 15.25865 27.25082 21.25474
#
# Velocity S-wave (km/s) = 2.60066 3.47548 3.06940
# Velocity P-wave (km/s) = 4.40717 5.37308 4.91391
#
# Compressibility (1/GPa) = 0.04259902
#
# Stress axis : x y z
#
# Youngs Moduli (GPa) = 45.45160 97.38887 57.09664
#
# Poissons Ratio (x) = 0.41057 -0.04714
# Poissons Ratio (y) = 0.19162 0.01154
# Poissons Ratio (z) = -0.03753 0.01969
#
# Static dielectric constant tensor:
#      x y z
#    x 1.839690 0.000000 -0.172550 
#    y 0.000000 1.875040 0.000000 
#    z -0.172550 0.000000 1.874160 
# 
# From -- ./inp_files/84582.got.cif
#   From: 2010.05.17/outbox.cif.g08.bks.cpg/sg13_43_cif.got.tgz:84582.got - 2010.06.03 16:44:36.
