data_PCOD9231265
_publ_section_title
;
Structure prediction by ZEFSAII (Michael W. Deem and Ramdas Pophale) SiO2 
 PCOD9231265
Probable space group: P 2/C
;
_chemical_formula_sum "Si O2"
_cell_formula_units_Z 24
_cell_length_a 15.554372
_cell_length_b 9.102993
_cell_length_c 8.448904
_cell_angle_alpha 90.000000
_cell_angle_beta 112.147495
_cell_angle_gamma 90.000000
_cell_volume 1108.024983
_symmetry_space_group_name_H-M "P 2/C"
_symmetry_group_IT_number 13
_symmetry_cell_setting 'monoclinic'
loop_
_space_group_symop_operation_xyz
x,y,z
-x,y,1/2-z
-x,-y,-z
x,-y,1/2+z
loop_
_atom_site_type_symbol
_atom_site_label
_atom_site_fract_x
_atom_site_fract_y
_atom_site_fract_z
Si Si1 0.734141 0.195280 0.410661
Si Si2 0.116793 0.288173 0.484456
Si Si3 0.500000 0.596322 0.250000
Si Si4 0.814327 0.543538 0.161158
Si Si5 0.801145 0.958856 0.650713
Si Si6 0.377995 0.378951 0.379311
Si Si7 0.000000 0.932424 0.750000
O O1 0.786025 0.340075 0.506997
O O2 0.789550 0.108799 0.314190
O O3 0.643152 0.247894 0.256620
O O4 0.728922 0.082816 0.552429
O O5 0.116544 0.420991 0.358381
O O6 0.143555 0.363334 0.666044
O O7 0.195774 0.175571 0.472675
O O8 0.027089 0.182572 0.409395
O O9 0.436074 0.495941 0.318290
O O10 0.568167 0.671423 0.425058
O O11 0.718832 0.458817 0.141208
O O12 0.906559 0.020221 0.715837
#
# Coordination Sequence:
#
# PCOD9231265 Si02
#       7
#     4   4   2   4   4   4   2
#     4  12  23  41  66  93 124 171 218 253 311 383
#     4  10  20  39  60  91 131 166 220 260 322 359
#     4  10  22  36  66 104 130 150 194 260 338 360
#     4  12  20  38  66  97 124 166 216 264 308 380
#     4  10  23  43  59  89 126 176 217 249 313 371
#     4  11  20  39  65 101 125 158 197 262 306 389
#     4   8  22  42  58  84 136 164 220 268 308 370
#
# _framework density 21.660160999999999
#
# number of rings (size 3 to 8) (size 9 to 14) (size 15 to 20)
#    1.000    0.333    5.000    1.000    0.000    1.333 
#    0.000    0.000    0.000    3.000    0.000    0.000 
#    0.000    0.000    0.000    0.000    0.000    0.000 
#
# Total GULP energy -133814.074846 kJ/mol
# GULP energy per Si atom -5575.586452 kJ/mol
# Density = 2.161086 g / cm^3
# Si number density = 21.660161 Si / 1000 Ang^3
#
#
#
# Elastic Constant Matrix: (Units=GPa)
#
#
# Indices 1 2 3 4 5 6 
#
# 1 33.7625 -1.4822 18.6370 0.0000 7.9240 0.0000
# 2 -1.4822 75.9620 32.3807 0.0000 5.4539 0.0000
# 3 18.6370 32.3807 127.0758 0.0000 17.4819 0.0000
# 4 0.0000 0.0000 0.0000 22.5373 0.0000 -43.8024
# 5 7.9240 5.4539 17.4819 0.0000 22.4548 0.0000
# 6 0.0000 0.0000 0.0000 -43.8024 0.0000 -142.8390
#
#
#
# Elastic Compliance Matrix: (Units=1/GPa)
#
#
# Indices 1 2 3 4 5 6 
#
# 1 0.034516 0.003315 -0.004615 0.000000 -0.009393 0.000000
# 2 0.003315 0.015098 -0.004108 0.000000 -0.001639 0.000000
# 3 -0.004615 -0.004108 0.010339 0.000000 -0.005423 0.000000
# 4 0.000000 0.000000 0.000000 0.027801 0.000000 -0.008525
# 5 -0.009393 -0.001639 -0.005423 0.000000 0.052468 0.000000
# 6 0.000000 0.000000 0.000000 -0.008525 0.000000 -0.004387
#
#
# Mechanical properties :
#
#
# Convention : Reuss Voigt Hill
#
# Bulk Modulus (GPa) = 20.35105 37.31904 28.83504
# Shear Modulus (GPa) = 30.66912 -7.08508 11.79202
#
# Velocity S-wave (km/s) = 3.76696 -1.81056 2.33579
# Velocity P-wave (km/s) = 5.32315 3.59109 4.54048
#
# Compressibility (1/GPa) = 0.04913753
#
# Stress axis : x y z
#
# Youngs Moduli (GPa) = 28.97213 66.23433 96.72182
#
# Poissons Ratio (x) = -0.21957 0.44634
# Poissons Ratio (y) = -0.09604 0.39733
# Poissons Ratio (z) = 0.13370 0.27208
#
# Static dielectric constant tensor:
#      x y z
#    x 1.787680 0.000000 0.018860 
#    y 0.000000 1.807680 0.000000 
#    z 0.018860 0.000000 1.862040 
# 
# From -- ./inp_files/20953.got.cif
#   From: 2010.05.17/outbox.cif.g08.bks.cpg/sg13_11_cif.got.tgz:20953.got - 2010.06.03 16:44:36.
