data_PCOD9231635
_publ_section_title
;
Structure prediction by ZEFSAII (Michael W. Deem and Ramdas Pophale) SiO2 
 PCOD9231635
Probable space group: P 2/C
;
_chemical_formula_sum "Si O2"
_cell_formula_units_Z 22
_cell_length_a 14.339773
_cell_length_b 8.871865
_cell_length_c 16.308277
_cell_angle_alpha 90.000000
_cell_angle_beta 149.547265
_cell_angle_gamma 90.000000
_cell_volume 1051.538969
_symmetry_space_group_name_H-M "P 2/C"
_symmetry_group_IT_number 13
_symmetry_cell_setting 'monoclinic'
loop_
_space_group_symop_operation_xyz
x,y,z
-x,y,1/2-z
-x,-y,-z
x,-y,1/2+z
loop_
_atom_site_type_symbol
_atom_site_label
_atom_site_fract_x
_atom_site_fract_y
_atom_site_fract_z
Si Si1 0.330640 0.893263 0.388483
Si Si2 0.076956 0.512704 0.434437
Si Si3 0.000000 0.719460 0.750000
Si Si4 0.926661 0.955099 0.569286
Si Si5 0.174661 0.290485 0.636693
Si Si6 0.683052 0.769431 0.940097
O O1 0.328147 0.769599 0.314185
O O2 0.349586 0.821247 0.492136
O O3 0.500000 0.000000 0.500000
O O4 0.134558 0.982129 0.236325
O O5 0.210653 0.411222 0.592567
O O6 0.192290 0.620718 0.463740
O O7 0.951248 0.396160 0.287010
O O8 0.966925 0.623173 0.411121
O O9 0.122921 0.838926 0.893917
O O10 0.904853 0.855969 0.470859
O O11 0.793047 0.096875 0.476944
O O12 0.500000 0.740457 0.750000
#
# Coordination Sequence:
#
# PCOD9231635 Si02
#       6
#     4   4   2   4   4   4
#     4  12  24  40  67 100 127 170 222 277 320 381
#     4  10  22  40  67  93 135 171 215 260 337 391
#     4  10  20  40  66  98 120 178 212 260 320 396
#     4  11  22  43  69  95 128 171 225 273 322 386
#     4  10  22  41  68  95 128 174 213 271 329 388
#     4  12  25  43  67  99 130 175 220 272 327 392
#
# _framework density 20.921716
#
# number of rings (size 3 to 8) (size 9 to 14) (size 15 to 20)
#    0.000    1.091    3.636    2.727    2.545    0.000 
#    3.273    2.727    0.000    0.000    0.000    0.000 
#    0.000    0.000    0.000    0.000    0.000    0.000 
#
# Total GULP energy -122670.579936 kJ/mol
# GULP energy per Si atom -5575.935452 kJ/mol
# Density = 2.087410 g / cm^3
# Si number density = 20.921716 Si / 1000 Ang^3
#
#
#
# Elastic Constant Matrix: (Units=GPa)
#
#
# Indices 1 2 3 4 5 6 
#
# 1 67.8215 21.5888 8.1558 0.0000 -22.0067 0.0000
# 2 21.5888 101.5861 13.0291 0.0000 -6.7095 0.0000
# 3 8.1558 13.0291 54.1934 0.0000 -11.6819 0.0000
# 4 0.0000 0.0000 0.0000 42.6522 0.0000 -14.0249
# 5 -22.0067 -6.7095 -11.6819 0.0000 33.4112 0.0000
# 6 0.0000 0.0000 0.0000 -14.0249 0.0000 11.1010
#
#
#
# Elastic Compliance Matrix: (Units=1/GPa)
#
#
# Indices 1 2 3 4 5 6 
#
# 1 0.019862 -0.003461 0.000555 0.000000 0.012581 0.000000
# 2 -0.003461 0.010811 -0.002273 0.000000 -0.000904 0.000000
# 3 0.000555 -0.002273 0.020436 0.000000 0.007054 0.000000
# 4 0.000000 0.000000 0.000000 0.040107 0.000000 0.050671
# 5 0.012581 -0.000904 0.007054 0.000000 0.040502 0.000000
# 6 0.000000 0.000000 0.000000 0.050671 0.000000 0.154100
#
#
# Mechanical properties :
#
#
# Convention : Reuss Voigt Hill
#
# Bulk Modulus (GPa) = 24.53939 34.34983 29.44461
# Shear Modulus (GPa) = 16.14147 29.48803 22.81475
#
# Velocity S-wave (km/s) = 2.78063 3.75833 3.30583
# Velocity P-wave (km/s) = 4.69722 5.94031 5.35496
#
# Compressibility (1/GPa) = 0.04075081
#
# Stress axis : x y z
#
# Youngs Moduli (GPa) = 50.34738 92.49577 48.93316
#
# Poissons Ratio (x) = 0.32015 -0.02716
# Poissons Ratio (y) = 0.17427 0.11123
# Poissons Ratio (z) = -0.02795 0.21025
#
# Static dielectric constant tensor:
#      x y z
#    x 1.767840 0.000000 -0.030370 
#    y 0.000000 1.817150 0.000000 
#    z -0.030370 0.000000 1.730830 
# 
# From -- ./inp_files/68309.got.cif
#   From: 2010.05.17/outbox.cif.g08.bks.cpg/sg13_35_cif.got.tgz:68309.got - 2010.06.03 16:44:36.
