data_PCOD9231847
_publ_section_title
;
Structure prediction by ZEFSAII (Michael W. Deem and Ramdas Pophale) SiO2 
 PCOD9231847
Probable space group: P 2/C
;
_chemical_formula_sum "Si O2"
_cell_formula_units_Z 24
_cell_length_a 22.945099
_cell_length_b 4.926013
_cell_length_c 12.610604
_cell_angle_alpha 90.000000
_cell_angle_beta 134.354007
_cell_angle_gamma 90.000000
_cell_volume 1019.173505
_symmetry_space_group_name_H-M "P 2/C"
_symmetry_group_IT_number 13
_symmetry_cell_setting 'monoclinic'
loop_
_space_group_symop_operation_xyz
x,y,z
-x,y,1/2-z
-x,-y,-z
x,-y,1/2+z
loop_
_atom_site_type_symbol
_atom_site_label
_atom_site_fract_x
_atom_site_fract_y
_atom_site_fract_z
Si Si1 0.256883 0.445195 0.976292
Si Si2 0.338163 0.795721 0.392023
Si Si3 0.997889 0.183004 0.871459
Si Si4 0.775411 0.922839 0.435281
Si Si5 0.090660 0.309193 0.552643
Si Si6 0.588117 0.665153 0.409318
O O1 0.214221 0.725884 0.950455
O O2 0.353419 0.526383 0.104739
O O3 0.229494 0.225344 0.026889
O O4 0.261585 0.330364 0.862661
O O5 0.307084 0.866805 0.236465
O O6 0.405713 0.560455 0.489478
O O7 0.369827 0.061773 0.493651
O O8 0.000000 0.220528 0.750000
O O9 0.915803 0.270449 0.828667
O O10 0.071090 0.378888 0.004671
O O11 0.011951 0.868556 0.915632
O O12 0.843318 0.832160 0.437827
O O13 0.500000 0.714644 0.250000
#
# Coordination Sequence:
#
# PCOD9231847 Si02
#       6
#     4   4   4   4   4   4
#     4  10  22  40  58  88 126 153 202 254 295 363
#     4  10  22  39  61  88 122 158 201 252 297 365
#     4  10  21  43  60  88 121 154 205 238 289 356
#     4  12  22  39  62  91 124 160 198 249 312 352
#     4  10  23  37  62  90 120 155 196 252 286 352
#     4  10  20  42  63  82 121 165 198 255 305 347
#
# _framework density 23.548493000000001
#
# number of rings (size 3 to 8) (size 9 to 14) (size 15 to 20)
#    1.000    0.667    1.667    3.000    0.000    2.667 
#    0.000    5.000    0.000    0.000    0.000    0.000 
#    0.000    0.000    0.000    0.000    0.000    0.000 
#
# Total GULP energy -133793.635902 kJ/mol
# GULP energy per Si atom -5574.734829 kJ/mol
# Density = 2.349490 g / cm^3
# Si number density = 23.548493 Si / 1000 Ang^3
#
#
#
# Elastic Constant Matrix: (Units=GPa)
#
#
# Indices 1 2 3 4 5 6 
#
# 1 62.9423 7.6277 -0.0111 0.0000 -11.4187 0.0000
# 2 7.6277 122.3016 3.4667 0.0000 0.5383 0.0000
# 3 -0.0111 3.4667 42.1897 0.0000 -14.5846 0.0000
# 4 0.0000 0.0000 0.0000 6.5843 0.0000 -1.9383
# 5 -11.4187 0.5383 -14.5846 0.0000 25.4867 0.0000
# 6 0.0000 0.0000 0.0000 -1.9383 0.0000 26.0270
#
#
#
# Elastic Compliance Matrix: (Units=1/GPa)
#
#
# Indices 1 2 3 4 5 6 
#
# 1 0.017872 -0.001261 0.003597 0.000000 0.010092 0.000000
# 2 -0.001261 0.008294 -0.001169 0.000000 -0.001409 0.000000
# 3 0.003597 -0.001169 0.030374 0.000000 0.019017 0.000000
# 4 0.000000 0.000000 0.000000 0.155280 0.000000 0.011564
# 5 0.010092 -0.001409 0.019017 0.000000 0.054670 0.000000
# 6 0.000000 0.000000 0.000000 0.011564 0.000000 0.039283
#
#
# Mechanical properties :
#
#
# Convention : Reuss Voigt Hill
#
# Bulk Modulus (GPa) = 16.98541 27.73336 22.35938
# Shear Modulus (GPa) = 15.47682 26.04295 20.75988
#
# Velocity S-wave (km/s) = 2.56643 3.32916 2.97236
# Velocity P-wave (km/s) = 4.00134 5.15562 4.61471
#
# Compressibility (1/GPa) = 0.05887406
#
# Stress axis : x y z
#
# Youngs Moduli (GPa) = 55.95378 120.56189 32.92338
#
# Poissons Ratio (x) = 0.15203 -0.11843
# Poissons Ratio (y) = 0.07056 0.03849
# Poissons Ratio (z) = -0.20127 0.14094
#
# Static dielectric constant tensor:
#      x y z
#    x 2.035850 0.000000 0.026290 
#    y 0.000000 1.833580 0.000000 
#    z 0.026290 0.000000 1.959930 
# 
# From -- ./inp_files/41291.got.cif
#   From: 2010.05.17/outbox.cif.g08.bks.cpg/sg13_21_cif.got.tgz:41291.got - 2010.06.03 16:44:36.
