data_PCOD9231977
_publ_section_title
;
Structure prediction by ZEFSAII (Michael W. Deem and Ramdas Pophale) SiO2 
 PCOD9231977
Probable space group: P 2/C
;
_chemical_formula_sum "Si O2"
_cell_formula_units_Z 30
_cell_length_a 22.678681
_cell_length_b 10.785819
_cell_length_c 9.073104
_cell_angle_alpha 90.000000
_cell_angle_beta 140.336699
_cell_angle_gamma 90.000000
_cell_volume 1416.558637
_symmetry_space_group_name_H-M "P 2/C"
_symmetry_group_IT_number 13
_symmetry_cell_setting 'monoclinic'
loop_
_space_group_symop_operation_xyz
x,y,z
-x,y,1/2-z
-x,-y,-z
x,-y,1/2+z
loop_
_atom_site_type_symbol
_atom_site_label
_atom_site_fract_x
_atom_site_fract_y
_atom_site_fract_z
Si Si1 0.809610 0.860406 0.292570
Si Si2 0.547970 0.123592 0.485740
Si Si3 0.000000 0.459435 0.750000
Si Si4 0.280096 0.948613 0.683756
Si Si5 0.422287 0.243539 0.483207
Si Si6 0.675235 0.338847 0.677825
Si Si7 0.898301 0.645226 0.335426
Si Si8 0.691205 0.447151 0.410056
O O1 0.755551 0.754478 0.281026
O O2 0.898331 0.784645 0.403063
O O3 0.799870 0.982835 0.375548
O O4 0.755104 0.895396 0.038517
O O5 0.500000 0.065692 0.250000
O O6 0.475249 0.149297 0.473338
O O7 0.583931 0.258902 0.510260
O O8 0.641693 0.051228 0.700551
O O9 0.931028 0.550567 0.526766
O O10 0.955515 0.378115 0.795819
O O11 0.335122 0.837966 0.872753
O O12 0.380642 0.359375 0.314416
O O13 0.500000 0.279166 0.750000
O O14 0.667591 0.439986 0.535632
O O15 0.692896 0.412883 0.859186
O O16 0.793346 0.610386 0.090046
#
# Coordination Sequence:
#
# PCOD9231977 Si02
#       8
#     4   4   2   4   4   4   4   4
#     4  10  21  40  64  92 129 159 215 260 319 374
#     4  11  21  38  56  80 126 168 229 281 306 348
#     4  10  22  40  80 104 128 160 192 252 330 398
#     4  11  20  40  61  86 121 177 216 275 306 352
#     4  12  23  35  54  91 121 174 230 262 300 362
#     4  10  22  38  57  83 122 173 210 268 325 368
#     4  10  20  43  67 105 128 157 202 256 318 397
#     4  11  22  40  61  87 133 166 207 265 324 378
#
# _framework density 21.178083999999998
#
# number of rings (size 3 to 8) (size 9 to 14) (size 15 to 20)
#    0.000    1.333    4.000    4.000    1.867    1.067 
#    0.000    2.667    0.000    2.400    0.000    0.000 
#    0.000    0.000    0.000    0.000    0.000    0.000 
#
# Total GULP energy -167377.943554 kJ/mol
# GULP energy per Si atom -5579.264785 kJ/mol
# Density = 2.112988 g / cm^3
# Si number density = 21.178084 Si / 1000 Ang^3
#
#
#
# Elastic Constant Matrix: (Units=GPa)
#
#
# Indices 1 2 3 4 5 6 
#
# 1 73.7965 15.2355 -3.8701 0.0000 -2.7018 0.0000
# 2 15.2355 25.5490 -13.2805 0.0000 3.4596 0.0000
# 3 -3.8701 -13.2805 33.8459 0.0000 -2.5171 0.0000
# 4 0.0000 0.0000 0.0000 37.1949 0.0000 -2.8560
# 5 -2.7018 3.4596 -2.5171 0.0000 16.2424 0.0000
# 6 0.0000 0.0000 0.0000 -2.8560 0.0000 55.6956
#
#
#
# Elastic Compliance Matrix: (Units=1/GPa)
#
#
# Indices 1 2 3 4 5 6 
#
# 1 0.015942 -0.011325 -0.002270 0.000000 0.004712 0.000000
# 2 -0.011325 0.058152 0.020700 0.000000 -0.011062 0.000000
# 3 -0.002270 0.020700 0.037484 0.000000 0.001022 0.000000
# 4 0.000000 0.000000 0.000000 0.026992 0.000000 0.001384
# 5 0.004712 -0.011062 0.001022 0.000000 0.064866 0.000000
# 6 0.000000 0.000000 0.000000 0.001384 0.000000 0.018026
#
#
# Mechanical properties :
#
#
# Convention : Reuss Voigt Hill
#
# Bulk Modulus (GPa) = 7.94990 14.37345 11.16167
# Shear Modulus (GPa) = 20.06571 30.83370 25.44970
#
# Velocity S-wave (km/s) = 3.08145 3.81980 3.47032
# Velocity P-wave (km/s) = 4.05246 5.12408 4.61945
#
# Compressibility (1/GPa) = 0.12578779
#
# Stress axis : x y z
#
# Youngs Moduli (GPa) = 62.72616 17.19639 26.67778
#
# Poissons Ratio (x) = 0.19475 0.06057
# Poissons Ratio (y) = 0.71037 -0.55223
# Poissons Ratio (z) = 0.14241 -0.35597
#
# Static dielectric constant tensor:
#      x y z
#    x 1.804770 0.000000 -0.007560 
#    y 0.000000 1.822440 0.000000 
#    z -0.007560 0.000000 1.751300 
# 
# From -- ./inp_files/24148.got.cif
#   From: 2010.05.17/outbox.cif.g08.bks.cpg/sg13_13_cif.got.tgz:24148.got - 2010.06.03 16:44:36.
