data_PCOD9231448
_publ_section_title
;
Structure prediction by ZEFSAII (Michael W. Deem and Ramdas Pophale) SiO2 
 PCOD9231448
Probable space group: P 2/C
;
_chemical_formula_sum "Si O2"
_cell_formula_units_Z 28
_cell_length_a 23.842619
_cell_length_b 9.155400
_cell_length_c 20.681742
_cell_angle_alpha 90.000000
_cell_angle_beta 19.462804
_cell_angle_gamma 90.000000
_cell_volume 1504.238349
_symmetry_space_group_name_H-M "P 2/C"
_symmetry_group_IT_number 13
_symmetry_cell_setting 'monoclinic'
loop_
_space_group_symop_operation_xyz
x,y,z
-x,y,1/2-z
-x,-y,-z
x,-y,1/2+z
loop_
_atom_site_type_symbol
_atom_site_label
_atom_site_fract_x
_atom_site_fract_y
_atom_site_fract_z
Si Si1 0.757878 0.890710 0.875973
Si Si2 0.939729 0.413902 0.171673
Si Si3 0.000000 0.524842 0.250000
Si Si4 0.500000 0.028642 0.250000
Si Si5 0.813484 0.803294 0.472536
Si Si6 0.933365 0.088952 0.971443
Si Si7 0.672657 0.945469 0.340638
Si Si8 0.856177 0.318760 0.675354
O O1 0.820108 0.725998 0.808458
O O2 0.714826 0.942719 0.851376
O O3 0.910338 0.000406 0.728480
O O4 0.598020 0.927214 0.093097
O O5 0.000518 0.446963 0.179233
O O6 0.848158 0.552400 0.237024
O O7 0.080414 0.375950 0.963554
O O8 0.839022 0.634701 0.424905
O O9 0.352140 0.124704 0.377381
O O10 0.822084 0.826097 0.540067
O O11 0.000000 0.864789 0.250000
O O12 0.009103 0.203924 0.940472
O O13 0.818995 0.968005 0.129390
O O14 0.689643 0.780109 0.347670
O O15 0.500000 0.000000 0.500000
#
# Coordination Sequence:
#
# PCOD9231448 Si02
#       8
#     4   4   2   2   4   4   4   4
#     4  11  22  40  64  98 128 172 220 276 333 387
#     4  11  21  39  68  92 132 166 224 255 338 410
#     4  10  22  40  64  92 132 182 216 260 330 412
#     4  12  24  40  68  96 132 172 226 284 324 390
#     4  10  21  40  65  96 124 170 227 267 330 385
#     4  11  18  41  68  93 122 166 227 276 319 383
#     4  11  22  39  65  99 127 160 226 280 325 387
#     4  10  20  39  69  91 121 176 209 272 330 389
#
# _framework density 18.614070000000002
#
# number of rings (size 3 to 8) (size 9 to 14) (size 15 to 20)
#    0.429    0.857    5.714    1.714    2.000    1.143 
#    2.571    1.429    0.000    0.000    0.000    0.000 
#    0.000    0.000    0.000    0.000    0.000    0.000 
#
# Total GULP energy -155891.116836 kJ/mol
# GULP energy per Si atom -5567.539887 kJ/mol
# Density = 1.857170 g / cm^3
# Si number density = 18.614070 Si / 1000 Ang^3
#
#
#
# Elastic Constant Matrix: (Units=GPa)
#
#
# Indices 1 2 3 4 5 6 
#
# 1 122.1984 55.9790 40.2625 0.0000 -8.8863 0.0000
# 2 55.9790 106.5206 36.3462 0.0000 -6.5745 0.0000
# 3 40.2625 36.3462 88.2663 0.0000 -3.2807 0.0000
# 4 0.0000 0.0000 0.0000 17.7613 0.0000 3.6018
# 5 -8.8863 -6.5745 -3.2807 0.0000 32.5864 0.0000
# 6 0.0000 0.0000 0.0000 3.6018 0.0000 18.6481
#
#
#
# Elastic Compliance Matrix: (Units=1/GPa)
#
#
# Indices 1 2 3 4 5 6 
#
# 1 0.011620 -0.004895 -0.003216 0.000000 0.001858 0.000000
# 2 -0.004895 0.013086 -0.003119 0.000000 0.000991 0.000000
# 3 -0.003216 -0.003119 0.014077 0.000000 -0.000089 0.000000
# 4 0.000000 0.000000 0.000000 0.058597 0.000000 -0.011318
# 5 0.001858 0.000991 -0.000089 0.000000 0.031385 0.000000
# 6 0.000000 0.000000 0.000000 -0.011318 0.000000 0.055811
#
#
# Mechanical properties :
#
#
# Convention : Reuss Voigt Hill
#
# Bulk Modulus (GPa) = 61.25918 64.68453 62.97186
# Shear Modulus (GPa) = 23.53194 26.09233 24.81214
#
# Velocity S-wave (km/s) = 3.55942 3.74806 3.65496
# Velocity P-wave (km/s) = 7.06217 7.31822 7.19134
#
# Compressibility (1/GPa) = 0.01632408
#
# Stress axis : x y z
#
# Youngs Moduli (GPa) = 86.05526 76.42027 71.03651
#
# Poissons Ratio (x) = 0.37406 0.22845
# Poissons Ratio (y) = 0.42122 0.22154
# Poissons Ratio (z) = 0.27676 0.23834
#
# Static dielectric constant tensor:
#      x y z
#    x 1.712620 0.000000 0.025990 
#    y 0.000000 1.659780 0.000000 
#    z 0.025990 0.000000 1.687860 
# 
# From -- ./inp_files/82173.got.cif
#   From: 2010.05.17/outbox.cif.g08.bks.cpg/sg13_42_cif.got.tgz:82173.got - 2010.06.03 16:44:36.
