data_PCOD9231342
_publ_section_title
;
Structure prediction by ZEFSAII (Michael W. Deem and Ramdas Pophale) SiO2 
 PCOD9231342
Probable space group: P 2/C
;
_chemical_formula_sum "Si O2"
_cell_formula_units_Z 14
_cell_length_a 8.138996
_cell_length_b 5.171900
_cell_length_c 25.262038
_cell_angle_alpha 90.000000
_cell_angle_beta 134.351301
_cell_angle_gamma 90.000000
_cell_volume 760.389548
_symmetry_space_group_name_H-M "P 2/C"
_symmetry_group_IT_number 13
_symmetry_cell_setting 'monoclinic'
loop_
_space_group_symop_operation_xyz
x,y,z
-x,y,1/2-z
-x,-y,-z
x,-y,1/2+z
loop_
_atom_site_type_symbol
_atom_site_label
_atom_site_fract_x
_atom_site_fract_y
_atom_site_fract_z
Si Si1 0.411339 0.249006 0.010533
Si Si2 0.500000 0.444205 0.750000
Si Si3 0.132711 0.805785 0.099888
Si Si4 0.371357 0.677479 0.617841
O O1 0.489955 0.257655 0.089507
O O2 0.500000 0.500000 0.000000
O O3 0.134801 0.232552 0.951313
O O4 0.500000 0.000000 0.000000
O O5 0.718641 0.269151 0.814448
O O6 0.531344 0.618938 0.704746
O O7 0.230129 0.590927 0.080906
O O8 0.202333 0.089125 0.095908
#
# Coordination Sequence:
#
# PCOD9231342 Si02
#       4
#     4   2   4   4
#     4  12  24  38  60  92 124 152 188 248 304 346
#     4   8  22  34  72  76 118 146 224 228 286 330
#     4  10  20  39  64  87 110 156 207 238 283 344
#     4  10  20  39  64  87 110 156 207 238 283 344
#
# _framework density 18.411617
#
# number of rings (size 3 to 8) (size 9 to 14) (size 15 to 20)
#    1.714    0.000    0.000    6.000    0.000    0.000 
#    0.000    1.429    0.000    0.000    0.000    0.000 
#    0.000    0.000    0.000    0.000    0.000    0.000 
#
# Total GULP energy -77979.405839 kJ/mol
# GULP energy per Si atom -5569.957560 kJ/mol
# Density = 1.836971 g / cm^3
# Si number density = 18.411617 Si / 1000 Ang^3
#
#
#
# Elastic Constant Matrix: (Units=GPa)
#
#
# Indices 1 2 3 4 5 6 
#
# 1 82.8973 32.8890 28.0486 0.0000 -29.9668 0.0000
# 2 32.8890 116.0818 7.1212 0.0000 -10.0446 0.0000
# 3 28.0486 7.1212 91.6249 0.0000 -31.5675 0.0000
# 4 0.0000 0.0000 0.0000 21.0463 0.0000 -4.3524
# 5 -29.9668 -10.0446 -31.5675 0.0000 26.7252 0.0000
# 6 0.0000 0.0000 0.0000 -4.3524 0.0000 41.0045
#
#
#
# Elastic Compliance Matrix: (Units=1/GPa)
#
#
# Indices 1 2 3 4 5 6 
#
# 1 0.022539 -0.004227 0.002679 0.000000 0.026849 0.000000
# 2 -0.004227 0.009730 0.000278 0.000000 -0.000755 0.000000
# 3 0.002679 0.000278 0.018790 0.000000 0.025303 0.000000
# 4 0.000000 0.000000 0.000000 0.048581 0.000000 0.005157
# 5 0.026849 -0.000755 0.025303 0.000000 0.097127 0.000000
# 6 0.000000 0.000000 0.000000 0.005157 0.000000 0.024935
#
#
# Mechanical properties :
#
#
# Convention : Reuss Voigt Hill
#
# Bulk Modulus (GPa) = 20.61081 47.41353 34.01217
# Shear Modulus (GPa) = 20.79735 32.59154 26.69444
#
# Velocity S-wave (km/s) = 3.36457 4.21189 3.81185
# Velocity P-wave (km/s) = 5.12957 7.03287 6.15523
#
# Compressibility (1/GPa) = 0.04851823
#
# Stress axis : x y z
#
# Youngs Moduli (GPa) = 44.36667 102.77579 53.22015
#
# Poissons Ratio (x) = 0.43445 -0.14257
# Poissons Ratio (y) = 0.18754 -0.01478
# Poissons Ratio (z) = -0.11885 -0.02855
#
# Static dielectric constant tensor:
#      x y z
#    x 1.582910 0.000000 -0.027480 
#    y 0.000000 1.635630 0.000000 
#    z -0.027480 0.000000 1.691400 
# 
# From -- ./inp_files/60129.got.cif
#   From: 2010.05.17/outbox.cif.g08.bks.cpg/sg13_31_cif.got.tgz:60129.got - 2010.06.03 16:44:36.
