data_PCOD9231904
_publ_section_title
;
Structure prediction by ZEFSAII (Michael W. Deem and Ramdas Pophale) SiO2 
 PCOD9231904
Probable space group: P 2/C
;
_chemical_formula_sum "Si O2"
_cell_formula_units_Z 26
_cell_length_a 14.459254
_cell_length_b 7.867783
_cell_length_c 15.838941
_cell_angle_alpha 90.000000
_cell_angle_beta 138.426487
_cell_angle_gamma 90.000000
_cell_volume 1195.688303
_symmetry_space_group_name_H-M "P 2/C"
_symmetry_group_IT_number 13
_symmetry_cell_setting 'monoclinic'
loop_
_space_group_symop_operation_xyz
x,y,z
-x,y,1/2-z
-x,-y,-z
x,-y,1/2+z
loop_
_atom_site_type_symbol
_atom_site_label
_atom_site_fract_x
_atom_site_fract_y
_atom_site_fract_z
Si Si1 0.228804 0.265006 0.338470
Si Si2 0.500000 0.712104 0.250000
Si Si3 0.948401 0.182365 0.431857
Si Si4 0.117884 0.230974 0.938890
Si Si5 0.527685 0.665308 0.076490
Si Si6 0.197588 0.835890 0.001632
Si Si7 0.194548 0.659953 0.315139
O O1 0.153691 0.157500 0.216215
O O2 0.392104 0.223884 0.460942
O O3 0.170242 0.242567 0.391713
O O4 0.199312 0.461240 0.294671
O O5 0.520868 0.623872 0.172115
O O6 0.356544 0.815059 0.138997
O O7 0.871837 0.279408 0.455439
O O8 0.092174 0.257004 0.493919
O O9 0.000000 0.000000 0.500000
O O10 0.203276 0.324200 0.923268
O O11 0.953731 0.258627 0.808343
O O12 0.161630 0.034096 0.965679
O O13 0.674818 0.738518 0.145644
O O14 0.500000 0.500000 0.000000
#
# Coordination Sequence:
#
# PCOD9231904 Si02
#       7
#     4   2   4   4   4   4   4
#     4  10  22  41  66  92 124 171 214 257 328 390
#     4  10  20  42  68  94 122 178 222 258 330 396
#     4  10  22  38  61  92 125 166 215 260 313 379
#     4  10  23  39  59  95 127 164 210 268 317 373
#     4   9  20  43  64  97 130 167 209 269 321 386
#     4  10  22  40  67  88 129 167 216 265 318 383
#     4  10  22  41  62  92 131 161 210 267 328 377
#
# _framework density 21.744796999999998
#
# number of rings (size 3 to 8) (size 9 to 14) (size 15 to 20)
#    0.000    2.154    0.000    1.385   12.923    0.615 
#   22.154    1.538    0.000    0.000    0.000    0.000 
#    0.000    0.000    0.000    0.000    0.000    0.000 
#
# Total GULP energy -144943.398573 kJ/mol
# GULP energy per Si atom -5574.746099 kJ/mol
# Density = 2.169530 g / cm^3
# Si number density = 21.744797 Si / 1000 Ang^3
#
#
#
# Elastic Constant Matrix: (Units=GPa)
#
#
# Indices 1 2 3 4 5 6 
#
# 1 148.8000 7.2401 46.8459 0.0000 -12.0059 0.0000
# 2 7.2401 44.2489 23.8252 0.0000 -0.8147 0.0000
# 3 46.8459 23.8252 123.1461 0.0000 -15.6829 0.0000
# 4 0.0000 0.0000 0.0000 25.2660 0.0000 -1.4166
# 5 -12.0059 -0.8147 -15.6829 0.0000 36.0398 0.0000
# 6 0.0000 0.0000 0.0000 -1.4166 0.0000 23.5491
#
#
#
# Elastic Compliance Matrix: (Units=1/GPa)
#
#
# Indices 1 2 3 4 5 6 
#
# 1 0.007701 0.000279 -0.002812 0.000000 0.001348 0.000000
# 2 0.000279 0.025330 -0.005211 0.000000 -0.001602 0.000000
# 3 -0.002812 -0.005211 0.010654 0.000000 0.003582 0.000000
# 4 0.000000 0.000000 0.000000 0.039713 0.000000 0.002389
# 5 0.001348 -0.001602 0.003582 0.000000 0.029719 0.000000
# 6 0.000000 0.000000 0.000000 0.002389 0.000000 0.042608
#
#
# Mechanical properties :
#
#
# Convention : Reuss Voigt Hill
#
# Bulk Modulus (GPa) = 35.46376 52.44639 43.95507
# Shear Modulus (GPa) = 27.68378 32.85658 30.27018
#
# Velocity S-wave (km/s) = 3.57195 3.89139 3.73509
# Velocity P-wave (km/s) = 5.77549 6.66048 6.23371
#
# Compressibility (1/GPa) = 0.02819780
#
# Stress axis : x y z
#
# Youngs Moduli (GPa) = 129.85599 39.47897 93.85882
#
# Poissons Ratio (x) = -0.01100 0.26390
# Poissons Ratio (y) = -0.03619 0.48907
# Poissons Ratio (z) = 0.36512 0.20571
#
# Static dielectric constant tensor:
#      x y z
#    x 1.917950 0.000000 -0.012330 
#    y 0.000000 1.903230 0.000000 
#    z -0.012330 0.000000 1.817830 
# 
# From -- ./inp_files/53353.got.cif
#   From: 2010.05.17/outbox.cif.g08.bks.cpg/sg13_27_cif.got.tgz:53353.got - 2010.06.03 16:44:36.
