data_PCOD9231811
_publ_section_title
;
Structure prediction by ZEFSAII (Michael W. Deem and Ramdas Pophale) SiO2 
 PCOD9231811
Probable space group: P 2/C
;
_chemical_formula_sum "Si O2"
_cell_formula_units_Z 16
_cell_length_a 9.447128
_cell_length_b 8.419412
_cell_length_c 10.610597
_cell_angle_alpha 90.000000
_cell_angle_beta 119.335553
_cell_angle_gamma 90.000000
_cell_volume 735.734340
_symmetry_space_group_name_H-M "P 2/C"
_symmetry_group_IT_number 13
_symmetry_cell_setting 'monoclinic'
loop_
_space_group_symop_operation_xyz
x,y,z
-x,y,1/2-z
-x,-y,-z
x,-y,1/2+z
loop_
_atom_site_type_symbol
_atom_site_label
_atom_site_fract_x
_atom_site_fract_y
_atom_site_fract_z
Si Si1 0.324191 0.710589 0.619178
Si Si2 0.243033 0.643714 0.083673
Si Si3 0.559753 0.327390 0.580691
Si Si4 0.961654 0.130967 0.378181
O O1 0.500000 0.668380 0.750000
O O2 0.234160 0.544303 0.554748
O O3 0.367676 0.777578 0.500413
O O4 0.221865 0.813578 0.671957
O O5 0.300233 0.655990 0.253683
O O6 0.393168 0.725431 0.074036
O O7 0.080439 0.725221 0.967788
O O8 0.500000 0.500000 0.500000
O O9 0.000000 0.086848 0.250000
O O10 0.000000 0.000000 0.500000
#
# Coordination Sequence:
#
# PCOD9231811 Si02
#       4
#     4   4   4   4
#     4  11  21  42  72 102 130 170 227 287 341 405
#     4  10  20  41  71 100 134 169 222 288 340 402
#     4   9  17  35  70 104 134 159 218 278 350 396
#     4  12  30  48  63  95 143 188 232 277 339 409
#
# _framework density 21.746979
#
# number of rings (size 3 to 8) (size 9 to 14) (size 15 to 20)
#    0.000    1.500    5.000    2.250    7.000    0.000 
#    4.500    2.500    0.000    0.000    0.000    0.000 
#    0.000    0.000    0.000    0.000    0.000    0.000 
#
# Total GULP energy -89219.115789 kJ/mol
# GULP energy per Si atom -5576.194737 kJ/mol
# Density = 2.169748 g / cm^3
# Si number density = 21.746979 Si / 1000 Ang^3
#
#
#
# Elastic Constant Matrix: (Units=GPa)
#
#
# Indices 1 2 3 4 5 6 
#
# 1 120.0268 26.9300 45.1127 0.0000 -33.2563 0.0000
# 2 26.9300 43.4372 11.1864 0.0000 -3.4752 0.0000
# 3 45.1127 11.1864 98.4340 0.0000 -27.4238 0.0000
# 4 0.0000 0.0000 0.0000 17.5058 0.0000 -9.3782
# 5 -33.2563 -3.4752 -27.4238 0.0000 49.2792 0.0000
# 6 0.0000 0.0000 0.0000 -9.3782 0.0000 6.2847
#
#
#
# Elastic Compliance Matrix: (Units=1/GPa)
#
#
# Indices 1 2 3 4 5 6 
#
# 1 0.012824 -0.006577 -0.003370 0.000000 0.006315 0.000000
# 2 -0.006577 0.027091 -0.000910 0.000000 -0.003034 0.000000
# 3 -0.003370 -0.000910 0.013203 0.000000 0.005009 0.000000
# 4 0.000000 0.000000 0.000000 0.284794 0.000000 0.424979
# 5 0.006315 -0.003034 0.005009 0.000000 0.027127 0.000000
# 6 0.000000 0.000000 0.000000 0.424979 0.000000 0.793286
#
#
# Mechanical properties :
#
#
# Convention : Reuss Voigt Hill
#
# Bulk Modulus (GPa) = 31.84468 47.59512 39.71990
# Shear Modulus (GPa) = 4.19989 26.52518 15.36254
#
# Velocity S-wave (km/s) = 1.39120 3.49623 2.66074
# Velocity P-wave (km/s) = 4.15399 6.18317 5.26722
#
# Compressibility (1/GPa) = 0.03140242
#
# Stress axis : x y z
#
# Youngs Moduli (GPa) = 77.98162 36.91272 75.74306
#
# Poissons Ratio (x) = 0.24278 0.25528
# Poissons Ratio (y) = 0.51289 0.06891
# Poissons Ratio (z) = 0.26283 0.03358
#
# Static dielectric constant tensor:
#      x y z
#    x 1.878620 0.000000 -0.060220 
#    y 0.000000 1.814610 0.000000 
#    z -0.060220 0.000000 1.828270 
# 
# From -- ./inp_files/27855.got.cif
#   From: 2010.05.17/outbox.cif.g08.bks.cpg/sg13_14_cif.got.tgz:27855.got - 2010.06.03 16:44:36.
