data_PCOD9231282
_publ_section_title
;
Structure prediction by ZEFSAII (Michael W. Deem and Ramdas Pophale) SiO2 
 PCOD9231282
Probable space group: P 2/C
;
_chemical_formula_sum "Si O2"
_cell_formula_units_Z 22
_cell_length_a 7.719649
_cell_length_b 6.913192
_cell_length_c 24.940831
_cell_angle_alpha 90.000000
_cell_angle_beta 130.530083
_cell_angle_gamma 90.000000
_cell_volume 1011.667393
_symmetry_space_group_name_H-M "P 2/C"
_symmetry_group_IT_number 13
_symmetry_cell_setting 'monoclinic'
loop_
_space_group_symop_operation_xyz
x,y,z
-x,y,1/2-z
-x,-y,-z
x,-y,1/2+z
loop_
_atom_site_type_symbol
_atom_site_label
_atom_site_fract_x
_atom_site_fract_y
_atom_site_fract_z
Si Si1 0.636019 0.078091 0.356757
Si Si2 0.000000 0.618421 0.250000
Si Si3 0.160828 0.969397 0.216159
Si Si4 0.651090 0.835518 0.459157
Si Si5 0.481524 0.560596 0.878243
Si Si6 0.729449 0.868857 0.591970
O O1 0.369252 0.016223 0.297353
O O2 0.745319 0.993473 0.325136
O O3 0.619402 0.308349 0.363080
O O4 0.735537 0.976169 0.429228
O O5 0.767068 0.503137 0.193036
O O6 0.939972 0.762909 0.287275
O O7 0.952074 0.118016 0.173441
O O8 0.611405 0.628172 0.424753
O O9 0.790976 0.832891 0.542372
O O10 0.409885 0.930722 0.429781
O O11 0.432755 0.701361 0.918668
#
# Coordination Sequence:
#
# PCOD9231282 Si02
#       6
#     4   2   4   4   4   4
#     4  10  23  40  60  85 128 156 199 251 317 350
#     4  12  20  38  72  88 118 164 220 246 304 362
#     4  11  21  42  59  87 121 163 198 255 302 368
#     4  10  20  39  61  89 121 160 195 253 304 369
#     4  11  20  38  61  91 114 156 204 255 295 365
#     4  10  21  37  63  89 122 155 204 247 306 360
#
# _framework density 21.746276000000002
#
# number of rings (size 3 to 8) (size 9 to 14) (size 15 to 20)
#    0.000    1.455    3.636    2.727    0.000    0.727 
#    9.818    0.909    0.000    0.000    0.000    0.000 
#    0.000    0.000    0.000    0.000    0.000    0.000 
#
# Total GULP energy -122819.645081 kJ/mol
# GULP energy per Si atom -5582.711140 kJ/mol
# Density = 2.169678 g / cm^3
# Si number density = 21.746276 Si / 1000 Ang^3
#
#
#
# Elastic Constant Matrix: (Units=GPa)
#
#
# Indices 1 2 3 4 5 6 
#
# 1 92.5449 30.4518 21.4150 0.0000 -29.9266 0.0000
# 2 30.4518 122.1255 22.1503 0.0000 -13.2362 0.0000
# 3 21.4150 22.1503 88.5121 0.0000 -14.5136 0.0000
# 4 0.0000 0.0000 0.0000 21.7008 0.0000 -2.9495
# 5 -29.9266 -13.2362 -14.5136 0.0000 37.3670 0.0000
# 6 0.0000 0.0000 0.0000 -2.9495 0.0000 8.1609
#
#
#
# Elastic Compliance Matrix: (Units=1/GPa)
#
#
# Indices 1 2 3 4 5 6 
#
# 1 0.015473 -0.002423 -0.001331 0.000000 0.011017 0.000000
# 2 -0.002423 0.009155 -0.001593 0.000000 0.000684 0.000000
# 3 -0.001331 -0.001593 0.012551 0.000000 0.003245 0.000000
# 4 0.000000 0.000000 0.000000 0.048462 0.000000 0.017515
# 5 0.011017 0.000684 0.003245 0.000000 0.037088 0.000000
# 6 0.000000 0.000000 0.000000 0.017515 0.000000 0.128865
#
#
# Mechanical properties :
#
#
# Convention : Reuss Voigt Hill
#
# Bulk Modulus (GPa) = 37.75518 50.13520 43.94519
# Shear Modulus (GPa) = 18.44227 28.72342 23.58285
#
# Velocity S-wave (km/s) = 2.91532 3.63828 3.29668
# Velocity P-wave (km/s) = 5.36017 6.38390 5.89430
#
# Compressibility (1/GPa) = 0.02648643
#
# Stress axis : x y z
#
# Youngs Moduli (GPa) = 64.62668 109.22450 79.67800
#
# Poissons Ratio (x) = 0.26463 0.10604
# Poissons Ratio (y) = 0.15658 0.12691
# Poissons Ratio (z) = 0.08601 0.17397
#
# Static dielectric constant tensor:
#      x y z
#    x 1.833730 0.000000 0.004610 
#    y 0.000000 1.779500 0.000000 
#    z 0.004610 0.000000 1.800190 
# 
# From -- ./inp_files/74561.got.cif
#   From: 2010.05.17/outbox.cif.g08.bks.cpg/sg13_38_cif.got.tgz:74561.got - 2010.06.03 16:44:36.
