data_PCOD9231243
_publ_section_title
;
Structure prediction by ZEFSAII (Michael W. Deem and Ramdas Pophale) SiO2 
 PCOD9231243
Probable space group: P 2/C
;
_chemical_formula_sum "Si O2"
_cell_formula_units_Z 32
_cell_length_a 11.852435
_cell_length_b 15.689039
_cell_length_c 9.056434
_cell_angle_alpha 90.000000
_cell_angle_beta 49.930763
_cell_angle_gamma 90.000000
_cell_volume 1288.766420
_symmetry_space_group_name_H-M "P 2/C"
_symmetry_group_IT_number 13
_symmetry_cell_setting 'monoclinic'
loop_
_space_group_symop_operation_xyz
x,y,z
-x,y,1/2-z
-x,-y,-z
x,-y,1/2+z
loop_
_atom_site_type_symbol
_atom_site_label
_atom_site_fract_x
_atom_site_fract_y
_atom_site_fract_z
Si Si1 0.638975 0.957909 0.245784
Si Si2 0.810349 0.719794 0.328796
Si Si3 0.427164 0.606708 0.030398
Si Si4 0.453108 0.145222 0.124309
Si Si5 0.193064 0.767059 0.680316
Si Si6 0.075344 0.365491 0.476181
Si Si7 0.312604 0.478303 0.335351
Si Si8 0.894221 0.843821 0.030504
O O1 0.500000 0.947395 0.250000
O O2 0.590091 0.894278 0.418245
O O3 0.804525 0.928881 0.069001
O O4 0.641114 0.057244 0.280073
O O5 0.640968 0.699083 0.437284
O O6 0.846143 0.697683 0.467374
O O7 0.869199 0.808150 0.216182
O O8 0.906359 0.649143 0.157684
O O9 0.378789 0.567134 0.226203
O O10 0.594413 0.590677 0.842207
O O11 0.346696 0.546875 0.974160
O O12 0.500000 0.171347 0.250000
O O13 0.348562 0.209045 0.121692
O O14 0.126585 0.675944 0.781262
O O15 0.191871 0.777983 0.506017
O O16 0.065428 0.833063 0.845649
O O17 0.143534 0.457514 0.446797
#
# Coordination Sequence:
#
# PCOD9231243 Si02
#       8
#     4   4   4   4   4   4   4   4
#     4  10  20  39  58  80 112 144 180 225 273 323
#     4   9  19  35  53  75 104 141 178 220 265 317
#     4   9  18  33  51  74 103 135 174 215 267 315
#     4  10  22  37  58  83 110 142 181 227 272 323
#     4  10  21  38  55  82 111 145 183 224 273 323
#     4   9  19  35  52  75 107 137 178 223 265 313
#     4   9  18  33  51  73 104 136 170 219 263 316
#     4  10  21  37  58  78 113 146 180 227 271 324
#
# _framework density 24.829946
#
# number of rings (size 3 to 8) (size 9 to 14) (size 15 to 20)
#    0.000    2.500    1.250    0.000    1.750    3.000 
#    2.250    0.000    0.000    0.000    0.000    0.000 
#    0.000    0.000    0.000    0.000    0.000    0.000 
#
# Total GULP energy -178564.380283 kJ/mol
# GULP energy per Si atom -5580.136884 kJ/mol
# Density = 2.477343 g / cm^3
# Si number density = 24.829946 Si / 1000 Ang^3
#
#
#
# Elastic Constant Matrix: (Units=GPa)
#
#
# Indices 1 2 3 4 5 6 
#
# 1 101.6098 2.4345 11.0812 0.0000 -15.9933 0.0000
# 2 2.4345 25.0539 -1.3771 0.0000 1.5196 0.0000
# 3 11.0812 -1.3771 32.4991 0.0000 4.9839 0.0000
# 4 0.0000 0.0000 0.0000 30.6091 0.0000 -9.3056
# 5 -15.9933 1.5196 4.9839 0.0000 44.4006 0.0000
# 6 0.0000 0.0000 0.0000 -9.3056 0.0000 25.8684
#
#
#
# Elastic Compliance Matrix: (Units=1/GPa)
#
#
# Indices 1 2 3 4 5 6 
#
# 1 0.011094 -0.001605 -0.004550 0.000000 0.004562 0.000000
# 2 -0.001605 0.040350 0.002602 0.000000 -0.002251 0.000000
# 3 -0.004550 0.002602 0.033270 0.000000 -0.005463 0.000000
# 4 0.000000 0.000000 0.000000 0.036682 0.000000 0.013195
# 5 0.004562 -0.002251 -0.005463 0.000000 0.024856 0.000000
# 6 0.000000 0.000000 0.000000 0.013195 0.000000 0.043404
#
#
# Mechanical properties :
#
#
# Convention : Reuss Voigt Hill
#
# Bulk Modulus (GPa) = 12.88537 20.38221 16.63379
# Shear Modulus (GPa) = 22.45879 29.97724 26.21802
#
# Velocity S-wave (km/s) = 3.01076 3.47839 3.25299
# Velocity P-wave (km/s) = 4.15776 4.93547 4.56321
#
# Compressibility (1/GPa) = 0.07760739
#
# Stress axis : x y z
#
# Youngs Moduli (GPa) = 90.13626 24.78344 30.05744
#
# Poissons Ratio (x) = 0.03977 0.13677
# Poissons Ratio (y) = 0.14466 -0.07822
# Poissons Ratio (z) = 0.41016 -0.06449
#
# Static dielectric constant tensor:
#      x y z
#    x 1.984190 0.000000 -0.000970 
#    y 0.000000 1.955970 0.000000 
#    z -0.000970 0.000000 1.974980 
# 
# From -- ./inp_files/17286.got.cif
#   From: 2010.05.17/outbox.cif.g08.bks.cpg/sg13_9_cif.got.tgz:17286.got - 2010.06.03 16:44:36.
