data_PCOD9231214
_publ_section_title
;
Structure prediction by ZEFSAII (Michael W. Deem and Ramdas Pophale) SiO2 
 PCOD9231214
Probable space group: P 2/C
;
_chemical_formula_sum "Si O2"
_cell_formula_units_Z 22
_cell_length_a 5.012247
_cell_length_b 5.399557
_cell_length_c 30.970058
_cell_angle_alpha 90.000000
_cell_angle_beta 100.030025
_cell_angle_gamma 90.000000
_cell_volume 825.360882
_symmetry_space_group_name_H-M "P 2/C"
_symmetry_group_IT_number 13
_symmetry_cell_setting 'monoclinic'
loop_
_space_group_symop_operation_xyz
x,y,z
-x,y,1/2-z
-x,-y,-z
x,-y,1/2+z
loop_
_atom_site_type_symbol
_atom_site_label
_atom_site_fract_x
_atom_site_fract_y
_atom_site_fract_z
Si Si1 0.500000 0.227598 0.250000
Si Si2 0.219166 0.163005 0.881705
Si Si3 0.443895 0.157060 0.456053
Si Si4 0.203063 0.774129 0.664946
Si Si5 0.136972 0.609192 0.293681
Si Si6 0.878451 0.571904 0.923724
O O1 0.635511 0.081334 0.293311
O O2 0.306380 0.401559 0.273336
O O3 0.304886 0.287449 0.838917
O O4 0.027471 0.330759 0.907536
O O5 0.452159 0.050102 0.917986
O O6 0.044600 0.940849 0.856905
O O7 0.659425 0.380685 0.455351
O O8 0.138761 0.263307 0.444912
O O9 0.500000 0.000000 0.500000
O O10 0.300052 0.674280 0.621881
O O11 0.098831 0.533299 0.687248
O O12 0.000000 0.761378 0.250000
#
# Coordination Sequence:
#
# PCOD9231214 Si02
#       6
#     2   4   4   4   4   4
#     4  10  20  38  70  90 136 174 230 294 324 412
#     4  10  23  44  69  98 142 188 228 288 370 424
#     4  11  25  47  73 105 140 180 236 300 362 429
#     4   9  21  40  61  94 132 180 225 281 341 411
#     4   9  20  41  59  94 134 171 234 290 339 419
#     4  10  24  44  70 102 142 175 233 292 348 431
#
# _framework density 26.655007000000001
#
# number of rings (size 3 to 8) (size 9 to 14) (size 15 to 20)
#    0.000    2.182    0.000    0.545    7.636    6.545 
#   13.091    4.545    0.000    0.000    0.000    0.000 
#    0.000    0.000    0.000    0.000    0.000    0.000 
#
# Total GULP energy -122695.734444 kJ/mol
# GULP energy per Si atom -5577.078838 kJ/mol
# Density = 2.659434 g / cm^3
# Si number density = 26.655007 Si / 1000 Ang^3
#
#
#
# Elastic Constant Matrix: (Units=GPa)
#
#
# Indices 1 2 3 4 5 6 
#
# 1 80.9790 4.6836 21.3103 0.0000 -3.1137 0.0000
# 2 4.6836 47.6738 26.0916 0.0000 5.7640 0.0000
# 3 21.3103 26.0916 128.3915 0.0000 28.3371 0.0000
# 4 0.0000 0.0000 0.0000 33.4945 0.0000 19.4170
# 5 -3.1137 5.7640 28.3371 0.0000 41.0089 0.0000
# 6 0.0000 0.0000 0.0000 19.4170 0.0000 -69.5753
#
#
#
# Elastic Compliance Matrix: (Units=1/GPa)
#
#
# Indices 1 2 3 4 5 6 
#
# 1 0.013213 -0.000110 -0.002827 0.000000 0.002972 0.000000
# 2 -0.000110 0.023602 -0.004772 0.000000 -0.000028 0.000000
# 3 -0.002827 -0.004772 0.010769 0.000000 -0.006986 0.000000
# 4 0.000000 0.000000 0.000000 0.025698 0.000000 0.007172
# 5 0.002972 -0.000028 -0.006986 0.000000 0.029442 0.000000
# 6 0.000000 0.000000 0.000000 0.007172 0.000000 -0.012371
#
#
# Mechanical properties :
#
#
# Convention : Reuss Voigt Hill
#
# Bulk Modulus (GPa) = 31.08794 40.13504 35.61149
# Shear Modulus (GPa) = 42.92119 14.64953 28.78536
#
# Velocity S-wave (km/s) = 4.01714 2.34689 3.28978
# Velocity P-wave (km/s) = 5.76238 4.73643 5.27441
#
# Compressibility (1/GPa) = 0.03216681
#
# Stress axis : x y z
#
# Youngs Moduli (GPa) = 75.68073 42.36984 92.85645
#
# Poissons Ratio (x) = 0.00468 0.26247
# Poissons Ratio (y) = 0.00836 0.44308
# Poissons Ratio (z) = 0.21392 0.20218
#
# Static dielectric constant tensor:
#      x y z
#    x 2.244930 0.000000 0.092300 
#    y 0.000000 2.237700 0.000000 
#    z 0.092300 0.000000 2.333510 
# 
# From -- ./inp_files/94574.got.cif
#   From: 2010.05.17/outbox.cif.g08.bks.cpg/sg13_48_cif.got.tgz:94574.got - 2010.06.03 16:44:36.
