data_PCOD9231845
_publ_section_title
;
Structure prediction by ZEFSAII (Michael W. Deem and Ramdas Pophale) SiO2 
 PCOD9231845
Probable space group: P 2/C
;
_chemical_formula_sum "Si O2"
_cell_formula_units_Z 24
_cell_length_a 12.113819
_cell_length_b 9.003964
_cell_length_c 13.153821
_cell_angle_alpha 90.000000
_cell_angle_beta 129.005582
_cell_angle_gamma 90.000000
_cell_volume 1114.897871
_symmetry_space_group_name_H-M "P 2/C"
_symmetry_group_IT_number 13
_symmetry_cell_setting 'monoclinic'
loop_
_space_group_symop_operation_xyz
x,y,z
-x,y,1/2-z
-x,-y,-z
x,-y,1/2+z
loop_
_atom_site_type_symbol
_atom_site_label
_atom_site_fract_x
_atom_site_fract_y
_atom_site_fract_z
Si Si1 0.000000 0.780149 0.750000
Si Si2 0.254134 0.774590 0.647640
Si Si3 0.573975 0.344437 0.611411
Si Si4 0.500000 0.430430 0.250000
Si Si5 0.349840 0.024948 0.860812
Si Si6 0.734811 0.605983 0.649153
Si Si7 0.104633 0.062649 0.884542
O O1 0.861686 0.677245 0.659140
O O2 0.979164 0.905080 0.648174
O O3 0.372305 0.683287 0.653219
O O4 0.211064 0.653181 0.707194
O O5 0.146348 0.849563 0.507989
O O6 0.316458 0.906304 0.754361
O O7 0.538722 0.459149 0.681177
O O8 0.638545 0.188741 0.680513
O O9 0.694306 0.433546 0.618020
O O10 0.421582 0.324016 0.466504
O O11 0.238567 0.023960 0.889963
O O12 0.500000 0.000000 0.000000
O O13 0.000000 0.153204 0.750000
#
# Coordination Sequence:
#
# PCOD9231845 Si02
#       7
#     2   4   4   2   4   4   4
#     4  10  20  42  62  98 128 184 222 272 338 386
#     4  11  21  41  68  95 131 178 225 279 337 395
#     4  10  23  41  62 102 136 172 221 282 332 405
#     4  10  24  40  68 102 134 178 222 276 346 400
#     4  12  22  40  67 103 130 172 230 282 334 392
#     4  10  21  40  66  90 136 180 216 275 338 401
#     4  10  24  39  64  99 129 173 229 279 330 392
#
# _framework density 21.526636
#
# number of rings (size 3 to 8) (size 9 to 14) (size 15 to 20)
#    0.500    1.000    3.333    1.000    4.667    6.000 
#    1.500    0.000    0.000    5.000    0.000    0.000 
#    0.000    0.000    0.000    0.000    0.000    0.000 
#
# Total GULP energy -133610.919934 kJ/mol
# GULP energy per Si atom -5567.121664 kJ/mol
# Density = 2.147764 g / cm^3
# Si number density = 21.526636 Si / 1000 Ang^3
#
#
#
# Elastic Constant Matrix: (Units=GPa)
#
#
# Indices 1 2 3 4 5 6 
#
# 1 40.6672 13.4793 21.9508 0.0000 5.9540 0.0000
# 2 13.4793 104.1658 30.9467 0.0000 -2.8322 0.0000
# 3 21.9508 30.9467 133.5920 0.0000 -2.6687 0.0000
# 4 0.0000 0.0000 0.0000 32.9336 0.0000 -1.1381
# 5 5.9540 -2.8322 -2.6687 0.0000 28.7314 0.0000
# 6 0.0000 0.0000 0.0000 -1.1381 0.0000 31.3501
#
#
#
# Elastic Compliance Matrix: (Units=1/GPa)
#
#
# Indices 1 2 3 4 5 6 
#
# 1 0.028719 -0.002636 -0.004240 0.000000 -0.006605 0.000000
# 2 -0.002636 0.010570 -0.001987 0.000000 0.001404 0.000000
# 3 -0.004240 -0.001987 0.008672 0.000000 0.001488 0.000000
# 4 0.000000 0.000000 0.000000 0.030402 0.000000 0.001104
# 5 -0.006605 0.001404 0.001488 0.000000 0.036451 0.000000
# 6 0.000000 0.000000 0.000000 0.001104 0.000000 0.031938
#
#
# Mechanical properties :
#
#
# Convention : Reuss Voigt Hill
#
# Bulk Modulus (GPa) = 33.07532 45.68650 39.38091
# Shear Modulus (GPa) = 28.64383 32.73956 30.69170
#
# Velocity S-wave (km/s) = 3.65173 3.90408 3.78001
# Velocity P-wave (km/s) = 5.76006 6.44917 6.11433
#
# Compressibility (1/GPa) = 0.03023403
#
# Stress axis : x y z
#
# Youngs Moduli (GPa) = 34.81965 94.60932 115.30976
#
# Poissons Ratio (x) = 0.24941 0.48894
# Poissons Ratio (y) = 0.09179 0.22915
# Poissons Ratio (z) = 0.14764 0.18802
#
# Static dielectric constant tensor:
#      x y z
#    x 1.961300 0.000000 0.011920 
#    y 0.000000 1.824460 0.000000 
#    z 0.011920 0.000000 1.785060 
# 
# From -- ./inp_files/53261.got.cif
#   From: 2010.05.17/outbox.cif.g08.bks.cpg/sg13_27_cif.got.tgz:53261.got - 2010.06.03 16:44:36.
