data_PCOD9231892
_publ_section_title
;
Structure prediction by ZEFSAII (Michael W. Deem and Ramdas Pophale) SiO2 
 PCOD9231892
Probable space group: P 2/C
;
_chemical_formula_sum "Si O2"
_cell_formula_units_Z 24
_cell_length_a 14.086196
_cell_length_b 7.304579
_cell_length_c 16.653944
_cell_angle_alpha 90.000000
_cell_angle_beta 41.329743
_cell_angle_gamma 90.000000
_cell_volume 1131.638041
_symmetry_space_group_name_H-M "P 2/C"
_symmetry_group_IT_number 13
_symmetry_cell_setting 'monoclinic'
loop_
_space_group_symop_operation_xyz
x,y,z
-x,y,1/2-z
-x,-y,-z
x,-y,1/2+z
loop_
_atom_site_type_symbol
_atom_site_label
_atom_site_fract_x
_atom_site_fract_y
_atom_site_fract_z
Si Si1 0.249070 0.151234 0.806345
Si Si2 0.758650 0.632972 0.896851
Si Si3 0.922690 0.355767 0.446986
Si Si4 0.472567 0.439239 0.672388
Si Si5 0.052728 0.694592 0.299315
Si Si6 0.250025 0.754535 0.764837
O O1 0.397890 0.250237 0.693194
O O2 0.136286 0.174973 0.805631
O O3 0.270297 0.936934 0.803396
O O4 0.184140 0.269416 0.920706
O O5 0.866040 0.711342 0.896253
O O6 0.840289 0.465559 0.800630
O O7 0.641541 0.597556 0.775407
O O8 0.620897 0.551975 0.029748
O O9 0.934060 0.575965 0.424493
O O10 0.081499 0.298176 0.374126
O O11 0.500000 0.437904 0.750000
O O12 0.720380 0.227487 0.349904
O O13 0.000000 0.782903 0.250000
#
# Coordination Sequence:
#
# PCOD9231892 Si02
#       6
#     4   4   4   4   4   4
#     4  12  23  40  67  96 128 167 212 263 325 380
#     4  10  21  43  66  92 129 171 211 261 320 382
#     4  10  20  42  67  95 130 165 211 266 318 380
#     4  12  25  44  65  88 131 176 212 263 319 385
#     4   9  20  36  67  95 122 170 214 257 321 379
#     4  11  25  40  67  97 129 164 216 267 321 378
#
# _framework density 21.208196999999998
#
# number of rings (size 3 to 8) (size 9 to 14) (size 15 to 20)
#    0.000    1.333    5.000    3.000    0.000    2.667 
#    0.000    0.000    0.000    0.000    0.000    0.000 
#    0.000    0.000    0.000    0.000    0.000    0.000 
#
# Total GULP energy -133957.707222 kJ/mol
# GULP energy per Si atom -5581.571134 kJ/mol
# Density = 2.115993 g / cm^3
# Si number density = 21.208197 Si / 1000 Ang^3
#
#
#
# Elastic Constant Matrix: (Units=GPa)
#
#
# Indices 1 2 3 4 5 6 
#
# 1 103.8786 18.6223 4.1142 0.0000 2.1722 0.0000
# 2 18.6223 39.7559 0.7925 0.0000 -5.6694 0.0000
# 3 4.1142 0.7925 83.5435 0.0000 -5.0777 0.0000
# 4 0.0000 0.0000 0.0000 5.2858 0.0000 2.3229
# 5 2.1722 -5.6694 -5.0777 0.0000 33.4289 0.0000
# 6 0.0000 0.0000 0.0000 2.3229 0.0000 3.5300
#
#
#
# Elastic Compliance Matrix: (Units=1/GPa)
#
#
# Indices 1 2 3 4 5 6 
#
# 1 0.010616 -0.005198 -0.000574 0.000000 -0.001659 0.000000
# 2 -0.005198 0.028322 0.000303 0.000000 0.005187 0.000000
# 3 -0.000574 0.000303 0.012112 0.000000 0.001928 0.000000
# 4 0.000000 0.000000 0.000000 0.266148 0.000000 -0.175132
# 5 -0.001659 0.005187 0.001928 0.000000 0.031195 0.000000
# 6 0.000000 0.000000 0.000000 -0.175132 0.000000 0.398523
#
#
# Mechanical properties :
#
#
# Convention : Reuss Voigt Hill
#
# Bulk Modulus (GPa) = 24.93061 30.47064 27.70063
# Shear Modulus (GPa) = 6.48319 22.02554 14.25437
#
# Velocity S-wave (km/s) = 1.75030 3.22613 2.59533
# Velocity P-wave (km/s) = 3.98315 5.31750 4.69794
#
# Compressibility (1/GPa) = 0.04011133
#
# Stress axis : x y z
#
# Youngs Moduli (GPa) = 94.19888 35.30840 82.55976
#
# Poissons Ratio (x) = 0.18352 0.04741
# Poissons Ratio (y) = 0.48962 -0.02498
# Poissons Ratio (z) = 0.05410 -0.01068
#
# Static dielectric constant tensor:
#      x y z
#    x 1.789960 0.000000 0.025450 
#    y 0.000000 1.742120 0.000000 
#    z 0.025450 0.000000 1.797520 
# 
# From -- ./inp_files/67734.got.cif
#   From: 2010.05.17/outbox.cif.g08.bks.cpg/sg13_34_cif.got.tgz:67734.got - 2010.06.03 16:44:36.
