data_PCOD9231975
_publ_section_title
;
Structure prediction by ZEFSAII (Michael W. Deem and Ramdas Pophale) SiO2 
 PCOD9231975
Probable space group: P 2/C
;
_chemical_formula_sum "Si O2"
_cell_formula_units_Z 28
_cell_length_a 13.849850
_cell_length_b 8.075317
_cell_length_c 15.142320
_cell_angle_alpha 90.000000
_cell_angle_beta 132.643857
_cell_angle_gamma 90.000000
_cell_volume 1245.736669
_symmetry_space_group_name_H-M "P 2/C"
_symmetry_group_IT_number 13
_symmetry_cell_setting 'monoclinic'
loop_
_space_group_symop_operation_xyz
x,y,z
-x,y,1/2-z
-x,-y,-z
x,-y,1/2+z
loop_
_atom_site_type_symbol
_atom_site_label
_atom_site_fract_x
_atom_site_fract_y
_atom_site_fract_z
Si Si1 0.573569 0.832225 0.021616
Si Si2 0.011844 0.540505 0.905918
Si Si3 0.969730 0.064588 0.379916
Si Si4 0.539122 0.410004 0.185291
Si Si5 0.741552 0.416530 0.713160
Si Si6 0.287708 0.397003 0.486544
Si Si7 0.796461 0.024759 0.106663
O O1 0.650154 0.744939 0.149635
O O2 0.691237 0.882343 0.029558
O O3 0.482753 0.707325 0.912252
O O4 0.500000 0.000000 0.000000
O O5 0.971484 0.734493 0.874086
O O6 0.898816 0.415637 0.800962
O O7 0.156357 0.534448 0.953560
O O8 0.000000 0.500000 0.000000
O O9 0.844483 0.020828 0.239450
O O10 0.087225 0.001924 0.390441
O O11 0.000000 0.000000 0.500000
O O12 0.500000 0.315142 0.250000
O O13 0.684206 0.485064 0.261950
O O14 0.425909 0.552425 0.115155
O O15 0.704977 0.515749 0.602976
O O16 0.265658 0.202966 0.455764
#
# Coordination Sequence:
#
# PCOD9231975 Si02
#       7
#     4   4   4   4   4   4   4
#     4  11  24  43  65  94 127 173 224 268 338 409
#     4  11  23  38  64  99 131 164 221 277 332 389
#     4  10  23  40  65  94 136 177 213 272 333 402
#     4  11  24  43  66  95 129 168 224 284 332 396
#     4  11  22  40  68  91 126 176 220 268 329 398
#     4  10  20  43  66  91 126 173 218 269 335 402
#     4  10  21  43  64  92 133 176 215 267 337 396
#
# _framework density 22.476659999999999
#
# number of rings (size 3 to 8) (size 9 to 14) (size 15 to 20)
#    0.000    1.429    1.429    4.714    2.000    3.429 
#    5.143    1.429    0.000    0.000    0.000    0.000 
#    0.000    0.000    0.000    0.000    0.000    0.000 
#
# Total GULP energy -156023.512082 kJ/mol
# GULP energy per Si atom -5572.268289 kJ/mol
# Density = 2.242550 g / cm^3
# Si number density = 22.476660 Si / 1000 Ang^3
#
#
#
# Elastic Constant Matrix: (Units=GPa)
#
#
# Indices 1 2 3 4 5 6 
#
# 1 127.8049 35.7788 27.7683 0.0000 2.9724 0.0000
# 2 35.7788 58.4763 15.3338 0.0000 11.6904 0.0000
# 3 27.7683 15.3338 78.5273 0.0000 -3.0164 0.0000
# 4 0.0000 0.0000 0.0000 25.5363 0.0000 5.8474
# 5 2.9724 11.6904 -3.0164 0.0000 37.5579 0.0000
# 6 0.0000 0.0000 0.0000 5.8474 0.0000 44.8348
#
#
#
# Elastic Compliance Matrix: (Units=1/GPa)
#
#
# Indices 1 2 3 4 5 6 
#
# 1 0.009884 -0.005577 -0.002377 0.000000 0.000763 0.000000
# 2 -0.005577 0.022581 -0.002699 0.000000 -0.006804 0.000000
# 3 -0.002377 -0.002699 0.014185 0.000000 0.002167 0.000000
# 4 0.000000 0.000000 0.000000 0.040365 0.000000 -0.005265
# 5 0.000763 -0.006804 0.002167 0.000000 0.028857 0.000000
# 6 0.000000 0.000000 0.000000 -0.005265 0.000000 0.022991
#
#
# Mechanical properties :
#
#
# Convention : Reuss Voigt Hill
#
# Bulk Modulus (GPa) = 39.45465 46.95226 43.20346
# Shear Modulus (GPa) = 29.65292 33.98098 31.81695
#
# Velocity S-wave (km/s) = 3.63612 3.89245 3.76647
# Velocity P-wave (km/s) = 5.93467 6.41375 6.17885
#
# Compressibility (1/GPa) = 0.02534555
#
# Stress axis : x y z
#
# Youngs Moduli (GPa) = 101.16955 44.28485 70.49621
#
# Poissons Ratio (x) = 0.24698 0.16757
# Poissons Ratio (y) = 0.56422 0.19024
# Poissons Ratio (z) = 0.24048 0.11951
#
# Static dielectric constant tensor:
#      x y z
#    x 1.826760 0.000000 0.037020 
#    y 0.000000 2.044280 0.000000 
#    z 0.037020 0.000000 2.005930 
# 
# From -- ./inp_files/50450.got.cif
#   From: 2010.05.17/outbox.cif.g08.bks.cpg/sg13_26_cif.got.tgz:50450.got - 2010.06.03 16:44:36.
