data_PCOD9231351
_publ_section_title
;
Structure prediction by ZEFSAII (Michael W. Deem and Ramdas Pophale) SiO2 
 PCOD9231351
Probable space group: P 2/C
;
_chemical_formula_sum "Si O2"
_cell_formula_units_Z 18
_cell_length_a 15.512320
_cell_length_b 9.737886
_cell_length_c 8.237769
_cell_angle_alpha 90.000000
_cell_angle_beta 145.474834
_cell_angle_gamma 90.000000
_cell_volume 705.271764
_symmetry_space_group_name_H-M "P 2/C"
_symmetry_group_IT_number 13
_symmetry_cell_setting 'monoclinic'
loop_
_space_group_symop_operation_xyz
x,y,z
-x,y,1/2-z
-x,-y,-z
x,-y,1/2+z
loop_
_atom_site_type_symbol
_atom_site_label
_atom_site_fract_x
_atom_site_fract_y
_atom_site_fract_z
Si Si1 0.000000 0.093516 0.750000
Si Si2 0.299865 0.977123 0.865122
Si Si3 0.089748 0.324146 0.657478
Si Si4 0.795202 0.400722 0.024310
Si Si5 0.427167 0.817783 0.354315
O O1 0.091957 0.187272 0.764814
O O2 0.873137 0.013203 0.455462
O O3 0.377792 0.123684 0.951577
O O4 0.321847 0.916884 0.077712
O O5 0.403852 0.864061 0.929057
O O6 0.152436 0.350232 0.573149
O O7 0.172359 0.438937 0.897607
O O8 0.908148 0.342566 0.339089
O O9 0.627146 0.335175 0.771937
#
# Coordination Sequence:
#
# PCOD9231351 Si02
#       5
#     2   4   4   4   4
#     4  12  22  40  62  98 124 168 210 264 310 384
#     4  10  24  40  67  90 132 164 213 259 321 373
#     4  10  21  35  63  92 124 166 211 256 316 369
#     4  10  20  39  64  89 127 168 209 260 313 375
#     4  10  22  45  63  93 127 172 206 265 317 379
#
# _framework density 25.522078
#
# number of rings (size 3 to 8) (size 9 to 14) (size 15 to 20)
#    0.000    1.778    2.222    2.667    3.111    2.667 
#    0.000    1.111    0.000    0.000    0.000    0.000 
#    0.000    0.000    0.000    0.000    0.000    0.000 
#
# Total GULP energy -100490.360210 kJ/mol
# GULP energy per Si atom -5582.797789 kJ/mol
# Density = 2.546399 g / cm^3
# Si number density = 25.522078 Si / 1000 Ang^3
#
#
#
# Elastic Constant Matrix: (Units=GPa)
#
#
# Indices 1 2 3 4 5 6 
#
# 1 80.1005 33.3942 32.1471 0.0000 -17.0745 0.0000
# 2 33.3942 92.9538 44.0583 0.0000 -2.5270 0.0000
# 3 32.1471 44.0583 155.8154 0.0000 10.0659 0.0000
# 4 0.0000 0.0000 0.0000 40.1833 0.0000 4.3257
# 5 -17.0745 -2.5270 10.0659 0.0000 40.0626 0.0000
# 6 0.0000 0.0000 0.0000 4.3257 0.0000 23.0638
#
#
#
# Elastic Compliance Matrix: (Units=1/GPa)
#
#
# Indices 1 2 3 4 5 6 
#
# 1 0.017164 -0.004668 -0.002719 0.000000 0.007704 0.000000
# 2 -0.004668 0.013807 -0.002916 0.000000 -0.000386 0.000000
# 3 -0.002719 -0.002916 0.008020 0.000000 -0.003358 0.000000
# 4 0.000000 0.000000 0.000000 0.025399 0.000000 -0.004764
# 5 0.007704 -0.000386 -0.003358 0.000000 0.029064 0.000000
# 6 0.000000 0.000000 0.000000 -0.004764 0.000000 0.044251
#
#
# Mechanical properties :
#
#
# Convention : Reuss Voigt Hill
#
# Bulk Modulus (GPa) = 54.39245 60.89656 57.64451
# Shear Modulus (GPa) = 30.40650 35.27996 32.84323
#
# Velocity S-wave (km/s) = 3.45538 3.72200 3.59117
# Velocity P-wave (km/s) = 6.10555 6.51024 6.31114
#
# Compressibility (1/GPa) = 0.01838490
#
# Stress axis : x y z
#
# Youngs Moduli (GPa) = 58.26213 72.42877 124.68472
#
# Poissons Ratio (x) = 0.33810 0.33900
# Poissons Ratio (y) = 0.27197 0.36357
# Poissons Ratio (z) = 0.15841 0.21120
#
# Static dielectric constant tensor:
#      x y z
#    x 2.119880 0.000000 0.003600 
#    y 0.000000 2.026480 0.000000 
#    z 0.003600 0.000000 2.003760 
# 
# From -- ./inp_files/21690.got.cif
#   From: 2010.05.17/outbox.cif.g08.bks.cpg/sg13_11_cif.got.tgz:21690.got - 2010.06.03 16:44:36.
