data_PCOD9231757
_publ_section_title
;
Structure prediction by ZEFSAII (Michael W. Deem and Ramdas Pophale) SiO2 
 PCOD9231757
Probable space group: P 2/C
;
_chemical_formula_sum "Si O2"
_cell_formula_units_Z 26
_cell_length_a 11.107806
_cell_length_b 5.449878
_cell_length_c 22.823106
_cell_angle_alpha 90.000000
_cell_angle_beta 54.328883
_cell_angle_gamma 90.000000
_cell_volume 1122.400232
_symmetry_space_group_name_H-M "P 2/C"
_symmetry_group_IT_number 13
_symmetry_cell_setting 'monoclinic'
loop_
_space_group_symop_operation_xyz
x,y,z
-x,y,1/2-z
-x,-y,-z
x,-y,1/2+z
loop_
_atom_site_type_symbol
_atom_site_label
_atom_site_fract_x
_atom_site_fract_y
_atom_site_fract_z
Si Si1 0.731750 0.527387 0.150023
Si Si2 0.354057 0.621539 0.514895
Si Si3 0.410436 0.113796 0.887410
Si Si4 0.500000 0.844172 0.750000
Si Si5 0.947782 0.145584 0.640421
Si Si6 0.837652 0.728622 0.519083
Si Si7 0.942699 0.652040 0.832719
O O1 0.614793 0.625421 0.136020
O O2 0.646933 0.321932 0.208578
O O3 0.784054 0.755187 0.173546
O O4 0.863803 0.422075 0.071728
O O5 0.500000 0.500000 0.500000
O O6 0.424133 0.832159 0.452573
O O7 0.256835 0.440584 0.499992
O O8 0.231037 0.693284 0.599260
O O9 0.507300 0.980987 0.810678
O O10 0.263239 0.950445 0.930111
O O11 0.032061 0.152561 0.554593
O O12 0.015551 0.375837 0.658001
O O13 0.972635 0.878935 0.659986
O O14 0.000000 0.666643 0.750000
#
# Coordination Sequence:
#
# PCOD9231757 Si02
#       7
#     4   4   4   2   4   4   4
#     4  10  22  38  63  99 132 181 223 292 360 432
#     4  10  22  44  69  99 134 190 242 289 362 421
#     4  10  20  41  64  94 141 178 224 298 348 426
#     4  10  22  40  58  94 152 174 234 292 364 424
#     4  11  23  43  71  99 135 184 236 284 373 426
#     4   9  20  39  64  98 133 167 228 295 343 430
#     4  11  25  48  67 103 143 182 244 312 346 428
#
# _framework density 23.164642000000001
#
# number of rings (size 3 to 8) (size 9 to 14) (size 15 to 20)
#    0.000    1.846    1.538    1.385    4.308    1.231 
#   11.077    0.000    0.000    0.000    0.000    0.000 
#    0.000    0.000    0.000    0.000    0.000    0.000 
#
# Total GULP energy -144888.685833 kJ/mol
# GULP energy per Si atom -5572.641763 kJ/mol
# Density = 2.311192 g / cm^3
# Si number density = 23.164642 Si / 1000 Ang^3
#
#
#
# Elastic Constant Matrix: (Units=GPa)
#
#
# Indices 1 2 3 4 5 6 
#
# 1 46.7563 3.2964 46.3917 0.0000 -5.1482 0.0000
# 2 3.2964 74.0928 58.0622 0.0000 0.4614 0.0000
# 3 46.3917 58.0622 218.3302 0.0000 -11.7229 0.0000
# 4 0.0000 0.0000 0.0000 45.0456 0.0000 8.4750
# 5 -5.1482 0.4614 -11.7229 0.0000 15.6389 0.0000
# 6 0.0000 0.0000 0.0000 8.4750 0.0000 36.1208
#
#
#
# Elastic Compliance Matrix: (Units=1/GPa)
#
#
# Indices 1 2 3 4 5 6 
#
# 1 0.028405 0.004132 -0.006917 0.000000 0.004044 0.000000
# 2 0.004132 0.017902 -0.005829 0.000000 -0.003537 0.000000
# 3 -0.006917 -0.005829 0.007801 0.000000 0.003743 0.000000
# 4 0.000000 0.000000 0.000000 0.023225 0.000000 -0.005449
# 5 0.004044 -0.003537 0.003743 0.000000 0.068184 0.000000
# 6 0.000000 0.000000 0.000000 -0.005449 0.000000 0.028963
#
#
# Mechanical properties :
#
#
# Convention : Reuss Voigt Hill
#
# Bulk Modulus (GPa) = 27.11525 61.63111 44.37318
# Shear Modulus (GPa) = 24.50952 34.78966 29.64959
#
# Velocity S-wave (km/s) = 3.25631 3.87957 3.58152
# Velocity P-wave (km/s) = 5.08615 6.83604 6.02496
#
# Compressibility (1/GPa) = 0.03687962
#
# Stress axis : x y z
#
# Youngs Moduli (GPa) = 35.20541 55.85822 128.18773
#
# Poissons Ratio (x) = -0.23079 0.88670
# Poissons Ratio (y) = -0.14546 0.74718
# Poissons Ratio (z) = 0.24352 0.32559
#
# Static dielectric constant tensor:
#      x y z
#    x 1.924600 0.000000 0.007390 
#    y 0.000000 1.963510 0.000000 
#    z 0.007390 0.000000 1.936020 
# 
# From -- ./inp_files/77172.got.cif
#   From: 2010.05.17/outbox.cif.g08.bks.cpg/sg13_39_cif.got.tgz:77172.got - 2010.06.03 16:44:36.
