data_PCOD9231652
_publ_section_title
;
Structure prediction by ZEFSAII (Michael W. Deem and Ramdas Pophale) SiO2 
 PCOD9231652
Probable space group: P 2/C
;
_chemical_formula_sum "Si O2"
_cell_formula_units_Z 20
_cell_length_a 19.442155
_cell_length_b 7.589845
_cell_length_c 9.723599
_cell_angle_alpha 90.000000
_cell_angle_beta 42.088550
_cell_angle_gamma 90.000000
_cell_volume 961.744091
_symmetry_space_group_name_H-M "P 2/C"
_symmetry_group_IT_number 13
_symmetry_cell_setting 'monoclinic'
loop_
_space_group_symop_operation_xyz
x,y,z
-x,y,1/2-z
-x,-y,-z
x,-y,1/2+z
loop_
_atom_site_type_symbol
_atom_site_label
_atom_site_fract_x
_atom_site_fract_y
_atom_site_fract_z
Si Si1 0.428890 0.303044 0.721080
Si Si2 0.926280 0.528570 0.237720
Si Si3 0.212887 0.151923 0.651425
Si Si4 0.426719 0.712946 0.729083
Si Si5 0.203112 0.180008 0.996897
O O1 0.500000 0.297819 0.750000
O O2 0.403448 0.508820 0.725185
O O3 0.502644 0.218247 0.497871
O O4 0.317428 0.217146 0.886115
O O5 0.845690 0.673818 0.310036
O O6 0.867891 0.350835 0.372257
O O7 0.000000 0.591982 0.250000
O O8 0.000000 0.500000 0.000000
O O9 0.327166 0.180619 0.421059
O O10 0.164941 0.984166 0.644678
O O11 0.210763 0.140869 0.821272
O O12 0.500000 0.704584 0.750000
#
# Coordination Sequence:
#
# PCOD9231652 Si02
#       5
#     4   4   4   4   4
#     4  10  22  38  70 104 143 191 238 283 345 419
#     4  12  28  52  79 102 138 187 240 306 369 418
#     4  12  28  46  74 108 148 185 241 293 355 434
#     4  10  20  40  68 101 143 192 234 282 343 421
#     4  12  28  47  72 111 145 188 239 292 358 429
#
# _framework density 20.795555
#
# number of rings (size 3 to 8) (size 9 to 14) (size 15 to 20)
#    0.000    0.800    6.000    0.000    5.600    3.200 
#    0.000    0.000    0.000    0.000    0.000    0.000 
#    0.000    0.000    0.000    0.000    0.000    0.000 
#
# Total GULP energy -111733.887252 kJ/mol
# GULP energy per Si atom -5586.694363 kJ/mol
# Density = 2.074822 g / cm^3
# Si number density = 20.795555 Si / 1000 Ang^3
#
#
#
# Elastic Constant Matrix: (Units=GPa)
#
#
# Indices 1 2 3 4 5 6 
#
# 1 46.5991 0.6445 4.6332 0.0000 -0.9941 0.0000
# 2 0.6445 88.2585 -0.0551 0.0000 -4.9962 0.0000
# 3 4.6332 -0.0551 80.4628 0.0000 1.4750 0.0000
# 4 0.0000 0.0000 0.0000 1.3796 0.0000 21.7978
# 5 -0.9941 -4.9962 1.4750 0.0000 31.9748 0.0000
# 6 0.0000 0.0000 0.0000 21.7978 0.0000 9.6039
#
#
#
# Elastic Compliance Matrix: (Units=1/GPa)
#
#
# Indices 1 2 3 4 5 6 
#
# 1 0.021601 -0.000118 -0.001257 0.000000 0.000711 0.000000
# 2 -0.000118 0.011432 -0.000018 0.000000 0.001783 0.000000
# 3 -0.001257 -0.000018 0.012512 0.000000 -0.000619 0.000000
# 4 0.000000 0.000000 0.000000 -0.020792 0.000000 0.047192
# 5 0.000711 0.001783 -0.000619 0.000000 0.031604 0.000000
# 6 0.000000 0.000000 0.000000 0.047192 0.000000 -0.002987
#
#
# Mechanical properties :
#
#
# Convention : Reuss Voigt Hill
#
# Bulk Modulus (GPa) = 23.38699 25.08506 24.23603
# Shear Modulus (GPa) = 71.01293 22.59819 46.80556
#
# Velocity S-wave (km/s) = 5.84998 3.30006 4.74935
# Velocity P-wave (km/s) = 7.54323 5.15844 6.46180
#
# Compressibility (1/GPa) = 0.04275881
#
# Stress axis : x y z
#
# Youngs Moduli (GPa) = 46.29327 87.47246 79.92446
#
# Poissons Ratio (x) = 0.01035 0.10046
# Poissons Ratio (y) = 0.00548 0.00144
# Poissons Ratio (z) = 0.05819 0.00158
#
# Static dielectric constant tensor:
#      x y z
#    x 1.729710 0.000000 -0.224380 
#    y 0.000000 1.818520 0.000000 
#    z -0.224380 0.000000 2.303400 
# 
# From -- ./inp_files/21049.got.cif
#   From: 2010.05.17/outbox.cif.g08.bks.cpg/sg13_11_cif.got.tgz:21049.got - 2010.06.03 16:44:36.
