data_PCOD9231544
_publ_section_title
;
Structure prediction by ZEFSAII (Michael W. Deem and Ramdas Pophale) SiO2 
 PCOD9231544
Probable space group: P 2/C
;
_chemical_formula_sum "Si O2"
_cell_formula_units_Z 26
_cell_length_a 18.311758
_cell_length_b 8.908508
_cell_length_c 13.837271
_cell_angle_alpha 90.000000
_cell_angle_beta 152.127791
_cell_angle_gamma 90.000000
_cell_volume 1055.280936
_symmetry_space_group_name_H-M "P 2/C"
_symmetry_group_IT_number 13
_symmetry_cell_setting 'monoclinic'
loop_
_space_group_symop_operation_xyz
x,y,z
-x,y,1/2-z
-x,-y,-z
x,-y,1/2+z
loop_
_atom_site_type_symbol
_atom_site_label
_atom_site_fract_x
_atom_site_fract_y
_atom_site_fract_z
Si Si1 0.962040 0.369021 0.817477
Si Si2 0.839813 0.969170 0.158843
Si Si3 0.604243 0.723691 0.201086
Si Si4 0.156803 0.048372 0.564717
Si Si5 0.719888 0.722445 0.775694
Si Si6 0.500000 0.944879 0.250000
Si Si7 0.669734 0.443063 0.403958
O O1 0.913671 0.194221 0.760762
O O2 0.799223 0.453699 0.639639
O O3 0.000000 0.410869 0.750000
O O4 0.123998 0.374476 0.064206
O O5 0.971726 0.068976 0.368748
O O6 0.843524 0.021017 0.051767
O O7 0.656513 0.970941 0.968495
O O8 0.732322 0.809880 0.285955
O O9 0.550267 0.839878 0.220330
O O10 0.679319 0.584883 0.344344
O O11 0.444149 0.678103 0.961790
O O12 0.239041 0.895933 0.698175
O O13 0.695806 0.698884 0.863158
O O14 0.500000 0.437547 0.250000
#
# Coordination Sequence:
#
# PCOD9231544 Si02
#       7
#     4   4   4   4   4   2   4
#     4   9  17  36  59  82 108 152 204 234 272 346
#     4   9  15  33  57  83 111 149 193 232 278 350
#     4  11  22  38  56  87 123 149 188 244 293 342
#     4   9  17  35  60  86 112 145 197 233 285 350
#     4  10  20  40  63  83 112 155 197 239 280 347
#     4  10  22  34  54  88 124 150 176 244 310 328
#     4  11  22  38  57  84 116 152 198 238 285 345
#
# _framework density 24.637988
#
# number of rings (size 3 to 8) (size 9 to 14) (size 15 to 20)
#    0.000    2.154    5.385    0.923    1.077    0.000 
#   16.615    5.385    0.000    0.000    0.000    0.000 
#    0.000    0.000    0.000    0.000    0.000    0.000 
#
# Total GULP energy -145063.652567 kJ/mol
# GULP energy per Si atom -5579.371253 kJ/mol
# Density = 2.458191 g / cm^3
# Si number density = 24.637988 Si / 1000 Ang^3
#
#
#
# Elastic Constant Matrix: (Units=GPa)
#
#
# Indices 1 2 3 4 5 6 
#
# 1 44.7315 13.2563 17.0291 0.0000 5.7498 0.0000
# 2 13.2563 44.9945 63.5912 0.0000 17.3171 0.0000
# 3 17.0291 63.5912 230.4095 0.0000 26.0793 0.0000
# 4 0.0000 0.0000 0.0000 -6.2885 0.0000 3.5255
# 5 5.7498 17.3171 26.0793 0.0000 43.8781 0.0000
# 6 0.0000 0.0000 0.0000 3.5255 0.0000 2.7159
#
#
#
# Elastic Compliance Matrix: (Units=1/GPa)
#
#
# Indices 1 2 3 4 5 6 
#
# 1 0.024514 -0.007481 0.000303 0.000000 -0.000440 0.000000
# 2 -0.007481 0.042376 -0.010036 0.000000 -0.009779 0.000000
# 3 0.000303 -0.010036 0.007123 0.000000 -0.000312 0.000000
# 4 0.000000 0.000000 0.000000 -0.092040 0.000000 0.119475
# 5 -0.000440 -0.009779 -0.000312 0.000000 0.026893 0.000000
# 6 0.000000 0.000000 0.000000 0.119475 0.000000 0.213110
#
#
# Mechanical properties :
#
#
# Convention : Reuss Voigt Hill
#
# Bulk Modulus (GPa) = 25.26183 56.43208 40.84696
# Shear Modulus (GPa) = 18.54608 23.14503 20.84555
#
# Velocity S-wave (km/s) = 2.74659 3.06830 2.91189
# Velocity P-wave (km/s) = 4.50930 5.95876 5.28397
#
# Compressibility (1/GPa) = 0.03958541
#
# Stress axis : x y z
#
# Youngs Moduli (GPa) = 40.79323 23.59801 140.39237
#
# Poissons Ratio (x) = 0.17653 -0.04249
# Poissons Ratio (y) = 0.30516 1.40895
# Poissons Ratio (z) = -0.01235 0.23682
#
# Static dielectric constant tensor:
#      x y z
#    x 2.040670 0.000000 0.040350 
#    y 0.000000 1.954680 0.000000 
#    z 0.040350 0.000000 2.089700 
# 
# From -- ./inp_files/71366.got.cif
#   From: 2010.05.17/outbox.cif.g08.bks.cpg/sg13_36_cif.got.tgz:71366.got - 2010.06.03 16:44:36.
