data_PCOD9231946
_publ_section_title
;
Structure prediction by ZEFSAII (Michael W. Deem and Ramdas Pophale) SiO2 
 PCOD9231946
Probable space group: P 2/C
;
_chemical_formula_sum "Si O2"
_cell_formula_units_Z 20
_cell_length_a 6.398852
_cell_length_b 15.268512
_cell_length_c 10.448977
_cell_angle_alpha 90.000000
_cell_angle_beta 96.325684
_cell_angle_gamma 90.000000
_cell_volume 1014.659535
_symmetry_space_group_name_H-M "P 2/C"
_symmetry_group_IT_number 13
_symmetry_cell_setting 'monoclinic'
loop_
_space_group_symop_operation_xyz
x,y,z
-x,y,1/2-z
-x,-y,-z
x,-y,1/2+z
loop_
_atom_site_type_symbol
_atom_site_label
_atom_site_fract_x
_atom_site_fract_y
_atom_site_fract_z
Si Si1 0.581861 0.068708 0.110551
Si Si2 0.724238 0.536001 0.557345
Si Si3 0.292976 0.232942 0.072854
Si Si4 0.000000 0.870243 0.750000
Si Si5 0.500000 0.379433 0.250000
Si Si6 0.987491 0.640356 0.097394
O O1 0.500000 0.048666 0.250000
O O2 0.471352 0.160030 0.059564
O O3 0.834248 0.077309 0.148497
O O4 0.500000 0.000000 0.000000
O O5 0.500000 0.500000 0.500000
O O6 0.690111 0.566675 0.701311
O O7 0.861899 0.449255 0.563994
O O8 0.806010 0.615775 0.473428
O O9 0.148274 0.189529 0.172312
O O10 0.411925 0.316919 0.135352
O O11 0.134609 0.273371 0.958911
O O12 0.000000 0.648200 0.250000
#
# Coordination Sequence:
#
# PCOD9231946 Si02
#       6
#     4   4   4   2   2   4
#     4  10  23  44  67 100 127 162 213 265 332 401
#     4  11  23  39  61  85 127 172 215 273 313 371
#     4  11  22  40  64  93 124 165 218 262 314 392
#     4  10  20  42  72  90 126 168 204 262 316 388
#     4  12  20  40  64  90 118 166 224 262 306 372
#     4  11  25  40  56  93 130 171 217 261 329 377
#
# _framework density 19.711044000000001
#
# number of rings (size 3 to 8) (size 9 to 14) (size 15 to 20)
#    0.000    1.200    5.000    2.400    2.800    3.200 
#    5.400    0.000    0.000    0.000    0.000    0.000 
#    0.000    0.000    0.000    0.000    0.000    0.000 
#
# Total GULP energy -111456.932616 kJ/mol
# GULP energy per Si atom -5572.846631 kJ/mol
# Density = 1.966618 g / cm^3
# Si number density = 19.711044 Si / 1000 Ang^3
#
#
#
# Elastic Constant Matrix: (Units=GPa)
#
#
# Indices 1 2 3 4 5 6 
#
# 1 95.1783 31.3106 25.9969 0.0000 9.7706 0.0000
# 2 31.3106 90.9276 45.4146 0.0000 10.9952 0.0000
# 3 25.9969 45.4146 100.9861 0.0000 11.2176 0.0000
# 4 0.0000 0.0000 0.0000 49.3824 0.0000 17.2077
# 5 9.7706 10.9952 11.2176 0.0000 30.5939 0.0000
# 6 0.0000 0.0000 0.0000 17.2077 0.0000 33.3507
#
#
#
# Elastic Compliance Matrix: (Units=1/GPa)
#
#
# Indices 1 2 3 4 5 6 
#
# 1 0.012183 -0.003204 -0.001450 0.000000 -0.002208 0.000000
# 2 -0.003204 0.015273 -0.005783 0.000000 -0.002345 0.000000
# 3 -0.001450 -0.005783 0.013129 0.000000 -0.002272 0.000000
# 4 0.000000 0.000000 0.000000 0.024689 0.000000 -0.012739
# 5 -0.002208 -0.002345 -0.002272 0.000000 0.035067 0.000000
# 6 0.000000 0.000000 0.000000 -0.012739 0.000000 0.036557
#
#
# Mechanical properties :
#
#
# Convention : Reuss Voigt Hill
#
# Bulk Modulus (GPa) = 50.73441 54.72623 52.73032
# Shear Modulus (GPa) = 30.42406 34.95673 32.69039
#
# Velocity S-wave (km/s) = 3.93301 4.21581 4.07686
# Velocity P-wave (km/s) = 6.81320 7.17788 6.99792
#
# Compressibility (1/GPa) = 0.01971049
#
# Stress axis : x y z
#
# Youngs Moduli (GPa) = 82.07920 65.47464 76.16813
#
# Poissons Ratio (x) = 0.20978 0.11046
# Poissons Ratio (y) = 0.26298 0.44049
# Poissons Ratio (z) = 0.11904 0.37865
#
# Static dielectric constant tensor:
#      x y z
#    x 1.819140 0.000000 -0.012440 
#    y 0.000000 1.689230 0.000000 
#    z -0.012440 0.000000 2.134900 
# 
# From -- ./inp_files/26337.got.cif
#   From: 2010.05.17/outbox.cif.g08.bks.cpg/sg13_14_cif.got.tgz:26337.got - 2010.06.03 16:44:36.
