data_PCOD9231538
_publ_section_title
;
Structure prediction by ZEFSAII (Michael W. Deem and Ramdas Pophale) SiO2 
 PCOD9231538
Probable space group: P 2/C
;
_chemical_formula_sum "Si O2"
_cell_formula_units_Z 22
_cell_length_a 15.373247
_cell_length_b 10.976660
_cell_length_c 8.965290
_cell_angle_alpha 90.000000
_cell_angle_beta 47.780744
_cell_angle_gamma 90.000000
_cell_volume 1120.395708
_symmetry_space_group_name_H-M "P 2/C"
_symmetry_group_IT_number 13
_symmetry_cell_setting 'monoclinic'
loop_
_space_group_symop_operation_xyz
x,y,z
-x,y,1/2-z
-x,-y,-z
x,-y,1/2+z
loop_
_atom_site_type_symbol
_atom_site_label
_atom_site_fract_x
_atom_site_fract_y
_atom_site_fract_z
Si Si1 0.374591 0.152525 0.847472
Si Si2 0.130587 0.774839 0.114768
Si Si3 0.653981 0.900491 0.779617
Si Si4 0.500000 0.724523 0.750000
Si Si5 0.278389 0.676654 0.207033
Si Si6 0.909949 0.495554 0.970046
O O1 0.500000 0.205913 0.750000
O O2 0.309146 0.248941 0.820439
O O3 0.385412 0.033052 0.731221
O O4 0.330379 0.110347 0.060766
O O5 0.183311 0.750672 0.217768
O O6 0.122091 0.639815 0.050032
O O7 0.000000 0.824983 0.250000
O O8 0.221288 0.863481 0.931532
O O9 0.563391 0.806785 0.803992
O O10 0.606873 0.659926 0.533776
O O11 0.210591 0.557559 0.341092
O O12 0.000000 0.558792 0.750000
O O13 0.000000 0.500000 0.000000
#
# Coordination Sequence:
#
# PCOD9231538 Si02
#       6
#     4   4   4   2   4   4
#     4  12  23  40  65  97 127 170 214 260 325 386
#     4  10  22  42  65  93 129 169 215 264 318 380
#     4  11  22  39  65  93 131 168 211 262 320 386
#     4  10  20  40  62  94 134 164 210 266 318 378
#     4  11  23  39  67  97 127 170 218 265 321 383
#     4  11  22  43  70  92 125 175 216 262 319 383
#
# _framework density 19.635919000000001
#
# number of rings (size 3 to 8) (size 9 to 14) (size 15 to 20)
#    0.000    1.091    6.364    2.727    2.545    0.000 
#    0.000    8.182   10.000    0.000    0.000    0.000 
#    0.000    0.000    0.000    0.000    0.000    0.000 
#
# Total GULP energy -122562.764536 kJ/mol
# GULP energy per Si atom -5571.034752 kJ/mol
# Density = 1.959123 g / cm^3
# Si number density = 19.635919 Si / 1000 Ang^3
#
#
#
# Elastic Constant Matrix: (Units=GPa)
#
#
# Indices 1 2 3 4 5 6 
#
# 1 159.1984 25.2643 44.7295 0.0000 13.6515 0.0000
# 2 25.2643 31.3538 12.9500 0.0000 2.8994 0.0000
# 3 44.7295 12.9500 97.9812 0.0000 6.6899 0.0000
# 4 0.0000 0.0000 0.0000 28.4511 0.0000 3.9143
# 5 13.6515 2.8994 6.6899 0.0000 50.9887 0.0000
# 6 0.0000 0.0000 0.0000 3.9143 0.0000 43.2638
#
#
#
# Elastic Compliance Matrix: (Units=1/GPa)
#
#
# Indices 1 2 3 4 5 6 
#
# 1 0.008036 -0.005146 -0.002887 0.000000 -0.001480 0.000000
# 2 -0.005146 0.037123 -0.002530 0.000000 -0.000401 0.000000
# 3 -0.002887 -0.002530 0.011903 0.000000 -0.000645 0.000000
# 4 0.000000 0.000000 0.000000 0.035591 0.000000 -0.003220
# 5 -0.001480 -0.000401 -0.000645 0.000000 0.020116 0.000000
# 6 0.000000 0.000000 0.000000 -0.003220 0.000000 0.023405
#
#
# Mechanical properties :
#
#
# Convention : Reuss Voigt Hill
#
# Bulk Modulus (GPa) = 27.82807 50.49122 39.15964
# Shear Modulus (GPa) = 29.53706 38.24671 33.89188
#
# Velocity S-wave (km/s) = 3.88266 4.41817 4.15904
# Velocity P-wave (km/s) = 5.85686 7.19698 6.56122
#
# Compressibility (1/GPa) = 0.03593494
#
# Stress axis : x y z
#
# Youngs Moduli (GPa) = 124.43456 26.93768 84.01541
#
# Poissons Ratio (x) = 0.13862 0.24259
# Poissons Ratio (y) = 0.64035 0.21254
# Poissons Ratio (z) = 0.35930 0.06815
#
# Static dielectric constant tensor:
#      x y z
#    x 1.654310 0.000000 -0.032870 
#    y 0.000000 1.683400 0.000000 
#    z -0.032870 0.000000 1.737840 
# 
# From -- ./inp_files/18451.got.cif
#   From: 2010.05.17/outbox.cif.g08.bks.cpg/sg13_10_cif.got.tgz:18451.got - 2010.06.03 16:44:36.
