data_PCOD9231590
_publ_section_title
;
Structure prediction by ZEFSAII (Michael W. Deem and Ramdas Pophale) SiO2 
 PCOD9231590
Probable space group: P 2/C
;
_chemical_formula_sum "Si O2"
_cell_formula_units_Z 30
_cell_length_a 24.911847
_cell_length_b 5.554892
_cell_length_c 22.314782
_cell_angle_alpha 90.000000
_cell_angle_beta 25.327362
_cell_angle_gamma 90.000000
_cell_volume 1321.004762
_symmetry_space_group_name_H-M "P 2/C"
_symmetry_group_IT_number 13
_symmetry_cell_setting 'monoclinic'
loop_
_space_group_symop_operation_xyz
x,y,z
-x,y,1/2-z
-x,-y,-z
x,-y,1/2+z
loop_
_atom_site_type_symbol
_atom_site_label
_atom_site_fract_x
_atom_site_fract_y
_atom_site_fract_z
Si Si1 0.500000 0.937628 0.750000
Si Si2 0.673361 0.379965 0.008014
Si Si3 0.613644 0.573775 0.840756
Si Si4 0.396700 0.099777 0.532886
Si Si5 0.952206 0.484017 0.729600
Si Si6 0.993295 0.974762 0.613149
Si Si7 0.522290 0.267506 0.836325
Si Si8 0.196001 0.077157 0.308715
O O1 0.369354 0.814958 0.901416
O O2 0.547061 0.069134 0.762527
O O3 0.548783 0.536591 0.131056
O O4 0.678883 0.255490 0.937904
O O5 0.801954 0.511507 0.888227
O O6 0.625132 0.390813 0.773981
O O7 0.741058 0.662747 0.741917
O O8 0.500000 0.500000 0.000000
O O9 0.538831 0.806021 0.889902
O O10 0.414437 0.832351 0.489948
O O11 0.316381 0.092683 0.673790
O O12 0.996834 0.729060 0.649811
O O13 0.000000 0.466456 0.750000
O O14 0.976192 0.227269 0.668892
O O15 0.885175 0.936605 0.670682
O O16 0.115837 0.004882 0.447241
#
# Coordination Sequence:
#
# PCOD9231590 Si02
#       8
#     2   4   4   4   4   4   4   4
#     4  10  22  42  68 104 140 186 240 300 374 450
#     4  10  22  42  71  97 139 185 240 297 371 444
#     4  11  23  36  66 108 142 189 230 292 376 453
#     4  10  20  40  65 101 142 186 222 290 372 454
#     4  12  27  54  76 103 143 198 260 306 369 441
#     4  11  28  50  76 109 142 201 253 312 374 431
#     4  10  21  41  64 102 145 183 236 283 377 456
#     4  11  23  45  72 106 150 184 250 311 366 451
#
# _framework density 22.709987999999999
#
# number of rings (size 3 to 8) (size 9 to 14) (size 15 to 20)
#    0.000    1.333    2.667    2.000    3.733    3.200 
#    9.600    0.000    0.000    0.000    0.000    0.000 
#    0.000    0.000    0.000    0.000    0.000    0.000 
#
# Total GULP energy -167156.215371 kJ/mol
# GULP energy per Si atom -5571.873846 kJ/mol
# Density = 2.265830 g / cm^3
# Si number density = 22.709988 Si / 1000 Ang^3
#
#
#
# Elastic Constant Matrix: (Units=GPa)
#
#
# Indices 1 2 3 4 5 6 
#
# 1 130.6964 54.8670 48.9637 0.0000 22.7524 0.0000
# 2 54.8670 95.8128 37.9028 0.0000 23.2523 0.0000
# 3 48.9637 37.9028 73.7861 0.0000 29.4693 0.0000
# 4 0.0000 0.0000 0.0000 -59.5479 0.0000 -52.4961
# 5 22.7524 23.2523 29.4693 0.0000 29.4015 0.0000
# 6 0.0000 0.0000 0.0000 -52.4961 0.0000 -6.9453
#
#
#
# Elastic Compliance Matrix: (Units=1/GPa)
#
#
# Indices 1 2 3 4 5 6 
#
# 1 0.011542 -0.004490 -0.005342 0.000000 -0.000027 0.000000
# 2 -0.004490 0.015519 -0.002465 0.000000 -0.006328 0.000000
# 3 -0.005342 -0.002465 0.026571 0.000000 -0.020548 0.000000
# 4 0.000000 0.000000 0.000000 0.002965 0.000000 -0.022413
# 5 -0.000027 -0.006328 -0.020548 0.000000 0.059633 0.000000
# 6 0.000000 0.000000 0.000000 -0.022413 0.000000 0.025423
#
#
# Mechanical properties :
#
#
# Convention : Reuss Voigt Hill
#
# Bulk Modulus (GPa) = 34.43824 64.86249 49.65036
# Shear Modulus (GPa) = 28.42085 3.15245 15.78665
#
# Velocity S-wave (km/s) = 3.54145 1.17947 2.63941
# Velocity P-wave (km/s) = 5.64976 5.52070 5.58560
#
# Compressibility (1/GPa) = 0.02903749
#
# Stress axis : x y z
#
# Youngs Moduli (GPa) = 86.63830 64.43723 37.63500
#
# Poissons Ratio (x) = 0.28931 0.20106
# Poissons Ratio (y) = 0.38899 0.09278
# Poissons Ratio (z) = 0.46286 0.15885
#
# Static dielectric constant tensor:
#      x y z
#    x 1.902900 0.000000 -0.056000 
#    y 0.000000 2.125400 0.000000 
#    z -0.056000 0.000000 1.731790 
# 
# From -- ./inp_files/81997.got.cif
#   From: 2010.05.17/outbox.cif.g08.bks.cpg/sg13_41_cif.got.tgz:81997.got - 2010.06.03 16:44:36.
