data_PCOD9231236
_publ_section_title
;
Structure prediction by ZEFSAII (Michael W. Deem and Ramdas Pophale) SiO2 
 PCOD9231236
Probable space group: P 2/C
;
_chemical_formula_sum "Si O2"
_cell_formula_units_Z 30
_cell_length_a 11.662960
_cell_length_b 13.527452
_cell_length_c 27.313863
_cell_angle_alpha 90.000000
_cell_angle_beta 22.114143
_cell_angle_gamma 90.000000
_cell_volume 1622.253158
_symmetry_space_group_name_H-M "P 2/C"
_symmetry_group_IT_number 13
_symmetry_cell_setting 'monoclinic'
loop_
_space_group_symop_operation_xyz
x,y,z
-x,y,1/2-z
-x,-y,-z
x,-y,1/2+z
loop_
_atom_site_type_symbol
_atom_site_label
_atom_site_fract_x
_atom_site_fract_y
_atom_site_fract_z
Si Si1 0.470012 0.812960 0.992448
Si Si2 0.632255 0.472496 0.894540
Si Si3 0.460588 0.005638 0.426678
Si Si4 0.796775 0.290429 0.443732
Si Si5 0.000000 0.864269 0.250000
Si Si6 0.379698 0.164159 0.374262
Si Si7 0.988714 0.852507 0.570720
Si Si8 0.421986 0.332636 0.141545
O O1 0.441993 0.921588 0.980631
O O2 0.713467 0.798884 0.939337
O O3 0.565270 0.734986 0.912948
O O4 0.153765 0.799097 0.146566
O O5 0.525441 0.556868 0.898382
O O6 0.000000 0.470896 0.750000
O O7 0.500000 0.500000 0.000000
O O8 0.473770 0.368387 0.947085
O O9 0.475685 0.084466 0.376754
O O10 0.745203 0.933979 0.325221
O O11 0.173130 0.941202 0.522741
O O12 0.838882 0.246494 0.480962
O O13 0.100165 0.333329 0.297986
O O14 0.357131 0.271189 0.409421
O O15 0.670400 0.162391 0.224166
O O16 0.088647 0.137903 0.455962
#
# Coordination Sequence:
#
# PCOD9231236 Si02
#       8
#     4   4   4   4   2   4   4   4
#     4  11  22  34  53  82 119 156 190 236 294 350
#     4  12  22  37  60  92 121 148 185 237 303 364
#     4  11  22  34  54  82 121 153 196 239 292 344
#     4  11  22  36  58  85 119 151 189 237 292 357
#     4  12  24  32  50  92 120 158 186 244 300 348
#     4   9  21  37  62  76 108 156 203 238 281 339
#     4  10  20  39  55  83 110 154 201 240 276 341
#     4  10  21  39  58  83 112 152 191 239 293 349
#
# _framework density 18.492798000000001
#
# number of rings (size 3 to 8) (size 9 to 14) (size 15 to 20)
#    0.000    1.333    4.000    2.000    6.533    0.000 
#    0.000    0.667    0.000    0.000    0.000    0.000 
#    0.000    0.000    0.000    0.000    0.000    0.000 
#
# Total GULP energy -167039.902922 kJ/mol
# GULP energy per Si atom -5567.996764 kJ/mol
# Density = 1.845071 g / cm^3
# Si number density = 18.492798 Si / 1000 Ang^3
#
#
#
# Elastic Constant Matrix: (Units=GPa)
#
#
# Indices 1 2 3 4 5 6 
#
# 1 101.4160 40.3795 8.4404 0.0000 -11.9681 0.0000
# 2 40.3795 81.2414 23.4043 0.0000 -8.8976 0.0000
# 3 8.4404 23.4043 51.0074 0.0000 2.7462 0.0000
# 4 0.0000 0.0000 0.0000 23.8875 0.0000 -28.3698
# 5 -11.9681 -8.8976 2.7462 0.0000 24.8172 0.0000
# 6 0.0000 0.0000 0.0000 -28.3698 0.0000 -122.3226
#
#
#
# Elastic Compliance Matrix: (Units=1/GPa)
#
#
# Indices 1 2 3 4 5 6 
#
# 1 0.012673 -0.005999 0.000445 0.000000 0.003912 0.000000
# 2 -0.005999 0.017918 -0.007463 0.000000 0.004357 0.000000
# 3 0.000445 -0.007463 0.023227 0.000000 -0.005032 0.000000
# 4 0.000000 0.000000 0.000000 0.032822 0.000000 -0.007612
# 5 0.003912 0.004357 -0.005032 0.000000 0.044300 0.000000
# 6 0.000000 0.000000 0.000000 -0.007612 0.000000 -0.006410
#
#
# Mechanical properties :
#
#
# Convention : Reuss Voigt Hill
#
# Bulk Modulus (GPa) = 35.99289 42.01258 39.00274
# Shear Modulus (GPa) = 31.28389 -3.96088 13.66151
#
# Velocity S-wave (km/s) = 4.11747 -1.46509 2.72094
# Velocity P-wave (km/s) = 6.48923 4.46158 5.56847
#
# Compressibility (1/GPa) = 0.02778327
#
# Stress axis : x y z
#
# Youngs Moduli (GPa) = 78.90501 55.81038 43.05370
#
# Poissons Ratio (x) = 0.33480 -0.01915
# Poissons Ratio (y) = 0.47334 0.32133
# Poissons Ratio (z) = -0.03509 0.41653
#
# Static dielectric constant tensor:
#      x y z
#    x 1.692330 0.000000 -0.000580 
#    y 0.000000 1.686740 0.000000 
#    z -0.000580 0.000000 1.667600 
# 
# From -- ./inp_files/92431.got.cif
#   From: 2010.05.17/outbox.cif.g08.bks.cpg/sg13_47_cif.got.tgz:92431.got - 2010.06.03 16:44:36.
