data_PCOD9231260
_publ_section_title
;
Structure prediction by ZEFSAII (Michael W. Deem and Ramdas Pophale) SiO2 
 PCOD9231260
Probable space group: P 2/C
;
_chemical_formula_sum "Si O2"
_cell_formula_units_Z 24
_cell_length_a 11.690979
_cell_length_b 7.606741
_cell_length_c 18.997276
_cell_angle_alpha 90.000000
_cell_angle_beta 43.781795
_cell_angle_gamma 90.000000
_cell_volume 1168.941669
_symmetry_space_group_name_H-M "P 2/C"
_symmetry_group_IT_number 13
_symmetry_cell_setting 'monoclinic'
loop_
_space_group_symop_operation_xyz
x,y,z
-x,y,1/2-z
-x,-y,-z
x,-y,1/2+z
loop_
_atom_site_type_symbol
_atom_site_label
_atom_site_fract_x
_atom_site_fract_y
_atom_site_fract_z
Si Si1 0.187568 0.106770 0.641890
Si Si2 0.897415 0.123152 0.098231
Si Si3 0.707022 0.243375 0.048249
Si Si4 0.160294 0.470404 0.724684
Si Si5 0.334586 0.837065 0.673703
Si Si6 0.945249 0.469550 0.444712
O O1 0.196129 0.132230 0.554407
O O2 0.233034 0.296313 0.656631
O O3 0.000000 0.069487 0.750000
O O4 0.308709 0.958357 0.617235
O O5 0.767815 0.207823 0.100152
O O6 0.781437 0.071048 0.215134
O O7 0.025144 0.262676 0.076358
O O8 0.000000 0.000000 0.000000
O O9 0.518673 0.191982 0.119918
O O10 0.767674 0.445087 0.008483
O O11 0.271863 0.640644 0.683949
O O12 0.000000 0.521812 0.750000
O O13 0.079155 0.431595 0.836550
O O14 0.000000 0.500000 0.500000
#
# Coordination Sequence:
#
# PCOD9231260 Si02
#       6
#     4   4   4   4   4   4
#     4  11  21  39  65  87 127 170 216 253 313 387
#     4  10  22  40  66  90 122 167 219 253 314 392
#     4  11  21  41  60  91 129 160 205 270 320 369
#     4  10  20  39  60  87 122 164 212 253 306 388
#     4  11  24  38  62  93 130 162 206 272 322 361
#     4   9  19  37  63  86 116 165 209 251 313 376
#
# _framework density 20.531390999999999
#
# number of rings (size 3 to 8) (size 9 to 14) (size 15 to 20)
#    0.000    1.667    3.333    2.500    2.333    2.000 
#    3.000    0.000    0.000    0.000    0.000    0.000 
#    0.000    0.000    0.000    0.000    0.000    0.000 
#
# Total GULP energy -133757.963827 kJ/mol
# GULP energy per Si atom -5573.248493 kJ/mol
# Density = 2.048466 g / cm^3
# Si number density = 20.531391 Si / 1000 Ang^3
#
#
#
# Elastic Constant Matrix: (Units=GPa)
#
#
# Indices 1 2 3 4 5 6 
#
# 1 84.3852 20.4121 16.6432 0.0000 -3.8046 0.0000
# 2 20.4121 51.8432 7.7242 0.0000 -19.9464 0.0000
# 3 16.6432 7.7242 57.7766 0.0000 -0.0550 0.0000
# 4 0.0000 0.0000 0.0000 13.6151 0.0000 3.6996
# 5 -3.8046 -19.9464 -0.0550 0.0000 45.3498 0.0000
# 6 0.0000 0.0000 0.0000 3.6996 0.0000 38.1189
#
#
#
# Elastic Compliance Matrix: (Units=1/GPa)
#
#
# Indices 1 2 3 4 5 6 
#
# 1 0.013740 -0.005399 -0.003237 0.000000 -0.001226 0.000000
# 2 -0.005399 0.025906 -0.001898 0.000000 0.010939 0.000000
# 3 -0.003237 -0.001898 0.018493 0.000000 -0.001084 0.000000
# 4 0.000000 0.000000 0.000000 0.075437 0.000000 -0.007322
# 5 -0.001226 0.010939 -0.001084 0.000000 0.026758 0.000000
# 6 0.000000 0.000000 0.000000 -0.007322 0.000000 0.026944
#
#
# Mechanical properties :
#
#
# Convention : Reuss Voigt Hill
#
# Bulk Modulus (GPa) = 26.97521 31.50712 29.24117
# Shear Modulus (GPa) = 22.65479 29.36511 26.00995
#
# Velocity S-wave (km/s) = 3.32538 3.78597 3.56313
# Velocity P-wave (km/s) = 5.28311 5.87287 5.58578
#
# Compressibility (1/GPa) = 0.03707107
#
# Stress axis : x y z
#
# Youngs Moduli (GPa) = 72.78229 38.60073 54.07377
#
# Poissons Ratio (x) = 0.20841 0.17505
# Poissons Ratio (y) = 0.39295 0.10262
# Poissons Ratio (z) = 0.23561 0.07326
#
# Static dielectric constant tensor:
#      x y z
#    x 1.809310 0.000000 0.056740 
#    y 0.000000 1.825870 0.000000 
#    z 0.056740 0.000000 1.789970 
# 
# From -- ./inp_files/77956.got.cif
#   From: 2010.05.17/outbox.cif.g08.bks.cpg/sg13_39_cif.got.tgz:77956.got - 2010.06.03 16:44:36.
