data_PCOD9231748
_publ_section_title
;
Structure prediction by ZEFSAII (Michael W. Deem and Ramdas Pophale) SiO2 
 PCOD9231748
Probable space group: P 2/C
;
_chemical_formula_sum "Si O2"
_cell_formula_units_Z 28
_cell_length_a 7.820808
_cell_length_b 17.019950
_cell_length_c 17.134194
_cell_angle_alpha 90.000000
_cell_angle_beta 146.284027
_cell_angle_gamma 90.000000
_cell_volume 1265.978410
_symmetry_space_group_name_H-M "P 2/C"
_symmetry_group_IT_number 13
_symmetry_cell_setting 'monoclinic'
loop_
_space_group_symop_operation_xyz
x,y,z
-x,y,1/2-z
-x,-y,-z
x,-y,1/2+z
loop_
_atom_site_type_symbol
_atom_site_label
_atom_site_fract_x
_atom_site_fract_y
_atom_site_fract_z
Si Si1 0.858540 0.117847 0.384442
Si Si2 0.909804 0.210545 0.803786
Si Si3 0.192467 0.613478 0.680416
Si Si4 0.715449 0.731935 0.478314
Si Si5 0.833880 0.463871 0.608392
Si Si6 0.846205 0.950644 0.348475
Si Si7 0.556102 0.692257 0.952363
O O1 0.500000 0.141640 0.250000
O O2 0.082207 0.188687 0.446979
O O3 0.942854 0.081588 0.501014
O O4 0.912035 0.040461 0.350751
O O5 0.581234 0.252535 0.688377
O O6 0.865672 0.117434 0.792629
O O7 0.000000 0.231051 0.750000
O O8 0.192077 0.239442 0.964634
O O9 0.500000 0.596793 0.750000
O O10 0.299192 0.672422 0.790753
O O11 0.933769 0.660952 0.535121
O O12 0.042391 0.533106 0.653195
O O13 0.601108 0.709092 0.522892
O O14 0.500000 0.500000 0.500000
O O15 0.760625 0.386849 0.531943
O O16 0.000000 0.436856 0.750000
O O17 0.500000 0.951501 0.250000
#
# Coordination Sequence:
#
# PCOD9231748 Si02
#       7
#     4   4   4   4   4   4   4
#     4  10  22  37  66  97 128 174 214 267 329 396
#     4  10  23  40  64  93 126 168 223 269 318 393
#     4  12  27  43  65 100 136 167 220 277 328 394
#     4  11  21  42  65  94 128 170 219 266 325 392
#     4  12  22  46  73  92 129 180 217 264 332 397
#     4  10  20  41  64  89 132 174 216 264 334 386
#     4  11  25  44  68  94 128 175 218 269 329 394
#
# _framework density 22.117280999999998
#
# number of rings (size 3 to 8) (size 9 to 14) (size 15 to 20)
#    0.000    1.143    4.286    2.143    4.000    0.571 
#    0.000    5.000    0.000    0.000    0.000    0.000 
#    0.000    0.000    0.000    0.000    0.000    0.000 
#
# Total GULP energy -156445.177523 kJ/mol
# GULP energy per Si atom -5587.327769 kJ/mol
# Density = 2.206694 g / cm^3
# Si number density = 22.117281 Si / 1000 Ang^3
#
#
#
# Elastic Constant Matrix: (Units=GPa)
#
#
# Indices 1 2 3 4 5 6 
#
# 1 70.0944 30.0124 27.5890 0.0000 21.4083 0.0000
# 2 30.0124 117.1332 8.5984 0.0000 22.6259 0.0000
# 3 27.5890 8.5984 99.3570 0.0000 23.6754 0.0000
# 4 0.0000 0.0000 0.0000 21.7709 0.0000 -8.0669
# 5 21.4083 22.6259 23.6754 0.0000 30.9016 0.0000
# 6 0.0000 0.0000 0.0000 -8.0669 0.0000 15.8898
#
#
#
# Elastic Compliance Matrix: (Units=1/GPa)
#
#
# Indices 1 2 3 4 5 6 
#
# 1 0.019494 -0.003041 -0.003012 0.000000 -0.008971 0.000000
# 2 -0.003041 0.010512 0.001550 0.000000 -0.006777 0.000000
# 3 -0.003012 0.001550 0.012894 0.000000 -0.008927 0.000000
# 4 0.000000 0.000000 0.000000 0.056575 0.000000 0.028722
# 5 -0.008971 -0.006777 -0.008927 0.000000 0.050377 0.000000
# 6 0.000000 0.000000 0.000000 0.028722 0.000000 0.077515
#
#
# Mechanical properties :
#
#
# Convention : Reuss Voigt Hill
#
# Bulk Modulus (GPa) = 29.50459 46.55379 38.02919
# Shear Modulus (GPa) = 20.18797 28.40478 24.29638
#
# Velocity S-wave (km/s) = 3.02448 3.58757 3.31800
# Velocity P-wave (km/s) = 5.05625 6.18508 5.64893
#
# Compressibility (1/GPa) = 0.03389303
#
# Stress axis : x y z
#
# Youngs Moduli (GPa) = 51.29781 95.13125 77.55457
#
# Poissons Ratio (x) = 0.28928 0.23361
# Poissons Ratio (y) = 0.15599 -0.12018
# Poissons Ratio (z) = 0.15452 -0.14742
#
# Static dielectric constant tensor:
#      x y z
#    x 1.898790 0.000000 -0.201460 
#    y 0.000000 1.849740 0.000000 
#    z -0.201460 0.000000 2.207850 
# 
# From -- ./inp_files/76777.got.cif
#   From: 2010.05.17/outbox.cif.g08.bks.cpg/sg13_39_cif.got.tgz:76777.got - 2010.06.03 16:44:36.
