data_PCOD9231149
_publ_section_title
;
Structure prediction by ZEFSAII (Michael W. Deem and Ramdas Pophale) SiO2 
 PCOD9231149
Probable space group: P 2/C
;
_chemical_formula_sum "Si O2"
_cell_formula_units_Z 32
_cell_length_a 22.172501
_cell_length_b 8.625396
_cell_length_c 13.517194
_cell_angle_alpha 90.000000
_cell_angle_beta 150.568821
_cell_angle_gamma 90.000000
_cell_volume 1270.269242
_symmetry_space_group_name_H-M "P 2/C"
_symmetry_group_IT_number 13
_symmetry_cell_setting 'monoclinic'
loop_
_space_group_symop_operation_xyz
x,y,z
-x,y,1/2-z
-x,-y,-z
x,-y,1/2+z
loop_
_atom_site_type_symbol
_atom_site_label
_atom_site_fract_x
_atom_site_fract_y
_atom_site_fract_z
Si Si1 0.029342 0.906597 0.184557
Si Si2 0.968646 0.536887 0.340638
Si Si3 0.224923 0.115134 0.240356
Si Si4 0.217181 0.616976 0.193132
Si Si5 0.396552 0.773290 0.293095
Si Si6 0.367441 0.853442 0.752889
Si Si7 0.739530 0.862381 0.092097
Si Si8 0.719679 0.601416 0.546298
O O1 0.029422 0.717988 0.183452
O O2 0.000000 0.969891 0.250000
O O3 0.161997 0.951111 0.335700
O O4 0.910657 0.953916 0.954350
O O5 0.092472 0.459395 0.472136
O O6 0.000000 0.500000 0.500000
O O7 0.829541 0.472730 0.137058
O O8 0.257961 0.163865 0.176440
O O9 0.226059 0.250897 0.319551
O O10 0.318919 0.985406 0.415828
O O11 0.293128 0.702984 0.217326
O O12 0.188205 0.745177 0.235129
O O13 0.299961 0.505819 0.383528
O O14 0.522778 0.767456 0.534316
O O15 0.383951 0.960293 0.260512
O O16 0.384169 0.671790 0.174881
O O17 0.346402 0.786654 0.613046
#
# Coordination Sequence:
#
# PCOD9231149 Si02
#       8
#     4   4   4   4   4   4   4   4
#     4  12  23  38  68 101 143 185 220 290 358 424
#     4  10  20  38  65  98 139 179 218 274 355 432
#     4  12  23  43  70 104 139 181 235 292 354 428
#     4  11  23  43  73 104 142 181 234 293 358 421
#     4  11  26  48  69 100 140 188 242 294 352 422
#     4  11  26  48  69 100 138 185 243 293 353 421
#     4  12  23  43  70 104 139 181 235 292 354 428
#     4  11  23  43  73 104 142 181 234 293 358 421
#
# _framework density 25.191510000000001
#
# number of rings (size 3 to 8) (size 9 to 14) (size 15 to 20)
#    0.000    0.750    8.750    0.375    1.750    2.000 
#    0.000    5.000    0.000    0.000    0.000    0.000 
#    0.000    0.000    0.000    0.000    0.000    0.000 
#
# Total GULP energy -178595.890276 kJ/mol
# GULP energy per Si atom -5581.121571 kJ/mol
# Density = 2.513417 g / cm^3
# Si number density = 25.191510 Si / 1000 Ang^3
#
#
#
# Elastic Constant Matrix: (Units=GPa)
#
#
# Indices 1 2 3 4 5 6 
#
# 1 53.9002 1.7566 -7.5446 0.0000 -11.8283 0.0000
# 2 1.7566 78.5953 16.3986 0.0000 -9.7506 0.0000
# 3 -7.5446 16.3986 89.3652 0.0000 -14.7713 0.0000
# 4 0.0000 0.0000 0.0000 26.5649 0.0000 2.6908
# 5 -11.8283 -9.7506 -14.7713 0.0000 38.6696 0.0000
# 6 0.0000 0.0000 0.0000 2.6908 0.0000 23.9814
#
#
#
# Elastic Compliance Matrix: (Units=1/GPa)
#
#
# Indices 1 2 3 4 5 6 
#
# 1 0.020602 -0.000167 0.002994 0.000000 0.007403 0.000000
# 2 -0.000167 0.013475 -0.002064 0.000000 0.002558 0.000000
# 3 0.002994 -0.002064 0.012688 0.000000 0.005242 0.000000
# 4 0.000000 0.000000 0.000000 0.038076 0.000000 -0.004272
# 5 0.007403 0.002558 0.005242 0.000000 0.030772 0.000000
# 6 0.000000 0.000000 0.000000 -0.004272 0.000000 0.042178
#
#
# Mechanical properties :
#
#
# Convention : Reuss Voigt Hill
#
# Bulk Modulus (GPa) = 20.70775 27.00910 23.85843
# Shear Modulus (GPa) = 29.00862 31.92653 30.46758
#
# Velocity S-wave (km/s) = 3.39709 3.56385 3.48147
# Velocity P-wave (km/s) = 4.86055 5.26113 5.06480
#
# Compressibility (1/GPa) = 0.04829110
#
# Stress axis : x y z
#
# Youngs Moduli (GPa) = 48.53928 74.21070 78.81504
#
# Poissons Ratio (x) = 0.01236 -0.23594
# Poissons Ratio (y) = 0.00809 0.16267
# Poissons Ratio (z) = -0.14531 0.15316
#
# Static dielectric constant tensor:
#      x y z
#    x 2.037860 0.000000 -0.002600 
#    y 0.000000 2.038790 0.000000 
#    z -0.002600 0.000000 2.074020 
# 
# From -- ./inp_files/58846.got.cif
#   From: 2010.05.17/outbox.cif.g08.bks.cpg/sg13_30_cif.got.tgz:58846.got - 2010.06.03 16:44:36.
