data_PCOD9231723
_publ_section_title
;
Structure prediction by ZEFSAII (Michael W. Deem and Ramdas Pophale) SiO2 
 PCOD9231723
Probable space group: P 2/C
;
_chemical_formula_sum "Si O2"
_cell_formula_units_Z 28
_cell_length_a 6.800893
_cell_length_b 8.245016
_cell_length_c 31.041991
_cell_angle_alpha 90.000000
_cell_angle_beta 124.811695
_cell_angle_gamma 90.000000
_cell_volume 1429.115956
_symmetry_space_group_name_H-M "P 2/C"
_symmetry_group_IT_number 13
_symmetry_cell_setting 'monoclinic'
loop_
_space_group_symop_operation_xyz
x,y,z
-x,y,1/2-z
-x,-y,-z
x,-y,1/2+z
loop_
_atom_site_type_symbol
_atom_site_label
_atom_site_fract_x
_atom_site_fract_y
_atom_site_fract_z
Si Si1 0.739989 0.074952 0.803456
Si Si2 0.038905 0.786298 0.802300
Si Si3 0.443182 0.308906 0.499063
Si Si4 0.963317 0.724003 0.093850
Si Si5 0.991024 0.659404 0.608709
Si Si6 0.586779 0.876424 0.869590
Si Si7 0.794652 0.117849 0.956249
O O1 0.500000 0.142307 0.750000
O O2 0.934051 0.195814 0.849553
O O3 0.635778 0.974965 0.831421
O O4 0.886925 0.953049 0.790379
O O5 0.965462 0.686247 0.835315
O O6 0.322950 0.808042 0.838252
O O7 0.000000 0.715493 0.750000
O O8 0.500000 0.500000 0.500000
O O9 0.268318 0.266062 0.437332
O O10 0.284836 0.250873 0.519435
O O11 0.697749 0.229940 0.543287
O O12 0.126330 0.786222 0.075899
O O13 0.978960 0.531157 0.099079
O O14 0.199420 0.743946 0.606540
O O15 0.604043 0.991896 0.913309
O O16 0.000000 0.000000 0.000000
#
# Coordination Sequence:
#
# PCOD9231723 Si02
#       7
#     4   4   4   4   4   4   4
#     4  10  20  41  62  86 118 159 209 260 313 357
#     4  11  22  39  65  86 116 160 208 256 308 371
#     4  10  22  40  62  92 132 165 202 256 319 381
#     4  10  24  41  61  92 132 162 207 260 315 378
#     4  10  23  39  60  93 124 167 198 256 322 370
#     4  10  21  39  62  89 122 153 211 255 301 379
#     4  11  22  38  64  95 119 167 211 247 313 380
#
# _framework density 19.592533
#
# number of rings (size 3 to 8) (size 9 to 14) (size 15 to 20)
#    0.000    1.714    2.857    0.857    2.000    5.143 
#    2.571    0.714    0.000    0.000    0.000    0.000 
#    0.000    0.000    0.000    0.000    0.000    0.000 
#
# Total GULP energy -155905.102546 kJ/mol
# GULP energy per Si atom -5568.039377 kJ/mol
# Density = 1.954794 g / cm^3
# Si number density = 19.592533 Si / 1000 Ang^3
#
#
#
# Elastic Constant Matrix: (Units=GPa)
#
#
# Indices 1 2 3 4 5 6 
#
# 1 62.8071 25.5003 15.6466 0.0000 4.4749 0.0000
# 2 25.5003 51.0335 29.0484 0.0000 1.8227 0.0000
# 3 15.6466 29.0484 100.4298 0.0000 3.9661 0.0000
# 4 0.0000 0.0000 0.0000 23.2205 0.0000 2.5796
# 5 4.4749 1.8227 3.9661 0.0000 39.5257 0.0000
# 6 0.0000 0.0000 0.0000 2.5796 0.0000 22.4946
#
#
#
# Elastic Compliance Matrix: (Units=1/GPa)
#
#
# Indices 1 2 3 4 5 6 
#
# 1 0.020107 -0.009864 -0.000208 0.000000 -0.001801 0.000000
# 2 -0.009864 0.028302 -0.006668 0.000000 0.000481 0.000000
# 3 -0.000208 -0.006668 0.011953 0.000000 -0.000868 0.000000
# 4 0.000000 0.000000 0.000000 0.043621 0.000000 -0.005002
# 5 -0.001801 0.000481 -0.000868 0.000000 0.025569 0.000000
# 6 0.000000 0.000000 0.000000 -0.005002 0.000000 0.045029
#
#
# Mechanical properties :
#
#
# Convention : Reuss Voigt Hill
#
# Bulk Modulus (GPa) = 37.20199 39.40679 38.30439
# Shear Modulus (GPa) = 23.03912 26.65317 24.84615
#
# Velocity S-wave (km/s) = 3.43288 3.69233 3.56496
# Velocity P-wave (km/s) = 5.89423 6.19149 6.04469
#
# Compressibility (1/GPa) = 0.02688029
#
# Stress axis : x y z
#
# Youngs Moduli (GPa) = 49.73424 35.33280 83.66288
#
# Poissons Ratio (x) = 0.34852 0.01744
# Poissons Ratio (y) = 0.49058 0.55790
# Poissons Ratio (z) = 0.01036 0.23561
#
# Static dielectric constant tensor:
#      x y z
#    x 1.685680 0.000000 0.029090 
#    y 0.000000 1.561190 0.000000 
#    z 0.029090 0.000000 1.752600 
# 
# From -- ./inp_files/95119.got.cif
#   From: 2010.05.17/outbox.cif.g08.bks.cpg/sg13_48_cif.got.tgz:95119.got - 2010.06.03 16:44:36.
