data_PCOD9231972
_publ_section_title
;
Structure prediction by ZEFSAII (Michael W. Deem and Ramdas Pophale) SiO2 
 PCOD9231972
Probable space group: P 2/C
;
_chemical_formula_sum "Si O2"
_cell_formula_units_Z 26
_cell_length_a 14.562391
_cell_length_b 6.610127
_cell_length_c 12.920074
_cell_angle_alpha 90.000000
_cell_angle_beta 108.928613
_cell_angle_gamma 90.000000
_cell_volume 1176.422976
_symmetry_space_group_name_H-M "P 2/C"
_symmetry_group_IT_number 13
_symmetry_cell_setting 'monoclinic'
loop_
_space_group_symop_operation_xyz
x,y,z
-x,y,1/2-z
-x,-y,-z
x,-y,1/2+z
loop_
_atom_site_type_symbol
_atom_site_label
_atom_site_fract_x
_atom_site_fract_y
_atom_site_fract_z
Si Si1 0.339646 0.432489 0.928509
Si Si2 0.065001 0.666683 0.583274
Si Si3 0.000000 0.060215 0.250000
Si Si4 0.731486 0.503360 0.312654
Si Si5 0.414122 0.799104 0.639615
Si Si6 0.316643 0.822119 0.035420
Si Si7 0.163866 0.842470 0.419383
O O1 0.335894 0.418273 0.804793
O O2 0.231319 0.350846 0.919298
O O3 0.414231 0.306302 0.026373
O O4 0.352221 0.665558 0.962912
O O5 0.158520 0.559753 0.670726
O O6 0.106175 0.804078 0.504568
O O7 0.000000 0.500000 0.500000
O O8 0.013237 0.798566 0.653303
O O9 0.090981 0.912985 0.303592
O O10 0.679459 0.305693 0.341394
O O11 0.731626 0.680277 0.396501
O O12 0.500000 0.758372 0.750000
O O13 0.398146 0.035741 0.614979
O O14 0.239035 0.975154 0.960802
#
# Coordination Sequence:
#
# PCOD9231972 Si02
#       7
#     4   4   2   4   4   4   4
#     4  10  23  41  69  95 129 168 216 265 330 392
#     4  12  26  43  64  98 137 182 228 275 325 389
#     4  12  28  38  68  94 134 180 232 276 330 378
#     4  11  23  42  70  92 132 173 217 269 328 386
#     4  10  23  44  67  98 129 162 211 270 333 400
#     4  10  20  43  65  91 127 171 206 266 327 389
#     4  11  24  44  61  97 130 176 223 276 317 392
#
# _framework density 22.100895999999999
#
# number of rings (size 3 to 8) (size 9 to 14) (size 15 to 20)
#    0.000    1.231    4.615    2.308    6.462    5.538 
#    0.000    1.538    0.000    0.000    0.000    0.000 
#    0.000    0.000    0.000    0.000    0.000    0.000 
#
# Total GULP energy -145259.971918 kJ/mol
# GULP energy per Si atom -5586.921997 kJ/mol
# Density = 2.205059 g / cm^3
# Si number density = 22.100896 Si / 1000 Ang^3
#
#
#
# Elastic Constant Matrix: (Units=GPa)
#
#
# Indices 1 2 3 4 5 6 
#
# 1 41.4458 17.2005 12.1289 0.0000 14.7137 0.0000
# 2 17.2005 82.2610 30.3660 0.0000 13.4292 0.0000
# 3 12.1289 30.3660 114.4397 0.0000 27.1573 0.0000
# 4 0.0000 0.0000 0.0000 47.8099 0.0000 -0.8450
# 5 14.7137 13.4292 27.1573 0.0000 40.4149 0.0000
# 6 0.0000 0.0000 0.0000 -0.8450 0.0000 8.3764
#
#
#
# Elastic Compliance Matrix: (Units=1/GPa)
#
#
# Indices 1 2 3 4 5 6 
#
# 1 0.029303 -0.004738 0.000368 0.000000 -0.009341 0.000000
# 2 -0.004738 0.014453 -0.003096 0.000000 -0.000997 0.000000
# 3 0.000368 -0.003096 0.011074 0.000000 -0.006547 0.000000
# 4 0.000000 0.000000 0.000000 0.020954 0.000000 0.002114
# 5 -0.009341 -0.000997 -0.006547 0.000000 0.032875 0.000000
# 6 0.000000 0.000000 0.000000 0.002114 0.000000 0.119596
#
#
# Mechanical properties :
#
#
# Convention : Reuss Voigt Hill
#
# Bulk Modulus (GPa) = 25.06396 39.72637 32.39516
# Shear Modulus (GPa) = 19.49429 31.21698 25.35563
#
# Velocity S-wave (km/s) = 2.97317 3.76237 3.39081
# Velocity P-wave (km/s) = 4.81161 6.07354 5.47903
#
# Compressibility (1/GPa) = 0.03989793
#
# Stress axis : x y z
#
# Youngs Moduli (GPa) = 34.12647 69.19048 90.29864
#
# Poissons Ratio (x) = 0.32783 -0.03326
# Poissons Ratio (y) = 0.16169 0.27959
# Poissons Ratio (z) = -0.01257 0.21423
#
# Static dielectric constant tensor:
#      x y z
#    x 1.846280 0.000000 0.005130 
#    y 0.000000 1.787160 0.000000 
#    z 0.005130 0.000000 1.828790 
# 
# From -- ./inp_files/54384.got.cif
#   From: 2010.05.17/outbox.cif.g08.bks.cpg/sg13_28_cif.got.tgz:54384.got - 2010.06.03 16:44:36.
