data_PCOD9231554
_publ_section_title
;
Structure prediction by ZEFSAII (Michael W. Deem and Ramdas Pophale) SiO2 
 PCOD9231554
Probable space group: P 2/C
;
_chemical_formula_sum "Si O2"
_cell_formula_units_Z 26
_cell_length_a 5.672350
_cell_length_b 15.750526
_cell_length_c 15.755931
_cell_angle_alpha 90.000000
_cell_angle_beta 60.876851
_cell_angle_gamma 90.000000
_cell_volume 1229.709922
_symmetry_space_group_name_H-M "P 2/C"
_symmetry_group_IT_number 13
_symmetry_cell_setting 'monoclinic'
loop_
_space_group_symop_operation_xyz
x,y,z
-x,y,1/2-z
-x,-y,-z
x,-y,1/2+z
loop_
_atom_site_type_symbol
_atom_site_label
_atom_site_fract_x
_atom_site_fract_y
_atom_site_fract_z
Si Si1 0.000000 0.638495 0.250000
Si Si2 0.071375 0.364744 0.434630
Si Si3 0.196832 0.523249 0.075830
Si Si4 0.013535 0.077198 0.432249
Si Si5 0.000000 0.128379 0.250000
Si Si6 0.447155 0.778989 0.894380
Si Si7 0.500000 0.731519 0.250000
Si Si8 0.380397 0.778545 0.458000
O O1 0.810837 0.579345 0.339615
O O2 0.785189 0.684696 0.224466
O O3 0.094690 0.418057 0.516983
O O4 0.334100 0.306974 0.371829
O O5 0.980687 0.437546 0.384986
O O6 0.837333 0.295476 0.488135
O O7 0.500000 0.500000 0.000000
O O8 0.259772 0.140696 0.407931
O O9 0.030237 0.068574 0.327421
O O10 0.746477 0.131476 0.496844
O O11 0.000000 0.000000 0.500000
O O12 0.745064 0.191006 0.313444
O O13 0.411844 0.762617 0.001980
O O14 0.457413 0.779077 0.346583
#
# Coordination Sequence:
#
# PCOD9231554 Si02
#       8
#     2   4   4   4   2   4   2   4
#     4  12  26  42  68  94 140 180 238 298 354 424
#     4  10  20  40  63  90 128 172 222 279 348 407
#     4  11  23  40  63  91 131 176 226 291 351 414
#     4  10  23  45  68 102 138 177 222 281 352 422
#     4  10  22  42  70  98 136 180 224 284 344 416
#     4  10  21  42  69  94 135 176 227 284 348 417
#     4  12  24  44  68 100 138 184 242 284 356 424
#     4  10  22  41  66  97 130 178 224 283 344 419
#
# _framework density 21.143198999999999
#
# number of rings (size 3 to 8) (size 9 to 14) (size 15 to 20)
#    0.000    1.538    1.538    3.231    4.308    2.462 
#    5.538   18.462    0.000    0.000    0.000    0.000 
#    0.000    0.000    0.000    0.000    0.000    0.000 
#
# Total GULP energy -144961.525414 kJ/mol
# GULP energy per Si atom -5575.443285 kJ/mol
# Density = 2.109508 g / cm^3
# Si number density = 21.143199 Si / 1000 Ang^3
#
#
#
# Elastic Constant Matrix: (Units=GPa)
#
#
# Indices 1 2 3 4 5 6 
#
# 1 89.9418 32.2102 36.7628 0.0000 16.3472 0.0000
# 2 32.2102 98.9288 27.2161 0.0000 13.0819 0.0000
# 3 36.7628 27.2161 128.2629 0.0000 29.5402 0.0000
# 4 0.0000 0.0000 0.0000 11.0234 0.0000 -6.1771
# 5 16.3472 13.0819 29.5402 0.0000 37.7818 0.0000
# 6 0.0000 0.0000 0.0000 -6.1771 0.0000 -3.8993
#
#
#
# Elastic Compliance Matrix: (Units=1/GPa)
#
#
# Indices 1 2 3 4 5 6 
#
# 1 0.013930 -0.003446 -0.002620 0.000000 -0.002785 0.000000
# 2 -0.003446 0.011763 -0.001114 0.000000 -0.001711 0.000000
# 3 -0.002620 -0.001114 0.010286 0.000000 -0.006523 0.000000
# 4 0.000000 0.000000 0.000000 0.048057 0.000000 -0.076128
# 5 -0.002785 -0.001711 -0.006523 0.000000 0.033365 0.000000
# 6 0.000000 0.000000 0.000000 -0.076128 0.000000 -0.135856
#
#
# Mechanical properties :
#
#
# Convention : Reuss Voigt Hill
#
# Bulk Modulus (GPa) = 46.25726 56.61242 51.43484
# Shear Modulus (GPa) = 1606.87075 23.71080 815.29077
#
# Velocity S-wave (km/s) = 27.59790 3.35242 19.65811
# Velocity P-wave (km/s) = 32.20949 6.46675 23.23004
#
# Compressibility (1/GPa) = 0.02161823
#
# Stress axis : x y z
#
# Youngs Moduli (GPa) = 71.78989 85.01161 97.21858
#
# Poissons Ratio (x) = 0.29297 0.25469
# Poissons Ratio (y) = 0.24741 0.10833
# Poissons Ratio (z) = 0.18807 0.09472
#
# Static dielectric constant tensor:
#      x y z
#    x 1.862950 0.000000 0.021730 
#    y 0.000000 1.776980 0.000000 
#    z 0.021730 0.000000 1.783750 
# 
# From -- ./inp_files/44370.got.cif
#   From: 2010.05.17/outbox.cif.g08.bks.cpg/sg13_23_cif.got.tgz:44370.got - 2010.06.03 16:44:36.
