data_PCOD9231507
_publ_section_title
;
Structure prediction by ZEFSAII (Michael W. Deem and Ramdas Pophale) SiO2 
 PCOD9231507
Probable space group: P 2/C
;
_chemical_formula_sum "Si O2"
_cell_formula_units_Z 22
_cell_length_a 11.757323
_cell_length_b 5.570957
_cell_length_c 13.850905
_cell_angle_alpha 90.000000
_cell_angle_beta 80.247925
_cell_angle_gamma 90.000000
_cell_volume 894.118407
_symmetry_space_group_name_H-M "P 2/C"
_symmetry_group_IT_number 13
_symmetry_cell_setting 'monoclinic'
loop_
_space_group_symop_operation_xyz
x,y,z
-x,y,1/2-z
-x,-y,-z
x,-y,1/2+z
loop_
_atom_site_type_symbol
_atom_site_label
_atom_site_fract_x
_atom_site_fract_y
_atom_site_fract_z
Si Si1 0.114598 0.131744 0.249919
Si Si2 0.192119 0.735856 0.114125
Si Si3 0.247068 0.508312 0.317302
Si Si4 0.555165 0.247649 0.955694
Si Si5 0.958271 0.212640 0.577205
Si Si6 0.500000 0.349146 0.750000
O O1 0.204435 0.238759 0.312528
O O2 0.000000 0.292781 0.250000
O O3 0.174503 0.015800 0.148713
O O4 0.058705 0.920959 0.319717
O O5 0.215613 0.597263 0.211504
O O6 0.309619 0.729415 0.037825
O O7 0.077199 0.640685 0.077357
O O8 0.164447 0.646970 0.405301
O O9 0.384149 0.521303 0.305190
O O10 0.544200 0.221745 0.840576
O O11 0.500000 0.500000 0.000000
O O12 0.500000 0.000000 0.000000
O O13 0.000000 0.000000 0.500000
#
# Coordination Sequence:
#
# PCOD9231507 Si02
#       6
#     4   4   4   4   4   2
#     4   9  18  36  62  88 120 172 219 278 356 421
#     4   9  21  39  62  89 130 170 225 290 348 426
#     4  10  20  40  61  89 125 176 229 282 365 420
#     4  11  27  48  73 105 145 195 246 301 368 440
#     4  10  21  35  58  95 127 163 223 293 350 424
#     4  10  26  46  68 104 142 196 246 304 364 454
#
# _framework density 24.605243000000002
#
# number of rings (size 3 to 8) (size 9 to 14) (size 15 to 20)
#    0.000    2.182    0.000    2.727    7.636    2.909 
#    3.273    0.000    0.000    0.000    0.000    0.000 
#    0.000    0.000    0.000    0.000    0.000    0.000 
#
# Total GULP energy -122469.461606 kJ/mol
# GULP energy per Si atom -5566.793709 kJ/mol
# Density = 2.454924 g / cm^3
# Si number density = 24.605243 Si / 1000 Ang^3
#
#
#
# Elastic Constant Matrix: (Units=GPa)
#
#
# Indices 1 2 3 4 5 6 
#
# 1 172.5683 20.6046 25.9756 0.0000 -55.7376 0.0000
# 2 20.6046 67.5463 38.9659 0.0000 -31.1315 0.0000
# 3 25.9756 38.9659 105.0091 0.0000 -27.0558 0.0000
# 4 0.0000 0.0000 0.0000 42.5565 0.0000 -5.6757
# 5 -55.7376 -31.1315 -27.0558 0.0000 54.5645 0.0000
# 6 0.0000 0.0000 0.0000 -5.6757 0.0000 20.8247
#
#
#
# Elastic Compliance Matrix: (Units=1/GPa)
#
#
# Indices 1 2 3 4 5 6 
#
# 1 0.008853 0.002180 -0.000399 0.000000 0.010089 0.000000
# 2 0.002180 0.023399 -0.005971 0.000000 0.012616 0.000000
# 3 -0.000399 -0.005971 0.012445 0.000000 0.002356 0.000000
# 4 0.000000 0.000000 0.000000 0.024384 0.000000 0.006646
# 5 0.010089 0.012616 0.002356 0.000000 0.036999 0.000000
# 6 0.000000 0.000000 0.000000 0.006646 0.000000 0.049831
#
#
# Mechanical properties :
#
#
# Convention : Reuss Voigt Hill
#
# Bulk Modulus (GPa) = 27.53668 57.35733 42.44700
# Shear Modulus (GPa) = 28.34481 40.89432 34.61956
#
# Velocity S-wave (km/s) = 3.39777 4.08121 3.75507
# Velocity P-wave (km/s) = 5.15837 6.75055 6.00744
#
# Compressibility (1/GPa) = 0.03631520
#
# Stress axis : x y z
#
# Youngs Moduli (GPa) = 112.95069 42.73668 80.35641
#
# Poissons Ratio (x) = -0.09316 0.03209
# Poissons Ratio (y) = -0.24621 0.47984
# Poissons Ratio (z) = 0.04510 0.25520
#
# Static dielectric constant tensor:
#      x y z
#    x 2.220220 0.000000 0.001950 
#    y 0.000000 2.193350 0.000000 
#    z 0.001950 0.000000 1.975390 
# 
# From -- ./inp_files/65281.got.cif
#   From: 2010.05.17/outbox.cif.g08.bks.cpg/sg13_33_cif.got.tgz:65281.got - 2010.06.03 16:44:36.
