data_PCOD9231493
_publ_section_title
;
Structure prediction by ZEFSAII (Michael W. Deem and Ramdas Pophale) SiO2 
 PCOD9231493
Probable space group: P 2/C
;
_chemical_formula_sum "Si O2"
_cell_formula_units_Z 18
_cell_length_a 11.369860
_cell_length_b 4.996822
_cell_length_c 16.973471
_cell_angle_alpha 90.000000
_cell_angle_beta 131.043519
_cell_angle_gamma 90.000000
_cell_volume 727.298265
_symmetry_space_group_name_H-M "P 2/C"
_symmetry_group_IT_number 13
_symmetry_cell_setting 'monoclinic'
loop_
_space_group_symop_operation_xyz
x,y,z
-x,y,1/2-z
-x,-y,-z
x,-y,1/2+z
loop_
_atom_site_type_symbol
_atom_site_label
_atom_site_fract_x
_atom_site_fract_y
_atom_site_fract_z
Si Si1 0.094213 0.277260 0.636180
Si Si2 0.303090 0.304924 0.425659
Si Si3 0.214434 0.773394 0.606162
Si Si4 0.000000 0.993021 0.750000
Si Si5 0.429825 0.803016 0.565750
O O1 0.168552 0.563844 0.653151
O O2 0.924192 0.262844 0.519756
O O3 0.199900 0.066860 0.635238
O O4 0.075795 0.178717 0.716637
O O5 0.328982 0.606880 0.464511
O O6 0.395141 0.255324 0.384637
O O7 0.128953 0.199884 0.344816
O O8 0.388764 0.108144 0.525957
O O9 0.373346 0.738112 0.628154
#
# Coordination Sequence:
#
# PCOD9231493 Si02
#       5
#     4   4   4   2   4
#     4  10  23  34  62  92 127 160 208 260 323 364
#     4  10  23  36  65  92 127 163 210 265 324 369
#     4  10  20  40  60  89 122 172 208 252 302 407
#     4  12  24  42  60 106 130 164 212 294 320 378
#     4  10  20  42  62  90 121 174 216 251 308 410
#
# _framework density 24.749131999999999
#
# number of rings (size 3 to 8) (size 9 to 14) (size 15 to 20)
#    0.000    1.778    2.222    1.333    6.222    3.556 
#    0.000    1.111    0.000    2.667    0.000    0.000 
#    0.000    0.000    0.000    0.000    0.000    0.000 
#
# Total GULP energy -100911.127050 kJ/mol
# GULP energy per Si atom -5606.173725 kJ/mol
# Density = 2.469280 g / cm^3
# Si number density = 24.749132 Si / 1000 Ang^3
#
#
#
# Elastic Constant Matrix: (Units=GPa)
#
#
# Indices 1 2 3 4 5 6 
#
# 1 141.3746 1.6968 9.8090 0.0000 -19.9277 0.0000
# 2 1.6968 74.3044 7.9851 0.0000 8.4923 0.0000
# 3 9.8090 7.9851 69.3979 0.0000 -7.3597 0.0000
# 4 0.0000 0.0000 0.0000 8.4357 0.0000 -4.5634
# 5 -19.9277 8.4923 -7.3597 0.0000 11.0976 0.0000
# 6 0.0000 0.0000 0.0000 -4.5634 0.0000 23.2646
#
#
#
# Elastic Compliance Matrix: (Units=1/GPa)
#
#
# Indices 1 2 3 4 5 6 
#
# 1 0.009940 -0.002704 0.001096 0.000000 0.020645 0.000000
# 2 -0.002704 0.016137 -0.003549 0.000000 -0.019558 0.000000
# 3 0.001096 -0.003549 0.016307 0.000000 0.015497 0.000000
# 4 0.000000 0.000000 0.000000 0.132615 0.000000 0.026013
# 5 0.020645 -0.019558 0.015497 0.000000 0.152425 0.000000
# 6 0.000000 0.000000 0.000000 0.026013 0.000000 0.048086
#
#
# Mechanical properties :
#
#
# Convention : Reuss Voigt Hill
#
# Bulk Modulus (GPa) = 31.18316 36.00652 33.59484
# Shear Modulus (GPa) = 12.60989 26.26531 19.43760
#
# Velocity S-wave (km/s) = 2.25968 3.26124 2.80551
# Velocity P-wave (km/s) = 4.40854 5.36293 4.90899
#
# Compressibility (1/GPa) = 0.03206859
#
# Stress axis : x y z
#
# Youngs Moduli (GPa) = 100.60472 61.97118 61.32482
#
# Poissons Ratio (x) = 0.16759 -0.06719
# Poissons Ratio (y) = 0.27206 0.21762
# Poissons Ratio (z) = -0.11023 0.21991
#
# Static dielectric constant tensor:
#      x y z
#    x 1.928860 0.000000 0.013610 
#    y 0.000000 1.817450 0.000000 
#    z 0.013610 0.000000 1.965680 
# 
# From -- ./inp_files/64940.got.cif
#   From: 2010.05.17/outbox.cif.g08.bks.cpg/sg13_33_cif.got.tgz:64940.got - 2010.06.03 16:44:36.
