data_PCOD9231660
_publ_section_title
;
Structure prediction by ZEFSAII (Michael W. Deem and Ramdas Pophale) SiO2 
 PCOD9231660
Probable space group: P 2/C
;
_chemical_formula_sum "Si O2"
_cell_formula_units_Z 32
_cell_length_a 5.414853
_cell_length_b 9.354081
_cell_length_c 28.417904
_cell_angle_alpha 90.000000
_cell_angle_beta 91.277932
_cell_angle_gamma 90.000000
_cell_volume 1439.036489
_symmetry_space_group_name_H-M "P 2/C"
_symmetry_group_IT_number 13
_symmetry_cell_setting 'monoclinic'
loop_
_space_group_symop_operation_xyz
x,y,z
-x,y,1/2-z
-x,-y,-z
x,-y,1/2+z
loop_
_atom_site_type_symbol
_atom_site_label
_atom_site_fract_x
_atom_site_fract_y
_atom_site_fract_z
Si Si1 0.782526 0.061327 0.384397
Si Si2 0.283502 0.371787 0.453761
Si Si3 0.198905 0.785693 0.520460
Si Si4 0.278291 0.312021 0.927285
Si Si5 0.400935 0.290416 0.359039
Si Si6 0.224419 0.727032 0.131178
Si Si7 0.332084 0.494556 0.201925
Si Si8 0.984509 0.780076 0.702386
O O1 0.842779 0.093336 0.439616
O O2 0.525586 0.144924 0.376117
O O3 0.941701 0.141490 0.345003
O O4 0.785512 0.898523 0.369380
O O5 0.553492 0.300600 0.461866
O O6 0.298082 0.541297 0.457137
O O7 0.218023 0.340733 0.398837
O O8 0.059136 0.302670 0.481294
O O9 0.256714 0.815388 0.465896
O O10 0.525744 0.300239 0.897896
O O11 0.028702 0.319883 0.895819
O O12 0.557233 0.429939 0.346860
O O13 0.296269 0.258939 0.307426
O O14 0.236718 0.647072 0.181795
O O15 0.500000 0.511905 0.250000
O O16 0.133807 0.367738 0.209108
O O17 0.000000 0.868258 0.750000
#
# Coordination Sequence:
#
# PCOD9231660 Si02
#       8
#     4   4   4   4   4   4   4   4
#     4  10  26  42  63  98 136 181 218 272 329 401
#     4  11  20  39  67  99 132 168 223 290 338 380
#     4  11  23  40  69  98 133 176 231 281 332 393
#     4  12  25  42  67  98 136 180 224 279 338 398
#     4  10  20  40  68  90 131 165 221 276 332 388
#     4  12  28  45  65  97 144 179 219 270 339 406
#     4  11  23  42  66 100 126 170 218 279 336 398
#     4  11  21  41  74  99 125 168 226 280 329 393
#
# _framework density 22.237103000000001
#
# number of rings (size 3 to 8) (size 9 to 14) (size 15 to 20)
#    0.000    1.000    3.750    3.000    3.500    1.000 
#    2.250    0.625    0.000    0.000    0.000    0.000 
#    0.000    0.000    0.000    0.000    0.000    0.000 
#
# Total GULP energy -178187.732041 kJ/mol
# GULP energy per Si atom -5568.366626 kJ/mol
# Density = 2.218649 g / cm^3
# Si number density = 22.237103 Si / 1000 Ang^3
#
#
#
# Elastic Constant Matrix: (Units=GPa)
#
#
# Indices 1 2 3 4 5 6 
#
# 1 75.9143 26.4293 26.3909 0.0000 -2.6874 0.0000
# 2 26.4293 101.3964 4.8168 0.0000 10.1622 0.0000
# 3 26.3909 4.8168 69.7614 0.0000 4.8116 0.0000
# 4 0.0000 0.0000 0.0000 4.1071 0.0000 11.7356
# 5 -2.6874 10.1622 4.8116 0.0000 31.9083 0.0000
# 6 0.0000 0.0000 0.0000 11.7356 0.0000 0.2544
#
#
#
# Elastic Compliance Matrix: (Units=1/GPa)
#
#
# Indices 1 2 3 4 5 6 
#
# 1 0.017128 -0.004546 -0.006432 0.000000 0.003860 0.000000
# 2 -0.004546 0.011410 0.001222 0.000000 -0.004201 0.000000
# 3 -0.006432 0.001222 0.016924 0.000000 -0.003483 0.000000
# 4 0.000000 0.000000 0.000000 -0.001862 0.000000 0.085863
# 5 0.003860 -0.004201 -0.003483 0.000000 0.033528 0.000000
# 6 0.000000 0.000000 0.000000 0.085863 0.000000 -0.030050
#
#
# Mechanical properties :
#
#
# Convention : Reuss Voigt Hill
#
# Bulk Modulus (GPa) = 38.53632 40.26070 39.39851
# Shear Modulus (GPa) = 66.45329 19.88299 43.16814
#
# Velocity S-wave (km/s) = 5.47255 2.99345 4.41076
# Velocity P-wave (km/s) = 7.56962 5.48563 6.61027
#
# Compressibility (1/GPa) = 0.02594954
#
# Stress axis : x y z
#
# Youngs Moduli (GPa) = 58.38394 87.64122 59.08887
#
# Poissons Ratio (x) = 0.39840 0.38006
# Poissons Ratio (y) = 0.26540 -0.07218
# Poissons Ratio (z) = 0.37552 -0.10706
#
# Static dielectric constant tensor:
#      x y z
#    x 1.964920 0.000000 0.024280 
#    y 0.000000 1.843120 0.000000 
#    z 0.024280 0.000000 1.945190 
# 
# From -- ./inp_files/95050.got.cif
#   From: 2010.05.17/outbox.cif.g08.bks.cpg/sg13_48_cif.got.tgz:95050.got - 2010.06.03 16:44:36.
