data_PCOD9231487
_publ_section_title
;
Structure prediction by ZEFSAII (Michael W. Deem and Ramdas Pophale) SiO2 
 PCOD9231487
Probable space group: P 2/C
;
_chemical_formula_sum "Si O2"
_cell_formula_units_Z 20
_cell_length_a 9.263179
_cell_length_b 11.023751
_cell_length_c 16.877990
_cell_angle_alpha 90.000000
_cell_angle_beta 150.194797
_cell_angle_gamma 90.000000
_cell_volume 856.668241
_symmetry_space_group_name_H-M "P 2/C"
_symmetry_group_IT_number 13
_symmetry_cell_setting 'monoclinic'
loop_
_space_group_symop_operation_xyz
x,y,z
-x,y,1/2-z
-x,-y,-z
x,-y,1/2+z
loop_
_atom_site_type_symbol
_atom_site_label
_atom_site_fract_x
_atom_site_fract_y
_atom_site_fract_z
Si Si1 0.910552 0.637864 0.114896
Si Si2 0.664551 0.245952 0.910834
Si Si3 0.561787 0.513554 0.692179
Si Si4 0.805926 0.092209 0.355204
Si Si5 0.177714 0.117148 0.754878
O O1 0.000000 0.635303 0.250000
O O2 0.118387 0.539112 0.171496
O O3 0.989426 0.774030 0.123102
O O4 0.580500 0.602212 0.939929
O O5 0.500000 0.207445 0.750000
O O6 0.617609 0.387559 0.896020
O O7 0.495450 0.179178 0.901842
O O8 0.996365 0.208346 0.065343
O O9 0.500000 0.565149 0.750000
O O10 0.500000 0.115181 0.250000
O O11 0.773147 0.012161 0.261062
O O12 0.000000 0.000000 0.500000
O O13 0.000000 0.099232 0.750000
#
# Coordination Sequence:
#
# PCOD9231487 Si02
#       5
#     4   4   4   4   4
#     4  10  21  40  62  87 123 164 199 244 310 367
#     4  10  20  40  60  84 121 160 198 248 305 354
#     4  10  21  39  61  89 123 158 205 254 299 357
#     4  12  21  40  63  85 115 158 202 242 304 365
#     4  10  21  37  61  87 120 158 196 247 307 357
#
# _framework density 23.346260000000001
#
# number of rings (size 3 to 8) (size 9 to 14) (size 15 to 20)
#    0.000    1.600    4.000    1.200    0.000    0.800 
#    3.600    2.000    0.000    0.000    0.000    0.000 
#    0.000    0.000    0.000    0.000    0.000    0.000 
#
# Total GULP energy -111734.777173 kJ/mol
# GULP energy per Si atom -5586.738859 kJ/mol
# Density = 2.329312 g / cm^3
# Si number density = 23.346260 Si / 1000 Ang^3
#
#
#
# Elastic Constant Matrix: (Units=GPa)
#
#
# Indices 1 2 3 4 5 6 
#
# 1 136.0196 13.4813 31.5624 0.0000 26.1701 0.0000
# 2 13.4813 36.6792 30.1769 0.0000 14.4203 0.0000
# 3 31.5624 30.1769 73.0817 0.0000 32.8680 0.0000
# 4 0.0000 0.0000 0.0000 27.3532 0.0000 7.2700
# 5 26.1701 14.4203 32.8680 0.0000 42.5315 0.0000
# 6 0.0000 0.0000 0.0000 7.2700 0.0000 11.8799
#
#
#
# Elastic Compliance Matrix: (Units=1/GPa)
#
#
# Indices 1 2 3 4 5 6 
#
# 1 0.008531 -0.000029 -0.002017 0.000000 -0.003681 0.000000
# 2 -0.000029 0.041335 -0.016493 0.000000 -0.001251 0.000000
# 3 -0.002017 -0.016493 0.028035 0.000000 -0.014833 0.000000
# 4 0.000000 0.000000 0.000000 0.043660 0.000000 -0.026718
# 5 -0.003681 -0.001251 -0.014833 0.000000 0.037663 0.000000
# 6 0.000000 0.000000 0.000000 -0.026718 0.000000 0.100527
#
#
# Mechanical properties :
#
#
# Convention : Reuss Voigt Hill
#
# Bulk Modulus (GPa) = 24.49547 44.02464 34.26006
# Shear Modulus (GPa) = 16.10631 27.72358 21.91495
#
# Velocity S-wave (km/s) = 2.62942 3.44974 3.06713
# Velocity P-wave (km/s) = 4.44224 5.89626 5.22012
#
# Compressibility (1/GPa) = 0.04082387
#
# Stress axis : x y z
#
# Youngs Moduli (GPa) = 117.22038 24.19253 35.66913
#
# Poissons Ratio (x) = 0.00070 0.07195
# Poissons Ratio (y) = 0.00340 0.58828
# Poissons Ratio (z) = 0.23644 0.39900
#
# Static dielectric constant tensor:
#      x y z
#    x 1.939480 0.000000 -0.055100 
#    y 0.000000 1.888520 0.000000 
#    z -0.055100 0.000000 1.937290 
# 
# From -- ./inp_files/11869.got.cif
#   From: 2010.05.17/outbox.cif.g08.bks.cpg/sg13_6_cif.got.tgz:11869.got - 2010.06.03 16:44:36.
