data_PCOD9231739
_publ_section_title
;
Structure prediction by ZEFSAII (Michael W. Deem and Ramdas Pophale) SiO2 
 PCOD9231739
Probable space group: P 2/C
;
_chemical_formula_sum "Si O2"
_cell_formula_units_Z 26
_cell_length_a 17.900800
_cell_length_b 5.238333
_cell_length_c 11.483909
_cell_angle_alpha 90.000000
_cell_angle_beta 112.107976
_cell_angle_gamma 90.000000
_cell_volume 997.676117
_symmetry_space_group_name_H-M "P 2/C"
_symmetry_group_IT_number 13
_symmetry_cell_setting 'monoclinic'
loop_
_space_group_symop_operation_xyz
x,y,z
-x,y,1/2-z
-x,-y,-z
x,-y,1/2+z
loop_
_atom_site_type_symbol
_atom_site_label
_atom_site_fract_x
_atom_site_fract_y
_atom_site_fract_z
Si Si1 0.086743 0.570629 0.740828
Si Si2 0.747595 0.021303 0.871902
Si Si3 0.911727 0.930108 0.403384
Si Si4 0.500000 0.694734 0.750000
Si Si5 0.633548 0.354735 0.168169
Si Si6 0.756680 0.702532 0.126235
Si Si7 0.368301 0.959626 0.049382
O O1 0.101212 0.857622 0.706218
O O2 0.165709 0.466552 0.857117
O O3 0.000000 0.556491 0.750000
O O4 0.083622 0.364017 0.634482
O O5 0.767491 0.159446 0.755533
O O6 0.843311 0.018392 0.960156
O O7 0.701572 0.768236 0.790923
O O8 0.673100 0.211395 0.874758
O O9 0.000000 0.000000 0.500000
O O10 0.445283 0.549234 0.811011
O O11 0.562449 0.873342 0.855189
O O12 0.677160 0.537909 0.103757
O O13 0.607216 0.132405 0.061903
O O14 0.721996 0.901447 0.011214
#
# Coordination Sequence:
#
# PCOD9231739 Si02
#       7
#     4   4   4   2   4   4   4
#     4  11  24  42  66  96 139 177 229 284 328 398
#     4   9  21  40  60  87 129 167 215 271 329 395
#     4  11  23  41  63  98 134 177 226 280 340 395
#     4  10  22  40  62  94 130 160 212 282 340 394
#     4  10  20  41  63  88 126 166 215 265 334 407
#     4  10  22  40  63  90 126 174 218 268 338 402
#     4  10  22  39  65  91 122 172 217 269 334 412
#
# _framework density 26.060563999999999
#
# number of rings (size 3 to 8) (size 9 to 14) (size 15 to 20)
#    0.000    1.846    1.538    1.385    2.154    4.308 
#    0.000    7.692    0.000    0.000    0.000    0.000 
#    0.000    0.000    0.000    0.000    0.000    0.000 
#
# Total GULP energy -145035.205333 kJ/mol
# GULP energy per Si atom -5578.277128 kJ/mol
# Density = 2.600125 g / cm^3
# Si number density = 26.060564 Si / 1000 Ang^3
#
#
#
# Elastic Constant Matrix: (Units=GPa)
#
#
# Indices 1 2 3 4 5 6 
#
# 1 239.3348 24.7789 26.4113 0.0000 8.3246 0.0000
# 2 24.7789 51.2261 5.7043 0.0000 -2.8309 0.0000
# 3 26.4113 5.7043 69.4128 0.0000 6.4482 0.0000
# 4 0.0000 0.0000 0.0000 30.9816 0.0000 11.7420
# 5 8.3246 -2.8309 6.4482 0.0000 41.6450 0.0000
# 6 0.0000 0.0000 0.0000 11.7420 0.0000 22.8317
#
#
#
# Elastic Compliance Matrix: (Units=1/GPa)
#
#
# Indices 1 2 3 4 5 6 
#
# 1 0.004590 -0.002099 -0.001497 0.000000 -0.000828 0.000000
# 2 -0.002099 0.020769 -0.001094 0.000000 0.002001 0.000000
# 3 -0.001497 -0.001094 0.015265 0.000000 -0.002139 0.000000
# 4 0.000000 0.000000 0.000000 0.040092 0.000000 -0.020618
# 5 -0.000828 0.002001 -0.002139 0.000000 0.024645 0.000000
# 6 0.000000 0.000000 0.000000 -0.020618 0.000000 0.054402
#
#
# Mechanical properties :
#
#
# Convention : Reuss Voigt Hill
#
# Bulk Modulus (GPa) = 32.00671 52.64030 42.32351
# Shear Modulus (GPa) = 27.84634 39.29694 33.57164
#
# Velocity S-wave (km/s) = 3.27237 3.88739 3.59307
# Velocity P-wave (km/s) = 5.15618 6.35548 5.78699
#
# Compressibility (1/GPa) = 0.03124345
#
# Stress axis : x y z
#
# Youngs Moduli (GPa) = 217.88524 48.14846 65.51067
#
# Poissons Ratio (x) = 0.10107 0.09806
# Poissons Ratio (y) = 0.45737 0.07167
# Poissons Ratio (z) = 0.32614 0.05267
#
# Static dielectric constant tensor:
#      x y z
#    x 2.249970 0.000000 -0.023400 
#    y 0.000000 2.319230 0.000000 
#    z -0.023400 0.000000 2.267910 
# 
# From -- ./inp_files/54530.got.cif
#   From: 2010.05.17/outbox.cif.g08.bks.cpg/sg13_28_cif.got.tgz:54530.got - 2010.06.03 16:44:36.
