data_PCOD9231099
_publ_section_title
;
Structure prediction by ZEFSAII (Michael W. Deem and Ramdas Pophale) SiO2 
 PCOD9231099
Probable space group: P 2/C
;
_chemical_formula_sum "Si O2"
_cell_formula_units_Z 32
_cell_length_a 16.418650
_cell_length_b 6.680809
_cell_length_c 27.151017
_cell_angle_alpha 90.000000
_cell_angle_beta 30.337135
_cell_angle_gamma 90.000000
_cell_volume 1504.246074
_symmetry_space_group_name_H-M "P 2/C"
_symmetry_group_IT_number 13
_symmetry_cell_setting 'monoclinic'
loop_
_space_group_symop_operation_xyz
x,y,z
-x,y,1/2-z
-x,-y,-z
x,-y,1/2+z
loop_
_atom_site_type_symbol
_atom_site_label
_atom_site_fract_x
_atom_site_fract_y
_atom_site_fract_z
Si Si1 0.262207 0.932816 0.369723
Si Si2 0.439788 0.227962 0.971475
Si Si3 0.067071 0.744418 0.915462
Si Si4 0.776399 0.647725 0.191479
Si Si5 0.976594 0.976212 0.148340
Si Si6 0.723140 0.949994 0.855639
Si Si7 0.549568 0.378064 0.377527
Si Si8 0.350885 0.043167 0.429991
O O1 0.320581 0.772777 0.299041
O O2 0.097866 0.825945 0.475076
O O3 0.208397 0.133746 0.369346
O O4 0.357424 0.992315 0.368888
O O5 0.297379 0.134586 0.078915
O O6 0.445595 0.466026 0.964133
O O7 0.603835 0.139853 0.910069
O O8 0.423232 0.133018 0.925974
O O9 0.102841 0.510966 0.896786
O O10 0.058245 0.820544 0.863811
O O11 0.877734 0.806990 0.170198
O O12 0.665902 0.517625 0.284837
O O13 0.897465 0.996873 0.243189
O O14 0.164666 0.933636 0.043820
O O15 0.645537 0.775692 0.862020
O O16 0.443888 0.243366 0.396262
#
# Coordination Sequence:
#
# PCOD9231099 Si02
#       8
#     4   4   4   4   4   4   4   4
#     4   9  20  36  57  85 124 163 204 258 315 361
#     4  10  22  40  63  89 121 161 198 257 319 372
#     4   9  18  35  58  89 116 156 213 260 300 364
#     4  11  20  35  67  90 117 164 222 246 298 387
#     4  10  20  38  64  91 119 164 208 259 303 370
#     4  10  20  40  68  87 116 158 212 254 308 375
#     4  11  22  40  63  93 125 162 208 259 309 371
#     4  10  24  40  58  88 136 162 198 262 321 359
#
# _framework density 21.273115000000001
#
# number of rings (size 3 to 8) (size 9 to 14) (size 15 to 20)
#    0.000    2.000    2.500    1.500    0.000    3.500 
#    0.000    3.750    0.000    0.000    0.000    0.000 
#    0.000    0.000    0.000    0.000    0.000    0.000 
#
# Total GULP energy -178803.976280 kJ/mol
# GULP energy per Si atom -5587.624259 kJ/mol
# Density = 2.122470 g / cm^3
# Si number density = 21.273115 Si / 1000 Ang^3
#
#
#
# Elastic Constant Matrix: (Units=GPa)
#
#
# Indices 1 2 3 4 5 6 
#
# 1 62.4925 21.8317 -1.2838 0.0000 6.1385 0.0000
# 2 21.8317 104.8453 5.7378 0.0000 -5.3055 0.0000
# 3 -1.2838 5.7378 57.5844 0.0000 5.3134 0.0000
# 4 0.0000 0.0000 0.0000 35.7042 0.0000 7.5778
# 5 6.1385 -5.3055 5.3134 0.0000 30.0143 0.0000
# 6 0.0000 0.0000 0.0000 7.5778 0.0000 18.6360
#
#
#
# Elastic Compliance Matrix: (Units=1/GPa)
#
#
# Indices 1 2 3 4 5 6 
#
# 1 0.017883 -0.004023 0.001223 0.000000 -0.004585 0.000000
# 2 -0.004023 0.010602 -0.001418 0.000000 0.002948 0.000000
# 3 0.001223 -0.001418 0.017873 0.000000 -0.003665 0.000000
# 4 0.000000 0.000000 0.000000 0.030653 0.000000 -0.012464
# 5 -0.004585 0.002948 -0.003665 0.000000 0.035425 0.000000
# 6 0.000000 0.000000 0.000000 -0.012464 0.000000 0.058728
#
#
# Mechanical properties :
#
#
# Convention : Reuss Voigt Hill
#
# Bulk Modulus (GPa) = 26.37049 30.83260 28.60155
# Shear Modulus (GPa) = 26.00911 30.11333 28.06122
#
# Velocity S-wave (km/s) = 3.50040 3.76647 3.63587
# Velocity P-wave (km/s) = 5.36285 5.78275 5.57676
#
# Compressibility (1/GPa) = 0.03792118
#
# Stress axis : x y z
#
# Youngs Moduli (GPa) = 55.92010 94.31959 55.95182
#
# Poissons Ratio (x) = 0.37941 -0.06840
# Poissons Ratio (y) = 0.22494 0.07935
# Poissons Ratio (z) = -0.06837 0.13375
#
# Static dielectric constant tensor:
#      x y z
#    x 1.757530 0.000000 0.032470 
#    y 0.000000 1.734290 0.000000 
#    z 0.032470 0.000000 1.855270 
# 
# From -- ./inp_files/97241.got.cif
#   From: 2010.05.17/outbox.cif.g08.bks.cpg/sg13_49_cif.got.tgz:97241.got - 2010.06.03 16:44:36.
