data_PCOD9231379
_publ_section_title
;
Structure prediction by ZEFSAII (Michael W. Deem and Ramdas Pophale) SiO2 
 PCOD9231379
Probable space group: P 2/C
;
_chemical_formula_sum "Si O2"
_cell_formula_units_Z 20
_cell_length_a 12.364941
_cell_length_b 7.849514
_cell_length_c 13.801115
_cell_angle_alpha 90.000000
_cell_angle_beta 132.752850
_cell_angle_gamma 90.000000
_cell_volume 983.593981
_symmetry_space_group_name_H-M "P 2/C"
_symmetry_group_IT_number 13
_symmetry_cell_setting 'monoclinic'
loop_
_space_group_symop_operation_xyz
x,y,z
-x,y,1/2-z
-x,-y,-z
x,-y,1/2+z
loop_
_atom_site_type_symbol
_atom_site_label
_atom_site_fract_x
_atom_site_fract_y
_atom_site_fract_z
Si Si1 0.495965 0.001043 0.382384
Si Si2 0.304462 0.314941 0.280688
Si Si3 0.306499 0.673613 0.204628
Si Si4 0.008306 0.806252 0.969908
Si Si5 0.249697 0.776228 0.971714
O O1 0.394390 0.842832 0.287809
O O2 0.661758 0.952528 0.454433
O O3 0.500000 0.000000 0.500000
O O4 0.422977 0.179805 0.312721
O O5 0.350255 0.508090 0.289857
O O6 0.150489 0.278130 0.132517
O O7 0.275295 0.279933 0.377566
O O8 0.319379 0.650715 0.095812
O O9 0.131412 0.712046 0.110110
O O10 0.084239 0.798852 0.909351
O O11 0.000000 0.000000 0.000000
#
# Coordination Sequence:
#
# PCOD9231379 Si02
#       5
#     4   4   4   4   4
#     4  10  21  40  62  88 122 162 208 255 305 368
#     4  11  20  41  66  88 125 167 202 258 308 366
#     4  10  22  38  63  88 128 158 210 252 308 361
#     4  10  20  39  65  87 126 164 199 261 308 357
#     4   9  22  37  62  89 128 159 208 252 305 371
#
# _framework density 20.333591999999999
#
# number of rings (size 3 to 8) (size 9 to 14) (size 15 to 20)
#    1.200    0.800    2.000    1.800    0.000    3.200 
#    0.000   18.000    0.000    0.000    0.000    0.000 
#    0.000    0.000    0.000    0.000    0.000    0.000 
#
# Total GULP energy -111393.155787 kJ/mol
# GULP energy per Si atom -5569.657789 kJ/mol
# Density = 2.028731 g / cm^3
# Si number density = 20.333592 Si / 1000 Ang^3
#
#
#
# Elastic Constant Matrix: (Units=GPa)
#
#
# Indices 1 2 3 4 5 6 
#
# 1 34.5958 1.1176 -8.6648 0.0000 -9.0953 0.0000
# 2 1.1176 109.1811 11.4071 0.0000 -14.7594 0.0000
# 3 -8.6648 11.4071 60.2807 0.0000 -6.7688 0.0000
# 4 0.0000 0.0000 0.0000 27.7748 0.0000 -6.1823
# 5 -9.0953 -14.7594 -6.7688 0.0000 30.4126 0.0000
# 6 0.0000 0.0000 0.0000 -6.1823 0.0000 21.2735
#
#
#
# Elastic Compliance Matrix: (Units=1/GPa)
#
#
# Indices 1 2 3 4 5 6 
#
# 1 0.033446 0.000603 0.005999 0.000000 0.011630 0.000000
# 2 0.000603 0.009922 -0.001261 0.000000 0.004715 0.000000
# 3 0.005999 -0.001261 0.018280 0.000000 0.005250 0.000000
# 4 0.000000 0.000000 0.000000 0.038494 0.000000 0.011187
# 5 0.011630 0.004715 0.005250 0.000000 0.039816 0.000000
# 6 0.000000 0.000000 0.000000 0.011187 0.000000 0.050258
#
#
# Mechanical properties :
#
#
# Convention : Reuss Voigt Hill
#
# Bulk Modulus (GPa) = 13.82556 23.53080 18.67818
# Shear Modulus (GPa) = 24.55271 29.23869 26.89570
#
# Velocity S-wave (km/s) = 3.47867 3.79615 3.64087
# Velocity P-wave (km/s) = 4.79051 5.55084 5.18463
#
# Compressibility (1/GPa) = 0.07232979
#
# Stress axis : x y z
#
# Youngs Moduli (GPa) = 29.89890 100.78529 54.70550
#
# Poissons Ratio (x) = -0.06078 -0.32820
# Poissons Ratio (y) = -0.01803 0.06901
# Poissons Ratio (z) = -0.17938 0.12714
#
# Static dielectric constant tensor:
#      x y z
#    x 1.763140 0.000000 0.009140 
#    y 0.000000 1.697520 0.000000 
#    z 0.009140 0.000000 1.762370 
# 
# From -- ./inp_files/49423.got.cif
#   From: 2010.05.17/outbox.cif.g08.bks.cpg/sg13_25_cif.got.tgz:49423.got - 2010.06.03 16:44:36.
