data_PCOD9231925
_publ_section_title
;
Structure prediction by ZEFSAII (Michael W. Deem and Ramdas Pophale) SiO2 
 PCOD9231925
Probable space group: P 2/C
;
_chemical_formula_sum "Si O2"
_cell_formula_units_Z 18
_cell_length_a 9.243217
_cell_length_b 8.642916
_cell_length_c 22.090234
_cell_angle_alpha 90.000000
_cell_angle_beta 152.268021
_cell_angle_gamma 90.000000
_cell_volume 821.203035
_symmetry_space_group_name_H-M "P 2/C"
_symmetry_group_IT_number 13
_symmetry_cell_setting 'monoclinic'
loop_
_space_group_symop_operation_xyz
x,y,z
-x,y,1/2-z
-x,-y,-z
x,-y,1/2+z
loop_
_atom_site_type_symbol
_atom_site_label
_atom_site_fract_x
_atom_site_fract_y
_atom_site_fract_z
Si Si1 0.172898 0.636817 0.100211
Si Si2 0.765046 0.141447 0.534999
Si Si3 0.323846 0.794822 0.034114
Si Si4 0.745855 0.633988 0.607068
Si Si5 0.000000 0.173798 0.750000
O O1 0.500000 0.583376 0.250000
O O2 0.251350 0.752809 0.075140
O O3 0.971284 0.732859 0.074832
O O4 0.000000 0.500000 0.000000
O O5 0.445167 0.227521 0.432141
O O6 0.914722 0.094740 0.655135
O O7 0.707517 0.978851 0.482246
O O8 0.677249 0.745480 0.148552
O O9 0.128347 0.702708 0.910247
O O10 0.500000 0.500000 0.500000
O O11 0.000000 0.582614 0.750000
#
# Coordination Sequence:
#
# PCOD9231925 Si02
#       5
#     4   4   4   4   2
#     4  12  27  50  72 102 146 192 237 292 356 426
#     4  11  25  43  75 103 140 185 239 291 357 413
#     4  11  25  43  75 103 140 185 239 291 357 413
#     4  11  26  42  69 103 145 186 237 287 352 422
#     4  10  20  42  70 100 142 176 226 292 350 408
#
# _framework density 21.919060999999999
#
# number of rings (size 3 to 8) (size 9 to 14) (size 15 to 20)
#    0.000    0.889    2.222    4.667   12.444    5.333 
#    0.000    0.000    0.000    0.000    0.000    0.000 
#    0.000    0.000    0.000    0.000    0.000    0.000 
#
# Total GULP energy -100497.110779 kJ/mol
# GULP energy per Si atom -5583.172821 kJ/mol
# Density = 2.186917 g / cm^3
# Si number density = 21.919061 Si / 1000 Ang^3
#
#
#
# Elastic Constant Matrix: (Units=GPa)
#
#
# Indices 1 2 3 4 5 6 
#
# 1 107.3446 14.5320 31.0193 0.0000 -14.4436 0.0000
# 2 14.5320 127.2064 57.6785 0.0000 -12.2983 0.0000
# 3 31.0193 57.6785 150.4991 0.0000 -23.6410 0.0000
# 4 0.0000 0.0000 0.0000 8.8608 0.0000 -3.5472
# 5 -14.4436 -12.2983 -23.6410 0.0000 25.2233 0.0000
# 6 0.0000 0.0000 0.0000 -3.5472 0.0000 21.8212
#
#
#
# Elastic Compliance Matrix: (Units=1/GPa)
#
#
# Indices 1 2 3 4 5 6 
#
# 1 0.010344 -0.000119 -0.001366 0.000000 0.004585 0.000000
# 2 -0.000119 0.009560 -0.003422 0.000000 0.001386 0.000000
# 3 -0.001366 -0.003422 0.009208 0.000000 0.006180 0.000000
# 4 0.000000 0.000000 0.000000 0.120712 0.000000 0.019623
# 5 0.004585 0.001386 0.006180 0.000000 0.048739 0.000000
# 6 0.000000 0.000000 0.000000 0.019623 0.000000 0.049017
#
#
# Mechanical properties :
#
#
# Convention : Reuss Voigt Hill
#
# Bulk Modulus (GPa) = 51.81744 65.72331 58.77037
# Shear Modulus (GPa) = 18.95182 29.96909 24.46045
#
# Velocity S-wave (km/s) = 2.94364 3.70166 3.34420
# Velocity P-wave (km/s) = 5.93676 6.95121 6.46392
#
# Compressibility (1/GPa) = 0.01929852
#
# Stress axis : x y z
#
# Youngs Moduli (GPa) = 96.67870 104.59884 108.59795
#
# Poissons Ratio (x) = 0.01244 0.14836
# Poissons Ratio (y) = 0.01150 0.37159
# Poissons Ratio (z) = 0.13208 0.35791
#
# Static dielectric constant tensor:
#      x y z
#    x 1.800830 0.000000 -0.005120 
#    y 0.000000 1.842810 0.000000 
#    z -0.005120 0.000000 1.865580 
# 
# From -- ./inp_files/75495.got.cif
#   From: 2010.05.17/outbox.cif.g08.bks.cpg/sg13_38_cif.got.tgz:75495.got - 2010.06.03 16:44:36.
