data_PCOD9231813
_publ_section_title
;
Structure prediction by ZEFSAII (Michael W. Deem and Ramdas Pophale) SiO2 
 PCOD9231813
Probable space group: P 2/C
;
_chemical_formula_sum "Si O2"
_cell_formula_units_Z 18
_cell_length_a 5.656660
_cell_length_b 11.500739
_cell_length_c 11.627180
_cell_angle_alpha 90.000000
_cell_angle_beta 86.090378
_cell_angle_gamma 90.000000
_cell_volume 754.654854
_symmetry_space_group_name_H-M "P 2/C"
_symmetry_group_IT_number 13
_symmetry_cell_setting 'monoclinic'
loop_
_space_group_symop_operation_xyz
x,y,z
-x,y,1/2-z
-x,-y,-z
x,-y,1/2+z
loop_
_atom_site_type_symbol
_atom_site_label
_atom_site_fract_x
_atom_site_fract_y
_atom_site_fract_z
Si Si1 0.554077 0.245398 0.880106
Si Si2 0.183114 0.093893 0.452616
Si Si3 0.240250 0.514027 0.068536
Si Si4 0.800920 0.731352 0.902874
Si Si5 0.500000 0.898961 0.750000
O O1 0.500000 0.223786 0.750000
O O2 0.730320 0.357948 0.879694
O O3 0.670918 0.138187 0.943421
O O4 0.321698 0.271566 0.966499
O O5 0.326571 0.037937 0.342785
O O6 0.056551 0.210282 0.407630
O O7 0.000000 0.000000 0.500000
O O8 0.216342 0.398358 0.146723
O O9 0.500000 0.500000 0.000000
O O10 0.000000 0.500000 0.000000
O O11 0.649751 0.817632 0.830177
#
# Coordination Sequence:
#
# PCOD9231813 Si02
#       5
#     4   4   4   4   2
#     4  10  23  43  69 109 148 192 245 304 379 454
#     4  11  24  48  72 100 144 193 250 312 374 450
#     4  10  20  41  71 101 150 192 240 305 369 449
#     4  10  22  44  67 104 141 187 243 301 374 455
#     4  10  24  44  72 104 132 186 254 304 376 456
#
# _framework density 23.851963000000001
#
# number of rings (size 3 to 8) (size 9 to 14) (size 15 to 20)
#    0.000    1.778    2.222    0.667    1.556    4.444 
#   12.000    0.000    0.000    0.000    0.000    0.000 
#    0.000    0.000    0.000    0.000    0.000    0.000 
#
# Total GULP energy -100579.350431 kJ/mol
# GULP energy per Si atom -5587.741691 kJ/mol
# Density = 2.379767 g / cm^3
# Si number density = 23.851963 Si / 1000 Ang^3
#
#
#
# Elastic Constant Matrix: (Units=GPa)
#
#
# Indices 1 2 3 4 5 6 
#
# 1 115.8062 24.9765 62.9499 0.0000 -5.1959 0.0000
# 2 24.9765 92.2003 39.6855 0.0000 -25.4088 0.0000
# 3 62.9499 39.6855 172.3324 0.0000 -15.0850 0.0000
# 4 0.0000 0.0000 0.0000 11.5270 0.0000 -1.1262
# 5 -5.1959 -25.4088 -15.0850 0.0000 37.8068 0.0000
# 6 0.0000 0.0000 0.0000 -1.1262 0.0000 49.3959
#
#
#
# Elastic Compliance Matrix: (Units=1/GPa)
#
#
# Indices 1 2 3 4 5 6 
#
# 1 0.010967 -0.001675 -0.003717 0.000000 -0.001101 0.000000
# 2 -0.001675 0.014567 -0.001975 0.000000 0.008772 0.000000
# 3 -0.003717 -0.001975 0.007724 0.000000 0.001244 0.000000
# 4 0.000000 0.000000 0.000000 0.086946 0.000000 0.001982
# 5 -0.001101 0.008772 0.001244 0.000000 0.032691 0.000000
# 6 0.000000 0.000000 0.000000 0.001982 0.000000 0.020290
#
#
# Mechanical properties :
#
#
# Convention : Reuss Voigt Hill
#
# Bulk Modulus (GPa) = 53.97981 70.61808 62.29894
# Shear Modulus (GPa) = 25.76079 36.59440 31.17759
#
# Velocity S-wave (km/s) = 3.28994 3.92117 3.61935
# Velocity P-wave (km/s) = 6.09196 7.08321 6.60620
#
# Compressibility (1/GPa) = 0.01852545
#
# Stress axis : x y z
#
# Youngs Moduli (GPa) = 91.18002 68.64795 129.46406
#
# Poissons Ratio (x) = 0.11496 0.48121
# Poissons Ratio (y) = 0.15269 0.25570
# Poissons Ratio (z) = 0.33891 0.13558
#
# Static dielectric constant tensor:
#      x y z
#    x 1.982860 0.000000 -0.025200 
#    y 0.000000 1.992650 0.000000 
#    z -0.025200 0.000000 1.892740 
# 
# From -- ./inp_files/25697.got.cif
#   From: 2010.05.17/outbox.cif.g08.bks.cpg/sg13_13_cif.got.tgz:25697.got - 2010.06.03 16:44:36.
