data_PCOD9231419
_publ_section_title
;
Structure prediction by ZEFSAII (Michael W. Deem and Ramdas Pophale) SiO2 
 PCOD9231419
Probable space group: P 2/C
;
_chemical_formula_sum "Si O2"
_cell_formula_units_Z 28
_cell_length_a 9.092106
_cell_length_b 11.512423
_cell_length_c 13.824560
_cell_angle_alpha 90.000000
_cell_angle_beta 68.870330
_cell_angle_gamma 90.000000
_cell_volume 1349.757392
_symmetry_space_group_name_H-M "P 2/C"
_symmetry_group_IT_number 13
_symmetry_cell_setting 'monoclinic'
loop_
_space_group_symop_operation_xyz
x,y,z
-x,y,1/2-z
-x,-y,-z
x,-y,1/2+z
loop_
_atom_site_type_symbol
_atom_site_label
_atom_site_fract_x
_atom_site_fract_y
_atom_site_fract_z
Si Si1 0.928171 0.895303 0.371363
Si Si2 0.175744 0.482730 0.997429
Si Si3 0.685628 0.312566 0.918409
Si Si4 0.319465 0.471027 0.773685
Si Si5 0.326777 0.283183 0.067952
Si Si6 0.074069 0.143419 0.023800
Si Si7 0.850817 0.714827 0.713796
O O1 0.780650 0.808675 0.392220
O O2 0.000000 0.921914 0.250000
O O3 0.051740 0.835968 0.415322
O O4 0.907036 0.013737 0.437346
O O5 0.267148 0.419812 0.888558
O O6 0.235848 0.607388 0.017768
O O7 0.226338 0.402451 0.076199
O O8 0.000000 0.500000 0.000000
O O9 0.693137 0.384240 0.814554
O O10 0.505945 0.298689 0.995648
O O11 0.500000 0.508166 0.750000
O O12 0.207820 0.585148 0.796071
O O13 0.235816 0.198652 0.019256
O O14 0.293608 0.239785 0.185318
O O15 0.921404 0.206349 0.110795
O O16 0.000000 0.713057 0.750000
#
# Coordination Sequence:
#
# PCOD9231419 Si02
#       7
#     4   4   4   4   4   4   4
#     4  11  25  45  70  96 135 171 228 286 331 396
#     4  12  24  39  62  93 134 180 222 267 330 404
#     4  12  26  41  63 103 140 177 217 280 345 398
#     4  12  24  38  60  96 145 176 212 273 344 405
#     4  11  21  41  65  92 137 171 222 273 327 403
#     4  10  24  47  69  98 124 178 235 277 329 396
#     4  10  20  39  67  92 125 179 228 274 319 393
#
# _framework density 20.74447
#
# number of rings (size 3 to 8) (size 9 to 14) (size 15 to 20)
#    0.000    0.857    2.857    6.000    4.000    0.571 
#    0.000    0.000    0.000    3.429    0.000    0.000 
#    0.000    0.000    0.000    0.000    0.000    0.000 
#
# Total GULP energy -156025.938935 kJ/mol
# GULP energy per Si atom -5572.354962 kJ/mol
# Density = 2.069725 g / cm^3
# Si number density = 20.744470 Si / 1000 Ang^3
#
#
#
# Elastic Constant Matrix: (Units=GPa)
#
#
# Indices 1 2 3 4 5 6 
#
# 1 77.4030 26.7925 17.4789 0.0000 -4.6114 0.0000
# 2 26.7925 66.8146 -5.1095 0.0000 0.8002 0.0000
# 3 17.4789 -5.1095 90.5203 0.0000 13.9922 0.0000
# 4 0.0000 0.0000 0.0000 23.8246 0.0000 11.5486
# 5 -4.6114 0.8002 13.9922 0.0000 33.4145 0.0000
# 6 0.0000 0.0000 0.0000 11.5486 0.0000 8.4716
#
#
#
# Elastic Compliance Matrix: (Units=1/GPa)
#
#
# Indices 1 2 3 4 5 6 
#
# 1 0.016559 -0.007016 -0.004248 0.000000 0.004232 0.000000
# 2 -0.007016 0.018022 0.002767 0.000000 -0.002559 0.000000
# 3 -0.004248 0.002767 0.012964 0.000000 -0.006081 0.000000
# 4 0.000000 0.000000 0.000000 0.123744 0.000000 -0.168691
# 5 0.004232 -0.002559 -0.006081 0.000000 0.033119 0.000000
# 6 0.000000 0.000000 0.000000 -0.168691 0.000000 0.348005
#
#
# Mechanical properties :
#
#
# Convention : Reuss Voigt Hill
#
# Bulk Modulus (GPa) = 32.72957 34.78465 33.75711
# Shear Modulus (GPa) = 8.62680 26.18053 17.40367
#
# Velocity S-wave (km/s) = 2.04148 3.55639 2.89961
# Velocity P-wave (km/s) = 4.62262 5.80245 5.24581
#
# Compressibility (1/GPa) = 0.03055341
#
# Stress axis : x y z
#
# Youngs Moduli (GPa) = 60.38959 55.48669 77.13898
#
# Poissons Ratio (x) = 0.38928 0.32766
# Poissons Ratio (y) = 0.42367 -0.21348
# Poissons Ratio (z) = 0.25651 -0.15356
#
# Static dielectric constant tensor:
#      x y z
#    x 1.743660 0.000000 0.011180 
#    y 0.000000 1.877990 0.000000 
#    z 0.011180 0.000000 1.853260 
# 
# From -- ./inp_files/47124.got.cif
#   From: 2010.05.17/outbox.cif.g08.bks.cpg/sg13_24_cif.got.tgz:47124.got - 2010.06.03 16:44:36.
