data_PCOD9231529
_publ_section_title
;
Structure prediction by ZEFSAII (Michael W. Deem and Ramdas Pophale) SiO2 
 PCOD9231529
Probable space group: P 2/C
;
_chemical_formula_sum "Si O2"
_cell_formula_units_Z 26
_cell_length_a 5.164570
_cell_length_b 7.755200
_cell_length_c 24.191269
_cell_angle_alpha 90.000000
_cell_angle_beta 102.036795
_cell_angle_gamma 90.000000
_cell_volume 947.612628
_symmetry_space_group_name_H-M "P 2/C"
_symmetry_group_IT_number 13
_symmetry_cell_setting 'monoclinic'
loop_
_space_group_symop_operation_xyz
x,y,z
-x,y,1/2-z
-x,-y,-z
x,-y,1/2+z
loop_
_atom_site_type_symbol
_atom_site_label
_atom_site_fract_x
_atom_site_fract_y
_atom_site_fract_z
Si Si1 0.876367 0.494197 0.599776
Si Si2 0.159292 0.960116 0.449947
Si Si3 0.500000 0.585570 0.250000
Si Si4 0.317767 0.097979 0.123119
Si Si5 0.538279 0.717114 0.972234
Si Si6 0.208871 0.285517 0.299483
Si Si7 0.595293 0.715414 0.368234
O O1 0.691536 0.574078 0.542042
O O2 0.919065 0.650099 0.647760
O O3 0.665427 0.384926 0.625742
O O4 0.146173 0.389859 0.599039
O O5 0.273620 0.770199 0.468720
O O6 0.973733 0.008184 0.389610
O O7 0.369720 0.109722 0.460133
O O8 0.000000 0.000000 0.500000
O O9 0.293051 0.454028 0.268302
O O10 0.620234 0.702344 0.303396
O O11 0.447774 0.910523 0.114079
O O12 0.298912 0.256119 0.077529
O O13 0.521817 0.179194 0.176033
O O14 0.000000 0.191345 0.250000
#
# Coordination Sequence:
#
# PCOD9231529 Si02
#       7
#     4   4   2   4   4   4   4
#     4  10  23  40  66  87 128 170 211 254 322 389
#     4   9  19  37  65  91 124 156 219 260 318 367
#     4  10  22  40  62  86 126 170 218 258 316 390
#     4  10  23  37  62  93 127 165 208 274 322 373
#     4   9  20  39  65  92 119 170 214 262 303 392
#     4  10  20  40  62  92 115 171 225 265 301 395
#     4  11  24  42  60  95 132 168 206 269 333 375
#
# _framework density 27.437372
#
# number of rings (size 3 to 8) (size 9 to 14) (size 15 to 20)
#    0.000    2.154    1.538    0.000   10.769    0.615 
#    2.769    1.538    0.000    0.000    0.000    0.000 
#    0.000    0.000    0.000    0.000    0.000    0.000 
#
# Total GULP energy -145012.681785 kJ/mol
# GULP energy per Si atom -5577.410838 kJ/mol
# Density = 2.737492 g / cm^3
# Si number density = 27.437372 Si / 1000 Ang^3
#
#
#
# Elastic Constant Matrix: (Units=GPa)
#
#
# Indices 1 2 3 4 5 6 
#
# 1 84.3293 20.8136 27.6164 0.0000 10.7460 0.0000
# 2 20.8136 90.7425 -10.3336 0.0000 3.4603 0.0000
# 3 27.6164 -10.3336 133.4204 0.0000 29.4627 0.0000
# 4 0.0000 0.0000 0.0000 33.2155 0.0000 6.9931
# 5 10.7460 3.4603 29.4627 0.0000 56.2385 0.0000
# 6 0.0000 0.0000 0.0000 6.9931 0.0000 41.2955
#
#
#
# Elastic Compliance Matrix: (Units=1/GPa)
#
#
# Indices 1 2 3 4 5 6 
#
# 1 0.013783 -0.003461 -0.002925 0.000000 -0.000889 0.000000
# 2 -0.003461 0.012070 0.001887 0.000000 -0.001070 0.000000
# 3 -0.002925 0.001887 0.009215 0.000000 -0.004385 0.000000
# 4 0.000000 0.000000 0.000000 0.031219 0.000000 -0.005287
# 5 -0.000889 -0.001070 -0.004385 0.000000 0.020314 0.000000
# 6 0.000000 0.000000 0.000000 -0.005287 0.000000 0.025111
#
#
# Mechanical properties :
#
#
# Convention : Reuss Voigt Hill
#
# Bulk Modulus (GPa) = 38.35527 42.74279 40.54903
# Shear Modulus (GPa) = 38.63994 44.17628 41.40811
#
# Velocity S-wave (km/s) = 3.75680 4.01693 3.88904
# Velocity P-wave (km/s) = 5.72954 6.09315 5.91414
#
# Compressibility (1/GPa) = 0.02607203
#
# Stress axis : x y z
#
# Youngs Moduli (GPa) = 72.55064 82.85191 108.51873
#
# Poissons Ratio (x) = 0.28673 0.31740
# Poissons Ratio (y) = 0.25108 -0.20483
# Poissons Ratio (z) = 0.21220 -0.15638
#
# Static dielectric constant tensor:
#      x y z
#    x 2.683840 0.000000 -0.190810 
#    y 0.000000 2.190490 0.000000 
#    z -0.190810 0.000000 2.380800 
# 
# From -- ./inp_files/94942.got.cif
#   From: 2010.05.17/outbox.cif.g08.bks.cpg/sg13_48_cif.got.tgz:94942.got - 2010.06.03 16:44:36.
