data_PCOD9231098
_publ_section_title
;
Structure prediction by ZEFSAII (Michael W. Deem and Ramdas Pophale) SiO2 
 PCOD9231098
Probable space group: P 2/C
;
_chemical_formula_sum "Si O2"
_cell_formula_units_Z 20
_cell_length_a 12.998380
_cell_length_b 11.428196
_cell_length_c 9.939881
_cell_angle_alpha 90.000000
_cell_angle_beta 144.829806
_cell_angle_gamma 90.000000
_cell_volume 850.503231
_symmetry_space_group_name_H-M "P 2/C"
_symmetry_group_IT_number 13
_symmetry_cell_setting 'monoclinic'
loop_
_space_group_symop_operation_xyz
x,y,z
-x,y,1/2-z
-x,-y,-z
x,-y,1/2+z
loop_
_atom_site_type_symbol
_atom_site_label
_atom_site_fract_x
_atom_site_fract_y
_atom_site_fract_z
Si Si1 0.162870 0.861570 0.728299
Si Si2 0.868819 0.482222 0.985868
Si Si3 0.329962 0.262441 0.651956
Si Si4 0.746524 0.877788 0.197205
Si Si5 0.787642 0.269434 0.486571
O O1 0.241866 0.809744 0.675233
O O2 0.950745 0.864446 0.471621
O O3 0.247393 0.988829 0.844576
O O4 0.198376 0.782251 0.894977
O O5 0.755306 0.597375 0.905044
O O6 0.000000 0.460678 0.250000
O O7 0.748044 0.368208 0.844048
O O8 0.000000 0.500000 0.000000
O O9 0.500000 0.302816 0.750000
O O10 0.368708 0.156895 0.796320
O O11 0.704983 0.789831 0.030266
O O12 0.000000 0.268462 0.750000
#
# Coordination Sequence:
#
# PCOD9231098 Si02
#       5
#     4   4   4   4   4
#     4  10  20  38  65  90 117 156 205 252 296 362
#     4  11  21  39  64  84 114 159 209 258 300 357
#     4  12  25  39  58  90 130 164 198 249 317 373
#     4  10  20  38  64  91 117 154 204 252 300 361
#     4   9  18  34  59  89 112 143 198 258 302 339
#
# _framework density 23.515488999999999
#
# number of rings (size 3 to 8) (size 9 to 14) (size 15 to 20)
#    0.000    1.600    0.000    7.800    0.000    4.000 
#    0.000   10.000    0.000    0.000    0.000    0.000 
#    0.000    0.000    0.000    0.000    0.000    0.000 
#
# Total GULP energy -111847.991410 kJ/mol
# GULP energy per Si atom -5592.399570 kJ/mol
# Density = 2.346197 g / cm^3
# Si number density = 23.515489 Si / 1000 Ang^3
#
#
#
# Elastic Constant Matrix: (Units=GPa)
#
#
# Indices 1 2 3 4 5 6 
#
# 1 118.2691 48.0654 30.2601 0.0000 -28.8600 0.0000
# 2 48.0654 143.4819 26.9027 0.0000 -12.2484 0.0000
# 3 30.2601 26.9027 58.3969 0.0000 -15.1832 0.0000
# 4 0.0000 0.0000 0.0000 14.8639 0.0000 -13.7810
# 5 -28.8600 -12.2484 -15.1832 0.0000 38.6960 0.0000
# 6 0.0000 0.0000 0.0000 -13.7810 0.0000 33.6374
#
#
#
# Elastic Compliance Matrix: (Units=1/GPa)
#
#
# Indices 1 2 3 4 5 6 
#
# 1 0.012113 -0.002877 -0.003162 0.000000 0.006883 0.000000
# 2 -0.002877 0.008358 -0.002483 0.000000 -0.000475 0.000000
# 3 -0.003162 -0.002483 0.021258 0.000000 0.005197 0.000000
# 4 0.000000 0.000000 0.000000 0.108485 0.000000 0.044445
# 5 0.006883 -0.000475 0.005197 0.000000 0.032865 0.000000
# 6 0.000000 0.000000 0.000000 0.044445 0.000000 0.047938
#
#
# Mechanical properties :
#
#
# Convention : Reuss Voigt Hill
#
# Bulk Modulus (GPa) = 40.51035 58.95601 49.73318
# Shear Modulus (GPa) = 19.50922 31.76744 25.63833
#
# Velocity S-wave (km/s) = 2.88346 3.67947 3.30551
# Velocity P-wave (km/s) = 5.32450 6.57091 5.98027
#
# Compressibility (1/GPa) = 0.02468505
#
# Stress axis : x y z
#
# Youngs Moduli (GPa) = 82.55448 119.63874 47.04199
#
# Poissons Ratio (x) = 0.34426 0.14873
# Poissons Ratio (y) = 0.23755 0.11681
# Poissons Ratio (z) = 0.26101 0.29706
#
# Static dielectric constant tensor:
#      x y z
#    x 1.858700 0.000000 0.037090 
#    y 0.000000 1.916780 0.000000 
#    z 0.037090 0.000000 1.838050 
# 
# From -- ./inp_files/16012.got.cif
#   From: 2010.05.17/outbox.cif.g08.bks.cpg/sg13_9_cif.got.tgz:16012.got - 2010.06.03 16:44:36.
