data_PCOD9231951
_publ_section_title
;
Structure prediction by ZEFSAII (Michael W. Deem and Ramdas Pophale) SiO2 
 PCOD9231951
Probable space group: P 2/C
;
_chemical_formula_sum "Si O2"
_cell_formula_units_Z 30
_cell_length_a 8.512159
_cell_length_b 13.945603
_cell_length_c 11.747409
_cell_angle_alpha 90.000000
_cell_angle_beta 122.425086
_cell_angle_gamma 90.000000
_cell_volume 1177.089641
_symmetry_space_group_name_H-M "P 2/C"
_symmetry_group_IT_number 13
_symmetry_cell_setting 'monoclinic'
loop_
_space_group_symop_operation_xyz
x,y,z
-x,y,1/2-z
-x,-y,-z
x,-y,1/2+z
loop_
_atom_site_type_symbol
_atom_site_label
_atom_site_fract_x
_atom_site_fract_y
_atom_site_fract_z
Si Si1 0.222896 0.619594 0.843826
Si Si2 0.224663 0.272784 0.003344
Si Si3 0.379385 0.861268 0.096042
Si Si4 0.000000 0.868515 0.250000
Si Si5 0.776748 0.409752 0.689289
Si Si6 0.846911 0.685198 0.449101
Si Si7 0.403049 0.817444 0.845681
Si Si8 0.814605 0.008366 0.351217
O O1 0.289829 0.518099 0.822213
O O2 0.302717 0.715290 0.820988
O O3 0.000000 0.624833 0.750000
O O4 0.249483 0.622975 0.990668
O O5 0.306330 0.353280 0.950197
O O6 0.105533 0.200112 0.879047
O O7 0.070277 0.322600 0.023072
O O8 0.390924 0.211075 0.119645
O O9 0.500000 0.824343 0.250000
O O10 0.196280 0.794689 0.033843
O O11 0.334783 0.969080 0.115867
O O12 0.446769 0.851735 0.994031
O O13 0.143663 0.934100 0.235432
O O14 0.762769 0.346785 0.796506
O O15 0.000000 0.415315 0.750000
O O16 0.263385 0.896890 0.739561
O O17 0.000000 0.000000 0.500000
#
# Coordination Sequence:
#
# PCOD9231951 Si02
#       8
#     4   4   4   2   4   4   4   4
#     4  10  24  41  66 102 144 189 237 300 359 426
#     4  11  21  43  72 104 137 181 236 297 367 439
#     4  11  23  44  71 104 134 182 244 303 364 437
#     4  12  22  42  72  96 130 184 234 300 358 442
#     4   9  18  37  68 103 138 184 235 281 362 443
#     4  10  20  42  72  99 139 188 231 290 366 442
#     4  11  27  44  71 105 145 185 250 312 357 442
#     4  12  27  44  67  95 138 192 238 296 371 433
#
# _framework density 25.48659
#
# number of rings (size 3 to 8) (size 9 to 14) (size 15 to 20)
#    0.000    1.333    3.333    2.400    4.667    8.533 
#    0.000    2.000    0.000    9.600    0.000    0.000 
#    0.000    0.000    0.000    0.000    0.000    0.000 
#
# Total GULP energy -167883.144795 kJ/mol
# GULP energy per Si atom -5596.104826 kJ/mol
# Density = 2.542858 g / cm^3
# Si number density = 25.486590 Si / 1000 Ang^3
#
#
#
# Elastic Constant Matrix: (Units=GPa)
#
#
# Indices 1 2 3 4 5 6 
#
# 1 62.8671 36.6855 13.1881 0.0000 -5.4428 0.0000
# 2 36.6855 159.3438 35.3410 0.0000 1.2979 0.0000
# 3 13.1881 35.3410 98.0247 0.0000 15.4270 0.0000
# 4 0.0000 0.0000 0.0000 31.0953 0.0000 -4.2552
# 5 -5.4428 1.2979 15.4270 0.0000 42.3105 0.0000
# 6 0.0000 0.0000 0.0000 -4.2552 0.0000 27.4144
#
#
#
# Elastic Compliance Matrix: (Units=1/GPa)
#
#
# Indices 1 2 3 4 5 6 
#
# 1 0.018852 -0.004015 -0.001580 0.000000 0.003124 0.000000
# 2 -0.004015 0.007698 -0.002245 0.000000 0.000066 0.000000
# 3 -0.001580 -0.002245 0.011929 0.000000 -0.004484 0.000000
# 4 0.000000 0.000000 0.000000 0.032857 0.000000 0.005100
# 5 0.003124 0.000066 -0.004484 0.000000 0.025670 0.000000
# 6 0.000000 0.000000 0.000000 0.005100 0.000000 0.037269
#
#
# Mechanical properties :
#
#
# Convention : Reuss Voigt Hill
#
# Bulk Modulus (GPa) = 43.86609 54.51829 49.19219
# Shear Modulus (GPa) = 31.73495 35.83210 33.78352
#
# Velocity S-wave (km/s) = 3.53251 3.75363 3.64475
# Velocity P-wave (km/s) = 5.82126 6.34222 6.08731
#
# Compressibility (1/GPa) = 0.02279665
#
# Stress axis : x y z
#
# Youngs Moduli (GPa) = 53.04597 129.91053 83.82662
#
# Poissons Ratio (x) = 0.52160 0.13248
# Poissons Ratio (y) = 0.21298 0.18823
# Poissons Ratio (z) = 0.08383 0.29171
#
# Static dielectric constant tensor:
#      x y z
#    x 2.077270 0.000000 -0.035470 
#    y 0.000000 1.950870 0.000000 
#    z -0.035470 0.000000 2.149020 
# 
# From -- ./inp_files/34609.got.cif
#   From: 2010.05.17/outbox.cif.g08.bks.cpg/sg13_18_cif.got.tgz:34609.got - 2010.06.03 16:44:36.
