data_PCOD9231605
_publ_section_title
;
Structure prediction by ZEFSAII (Michael W. Deem and Ramdas Pophale) SiO2 
 PCOD9231605
Probable space group: P 2/C
;
_chemical_formula_sum "Si O2"
_cell_formula_units_Z 28
_cell_length_a 28.049874
_cell_length_b 8.811531
_cell_length_c 9.271099
_cell_angle_alpha 90.000000
_cell_angle_beta 146.385762
_cell_angle_gamma 90.000000
_cell_volume 1268.552431
_symmetry_space_group_name_H-M "P 2/C"
_symmetry_group_IT_number 13
_symmetry_cell_setting 'monoclinic'
loop_
_space_group_symop_operation_xyz
x,y,z
-x,y,1/2-z
-x,-y,-z
x,-y,1/2+z
loop_
_atom_site_type_symbol
_atom_site_label
_atom_site_fract_x
_atom_site_fract_y
_atom_site_fract_z
Si Si1 0.223666 0.196644 0.019861
Si Si2 0.000000 0.990524 0.750000
Si Si3 0.566109 0.780890 0.126438
Si Si4 0.609105 0.990677 0.477799
Si Si5 0.736530 0.767645 0.192676
Si Si6 0.500000 0.458423 0.250000
Si Si7 0.115117 0.911589 0.787072
Si Si8 0.675320 0.569302 0.576966
O O1 0.242343 0.357886 0.137776
O O2 0.316725 0.117328 0.274391
O O3 0.209013 0.209379 0.814140
O O4 0.154152 0.081752 0.907525
O O5 0.932224 0.088582 0.485475
O O6 0.047325 0.892889 0.745538
O O7 0.578678 0.900236 0.029506
O O8 0.649648 0.681215 0.381018
O O9 0.549483 0.881836 0.227770
O O10 0.505430 0.651598 0.904408
O O11 0.660028 0.109057 0.503602
O O12 0.802127 0.803627 0.488166
O O13 0.697800 0.601325 0.093777
O O14 0.587155 0.555162 0.450465
#
# Coordination Sequence:
#
# PCOD9231605 Si02
#       8
#     4   2   4   4   4   2   4   4
#     4  10  21  39  64  97 126 176 220 271 322 396
#     4  10  20  40  66 108 132 164 210 266 320 394
#     4  11  23  42  63  89 126 172 223 288 347 387
#     4  10  21  39  63  91 125 162 226 285 326 388
#     4  11  20  38  63  96 129 174 220 267 321 403
#     4  12  24  44  62  98 126 188 226 290 342 394
#     4  10  21  38  71  99 135 171 211 263 323 389
#     4  11  25  41  68  90 137 175 233 272 341 395
#
# _framework density 22.072403999999999
#
# number of rings (size 3 to 8) (size 9 to 14) (size 15 to 20)
#    0.000    1.429    4.286    1.286    0.000    0.571 
#    0.000    2.857    0.000    5.143    0.000    0.000 
#    0.000    0.000    0.000    0.000    0.000    0.000 
#
# Total GULP energy -156273.869876 kJ/mol
# GULP energy per Si atom -5581.209638 kJ/mol
# Density = 2.202217 g / cm^3
# Si number density = 22.072404 Si / 1000 Ang^3
#
#
#
# Elastic Constant Matrix: (Units=GPa)
#
#
# Indices 1 2 3 4 5 6 
#
# 1 71.6002 16.6366 12.3044 0.0000 -9.5097 0.0000
# 2 16.6366 100.9750 28.8255 0.0000 -6.1315 0.0000
# 3 12.3044 28.8255 116.9129 0.0000 -19.6630 0.0000
# 4 0.0000 0.0000 0.0000 24.7947 0.0000 -3.5919
# 5 -9.5097 -6.1315 -19.6630 0.0000 31.1042 0.0000
# 6 0.0000 0.0000 0.0000 -3.5919 0.0000 16.9416
#
#
#
# Elastic Compliance Matrix: (Units=1/GPa)
#
#
# Indices 1 2 3 4 5 6 
#
# 1 0.015051 -0.002127 -0.000399 0.000000 0.003930 0.000000
# 2 -0.002127 0.010961 -0.002489 0.000000 -0.000063 0.000000
# 3 -0.000399 -0.002489 0.010189 0.000000 0.005829 0.000000
# 4 0.000000 0.000000 0.000000 0.041609 0.000000 0.008822
# 5 0.003930 -0.000063 0.005829 0.000000 0.037024 0.000000
# 6 0.000000 0.000000 0.000000 0.008822 0.000000 0.060897
#
#
# Mechanical properties :
#
#
# Convention : Reuss Voigt Hill
#
# Bulk Modulus (GPa) = 38.21005 45.00236 41.60621
# Shear Modulus (GPa) = 25.70896 30.01622 27.86259
#
# Velocity S-wave (km/s) = 3.41655 3.69168 3.55678
# Velocity P-wave (km/s) = 5.73695 6.21322 5.97983
#
# Compressibility (1/GPa) = 0.02617113
#
# Stress axis : x y z
#
# Youngs Moduli (GPa) = 66.43960 91.23503 98.14163
#
# Poissons Ratio (x) = 0.19410 0.03911
# Poissons Ratio (y) = 0.14134 0.24429
# Poissons Ratio (z) = 0.02648 0.22710
#
# Static dielectric constant tensor:
#      x y z
#    x 1.860620 0.000000 -0.021660 
#    y 0.000000 1.795850 0.000000 
#    z -0.021660 0.000000 1.866990 
# 
# From -- ./inp_files/24485.got.cif
#   From: 2010.05.17/outbox.cif.g08.bks.cpg/sg13_13_cif.got.tgz:24485.got - 2010.06.03 16:44:36.
