data_PCOD9231788
_publ_section_title
;
Structure prediction by ZEFSAII (Michael W. Deem and Ramdas Pophale) SiO2 
 PCOD9231788
Probable space group: P 2/C
;
_chemical_formula_sum "Si O2"
_cell_formula_units_Z 26
_cell_length_a 15.569460
_cell_length_b 9.435590
_cell_length_c 10.720700
_cell_angle_alpha 90.000000
_cell_angle_beta 120.730353
_cell_angle_gamma 90.000000
_cell_volume 1353.795009
_symmetry_space_group_name_H-M "P 2/C"
_symmetry_group_IT_number 13
_symmetry_cell_setting 'monoclinic'
loop_
_space_group_symop_operation_xyz
x,y,z
-x,y,1/2-z
-x,-y,-z
x,-y,1/2+z
loop_
_atom_site_type_symbol
_atom_site_label
_atom_site_fract_x
_atom_site_fract_y
_atom_site_fract_z
Si Si1 0.601895 0.437034 0.020450
Si Si2 0.948713 0.312743 0.343422
Si Si3 0.606424 0.945660 0.126497
Si Si4 0.277801 0.718503 0.447024
Si Si5 0.500000 0.230846 0.750000
Si Si6 0.264101 0.776734 0.726836
Si Si7 0.068165 0.653984 0.180283
O O1 0.667621 0.566516 0.018152
O O2 0.665659 0.348808 0.167986
O O3 0.500000 0.500000 0.000000
O O4 0.565612 0.328816 0.888476
O O5 0.843666 0.235703 0.288094
O O6 0.927757 0.482404 0.324947
O O7 0.000000 0.274896 0.250000
O O8 0.020282 0.290576 0.516259
O O9 0.650851 0.836070 0.060008
O O10 0.578240 0.863347 0.231464
O O11 0.680739 0.075825 0.204052
O O12 0.500000 0.000000 0.000000
O O13 0.252061 0.755039 0.570105
O O14 0.178223 0.709800 0.290168
O O15 0.000000 0.688336 0.250000
#
# Coordination Sequence:
#
# PCOD9231788 Si02
#       7
#     4   4   4   4   2   4   4
#     4  12  24  42  68 104 136 172 231 293 330 402
#     4  10  22  40  70 104 138 172 227 292 345 405
#     4  12  26  47  67  96 140 187 224 278 342 422
#     4  12  25  43  73 101 134 185 228 282 347 407
#     4  12  24  44  68  96 140 178 230 280 344 404
#     4  12  25  44  69 100 136 183 229 275 351 416
#     4  10  20  41  68 103 137 173 225 293 348 401
#
# _framework density 19.205269999999999
#
# number of rings (size 3 to 8) (size 9 to 14) (size 15 to 20)
#    0.000    0.615    6.154    1.846    0.000    2.462 
#    0.000    1.538    0.000    0.000    0.000    0.000 
#    0.000    0.000    0.000    0.000    0.000    0.000 
#
# Total GULP energy -145413.936587 kJ/mol
# GULP energy per Si atom -5592.843715 kJ/mol
# Density = 1.916156 g / cm^3
# Si number density = 19.205270 Si / 1000 Ang^3
#
#
#
# Elastic Constant Matrix: (Units=GPa)
#
#
# Indices 1 2 3 4 5 6 
#
# 1 166.7413 67.6014 83.0797 0.0000 1.0154 0.0000
# 2 67.6014 100.4211 50.7360 0.0000 0.2798 0.0000
# 3 83.0797 50.7360 151.9212 0.0000 4.0015 0.0000
# 4 0.0000 0.0000 0.0000 -14.1272 0.0000 -15.0511
# 5 1.0154 0.2798 4.0015 0.0000 40.1172 0.0000
# 6 0.0000 0.0000 0.0000 -15.0511 0.0000 22.7916
#
#
#
# Elastic Compliance Matrix: (Units=1/GPa)
#
#
# Indices 1 2 3 4 5 6 
#
# 1 0.009778 -0.004667 -0.003793 0.000000 0.000163 0.000000
# 2 -0.004667 0.014210 -0.002200 0.000000 0.000238 0.000000
# 3 -0.003793 -0.002200 0.009413 0.000000 -0.000828 0.000000
# 4 0.000000 0.000000 0.000000 -0.041551 0.000000 -0.027440
# 5 0.000163 0.000238 -0.000828 0.000000 0.025004 0.000000
# 6 0.000000 0.000000 0.000000 -0.027440 0.000000 0.025755
#
#
# Mechanical properties :
#
#
# Convention : Reuss Voigt Hill
#
# Bulk Modulus (GPa) = 82.76588 91.32418 87.04503
# Shear Modulus (GPa) = 73.57650 24.26741 48.92195
#
# Velocity S-wave (km/s) = 6.19627 3.55854 5.05257
# Velocity P-wave (km/s) = 9.71497 8.03363 8.91403
#
# Compressibility (1/GPa) = 0.01208227
#
# Stress axis : x y z
#
# Youngs Moduli (GPa) = 102.26809 70.37120 106.23326
#
# Poissons Ratio (x) = 0.32839 0.40296
# Poissons Ratio (y) = 0.47724 0.23372
# Poissons Ratio (z) = 0.38792 0.15482
#
# Static dielectric constant tensor:
#      x y z
#    x 1.669430 0.000000 0.039280 
#    y 0.000000 1.632680 0.000000 
#    z 0.039280 0.000000 1.716060 
# 
# From -- ./inp_files/36288.got.cif
#   From: 2010.05.17/outbox.cif.g08.bks.cpg/sg13_19_cif.got.tgz:36288.got - 2010.06.03 16:44:36.
