data_PCOD9231995
_publ_section_title
;
Structure prediction by ZEFSAII (Michael W. Deem and Ramdas Pophale) SiO2 
 PCOD9231995
Probable space group: P 2/C
;
_chemical_formula_sum "Si O2"
_cell_formula_units_Z 28
_cell_length_a 31.965134
_cell_length_b 5.173641
_cell_length_c 15.693481
_cell_angle_alpha 90.000000
_cell_angle_beta 24.479388
_cell_angle_gamma 90.000000
_cell_volume 1075.414953
_symmetry_space_group_name_H-M "P 2/C"
_symmetry_group_IT_number 13
_symmetry_cell_setting 'monoclinic'
loop_
_space_group_symop_operation_xyz
x,y,z
-x,y,1/2-z
-x,-y,-z
x,-y,1/2+z
loop_
_atom_site_type_symbol
_atom_site_label
_atom_site_fract_x
_atom_site_fract_y
_atom_site_fract_z
Si Si1 0.216801 0.016105 0.008794
Si Si2 0.289331 0.824728 0.205472
Si Si3 0.172038 0.175654 0.758761
Si Si4 0.500555 0.756336 0.880944
Si Si5 0.602109 0.732209 0.241108
Si Si6 0.090294 0.632100 0.643063
Si Si7 0.956631 0.657414 0.499583
O O1 0.274385 0.970770 0.812298
O O2 0.284598 0.210911 0.940085
O O3 0.205705 0.792154 0.098059
O O4 0.114845 0.161752 0.171718
O O5 0.202784 0.619994 0.395825
O O6 0.252516 0.909216 0.181128
O O7 0.404221 0.734936 0.998044
O O8 0.090997 0.939758 0.904984
O O9 0.128549 0.449772 0.869034
O O10 0.581037 0.527150 0.729065
O O11 0.553727 0.031814 0.778957
O O12 0.454410 0.732778 0.062352
O O13 0.955102 0.370357 0.734731
O O14 0.000000 0.733483 0.750000
O O15 0.000000 0.500000 0.500000
#
# Coordination Sequence:
#
# PCOD9231995 Si02
#       7
#     4   4   4   4   4   4   4
#     4   9  21  41  68  98 132 173 223 270 328 400
#     4   9  21  42  66 100 131 173 218 274 328 391
#     4  12  25  44  66  94 135 175 218 274 327 392
#     4   9  18  36  63  92 127 160 208 260 322 381
#     4   9  18  36  62  94 123 164 207 260 320 384
#     4  10  20  44  62  98 133 172 220 272 321 391
#     4  12  24  43  63  90 131 176 223 269 322 384
#
# _framework density 26.036460000000002
#
# number of rings (size 3 to 8) (size 9 to 14) (size 15 to 20)
#    0.857    1.143    2.857    0.429    0.000    2.286 
#    5.143    3.571    0.000    1.714    0.000    0.000 
#    0.000    0.000    0.000    0.000    0.000    0.000 
#
# Total GULP energy -156327.201912 kJ/mol
# GULP energy per Si atom -5583.114354 kJ/mol
# Density = 2.597720 g / cm^3
# Si number density = 26.036460 Si / 1000 Ang^3
#
#
#
# Elastic Constant Matrix: (Units=GPa)
#
#
# Indices 1 2 3 4 5 6 
#
# 1 178.9923 18.0111 36.3899 0.0000 -37.5047 0.0000
# 2 18.0111 98.3994 14.9686 0.0000 -24.6075 0.0000
# 3 36.3899 14.9686 74.7657 0.0000 -18.4812 0.0000
# 4 0.0000 0.0000 0.0000 23.2944 0.0000 -7.1111
# 5 -37.5047 -24.6075 -18.4812 0.0000 53.1247 0.0000
# 6 0.0000 0.0000 0.0000 -7.1111 0.0000 24.6042
#
#
#
# Elastic Compliance Matrix: (Units=1/GPa)
#
#
# Indices 1 2 3 4 5 6 
#
# 1 0.006920 0.000124 -0.002375 0.000000 0.004116 0.000000
# 2 0.000124 0.011576 -0.001128 0.000000 0.005057 0.000000
# 3 -0.002375 -0.001128 0.015551 0.000000 0.003210 0.000000
# 4 0.000000 0.000000 0.000000 0.047083 0.000000 0.013608
# 5 0.004116 0.005057 0.003210 0.000000 0.025189 0.000000
# 6 0.000000 0.000000 0.000000 0.013608 0.000000 0.044576
#
#
# Mechanical properties :
#
#
# Convention : Reuss Voigt Hill
#
# Bulk Modulus (GPa) = 36.64557 54.54407 45.59482
# Shear Modulus (GPa) = 29.98512 39.05717 34.52115
#
# Velocity S-wave (km/s) = 3.39729 3.87731 3.64521
# Velocity P-wave (km/s) = 5.43084 6.40619 5.93857
#
# Compressibility (1/GPa) = 0.02728843
#
# Stress axis : x y z
#
# Youngs Moduli (GPa) = 144.51362 86.38355 64.30608
#
# Poissons Ratio (x) = -0.01072 0.15275
# Poissons Ratio (y) = -0.01794 0.07253
# Poissons Ratio (z) = 0.34327 0.09744
#
# Static dielectric constant tensor:
#      x y z
#    x 2.092860 0.000000 0.058960 
#    y 0.000000 2.026630 0.000000 
#    z 0.058960 0.000000 2.181410 
# 
# From -- ./inp_files/59190.got.cif
#   From: 2010.05.17/outbox.cif.g08.bks.cpg/sg13_30_cif.got.tgz:59190.got - 2010.06.03 16:44:36.
