data_PCOD9231517
_publ_section_title
;
Structure prediction by ZEFSAII (Michael W. Deem and Ramdas Pophale) SiO2 
 PCOD9231517
Probable space group: P 2/C
;
_chemical_formula_sum "Si O2"
_cell_formula_units_Z 24
_cell_length_a 8.434757
_cell_length_b 20.697162
_cell_length_c 8.371340
_cell_angle_alpha 90.000000
_cell_angle_beta 129.889513
_cell_angle_gamma 90.000000
_cell_volume 1121.330601
_symmetry_space_group_name_H-M "P 2/C"
_symmetry_group_IT_number 13
_symmetry_cell_setting 'monoclinic'
loop_
_space_group_symop_operation_xyz
x,y,z
-x,y,1/2-z
-x,-y,-z
x,-y,1/2+z
loop_
_atom_site_type_symbol
_atom_site_label
_atom_site_fract_x
_atom_site_fract_y
_atom_site_fract_z
Si Si1 0.209741 0.444854 0.784293
Si Si2 0.000000 0.022874 0.250000
Si Si3 0.500000 0.535802 0.750000
Si Si4 0.120467 0.200068 0.161596
Si Si5 0.445892 0.202718 0.901068
Si Si6 0.116708 0.689066 0.166240
Si Si7 0.146519 0.908748 0.131756
O O1 0.329485 0.495832 0.746527
O O2 0.179524 0.381971 0.650740
O O3 0.000000 0.465346 0.750000
O O4 0.369662 0.427304 0.030645
O O5 0.880764 0.973763 0.287400
O O6 0.155765 0.066184 0.455050
O O7 0.359606 0.201228 0.357874
O O8 0.000000 0.190879 0.250000
O O9 0.031290 0.267076 0.037201
O O10 0.049610 0.140839 0.001629
O O11 0.500000 0.212949 0.750000
O O12 0.298059 0.262846 0.837719
O O13 0.326060 0.134951 0.818293
O O14 0.000000 0.671459 0.250000
#
# Coordination Sequence:
#
# PCOD9231517 Si02
#       7
#     4   2   2   4   4   4   4
#     4  10  22  42  64  98 137 174 220 271 320 387
#     4  10  20  40  62  86 124 160 198 264 308 392
#     4  10  22  40  72  96 136 180 218 264 326 384
#     4  11  21  40  64  86 123 166 203 263 314 374
#     4  11  21  39  65  87 122 163 205 257 317 375
#     4  10  24  40  61  94 130 160 214 262 310 371
#     4  10  21  39  61  86 122 155 206 257 316 378
#
# _framework density 21.403143
#
# number of rings (size 3 to 8) (size 9 to 14) (size 15 to 20)
#    0.000    1.667    4.167    0.500    5.833    3.333 
#    0.000   13.333    0.000    0.000    0.000    0.000 
#    0.000    0.000    0.000    0.000    0.000    0.000 
#
# Total GULP energy -133722.893237 kJ/mol
# GULP energy per Si atom -5571.787218 kJ/mol
# Density = 2.135443 g / cm^3
# Si number density = 21.403143 Si / 1000 Ang^3
#
#
#
# Elastic Constant Matrix: (Units=GPa)
#
#
# Indices 1 2 3 4 5 6 
#
# 1 52.2552 20.6131 16.0991 0.0000 13.4209 0.0000
# 2 20.6131 90.3217 38.4209 0.0000 12.6990 0.0000
# 3 16.0991 38.4209 137.2807 0.0000 33.8114 0.0000
# 4 0.0000 0.0000 0.0000 28.1346 0.0000 -6.5538
# 5 13.4209 12.6990 33.8114 0.0000 39.6583 0.0000
# 6 0.0000 0.0000 0.0000 -6.5538 0.0000 19.2239
#
#
#
# Elastic Compliance Matrix: (Units=1/GPa)
#
#
# Indices 1 2 3 4 5 6 
#
# 1 0.022409 -0.004279 0.000127 0.000000 -0.006321 0.000000
# 2 -0.004279 0.013438 -0.003235 0.000000 -0.000097 0.000000
# 3 0.000127 -0.003235 0.010038 0.000000 -0.007565 0.000000
# 4 0.000000 0.000000 0.000000 0.038610 0.000000 0.013163
# 5 -0.006321 -0.000097 -0.007565 0.000000 0.033835 0.000000
# 6 0.000000 0.000000 0.000000 0.013163 0.000000 0.056506
#
#
# Mechanical properties :
#
#
# Convention : Reuss Voigt Hill
#
# Bulk Modulus (GPa) = 32.14455 47.79153 39.96804
# Shear Modulus (GPa) = 25.00222 31.05167 28.02695
#
# Velocity S-wave (km/s) = 3.42154 3.81307 3.62260
# Velocity P-wave (km/s) = 5.53719 6.46248 6.01765
#
# Compressibility (1/GPa) = 0.03110947
#
# Stress axis : x y z
#
# Youngs Moduli (GPa) = 44.62408 74.41613 99.61943
#
# Poissons Ratio (x) = 0.31845 -0.01261
# Poissons Ratio (y) = 0.19096 0.32230
# Poissons Ratio (z) = -0.00565 0.24076
#
# Static dielectric constant tensor:
#      x y z
#    x 1.756330 0.000000 0.002610 
#    y 0.000000 1.858330 0.000000 
#    z 0.002610 0.000000 1.850640 
# 
# From -- ./inp_files/13526.got.cif
#   From: 2010.05.17/outbox.cif.g08.bks.cpg/sg13_7_cif.got.tgz:13526.got - 2010.06.03 16:44:36.
