data_PCOD9231531
_publ_section_title
;
Structure prediction by ZEFSAII (Michael W. Deem and Ramdas Pophale) SiO2 
 PCOD9231531
Probable space group: P 2/C
;
_chemical_formula_sum "Si O2"
_cell_formula_units_Z 22
_cell_length_a 16.284310
_cell_length_b 13.782573
_cell_length_c 9.563276
_cell_angle_alpha 90.000000
_cell_angle_beta 150.872492
_cell_angle_gamma 90.000000
_cell_volume 1044.760199
_symmetry_space_group_name_H-M "P 2/C"
_symmetry_group_IT_number 13
_symmetry_cell_setting 'monoclinic'
loop_
_space_group_symop_operation_xyz
x,y,z
-x,y,1/2-z
-x,-y,-z
x,-y,1/2+z
loop_
_atom_site_type_symbol
_atom_site_label
_atom_site_fract_x
_atom_site_fract_y
_atom_site_fract_z
Si Si1 0.500000 0.218071 0.250000
Si Si2 0.815625 0.613221 0.515775
Si Si3 0.523197 0.277837 0.986832
Si Si4 0.777261 0.938643 0.171120
Si Si5 0.500000 0.897304 0.250000
Si Si6 0.000000 0.976752 0.250000
Si Si7 0.320756 0.467065 0.419338
O O1 0.441143 0.275889 0.296654
O O2 0.653193 0.148744 0.522048
O O3 0.673633 0.694708 0.323697
O O4 0.747682 0.542164 0.294090
O O5 0.809570 0.552638 0.650215
O O6 0.000000 0.649104 0.750000
O O7 0.545652 0.174512 0.945588
O O8 0.631188 0.363557 0.078464
O O9 0.881904 0.918774 0.184187
O O10 0.659403 0.032294 0.962957
O O11 0.890491 0.961685 0.475288
O O12 0.500000 0.501294 0.750000
#
# Coordination Sequence:
#
# PCOD9231531 Si02
#       7
#     2   4   4   4   2   2   4
#     4  11  24  40  61  92 118 170 217 242 290 371
#     4  11  23  41  64  93 124 159 198 252 318 363
#     4  11  22  39  63  92 122 161 212 256 291 357
#     4  10  22  40  65  88 121 170 201 247 310 361
#     4  11  20  42  65  82 126 162 213 248 290 377
#     4  10  20  40  62  92 118 148 210 252 314 358
#     4  10  21  41  66  88 119 165 202 244 306 370
#
# _framework density 21.057462000000001
#
# number of rings (size 3 to 8) (size 9 to 14) (size 15 to 20)
#    0.000    1.455    2.727    4.909    3.818    2.909 
#    9.818    0.000    2.000    0.000    0.000    0.000 
#    0.000    0.000    0.000    0.000    0.000    0.000 
#
# Total GULP energy -122939.665636 kJ/mol
# GULP energy per Si atom -5588.166620 kJ/mol
# Density = 2.100953 g / cm^3
# Si number density = 21.057462 Si / 1000 Ang^3
#
#
#
# Elastic Constant Matrix: (Units=GPa)
#
#
# Indices 1 2 3 4 5 6 
#
# 1 79.0149 -10.2632 1.1370 0.0000 -13.5579 0.0000
# 2 -10.2632 36.7547 -2.4046 0.0000 -5.6102 0.0000
# 3 1.1370 -2.4046 52.6388 0.0000 -13.3823 0.0000
# 4 0.0000 0.0000 0.0000 4.9068 0.0000 -17.5794
# 5 -13.5579 -5.6102 -13.3823 0.0000 44.6706 0.0000
# 6 0.0000 0.0000 0.0000 -17.5794 0.0000 9.7859
#
#
#
# Elastic Compliance Matrix: (Units=1/GPa)
#
#
# Indices 1 2 3 4 5 6 
#
# 1 0.014175 0.004848 0.001260 0.000000 0.005288 0.000000
# 2 0.004848 0.029664 0.002784 0.000000 0.006031 0.000000
# 3 0.001260 0.002784 0.020873 0.000000 0.006985 0.000000
# 4 0.000000 0.000000 0.000000 -0.037491 0.000000 -0.067349
# 5 0.005288 0.006031 0.006985 0.000000 0.026841 0.000000
# 6 0.000000 0.000000 0.000000 -0.067349 0.000000 -0.018799
#
#
# Mechanical properties :
#
#
# Convention : Reuss Voigt Hill
#
# Bulk Modulus (GPa) = 12.12216 16.14965 14.13590
# Shear Modulus (GPa) = 111.16448 23.86863 67.51655
#
# Velocity S-wave (km/s) = 7.27362 3.37040 5.66856
# Velocity P-wave (km/s) = 8.73556 4.77830 7.04067
#
# Compressibility (1/GPa) = 0.08249356
#
# Stress axis : x y z
#
# Youngs Moduli (GPa) = 70.54780 33.71126 47.90845
#
# Poissons Ratio (x) = -0.16342 -0.06035
# Poissons Ratio (y) = -0.34200 -0.13335
# Poissons Ratio (z) = -0.08887 -0.09384
#
# Static dielectric constant tensor:
#      x y z
#    x 1.856620 0.000000 0.035830 
#    y 0.000000 1.731630 0.000000 
#    z 0.035830 0.000000 1.781320 
# 
# From -- ./inp_files/22009.got.cif
#   From: 2010.05.17/outbox.cif.g08.bks.cpg/sg13_12_cif.got.tgz:22009.got - 2010.06.03 16:44:36.
