data_PCOD9231157
_publ_section_title
;
Structure prediction by ZEFSAII (Michael W. Deem and Ramdas Pophale) SiO2 
 PCOD9231157
Probable space group: P 2/C
;
_chemical_formula_sum "Si O2"
_cell_formula_units_Z 30
_cell_length_a 5.438692
_cell_length_b 10.034099
_cell_length_c 27.547570
_cell_angle_alpha 90.000000
_cell_angle_beta 83.026459
_cell_angle_gamma 90.000000
_cell_volume 1492.215098
_symmetry_space_group_name_H-M "P 2/C"
_symmetry_group_IT_number 13
_symmetry_cell_setting 'monoclinic'
loop_
_space_group_symop_operation_xyz
x,y,z
-x,y,1/2-z
-x,-y,-z
x,-y,1/2+z
loop_
_atom_site_type_symbol
_atom_site_label
_atom_site_fract_x
_atom_site_fract_y
_atom_site_fract_z
Si Si1 0.818958 0.090832 0.154050
Si Si2 0.334029 0.346681 0.863891
Si Si3 0.279514 0.636142 0.893041
Si Si4 0.250775 0.607202 0.545213
Si Si5 0.400290 0.314409 0.542090
Si Si6 0.918390 0.868292 0.399876
Si Si7 0.000000 0.989556 0.750000
Si Si8 0.411970 0.128342 0.689055
O O1 0.724604 0.232946 0.139648
O O2 0.972749 0.094075 0.201026
O O3 0.598781 0.990260 0.172300
O O4 0.959967 0.014394 0.106498
O O5 0.261535 0.500244 0.861978
O O6 0.522162 0.343756 0.904575
O O7 0.452960 0.271099 0.815256
O O8 0.116893 0.249132 0.887135
O O9 0.530955 0.631022 0.919558
O O10 0.024381 0.640249 0.930409
O O11 0.256347 0.449589 0.530635
O O12 0.356534 0.689142 0.496960
O O13 0.243407 0.179169 0.550424
O O14 0.762681 0.867142 0.354043
O O15 0.236367 0.085731 0.737090
#
# Coordination Sequence:
#
# PCOD9231157 Si02
#       8
#     4   4   4   4   4   4   2   4
#     4  10  22  37  62  83 118 150 199 233 307 365
#     4   9  18  34  60  86 117 152 198 247 296 340
#     4  11  23  38  58  91 125 159 197 241 301 356
#     4  10  22  34  58  88 122 164 206 249 287 348
#     4   9  18  33  57  85 119 158 213 246 291 329
#     4   9  17  34  58  82 113 155 197 247 285 346
#     4  10  20  38  66  84 108 144 198 242 290 372
#     4   9  19  36  60  89 105 150 195 244 291 356
#
# _framework density 20.104339
#
# number of rings (size 3 to 8) (size 9 to 14) (size 15 to 20)
#    0.000    2.400    1.333    0.400    5.600    1.600 
#    0.000    1.333    0.000   19.200    0.000    0.000 
#    0.000    0.000    0.000    0.000    0.000    0.000 
#
# Total GULP energy -167081.386717 kJ/mol
# GULP energy per Si atom -5569.379557 kJ/mol
# Density = 2.005858 g / cm^3
# Si number density = 20.104339 Si / 1000 Ang^3
#
#
#
# Elastic Constant Matrix: (Units=GPa)
#
#
# Indices 1 2 3 4 5 6 
#
# 1 49.1455 12.7571 14.1746 0.0000 -9.0674 0.0000
# 2 12.7571 127.5639 37.2490 0.0000 1.7935 0.0000
# 3 14.1746 37.2490 64.4309 0.0000 -9.0610 0.0000
# 4 0.0000 0.0000 0.0000 20.0902 0.0000 4.1698
# 5 -9.0674 1.7935 -9.0610 0.0000 26.3915 0.0000
# 6 0.0000 0.0000 0.0000 4.1698 0.0000 20.8729
#
#
#
# Elastic Compliance Matrix: (Units=1/GPa)
#
#
# Indices 1 2 3 4 5 6 
#
# 1 0.022923 -0.001441 -0.003245 0.000000 0.006860 0.000000
# 2 -0.001441 0.009700 -0.005730 0.000000 -0.003122 0.000000
# 3 -0.003245 -0.005730 0.020432 0.000000 0.006289 0.000000
# 4 0.000000 0.000000 0.000000 0.051928 0.000000 -0.010374
# 5 0.006860 -0.003122 0.006289 0.000000 0.042619 0.000000
# 6 0.000000 0.000000 0.000000 -0.010374 0.000000 0.049981
#
#
# Mechanical properties :
#
#
# Convention : Reuss Voigt Hill
#
# Bulk Modulus (GPa) = 31.03419 41.05573 36.04496
# Shear Modulus (GPa) = 21.81900 25.26823 23.54362
#
# Velocity S-wave (km/s) = 3.29795 3.54906 3.42580
# Velocity P-wave (km/s) = 5.47467 6.10411 5.79794
#
# Compressibility (1/GPa) = 0.03222253
#
# Stress axis : x y z
#
# Youngs Moduli (GPa) = 43.62342 103.08855 48.94402
#
# Poissons Ratio (x) = 0.14858 0.15883
# Poissons Ratio (y) = 0.06288 0.28045
# Poissons Ratio (z) = 0.14156 0.59069
#
# Static dielectric constant tensor:
#      x y z
#    x 1.813810 0.000000 0.000350 
#    y 0.000000 1.712700 0.000000 
#    z 0.000350 0.000000 1.760380 
# 
# From -- ./inp_files/95009.got.cif
#   From: 2010.05.17/outbox.cif.g08.bks.cpg/sg13_48_cif.got.tgz:95009.got - 2010.06.03 16:44:36.
