data_PCOD9231330
_publ_section_title
;
Structure prediction by ZEFSAII (Michael W. Deem and Ramdas Pophale) SiO2 
 PCOD9231330
Probable space group: P 2/C
;
_chemical_formula_sum "Si O2"
_cell_formula_units_Z 26
_cell_length_a 9.128485
_cell_length_b 7.864611
_cell_length_c 16.888889
_cell_angle_alpha 90.000000
_cell_angle_beta 97.470019
_cell_angle_gamma 90.000000
_cell_volume 1202.196497
_symmetry_space_group_name_H-M "P 2/C"
_symmetry_group_IT_number 13
_symmetry_cell_setting 'monoclinic'
loop_
_space_group_symop_operation_xyz
x,y,z
-x,y,1/2-z
-x,-y,-z
x,-y,1/2+z
loop_
_atom_site_type_symbol
_atom_site_label
_atom_site_fract_x
_atom_site_fract_y
_atom_site_fract_z
Si Si1 0.851381 0.914506 0.518407
Si Si2 0.581807 0.079718 0.080727
Si Si3 0.500000 0.324559 0.750000
Si Si4 0.678944 0.055893 0.845458
Si Si5 0.145698 0.262433 0.211885
Si Si6 0.049278 0.444930 0.417066
Si Si7 0.659887 0.561081 0.641881
O O1 0.745545 0.995724 0.577938
O O2 0.754123 0.881941 0.432810
O O3 0.899749 0.746139 0.565067
O O4 0.000000 0.000000 0.500000
O O5 0.589220 0.286367 0.084000
O O6 0.483490 0.020553 0.146702
O O7 0.500000 0.000000 0.000000
O O8 0.641452 0.209560 0.784230
O O9 0.545037 0.435522 0.676005
O O10 0.781367 0.900389 0.824293
O O11 0.264150 0.336751 0.280761
O O12 0.000000 0.209084 0.250000
O O13 0.087953 0.417442 0.151923
O O14 0.199492 0.527468 0.392463
O O15 0.000000 0.500000 0.500000
#
# Coordination Sequence:
#
# PCOD9231330 Si02
#       7
#     4   4   2   4   4   4   4
#     4  10  20  39  63  93 125 161 219 276 326 382
#     4   9  20  40  67  93 123 170 223 271 326 394
#     4  12  26  40  60  98 138 180 216 268 352 410
#     4  11  22  40  63  95 126 169 224 268 325 405
#     4  10  21  41  67  92 125 177 224 277 333 397
#     4  10  22  40  63  93 126 168 216 273 340 395
#     4  10  22  42  62  91 135 172 215 271 337 404
#
# _framework density 21.627078000000001
#
# number of rings (size 3 to 8) (size 9 to 14) (size 15 to 20)
#    0.000    1.846    1.538    1.846    2.154    1.231 
#    5.538    3.846    0.000    0.000    0.000    0.000 
#    0.000    0.000    0.000    0.000    0.000    0.000 
#
# Total GULP energy -144845.789933 kJ/mol
# GULP energy per Si atom -5570.991921 kJ/mol
# Density = 2.157785 g / cm^3
# Si number density = 21.627078 Si / 1000 Ang^3
#
#
#
# Elastic Constant Matrix: (Units=GPa)
#
#
# Indices 1 2 3 4 5 6 
#
# 1 99.8095 25.5833 23.8048 0.0000 -19.9298 0.0000
# 2 25.5833 33.2644 17.2855 0.0000 -5.4803 0.0000
# 3 23.8048 17.2855 83.3491 0.0000 -7.7245 0.0000
# 4 0.0000 0.0000 0.0000 44.0807 0.0000 -4.7955
# 5 -19.9298 -5.4803 -7.7245 0.0000 44.9287 0.0000
# 6 0.0000 0.0000 0.0000 -4.7955 0.0000 18.9423
#
#
#
# Elastic Compliance Matrix: (Units=1/GPa)
#
#
# Indices 1 2 3 4 5 6 
#
# 1 0.013609 -0.008855 -0.001617 0.000000 0.004679 0.000000
# 2 -0.008855 0.039846 -0.005740 0.000000 -0.000055 0.000000
# 3 -0.001617 -0.005740 0.013737 0.000000 0.000945 0.000000
# 4 0.000000 0.000000 0.000000 0.023328 0.000000 0.005906
# 5 0.004679 -0.000055 0.000945 0.000000 0.024489 0.000000
# 6 0.000000 0.000000 0.000000 0.005906 0.000000 0.054287
#
#
# Mechanical properties :
#
#
# Convention : Reuss Voigt Hill
#
# Bulk Modulus (GPa) = 28.76112 38.86335 33.81224
# Shear Modulus (GPa) = 23.44020 31.57364 27.50692
#
# Velocity S-wave (km/s) = 3.29574 3.82503 3.57020
# Velocity P-wave (km/s) = 5.27352 6.12507 5.71518
#
# Compressibility (1/GPa) = 0.03476916
#
# Stress axis : x y z
#
# Youngs Moduli (GPa) = 73.48254 25.09645 72.79467
#
# Poissons Ratio (x) = 0.22224 0.11768
# Poissons Ratio (y) = 0.65072 0.41781
# Poissons Ratio (z) = 0.11879 0.14404
#
# Static dielectric constant tensor:
#      x y z
#    x 1.962640 0.000000 -0.012540 
#    y 0.000000 1.782510 0.000000 
#    z -0.012540 0.000000 1.811330 
# 
# From -- ./inp_files/63792.got.cif
#   From: 2010.05.17/outbox.cif.g08.bks.cpg/sg13_32_cif.got.tgz:63792.got - 2010.06.03 16:44:36.
