data_PCOD9231823
_publ_section_title
;
Structure prediction by ZEFSAII (Michael W. Deem and Ramdas Pophale) SiO2 
 PCOD9231823
Probable space group: P 2/C
;
_chemical_formula_sum "Si O2"
_cell_formula_units_Z 22
_cell_length_a 9.679057
_cell_length_b 7.437329
_cell_length_c 15.471411
_cell_angle_alpha 90.000000
_cell_angle_beta 131.140243
_cell_angle_gamma 90.000000
_cell_volume 838.751805
_symmetry_space_group_name_H-M "P 2/C"
_symmetry_group_IT_number 13
_symmetry_cell_setting 'monoclinic'
loop_
_space_group_symop_operation_xyz
x,y,z
-x,y,1/2-z
-x,-y,-z
x,-y,1/2+z
loop_
_atom_site_type_symbol
_atom_site_label
_atom_site_fract_x
_atom_site_fract_y
_atom_site_fract_z
Si Si1 0.500000 0.541793 0.250000
Si Si2 0.873347 0.941430 0.069854
Si Si3 0.747564 0.113498 0.720468
Si Si4 0.580004 0.332088 0.987564
Si Si5 0.869801 0.662567 0.481639
Si Si6 0.516206 0.200443 0.139105
O O1 0.683104 0.650045 0.348185
O O2 0.539260 0.393939 0.190895
O O3 0.817722 0.930310 0.150023
O O4 0.913136 0.132453 0.035568
O O5 0.066765 0.836169 0.151080
O O6 0.697136 0.854880 0.950757
O O7 0.575291 0.246456 0.637452
O O8 0.654176 0.947136 0.733351
O O9 0.775495 0.396054 0.033789
O O10 0.500000 0.500000 0.000000
O O11 0.586019 0.196515 0.069403
O O12 0.000000 0.500000 0.500000
#
# Coordination Sequence:
#
# PCOD9231823 Si02
#       6
#     2   4   4   4   4   4
#     4  12  28  44  66 106 156 200 250 312 398 438
#     4  10  21  42  74 108 148 195 266 317 370 468
#     4  10  20  41  78 109 137 200 261 309 380 456
#     4  11  21  45  79 103 148 196 250 312 377 458
#     4  12  25  48  71 112 155 192 248 320 385 449
#     4  11  21  44  72 105 145 205 259 310 380 468
#
# _framework density 26.229451000000001
#
# number of rings (size 3 to 8) (size 9 to 14) (size 15 to 20)
#    0.000    1.091    5.455    2.182    0.000    0.727 
#    3.273    3.636    0.000    0.000    0.000    0.000 
#    0.000    0.000    0.000    0.000    0.000    0.000 
#
# Total GULP energy -122484.810004 kJ/mol
# GULP energy per Si atom -5567.491364 kJ/mol
# Density = 2.616975 g / cm^3
# Si number density = 26.229451 Si / 1000 Ang^3
#
#
#
# Elastic Constant Matrix: (Units=GPa)
#
#
# Indices 1 2 3 4 5 6 
#
# 1 171.1046 59.9495 39.2552 0.0000 27.6047 0.0000
# 2 59.9495 115.9793 12.8482 0.0000 25.9135 0.0000
# 3 39.2552 12.8482 95.9328 0.0000 8.9217 0.0000
# 4 0.0000 0.0000 0.0000 33.1543 0.0000 10.1569
# 5 27.6047 25.9135 8.9217 0.0000 50.6436 0.0000
# 6 0.0000 0.0000 0.0000 10.1569 0.0000 59.7573
#
#
#
# Elastic Compliance Matrix: (Units=1/GPa)
#
#
# Indices 1 2 3 4 5 6 
#
# 1 0.007964 -0.003343 -0.002609 0.000000 -0.002171 0.000000
# 2 -0.003343 0.011208 0.000235 0.000000 -0.003954 0.000000
# 3 -0.002609 0.000235 0.011528 0.000000 -0.000729 0.000000
# 4 0.000000 0.000000 0.000000 0.031819 0.000000 -0.005408
# 5 -0.002171 -0.003954 -0.000729 0.000000 0.023081 0.000000
# 6 0.000000 0.000000 0.000000 -0.005408 0.000000 0.017654
#
#
# Mechanical properties :
#
#
# Convention : Reuss Voigt Hill
#
# Bulk Modulus (GPa) = 51.90778 67.45804 59.68291
# Shear Modulus (GPa) = 41.28475 46.77529 44.03002
#
# Velocity S-wave (km/s) = 3.97165 4.22751 4.10158
# Velocity P-wave (km/s) = 6.39256 7.04297 6.72563
#
# Compressibility (1/GPa) = 0.01926493
#
# Stress axis : x y z
#
# Youngs Moduli (GPa) = 125.55753 89.22586 86.74478
#
# Poissons Ratio (x) = 0.29825 0.22635
# Poissons Ratio (y) = 0.41969 -0.02034
# Poissons Ratio (z) = 0.32763 -0.02092
#
# Static dielectric constant tensor:
#      x y z
#    x 2.219140 0.000000 -0.199840 
#    y 0.000000 2.001540 0.000000 
#    z -0.199840 0.000000 2.184640 
# 
# From -- ./inp_files/66168.got.cif
#   From: 2010.05.17/outbox.cif.g08.bks.cpg/sg13_34_cif.got.tgz:66168.got - 2010.06.03 16:44:36.
