data_PCOD9231857
_publ_section_title
;
Structure prediction by ZEFSAII (Michael W. Deem and Ramdas Pophale) SiO2 
 PCOD9231857
Probable space group: P 2/C
;
_chemical_formula_sum "Si O2"
_cell_formula_units_Z 22
_cell_length_a 8.899811
_cell_length_b 11.827495
_cell_length_c 14.891555
_cell_angle_alpha 90.000000
_cell_angle_beta 46.054091
_cell_angle_gamma 90.000000
_cell_volume 1128.608347
_symmetry_space_group_name_H-M "P 2/C"
_symmetry_group_IT_number 13
_symmetry_cell_setting 'monoclinic'
loop_
_space_group_symop_operation_xyz
x,y,z
-x,y,1/2-z
-x,-y,-z
x,-y,1/2+z
loop_
_atom_site_type_symbol
_atom_site_label
_atom_site_fract_x
_atom_site_fract_y
_atom_site_fract_z
Si Si1 0.294459 0.235570 0.776306
Si Si2 0.566987 0.335688 0.406945
Si Si3 0.768945 0.563135 0.321694
Si Si4 0.500000 0.222869 0.250000
Si Si5 0.606941 0.120516 0.950799
Si Si6 0.897238 0.883514 0.507359
O O1 0.500000 0.214528 0.750000
O O2 0.295117 0.364386 0.738959
O O3 0.301325 0.156444 0.683894
O O4 0.086998 0.205075 0.917891
O O5 0.748022 0.428043 0.325936
O O6 0.378964 0.396879 0.536446
O O7 0.507304 0.302004 0.332466
O O8 0.572427 0.215081 0.454674
O O9 0.000000 0.598582 0.250000
O O10 0.289301 0.149850 0.347177
O O11 0.780272 0.118212 0.958400
O O12 0.500000 0.000000 0.000000
O O13 0.000000 0.000000 0.500000
#
# Coordination Sequence:
#
# PCOD9231857 Si02
#       6
#     4   4   4   2   4   4
#     4  11  23  40  65  93 124 172 220 260 325 390
#     4   9  21  39  63  89 127 162 204 264 314 379
#     4  10  20  42  64  89 125 167 215 260 322 379
#     4  10  22  42  60  94 130 160 214 260 320 382
#     4  10  21  41  66  90 129 168 210 265 323 386
#     4  11  24  40  65  94 131 170 209 273 320 388
#
# _framework density 19.493034000000002
#
# number of rings (size 3 to 8) (size 9 to 14) (size 15 to 20)
#    0.000    1.818    0.000    4.909    7.636    0.000 
#   13.091    1.818    0.000    0.000    0.000    0.000 
#    0.000    0.000    0.000    0.000    0.000    0.000 
#
# Total GULP energy -122612.777547 kJ/mol
# GULP energy per Si atom -5573.308070 kJ/mol
# Density = 1.944867 g / cm^3
# Si number density = 19.493034 Si / 1000 Ang^3
#
#
#
# Elastic Constant Matrix: (Units=GPa)
#
#
# Indices 1 2 3 4 5 6 
#
# 1 94.6652 27.8124 22.1038 0.0000 -12.5301 0.0000
# 2 27.8124 124.6055 43.9300 0.0000 -5.5289 0.0000
# 3 22.1038 43.9300 78.2359 0.0000 -10.5723 0.0000
# 4 0.0000 0.0000 0.0000 -5.1010 0.0000 -6.1364
# 5 -12.5301 -5.5289 -10.5723 0.0000 27.8849 0.0000
# 6 0.0000 0.0000 0.0000 -6.1364 0.0000 27.6011
#
#
#
# Elastic Compliance Matrix: (Units=1/GPa)
#
#
# Indices 1 2 3 4 5 6 
#
# 1 0.012113 -0.001885 -0.001770 0.000000 0.004398 0.000000
# 2 -0.001885 0.010300 -0.005364 0.000000 -0.000838 0.000000
# 3 -0.001770 -0.005364 0.016909 0.000000 0.004552 0.000000
# 4 0.000000 0.000000 0.000000 -0.154674 0.000000 -0.034388
# 5 0.004398 -0.000838 0.004552 0.000000 0.039398 0.000000
# 6 0.000000 0.000000 0.000000 -0.034388 0.000000 0.028585
#
#
# Mechanical properties :
#
#
# Convention : Reuss Voigt Hill
#
# Bulk Modulus (GPa) = 46.98232 53.91101 50.44667
# Shear Modulus (GPa) = -224.84651 23.65437 -100.59607
#
# Velocity S-wave (km/s) = -10.75163 3.48728 -7.19154
# Velocity P-wave (km/s) = 11.40068 6.62808 6.55912
#
# Compressibility (1/GPa) = 0.02128460
#
# Stress axis : x y z
#
# Youngs Moduli (GPa) = 82.55894 97.08743 59.13976
#
# Poissons Ratio (x) = 0.18296 0.10465
# Poissons Ratio (y) = 0.15559 0.31725
# Poissons Ratio (z) = 0.14610 0.52081
#
# Static dielectric constant tensor:
#      x y z
#    x 1.664350 0.000000 0.012120 
#    y 0.000000 1.748650 0.000000 
#    z 0.012120 0.000000 1.710490 
# 
# From -- ./inp_files/46485.got.cif
#   From: 2010.05.17/outbox.cif.g08.bks.cpg/sg13_24_cif.got.tgz:46485.got - 2010.06.03 16:44:36.
