data_PCOD9231686
_publ_section_title
;
Structure prediction by ZEFSAII (Michael W. Deem and Ramdas Pophale) SiO2 
 PCOD9231686
Probable space group: P 2/C
;
_chemical_formula_sum "Si O2"
_cell_formula_units_Z 20
_cell_length_a 8.309610
_cell_length_b 9.006861
_cell_length_c 12.659104
_cell_angle_alpha 90.000000
_cell_angle_beta 81.268150
_cell_angle_gamma 90.000000
_cell_volume 936.470382
_symmetry_space_group_name_H-M "P 2/C"
_symmetry_group_IT_number 13
_symmetry_cell_setting 'monoclinic'
loop_
_space_group_symop_operation_xyz
x,y,z
-x,y,1/2-z
-x,-y,-z
x,-y,1/2+z
loop_
_atom_site_type_symbol
_atom_site_label
_atom_site_fract_x
_atom_site_fract_y
_atom_site_fract_z
Si Si1 0.000000 0.502930 0.250000
Si Si2 0.836667 0.753055 0.376751
Si Si3 0.356376 0.578932 0.956074
Si Si4 0.094347 0.672328 0.531258
Si Si5 0.819314 0.091897 0.317556
Si Si6 0.500000 0.243880 0.250000
O O1 0.144729 0.621440 0.211723
O O2 0.003394 0.402361 0.143558
O O3 0.687427 0.718550 0.466713
O O4 0.985291 0.730693 0.445465
O O5 0.822103 0.915333 0.331957
O O6 0.416185 0.645317 0.841499
O O7 0.500000 0.500000 0.000000
O O8 0.211733 0.457540 0.977095
O O9 0.182759 0.813680 0.573706
O O10 0.655271 0.146683 0.274594
O O11 0.000000 0.121921 0.250000
#
# Coordination Sequence:
#
# PCOD9231686 Si02
#       6
#     2   4   4   4   4   2
#     4  10  20  40  70 110 136 180 256 294 354 434
#     4  11  25  43  72 111 143 190 247 296 371 442
#     4  11  24  45  71 107 145 190 243 312 361 430
#     4  11  23  42  77 104 143 191 244 302 363 436
#     4  12  25  49  74 107 150 199 237 300 376 440
#     4  12  28  48  74 108 152 192 254 302 364 436
#
# _framework density 21.356788000000002
#
# number of rings (size 3 to 8) (size 9 to 14) (size 15 to 20)
#    0.000    0.800    4.000    4.200    2.800    0.800 
#    3.600    0.000    0.000    0.000    0.000    0.000 
#    0.000    0.000    0.000    0.000    0.000    0.000 
#
# Total GULP energy -111506.481981 kJ/mol
# GULP energy per Si atom -5575.324099 kJ/mol
# Density = 2.130818 g / cm^3
# Si number density = 21.356788 Si / 1000 Ang^3
#
#
#
# Elastic Constant Matrix: (Units=GPa)
#
#
# Indices 1 2 3 4 5 6 
#
# 1 135.8694 46.0485 53.4843 0.0000 11.4786 0.0000
# 2 46.0485 134.5347 45.2004 0.0000 -0.4589 0.0000
# 3 53.4843 45.2004 112.8707 0.0000 -22.1565 0.0000
# 4 0.0000 0.0000 0.0000 48.6785 0.0000 -39.4735
# 5 11.4786 -0.4589 -22.1565 0.0000 44.1414 0.0000
# 6 0.0000 0.0000 0.0000 -39.4735 0.0000 210.2835
#
#
#
# Elastic Compliance Matrix: (Units=1/GPa)
#
#
# Indices 1 2 3 4 5 6 
#
# 1 0.010537 -0.001836 -0.005324 0.000000 -0.005431 0.000000
# 2 -0.001836 0.009042 -0.002927 0.000000 -0.000898 0.000000
# 3 -0.005324 -0.002927 0.014222 0.000000 0.008492 0.000000
# 4 0.000000 0.000000 0.000000 0.024231 0.000000 0.004549
# 5 -0.005431 -0.000898 0.008492 0.000000 0.028320 0.000000
# 6 0.000000 0.000000 0.000000 0.004549 0.000000 0.005609
#
#
# Mechanical properties :
#
#
# Convention : Reuss Voigt Hill
#
# Bulk Modulus (GPa) = 73.38809 74.74900 74.06854
# Shear Modulus (GPa) = 42.85315 76.52346 59.68831
#
# Velocity S-wave (km/s) = 4.48430 5.99239 5.29234
# Velocity P-wave (km/s) = 7.82620 9.10793 8.49128
#
# Compressibility (1/GPa) = 0.01362619
#
# Stress axis : x y z
#
# Youngs Moduli (GPa) = 94.90447 110.59588 70.31600
#
# Poissons Ratio (x) = 0.20311 0.37434
# Poissons Ratio (y) = 0.17429 0.20581
# Poissons Ratio (z) = 0.50524 0.32371
#
# Static dielectric constant tensor:
#      x y z
#    x 1.825980 0.000000 -0.036580 
#    y 0.000000 1.748400 0.000000 
#    z -0.036580 0.000000 1.822920 
# 
# From -- ./inp_files/28177.got.cif
#   From: 2010.05.17/outbox.cif.g08.bks.cpg/sg13_15_cif.got.tgz:28177.got - 2010.06.03 16:44:36.
