data_PCOD9231159
_publ_section_title
;
Structure prediction by ZEFSAII (Michael W. Deem and Ramdas Pophale) SiO2 
 PCOD9231159
Probable space group: P 2/C
;
_chemical_formula_sum "Si O2"
_cell_formula_units_Z 32
_cell_length_a 13.475877
_cell_length_b 9.785803
_cell_length_c 20.002289
_cell_angle_alpha 90.000000
_cell_angle_beta 41.136025
_cell_angle_gamma 90.000000
_cell_volume 1735.239290
_symmetry_space_group_name_H-M "P 2/C"
_symmetry_group_IT_number 13
_symmetry_cell_setting 'monoclinic'
loop_
_space_group_symop_operation_xyz
x,y,z
-x,y,1/2-z
-x,-y,-z
x,-y,1/2+z
loop_
_atom_site_type_symbol
_atom_site_label
_atom_site_fract_x
_atom_site_fract_y
_atom_site_fract_z
Si Si1 0.159929 0.366952 0.476418
Si Si2 0.429380 0.990642 0.109017
Si Si3 0.600822 0.213972 0.763293
Si Si4 0.296957 0.480536 0.275939
Si Si5 0.523158 0.225019 0.163618
Si Si6 0.902623 0.885930 0.236401
Si Si7 0.943840 0.563697 0.205410
Si Si8 0.051542 0.874294 0.430571
O O1 0.209703 0.466840 0.391306
O O2 0.306799 0.281542 0.424779
O O3 0.080677 0.428041 0.582423
O O4 0.038594 0.262474 0.506273
O O5 0.478743 0.119248 0.128828
O O6 0.466328 0.860343 0.137392
O O7 0.250642 0.970418 0.188850
O O8 0.500000 0.000000 0.000000
O O9 0.500000 0.189310 0.750000
O O10 0.618505 0.375001 0.766574
O O11 0.769576 0.155201 0.663311
O O12 0.411850 0.354830 0.215696
O O13 0.184480 0.481565 0.269604
O O14 0.500000 0.163573 0.250000
O O15 0.881081 0.719936 0.247683
O O16 0.992820 0.909808 0.122818
O O17 0.000000 0.923456 0.250000
O O18 0.000000 0.516526 0.250000
O O19 0.000000 0.000000 0.500000
#
# Coordination Sequence:
#
# PCOD9231159 Si02
#       8
#     4   4   4   4   4   4   4   4
#     4  10  21  38  64  90 119 164 210 243 316 369
#     4  11  24  39  62  90 123 165 203 253 308 375
#     4  11  23  40  61  92 125 159 206 262 310 354
#     4  11  21  43  62  92 124 163 208 260 305 371
#     4  10  24  39  65  90 125 164 202 256 314 374
#     4   9  20  38  59  85 119 162 199 246 304 361
#     4  10  20  38  66  86 121 164 206 251 304 367
#     4  10  22  35  61  94 117 154 206 257 297 364
#
# _framework density 18.44126
#
# number of rings (size 3 to 8) (size 9 to 14) (size 15 to 20)
#    0.000    1.750    3.750    1.875   14.000    0.000 
#    0.000    4.375    0.000    0.000    0.000    0.000 
#    0.000    0.000    0.000    0.000    0.000    0.000 
#
# Total GULP energy -178493.137899 kJ/mol
# GULP energy per Si atom -5577.910559 kJ/mol
# Density = 1.839929 g / cm^3
# Si number density = 18.441260 Si / 1000 Ang^3
#
#
#
# Elastic Constant Matrix: (Units=GPa)
#
#
# Indices 1 2 3 4 5 6 
#
# 1 148.5639 44.5265 42.6670 0.0000 17.9647 0.0000
# 2 44.5265 87.3291 52.6837 0.0000 20.3943 0.0000
# 3 42.6670 52.6837 78.4802 0.0000 11.3135 0.0000
# 4 0.0000 0.0000 0.0000 14.6627 0.0000 4.6881
# 5 17.9647 20.3943 11.3135 0.0000 32.4207 0.0000
# 6 0.0000 0.0000 0.0000 4.6881 0.0000 35.3351
#
#
#
# Elastic Compliance Matrix: (Units=1/GPa)
#
#
# Indices 1 2 3 4 5 6 
#
# 1 0.008456 -0.001989 -0.002913 0.000000 -0.002418 0.000000
# 2 -0.001989 0.021908 -0.012422 0.000000 -0.008344 0.000000
# 3 -0.002913 -0.012422 0.022435 0.000000 0.001600 0.000000
# 4 0.000000 0.000000 0.000000 0.071221 0.000000 -0.009449
# 5 -0.002418 -0.008344 0.001600 0.000000 0.036875 0.000000
# 6 0.000000 0.000000 0.000000 -0.009449 0.000000 0.029554
#
#
# Mechanical properties :
#
#
# Convention : Reuss Voigt Hill
#
# Bulk Modulus (GPa) = 55.10128 66.01417 60.55773
# Shear Modulus (GPa) = 21.63102 28.11676 24.87389
#
# Velocity S-wave (km/s) = 3.42858 3.90893 3.67661
# Velocity P-wave (km/s) = 6.75409 7.49985 7.13672
#
# Compressibility (1/GPa) = 0.01814840
#
# Stress axis : x y z
#
# Youngs Moduli (GPa) = 118.25277 45.64520 44.57411
#
# Poissons Ratio (x) = 0.09081 0.12986
# Poissons Ratio (y) = 0.23526 0.55372
# Poissons Ratio (z) = 0.34452 0.56702
#
# Static dielectric constant tensor:
#      x y z
#    x 1.634280 0.000000 -0.084130 
#    y 0.000000 1.649730 0.000000 
#    z -0.084130 0.000000 1.258060 
# 
# From -- ./inp_files/79793.got.cif
#   From: 2010.05.17/outbox.cif.g08.bks.cpg/sg13_40_cif.got.tgz:79793.got - 2010.06.03 16:44:36.
