data_PCOD9231947
_publ_section_title
;
Structure prediction by ZEFSAII (Michael W. Deem and Ramdas Pophale) SiO2 
 PCOD9231947
Probable space group: P 2/C
;
_chemical_formula_sum "Si O2"
_cell_formula_units_Z 26
_cell_length_a 9.127461
_cell_length_b 7.817449
_cell_length_c 21.018987
_cell_angle_alpha 90.000000
_cell_angle_beta 53.640731
_cell_angle_gamma 90.000000
_cell_volume 1207.793965
_symmetry_space_group_name_H-M "P 2/C"
_symmetry_group_IT_number 13
_symmetry_cell_setting 'monoclinic'
loop_
_space_group_symop_operation_xyz
x,y,z
-x,y,1/2-z
-x,-y,-z
x,-y,1/2+z
loop_
_atom_site_type_symbol
_atom_site_label
_atom_site_fract_x
_atom_site_fract_y
_atom_site_fract_z
Si Si1 0.000000 0.334124 0.250000
Si Si2 0.228218 0.576326 0.119108
Si Si3 0.190847 0.442890 0.482765
Si Si4 0.000000 0.181288 0.750000
Si Si5 0.122863 0.940719 0.811951
Si Si6 0.440216 0.254456 0.897068
Si Si7 0.158262 0.038846 0.509051
Si Si8 0.500000 0.934595 0.250000
O O1 0.184190 0.429734 0.180954
O O2 0.061281 0.236116 0.297739
O O3 0.401230 0.687869 0.095081
O O4 0.057755 0.698281 0.177904
O O5 0.216824 0.511068 0.050735
O O6 0.333458 0.567706 0.412256
O O7 0.215109 0.236140 0.479954
O O8 0.000000 0.500000 0.500000
O O9 0.146823 0.055977 0.742088
O O10 0.313950 0.954383 0.798630
O O11 0.952148 0.009938 0.896765
O O12 0.497886 0.181342 0.813712
O O13 0.314693 0.103924 0.959925
O O14 0.000000 0.000000 0.500000
#
# Coordination Sequence:
#
# PCOD9231947 Si02
#       8
#     2   4   4   2   4   4   4   2
#     4  10  26  42  74 102 140 194 248 292 372 444
#     4  11  24  46  66 101 145 185 240 302 364 426
#     4  12  25  44  73 100 141 191 237 298 367 438
#     4  10  20  42  72  90 134 192 224 284 364 420
#     4  11  22  45  71 104 140 186 244 295 359 442
#     4  12  27  45  69 108 145 188 247 307 364 439
#     4  12  24  45  73 104 144 193 239 296 373 439
#     4  12  24  44  74 102 150 184 244 312 370 420
#
# _framework density 21.52685
#
# number of rings (size 3 to 8) (size 9 to 14) (size 15 to 20)
#    0.000    0.615    6.154    1.385    0.000    1.846 
#    0.000    0.769    0.000    0.000    0.000    0.000 
#    0.000    0.000    0.000    0.000    0.000    0.000 
#
# Total GULP energy -144819.764220 kJ/mol
# GULP energy per Si atom -5569.990932 kJ/mol
# Density = 2.147785 g / cm^3
# Si number density = 21.526850 Si / 1000 Ang^3
#
#
#
# Elastic Constant Matrix: (Units=GPa)
#
#
# Indices 1 2 3 4 5 6 
#
# 1 108.7428 30.2753 34.1162 0.0000 -1.3147 0.0000
# 2 30.2753 121.2255 44.9836 0.0000 -11.2405 0.0000
# 3 34.1162 44.9836 100.8581 0.0000 5.3116 0.0000
# 4 0.0000 0.0000 0.0000 3.3438 0.0000 3.1693
# 5 -1.3147 -11.2405 5.3116 0.0000 32.7406 0.0000
# 6 0.0000 0.0000 0.0000 3.1693 0.0000 38.7106
#
#
#
# Elastic Compliance Matrix: (Units=1/GPa)
#
#
# Indices 1 2 3 4 5 6 
#
# 1 0.010535 -0.001518 -0.002906 0.000000 0.000373 0.000000
# 2 -0.001518 0.010695 -0.004485 0.000000 0.004338 0.000000
# 3 -0.002906 -0.004485 0.013097 0.000000 -0.003781 0.000000
# 4 0.000000 0.000000 0.000000 0.324221 0.000000 -0.026544
# 5 0.000373 0.004338 -0.003781 0.000000 0.032661 0.000000
# 6 0.000000 0.000000 0.000000 -0.026544 0.000000 0.028006
#
#
# Mechanical properties :
#
#
# Convention : Reuss Voigt Hill
#
# Bulk Modulus (GPa) = 60.57356 61.06406 60.81881
# Shear Modulus (GPa) = 11.29852 29.72241 20.51047
#
# Velocity S-wave (km/s) = 2.29346 3.71983 3.09007
# Velocity P-wave (km/s) = 5.93405 6.84672 6.40666
#
# Compressibility (1/GPa) = 0.01650885
#
# Stress axis : x y z
#
# Youngs Moduli (GPa) = 94.92245 93.50421 76.35105
#
# Poissons Ratio (x) = 0.14194 0.22189
# Poissons Ratio (y) = 0.14409 0.34243
# Poissons Ratio (z) = 0.27586 0.41936
#
# Static dielectric constant tensor:
#      x y z
#    x 1.813930 0.000000 -0.030390 
#    y 0.000000 1.867810 0.000000 
#    z -0.030390 0.000000 1.851170 
# 
# From -- ./inp_files/75651.got.cif
#   From: 2010.05.17/outbox.cif.g08.bks.cpg/sg13_38_cif.got.tgz:75651.got - 2010.06.03 16:44:36.
