data_PCOD9231974
_publ_section_title
;
Structure prediction by ZEFSAII (Michael W. Deem and Ramdas Pophale) SiO2 
 PCOD9231974
Probable space group: P 2/C
;
_chemical_formula_sum "Si O2"
_cell_formula_units_Z 20
_cell_length_a 9.570441
_cell_length_b 11.008375
_cell_length_c 11.522020
_cell_angle_alpha 90.000000
_cell_angle_beta 135.371612
_cell_angle_gamma 90.000000
_cell_volume 852.773456
_symmetry_space_group_name_H-M "P 2/C"
_symmetry_group_IT_number 13
_symmetry_cell_setting 'monoclinic'
loop_
_space_group_symop_operation_xyz
x,y,z
-x,y,1/2-z
-x,-y,-z
x,-y,1/2+z
loop_
_atom_site_type_symbol
_atom_site_label
_atom_site_fract_x
_atom_site_fract_y
_atom_site_fract_z
Si Si1 0.161075 0.446743 0.741076
Si Si2 0.316700 0.107765 0.066904
Si Si3 0.870204 0.314009 0.390165
Si Si4 0.410770 0.214614 0.877395
Si Si5 0.811035 0.145065 0.988788
O O1 0.233678 0.579303 0.743331
O O2 0.338700 0.351333 0.864816
O O3 0.000000 0.457489 0.750000
O O4 0.034868 0.384604 0.563213
O O5 0.500000 0.057559 0.250000
O O6 0.252237 0.230318 0.094155
O O7 0.160955 0.997999 0.974161
O O8 0.380493 0.137952 0.975293
O O9 0.987915 0.219912 0.379598
O O10 0.634210 0.198850 0.963418
O O11 0.268085 0.166260 0.689901
#
# Coordination Sequence:
#
# PCOD9231974 Si02
#       5
#     4   4   4   4   4
#     4  10  20  43  66  89 128 171 218 267 313 386
#     4  12  23  40  64 100 134 168 214 265 323 392
#     4  10  23  41  63  96 125 168 223 258 322 381
#     4  10  21  42  67  90 130 172 211 267 330 371
#     4  10  22  41  68  93 128 173 215 268 324 386
#
# _framework density 23.452888000000002
#
# number of rings (size 3 to 8) (size 9 to 14) (size 15 to 20)
#    0.000    1.600    4.000    1.200    0.000    1.600 
#   10.800    2.000    0.000    0.000    0.000    0.000 
#    0.000    0.000    0.000    0.000    0.000    0.000 
#
# Total GULP energy -111866.157217 kJ/mol
# GULP energy per Si atom -5593.307861 kJ/mol
# Density = 2.339951 g / cm^3
# Si number density = 23.452888 Si / 1000 Ang^3
#
#
#
# Elastic Constant Matrix: (Units=GPa)
#
#
# Indices 1 2 3 4 5 6 
#
# 1 130.9092 55.0578 23.8593 0.0000 -36.0495 0.0000
# 2 55.0578 156.2308 24.8303 0.0000 -17.6151 0.0000
# 3 23.8593 24.8303 55.4123 0.0000 -12.2808 0.0000
# 4 0.0000 0.0000 0.0000 51.5040 0.0000 -3.7643
# 5 -36.0495 -17.6151 -12.2808 0.0000 27.6638 0.0000
# 6 0.0000 0.0000 0.0000 -3.7643 0.0000 17.9300
#
#
#
# Elastic Compliance Matrix: (Units=1/GPa)
#
#
# Indices 1 2 3 4 5 6 
#
# 1 0.013076 -0.002764 -0.001115 0.000000 0.014785 0.000000
# 2 -0.002764 0.007767 -0.002210 0.000000 0.000363 0.000000
# 3 -0.001115 -0.002210 0.020944 0.000000 0.006437 0.000000
# 4 0.000000 0.000000 0.000000 0.019719 0.000000 0.004140
# 5 0.014785 0.000363 0.006437 0.000000 0.058504 0.000000
# 6 0.000000 0.000000 0.000000 0.004140 0.000000 0.056642
#
#
# Mechanical properties :
#
#
# Convention : Reuss Voigt Hill
#
# Bulk Modulus (GPa) = 33.77374 61.11636 47.44505
# Shear Modulus (GPa) = 25.16389 35.33989 30.25189
#
# Velocity S-wave (km/s) = 3.27915 3.88602 3.59541
# Velocity P-wave (km/s) = 5.36368 6.80078 6.12453
#
# Compressibility (1/GPa) = 0.02960880
#
# Stress axis : x y z
#
# Youngs Moduli (GPa) = 76.47628 128.75031 47.74738
#
# Poissons Ratio (x) = 0.35586 0.05324
# Poissons Ratio (y) = 0.21138 0.10552
# Poissons Ratio (z) = 0.08527 0.28452
#
# Static dielectric constant tensor:
#      x y z
#    x 1.867840 0.000000 0.013480 
#    y 0.000000 1.917320 0.000000 
#    z 0.013480 0.000000 1.889260 
# 
# From -- ./inp_files/29631.got.cif
#   From: 2010.05.17/outbox.cif.g08.bks.cpg/sg13_15_cif.got.tgz:29631.got - 2010.06.03 16:44:36.
