data_PCOD9231955
_publ_section_title
;
Structure prediction by ZEFSAII (Michael W. Deem and Ramdas Pophale) SiO2 
 PCOD9231955
Probable space group: P 2/C
;
_chemical_formula_sum "Si O2"
_cell_formula_units_Z 26
_cell_length_a 8.396373
_cell_length_b 8.679594
_cell_length_c 21.470675
_cell_angle_alpha 90.000000
_cell_angle_beta 40.758157
_cell_angle_gamma 90.000000
_cell_volume 1021.555455
_symmetry_space_group_name_H-M "P 2/C"
_symmetry_group_IT_number 13
_symmetry_cell_setting 'monoclinic'
loop_
_space_group_symop_operation_xyz
x,y,z
-x,y,1/2-z
-x,-y,-z
x,-y,1/2+z
loop_
_atom_site_type_symbol
_atom_site_label
_atom_site_fract_x
_atom_site_fract_y
_atom_site_fract_z
Si Si1 0.816105 0.428722 0.004362
Si Si2 0.288040 0.889051 0.544315
Si Si3 0.866862 0.398167 0.364670
Si Si4 0.917511 0.157409 0.648705
Si Si5 0.710767 0.953152 0.092120
Si Si6 0.000000 0.674830 0.250000
Si Si7 0.422080 0.731540 0.700725
O O1 0.809508 0.550985 0.951441
O O2 0.906471 0.275549 0.940793
O O3 0.581043 0.385173 0.113010
O O4 0.000000 0.500000 0.000000
O O5 0.294423 0.752884 0.592324
O O6 0.330532 0.856758 0.458472
O O7 0.500000 0.000000 0.500000
O O8 0.041122 0.990236 0.622131
O O9 0.828859 0.550681 0.335792
O O10 0.858226 0.327348 0.221910
O O11 0.712843 0.135182 0.656744
O O12 0.881508 0.227934 0.728604
O O13 0.522363 0.096827 0.152314
O O14 0.000000 0.000000 0.000000
O O15 0.500000 0.716910 0.750000
#
# Coordination Sequence:
#
# PCOD9231955 Si02
#       7
#     4   4   4   4   4   2   4
#     4  11  21  41  72 105 154 199 251 322 393 457
#     4  11  24  45  75 110 147 203 258 322 400 466
#     4  11  26  43  73 112 158 206 258 321 396 479
#     4  10  22  46  72 102 153 200 258 317 383 477
#     4  10  20  42  74 105 146 195 258 317 394 460
#     4  10  26  46  70 104 158 196 258 324 386 460
#     4  12  22  40  74 111 150 204 262 319 387 475
#
# _framework density 25.451384000000001
#
# number of rings (size 3 to 8) (size 9 to 14) (size 15 to 20)
#    0.000    1.231    4.615    2.769    2.154    1.846 
#    2.769    3.077   13.538    0.000    0.000    0.000 
#    0.000    0.000    0.000    0.000    0.000    0.000 
#
# Total GULP energy -145268.516312 kJ/mol
# GULP energy per Si atom -5587.250627 kJ/mol
# Density = 2.539346 g / cm^3
# Si number density = 25.451384 Si / 1000 Ang^3
#
#
#
# Elastic Constant Matrix: (Units=GPa)
#
#
# Indices 1 2 3 4 5 6 
#
# 1 101.8667 37.8592 55.3387 0.0000 39.9316 0.0000
# 2 37.8592 109.5990 68.3822 0.0000 17.4985 0.0000
# 3 55.3387 68.3822 173.9253 0.0000 18.6547 0.0000
# 4 0.0000 0.0000 0.0000 53.4239 0.0000 15.0889
# 5 39.9316 17.4985 18.6547 0.0000 53.9132 0.0000
# 6 0.0000 0.0000 0.0000 15.0889 0.0000 43.6162
#
#
#
# Elastic Compliance Matrix: (Units=1/GPa)
#
#
# Indices 1 2 3 4 5 6 
#
# 1 0.016423 -0.001922 -0.003357 0.000000 -0.010379 0.000000
# 2 -0.001922 0.012613 -0.004218 0.000000 -0.001211 0.000000
# 3 -0.003357 -0.004218 0.008373 0.000000 0.000958 0.000000
# 4 0.000000 0.000000 0.000000 0.020745 0.000000 -0.007177
# 5 -0.010379 -0.001211 0.000958 0.000000 0.026297 0.000000
# 6 0.000000 0.000000 0.000000 -0.007177 0.000000 0.025410
#
#
# Mechanical properties :
#
#
# Convention : Reuss Voigt Hill
#
# Bulk Modulus (GPa) = 54.29797 78.72792 66.51295
# Shear Modulus (GPa) = 37.03923 45.11137 41.07530
#
# Velocity S-wave (km/s) = 3.81897 4.21462 4.02166
# Velocity P-wave (km/s) = 6.38955 7.39485 6.91051
#
# Compressibility (1/GPa) = 0.01841689
#
# Stress axis : x y z
#
# Youngs Moduli (GPa) = 60.89083 79.28410 119.42984
#
# Poissons Ratio (x) = 0.15236 0.40088
# Poissons Ratio (y) = 0.11701 0.50372
# Poissons Ratio (z) = 0.20439 0.33439
#
# Static dielectric constant tensor:
#      x y z
#    x 1.911470 0.000000 0.015040 
#    y 0.000000 1.565040 0.000000 
#    z 0.015040 0.000000 2.099800 
# 
# From -- ./inp_files/75629.got.cif
#   From: 2010.05.17/outbox.cif.g08.bks.cpg/sg13_38_cif.got.tgz:75629.got - 2010.06.03 16:44:36.
