data_PCOD9231438
_publ_section_title
;
Structure prediction by ZEFSAII (Michael W. Deem and Ramdas Pophale) SiO2 
 PCOD9231438
Probable space group: P 2/C
;
_chemical_formula_sum "Si O2"
_cell_formula_units_Z 24
_cell_length_a 12.777423
_cell_length_b 5.148541
_cell_length_c 14.151415
_cell_angle_alpha 90.000000
_cell_angle_beta 84.655585
_cell_angle_gamma 90.000000
_cell_volume 926.905016
_symmetry_space_group_name_H-M "P 2/C"
_symmetry_group_IT_number 13
_symmetry_cell_setting 'monoclinic'
loop_
_space_group_symop_operation_xyz
x,y,z
-x,y,1/2-z
-x,-y,-z
x,-y,1/2+z
loop_
_atom_site_type_symbol
_atom_site_label
_atom_site_fract_x
_atom_site_fract_y
_atom_site_fract_z
Si Si1 0.847791 0.681883 0.734180
Si Si2 0.492265 0.752870 0.431851
Si Si3 0.085906 0.836169 0.382868
Si Si4 0.726565 0.290779 0.523954
Si Si5 0.857236 0.345707 0.908468
Si Si6 0.686220 0.986822 0.834973
O O1 0.870038 0.421004 0.673755
O O2 0.877462 0.595732 0.838590
O O3 0.913716 0.915143 0.683744
O O4 0.727516 0.795889 0.748668
O O5 0.500000 0.500000 0.500000
O O6 0.374209 0.728390 0.400313
O O7 0.584603 0.824276 0.348967
O O8 0.500000 0.000000 0.500000
O O9 0.175044 0.880856 0.453463
O O10 0.969879 0.764563 0.427198
O O11 0.779747 0.566613 0.498522
O O12 0.682421 0.198692 0.426892
O O13 0.787635 0.162643 0.848356
#
# Coordination Sequence:
#
# PCOD9231438 Si02
#       6
#     4   4   4   4   4   4
#     4  11  26  42  63  93 134 182 218 258 318 407
#     4  10  20  39  68  94 121 165 215 265 317 382
#     4  12  27  40  66  97 137 170 213 274 331 381
#     4  10  24  42  66 101 131 162 217 281 329 369
#     4  11  23  41  68  95 129 176 218 258 321 399
#     4  10  22  42  70  93 127 173 223 261 318 393
#
# _framework density 25.892617999999999
#
# number of rings (size 3 to 8) (size 9 to 14) (size 15 to 20)
#    0.000    1.333    3.333    1.000    9.333    0.667 
#    0.000    0.833    3.667    0.000    0.000    0.000 
#    0.000    0.000    0.000    0.000    0.000    0.000 
#
# Total GULP energy -134018.649777 kJ/mol
# GULP energy per Si atom -5584.110407 kJ/mol
# Density = 2.583368 g / cm^3
# Si number density = 25.892618 Si / 1000 Ang^3
#
#
#
# Elastic Constant Matrix: (Units=GPa)
#
#
# Indices 1 2 3 4 5 6 
#
# 1 199.3779 52.1806 25.0410 0.0000 -35.1181 0.0000
# 2 52.1806 171.6536 21.8619 0.0000 -19.6172 0.0000
# 3 25.0410 21.8619 30.9437 0.0000 -14.2800 0.0000
# 4 0.0000 0.0000 0.0000 31.1970 0.0000 -17.0655
# 5 -35.1181 -19.6172 -14.2800 0.0000 27.9369 0.0000
# 6 0.0000 0.0000 0.0000 -17.0655 0.0000 47.3473
#
#
#
# Elastic Compliance Matrix: (Units=1/GPa)
#
#
# Indices 1 2 3 4 5 6 
#
# 1 0.006697 -0.001056 -0.001479 0.000000 0.006920 0.000000
# 2 -0.001056 0.006748 -0.003060 0.000000 0.001846 0.000000
# 3 -0.001479 -0.003060 0.044269 0.000000 0.018619 0.000000
# 4 0.000000 0.000000 0.000000 0.039926 0.000000 0.014391
# 5 0.006920 0.001846 0.018619 0.000000 0.055307 0.000000
# 6 0.000000 0.000000 0.000000 0.014391 0.000000 0.026307
#
#
# Mechanical properties :
#
#
# Convention : Reuss Voigt Hill
#
# Bulk Modulus (GPa) = 21.49594 66.68249 44.08922
# Shear Modulus (GPa) = 24.27730 41.48903 32.88316
#
# Velocity S-wave (km/s) = 3.06537 4.00728 3.56755
# Velocity P-wave (km/s) = 4.56603 6.87171 5.83391
#
# Compressibility (1/GPa) = 0.04652041
#
# Stress axis : x y z
#
# Youngs Moduli (GPa) = 149.32491 148.20171 22.58929
#
# Poissons Ratio (x) = 0.15657 0.03342
# Poissons Ratio (y) = 0.15776 0.06913
# Poissons Ratio (z) = 0.22091 0.45357
#
# Static dielectric constant tensor:
#      x y z
#    x 2.201810 0.000000 0.004520 
#    y 0.000000 2.031960 0.000000 
#    z 0.004520 0.000000 2.171330 
# 
# From -- ./inp_files/65350.got.cif
#   From: 2010.05.17/outbox.cif.g08.bks.cpg/sg13_33_cif.got.tgz:65350.got - 2010.06.03 16:44:36.
