data_PCOD9231075
_publ_section_title
;
Structure prediction by ZEFSAII (Michael W. Deem and Ramdas Pophale) SiO2 
 PCOD9231075
Probable space group: P 2/C
;
_chemical_formula_sum "Si O2"
_cell_formula_units_Z 30
_cell_length_a 11.568490
_cell_length_b 8.249597
_cell_length_c 14.145627
_cell_angle_alpha 90.000000
_cell_angle_beta 82.751959
_cell_angle_gamma 90.000000
_cell_volume 1339.205854
_symmetry_space_group_name_H-M "P 2/C"
_symmetry_group_IT_number 13
_symmetry_cell_setting 'monoclinic'
loop_
_space_group_symop_operation_xyz
x,y,z
-x,y,1/2-z
-x,-y,-z
x,-y,1/2+z
loop_
_atom_site_type_symbol
_atom_site_label
_atom_site_fract_x
_atom_site_fract_y
_atom_site_fract_z
Si Si1 0.247284 0.868366 0.937196
Si Si2 0.341435 0.700451 0.115785
Si Si3 0.088045 0.352394 0.986467
Si Si4 0.865503 0.271315 0.241198
Si Si5 0.873054 0.661941 0.232413
Si Si6 0.000000 0.000000 0.000000
Si Si7 0.698507 0.345486 0.412695
Si Si8 0.438424 0.883263 0.431793
O O1 0.191303 0.781141 0.851978
O O2 0.341790 0.002884 0.893832
O O3 0.305952 0.755426 0.012270
O O4 0.140201 0.962131 0.996482
O O5 0.230747 0.732354 0.194753
O O6 0.363926 0.506625 0.118907
O O7 0.456792 0.797227 0.134233
O O8 0.135243 0.310226 0.877825
O O9 0.024157 0.190629 0.024893
O O10 0.191291 0.409955 0.041022
O O11 0.000000 0.500000 0.000000
O O12 0.873500 0.467189 0.243787
O O13 0.763629 0.233910 0.328318
O O14 0.000000 0.212450 0.250000
O O15 0.000000 0.726459 0.250000
O O16 0.622806 0.249807 0.495662
O O17 0.500000 0.000000 0.500000
#
# Coordination Sequence:
#
# PCOD9231075 Si02
#       8
#     4   4   4   4   4   2   4   4
#     4  11  22  42  63 100 138 180 222 283 353 414
#     4  10  22  42  72  95 133 178 229 290 342 415
#     4  12  23  40  67  99 142 181 221 294 355 416
#     4  10  21  37  66 100 137 174 225 285 350 418
#     4  10  20  38  64 105 133 171 228 284 352 414
#     4  12  22  38  64  98 136 174 230 270 346 426
#     4  11  21  42  67  97 128 178 238 281 344 419
#     4  10  23  44  64  91 135 180 228 278 345 412
#
# _framework density 22.401337999999999
#
# number of rings (size 3 to 8) (size 9 to 14) (size 15 to 20)
#    0.000    1.333    1.333    6.800    0.000    0.000 
#    4.800    7.333    0.000    8.000    0.000    0.000 
#    0.000    0.000    0.000    0.000    0.000    0.000 
#
# Total GULP energy -167009.189569 kJ/mol
# GULP energy per Si atom -5566.972986 kJ/mol
# Density = 2.235035 g / cm^3
# Si number density = 22.401338 Si / 1000 Ang^3
#
#
#
# Elastic Constant Matrix: (Units=GPa)
#
#
# Indices 1 2 3 4 5 6 
#
# 1 98.9822 37.4282 26.9879 0.0000 -24.8823 0.0000
# 2 37.4282 76.5788 -4.3225 0.0000 -17.4146 0.0000
# 3 26.9879 -4.3225 110.0140 0.0000 -9.3191 0.0000
# 4 0.0000 0.0000 0.0000 0.6456 0.0000 14.7874
# 5 -24.8823 -17.4146 -9.3191 0.0000 35.9089 0.0000
# 6 0.0000 0.0000 0.0000 14.7874 0.0000 -13.5085
#
#
#
# Elastic Compliance Matrix: (Units=1/GPa)
#
#
# Indices 1 2 3 4 5 6 
#
# 1 0.014932 -0.005992 -0.003342 0.000000 0.006574 0.000000
# 2 -0.005992 0.017240 0.002560 0.000000 0.004873 0.000000
# 3 -0.003342 0.002560 0.010142 0.000000 0.001558 0.000000
# 4 0.000000 0.000000 0.000000 0.059408 0.000000 0.065032
# 5 0.006574 0.004873 0.001558 0.000000 0.035171 0.000000
# 6 0.000000 0.000000 0.000000 0.065032 0.000000 -0.002839
#
#
# Mechanical properties :
#
#
# Convention : Reuss Voigt Hill
#
# Bulk Modulus (GPa) = 34.76202 45.08471 39.92336
# Shear Modulus (GPa) = 31.80876 19.64128 25.72502
#
# Velocity S-wave (km/s) = 3.77231 2.96428 3.39244
# Velocity P-wave (km/s) = 5.87582 5.64673 5.76241
#
# Compressibility (1/GPa) = 0.02876703
#
# Stress axis : x y z
#
# Youngs Moduli (GPa) = 66.96949 58.00583 98.59927
#
# Poissons Ratio (x) = 0.34756 0.32948
# Poissons Ratio (y) = 0.40127 -0.25242
# Poissons Ratio (z) = 0.22379 -0.14850
#
# Static dielectric constant tensor:
#      x y z
#    x 1.858530 0.000000 0.031710 
#    y 0.000000 1.810020 0.000000 
#    z 0.031710 0.000000 1.974070 
# 
# From -- ./inp_files/50312.got.cif
#   From: 2010.05.17/outbox.cif.g08.bks.cpg/sg13_26_cif.got.tgz:50312.got - 2010.06.03 16:44:36.
