data_PCOD9231377
_publ_section_title
;
Structure prediction by ZEFSAII (Michael W. Deem and Ramdas Pophale) SiO2 
 PCOD9231377
Probable space group: P 2/C
;
_chemical_formula_sum "Si O2"
_cell_formula_units_Z 26
_cell_length_a 17.455430
_cell_length_b 7.023463
_cell_length_c 18.519356
_cell_angle_alpha 90.000000
_cell_angle_beta 147.378492
_cell_angle_gamma 90.000000
_cell_volume 1223.958191
_symmetry_space_group_name_H-M "P 2/C"
_symmetry_group_IT_number 13
_symmetry_cell_setting 'monoclinic'
loop_
_space_group_symop_operation_xyz
x,y,z
-x,y,1/2-z
-x,-y,-z
x,-y,1/2+z
loop_
_atom_site_type_symbol
_atom_site_label
_atom_site_fract_x
_atom_site_fract_y
_atom_site_fract_z
Si Si1 0.205480 0.813319 0.299513
Si Si2 0.182424 0.913328 0.437822
Si Si3 0.548200 0.749580 0.906814
Si Si4 0.795999 0.239160 0.945482
Si Si5 0.066676 0.360348 0.970465
Si Si6 0.240321 0.090163 0.200809
Si Si7 0.500000 0.570294 0.250000
O O1 0.353398 0.722051 0.443842
O O2 0.228651 0.002232 0.270919
O O3 0.099834 0.675366 0.173236
O O4 0.131847 0.870042 0.316833
O O5 0.144736 0.116736 0.440480
O O6 0.354515 0.895583 0.562785
O O7 0.142350 0.751100 0.463622
O O8 0.531241 0.564747 0.843756
O O9 0.396263 0.829775 0.807857
O O10 0.787535 0.087924 0.874242
O O11 0.638928 0.309913 0.841322
O O12 0.886209 0.423310 0.996835
O O13 0.127570 0.251481 0.088802
#
# Coordination Sequence:
#
# PCOD9231377 Si02
#       7
#     4   4   4   4   4   4   2
#     4  10  23  40  62  89 129 166 199 255 319 367
#     4   9  21  39  62  88 118 159 209 256 306 357
#     4  10  20  39  65  86 122 160 207 261 311 357
#     4  11  21  36  68  90 120 162 211 256 310 373
#     4  11  21  41  63  89 126 161 208 258 304 371
#     4  11  22  41  62  91 125 167 206 250 312 381
#     4  12  18  38  62  96 116 158 210 270 304 354
#
# _framework density 21.242553999999998
#
# number of rings (size 3 to 8) (size 9 to 14) (size 15 to 20)
#    0.923    0.615    3.077    3.231    0.000    0.615 
#    0.000   16.154    0.000    0.000    0.000    0.000 
#    0.000    0.000    0.000    0.000    0.000    0.000 
#
# Total GULP energy -145231.383993 kJ/mol
# GULP energy per Si atom -5585.822461 kJ/mol
# Density = 2.119420 g / cm^3
# Si number density = 21.242554 Si / 1000 Ang^3
#
#
#
# Elastic Constant Matrix: (Units=GPa)
#
#
# Indices 1 2 3 4 5 6 
#
# 1 69.4317 19.7466 13.8127 0.0000 -3.5128 0.0000
# 2 19.7466 109.5854 38.2638 0.0000 14.1006 0.0000
# 3 13.8127 38.2638 122.1084 0.0000 11.3456 0.0000
# 4 0.0000 0.0000 0.0000 9.1331 0.0000 -11.1151
# 5 -3.5128 14.1006 11.3456 0.0000 24.3277 0.0000
# 6 0.0000 0.0000 0.0000 -11.1151 0.0000 -18.1147
#
#
#
# Elastic Compliance Matrix: (Units=1/GPa)
#
#
# Indices 1 2 3 4 5 6 
#
# 1 0.015736 -0.002982 -0.001272 0.000000 0.004594 0.000000
# 2 -0.002982 0.011339 -0.002681 0.000000 -0.005752 0.000000
# 3 -0.001272 -0.002681 0.009456 0.000000 -0.003040 0.000000
# 4 0.000000 0.000000 0.000000 0.062683 0.000000 -0.038462
# 5 0.004594 -0.005752 -0.003040 0.000000 0.046520 0.000000
# 6 0.000000 0.000000 0.000000 -0.038462 0.000000 -0.031604
#
#
# Mechanical properties :
#
#
# Convention : Reuss Voigt Hill
#
# Bulk Modulus (GPa) = 44.13227 49.41906 46.77567
# Shear Modulus (GPa) = 36.88480 18.35604 27.62042
#
# Velocity S-wave (km/s) = 4.17149 2.94277 3.60980
# Velocity P-wave (km/s) = 6.63493 5.90434 6.28027
#
# Compressibility (1/GPa) = 0.02265915
#
# Stress axis : x y z
#
# Youngs Moduli (GPa) = 63.54678 88.18993 105.75270
#
# Poissons Ratio (x) = 0.26303 0.13456
# Poissons Ratio (y) = 0.18953 0.28356
# Poissons Ratio (z) = 0.08085 0.23647
#
# Static dielectric constant tensor:
#      x y z
#    x 1.790320 0.000000 0.009190 
#    y 0.000000 1.713630 0.000000 
#    z 0.009190 0.000000 1.812380 
# 
# From -- ./inp_files/81428.got.cif
#   From: 2010.05.17/outbox.cif.g08.bks.cpg/sg13_41_cif.got.tgz:81428.got - 2010.06.03 16:44:36.
