data_PCOD9231530
_publ_section_title
;
Structure prediction by ZEFSAII (Michael W. Deem and Ramdas Pophale) SiO2 
 PCOD9231530
Probable space group: P 2/C
;
_chemical_formula_sum "Si O2"
_cell_formula_units_Z 24
_cell_length_a 10.018986
_cell_length_b 11.652401
_cell_length_c 17.453391
_cell_angle_alpha 90.000000
_cell_angle_beta 25.919830
_cell_angle_gamma 90.000000
_cell_volume 890.661808
_symmetry_space_group_name_H-M "P 2/C"
_symmetry_group_IT_number 13
_symmetry_cell_setting 'monoclinic'
loop_
_space_group_symop_operation_xyz
x,y,z
-x,y,1/2-z
-x,-y,-z
x,-y,1/2+z
loop_
_atom_site_type_symbol
_atom_site_label
_atom_site_fract_x
_atom_site_fract_y
_atom_site_fract_z
Si Si1 0.337146 0.142073 0.540746
Si Si2 0.540279 0.439017 0.810680
Si Si3 0.500000 0.500000 0.500000
Si Si4 0.062650 0.749960 0.044509
Si Si5 0.469061 0.910254 0.134255
Si Si6 0.036771 0.764207 0.567146
Si Si7 0.000000 0.305213 0.250000
O O1 0.501521 0.161231 0.537169
O O2 0.000000 0.104375 0.750000
O O3 0.261345 0.240731 0.518843
O O4 0.494666 0.039641 0.412360
O O5 0.500000 0.503207 0.750000
O O6 0.546413 0.517630 0.881740
O O7 0.848954 0.362742 0.659651
O O8 0.269645 0.344240 0.942669
O O9 0.721068 0.393476 0.405693
O O10 0.838574 0.861033 0.170986
O O11 0.168953 0.759317 0.901772
O O12 0.745859 0.875388 0.045645
O O13 0.914777 0.761012 0.716015
#
# Coordination Sequence:
#
# PCOD9231530 Si02
#       7
#     4   4   2   4   4   4   2
#     4   9  18  30  50  82 116 149 200 244 288 339
#     4   8  16  34  59  82 114 150 190 242 302 366
#     4  10  20  40  62  92 116 156 200 248 312 378
#     4   9  17  34  55  82 110 155 202 240 295 353
#     4   9  17  31  52  79 115 156 191 244 290 343
#     4   9  18  34  58  79 109 151 193 237 299 358
#     4  10  22  40  64  90 116 150 202 246 312 378
#
# _framework density 26.946255000000001
#
# number of rings (size 3 to 8) (size 9 to 14) (size 15 to 20)
#    0.000    3.000    0.000    1.500    1.167    0.667 
#   10.500    7.500    0.000    0.000    0.000    0.000 
#    0.000    0.000    0.000    0.000    0.000    0.000 
#
# Total GULP energy -133615.009543 kJ/mol
# GULP energy per Si atom -5567.292064 kJ/mol
# Density = 2.688492 g / cm^3
# Si number density = 26.946255 Si / 1000 Ang^3
#
#
#
# Elastic Constant Matrix: (Units=GPa)
#
#
# Indices 1 2 3 4 5 6 
#
# 1 239.8562 49.8013 45.7814 0.0000 42.4778 0.0000
# 2 49.8013 95.7721 20.3101 0.0000 0.4984 0.0000
# 3 45.7814 20.3101 58.9873 0.0000 27.7842 0.0000
# 4 0.0000 0.0000 0.0000 25.7514 0.0000 3.2124
# 5 42.4778 0.4984 27.7842 0.0000 61.2925 0.0000
# 6 0.0000 0.0000 0.0000 3.2124 0.0000 36.0569
#
#
#
# Elastic Compliance Matrix: (Units=1/GPa)
#
#
# Indices 1 2 3 4 5 6 
#
# 1 0.005596 -0.002441 -0.002143 0.000000 -0.002887 0.000000
# 2 -0.002441 0.012549 -0.004037 0.000000 0.003419 0.000000
# 3 -0.002143 -0.004037 0.024528 0.000000 -0.009601 0.000000
# 4 0.000000 0.000000 0.000000 0.039269 0.000000 -0.003499
# 5 -0.002887 0.003419 -0.009601 0.000000 0.022640 0.000000
# 6 0.000000 0.000000 0.000000 -0.003499 0.000000 0.028046
#
#
# Mechanical properties :
#
#
# Convention : Reuss Voigt Hill
#
# Bulk Modulus (GPa) = 39.32119 69.60013 54.46066
# Shear Modulus (GPa) = 31.57604 43.20168 37.38886
#
# Velocity S-wave (km/s) = 3.42689 4.00841 3.72900
# Velocity P-wave (km/s) = 5.50293 6.87811 6.22859
#
# Compressibility (1/GPa) = 0.02543158
#
# Stress axis : x y z
#
# Youngs Moduli (GPa) = 178.69121 79.68836 40.76910
#
# Poissons Ratio (x) = 0.19448 0.08738
# Poissons Ratio (y) = 0.43610 0.16459
# Poissons Ratio (z) = 0.38298 0.32172
#
# Static dielectric constant tensor:
#      x y z
#    x 2.047820 0.000000 -0.037080 
#    y 0.000000 2.049360 0.000000 
#    z -0.037080 0.000000 2.283710 
# 
# From -- ./inp_files/40954.got.cif
#   From: 2010.05.17/outbox.cif.g08.bks.cpg/sg13_21_cif.got.tgz:40954.got - 2010.06.03 16:44:36.
