data_PCOD9231785
_publ_section_title
;
Structure prediction by ZEFSAII (Michael W. Deem and Ramdas Pophale) SiO2 
 PCOD9231785
Probable space group: P 2/C
;
_chemical_formula_sum "Si O2"
_cell_formula_units_Z 26
_cell_length_a 20.214223
_cell_length_b 9.373195
_cell_length_c 7.577336
_cell_angle_alpha 90.000000
_cell_angle_beta 134.763153
_cell_angle_gamma 90.000000
_cell_volume 1019.375334
_symmetry_space_group_name_H-M "P 2/C"
_symmetry_group_IT_number 13
_symmetry_cell_setting 'monoclinic'
loop_
_space_group_symop_operation_xyz
x,y,z
-x,y,1/2-z
-x,-y,-z
x,-y,1/2+z
loop_
_atom_site_type_symbol
_atom_site_label
_atom_site_fract_x
_atom_site_fract_y
_atom_site_fract_z
Si Si1 0.515626 0.244745 0.472867
Si Si2 0.959280 0.648553 0.490476
Si Si3 0.596630 0.059489 0.032148
Si Si4 0.209871 0.147075 0.182617
Si Si5 0.000000 0.137220 0.750000
Si Si6 0.695409 0.639287 0.372372
Si Si7 0.749774 0.667923 0.081207
O O1 0.414800 0.189802 0.350052
O O2 0.587242 0.334693 0.723396
O O3 0.573124 0.096448 0.557715
O O4 0.500000 0.309623 0.250000
O O5 0.852879 0.617740 0.329908
O O6 0.000000 0.700972 0.750000
O O7 0.000000 0.500000 0.500000
O O8 0.978828 0.763982 0.377730
O O9 0.695817 0.053175 0.123202
O O10 0.500000 0.092126 0.750000
O O11 0.231892 0.272477 0.367556
O O12 0.225000 0.211598 0.015286
O O13 0.105909 0.077334 0.993989
O O14 0.704382 0.691681 0.187087
O O15 0.708560 0.470549 0.407192
#
# Coordination Sequence:
#
# PCOD9231785 Si02
#       7
#     4   4   4   4   2   4   4
#     4  10  22  40  67  93 115 156 217 267 315 366
#     4  11  19  31  52  82 117 162 217 259 286 348
#     4  10  20  41  67  95 114 155 216 273 312 362
#     4  11  22  40  64  92 131 167 210 260 313 372
#     4  10  22  34  56  92 120 168 206 246 312 376
#     4  12  22  39  61  92 130 168 202 259 318 376
#     4  11  23  36  56  90 131 167 210 250 310 387
#
# _framework density 25.505815999999999
#
# number of rings (size 3 to 8) (size 9 to 14) (size 15 to 20)
#    0.000    1.231    3.846    3.692    0.000    0.000 
#    0.000    3.846    0.000    0.923    6.000    0.000 
#    0.000    0.000    0.000    0.000    0.000    0.000 
#
# Total GULP energy -145064.375670 kJ/mol
# GULP energy per Si atom -5579.399064 kJ/mol
# Density = 2.544776 g / cm^3
# Si number density = 25.505816 Si / 1000 Ang^3
#
#
#
# Elastic Constant Matrix: (Units=GPa)
#
#
# Indices 1 2 3 4 5 6 
#
# 1 119.3183 12.3965 44.7568 0.0000 14.8769 0.0000
# 2 12.3965 18.3191 -1.5749 0.0000 8.8363 0.0000
# 3 44.7568 -1.5749 115.9200 0.0000 24.5277 0.0000
# 4 0.0000 0.0000 0.0000 18.5513 0.0000 4.0427
# 5 14.8769 8.8363 24.5277 0.0000 78.2625 0.0000
# 6 0.0000 0.0000 0.0000 4.0427 0.0000 27.8111
#
#
#
# Elastic Compliance Matrix: (Units=1/GPa)
#
#
# Indices 1 2 3 4 5 6 
#
# 1 0.010779 -0.007748 -0.004304 0.000000 0.000175 0.000000
# 2 -0.007748 0.063889 0.005435 0.000000 -0.007444 0.000000
# 3 -0.004304 0.005435 0.011052 0.000000 -0.003259 0.000000
# 4 0.000000 0.000000 0.000000 0.055668 0.000000 -0.008092
# 5 0.000175 -0.007444 -0.003259 0.000000 0.014606 0.000000
# 6 0.000000 0.000000 0.000000 -0.008092 0.000000 0.037133
#
#
# Mechanical properties :
#
#
# Convention : Reuss Voigt Hill
#
# Bulk Modulus (GPa) = 13.79606 40.52378 27.15992
# Shear Modulus (GPa) = 21.68985 38.12359 29.90672
#
# Velocity S-wave (km/s) = 2.91931 3.87033 3.42796
# Velocity P-wave (km/s) = 4.09681 5.99126 5.13220
#
# Compressibility (1/GPa) = 0.07248448
#
# Stress axis : x y z
#
# Youngs Moduli (GPa) = 92.77698 15.65218 90.48295
#
# Poissons Ratio (x) = 0.12128 0.38942
# Poissons Ratio (y) = 0.71885 -0.49174
# Poissons Ratio (z) = 0.39930 -0.08506
#
# Static dielectric constant tensor:
#      x y z
#    x 1.959010 0.000000 -0.018640 
#    y 0.000000 2.131000 0.000000 
#    z -0.018640 0.000000 2.151130 
# 
# From -- ./inp_files/23403.got.cif
#   From: 2010.05.17/outbox.cif.g08.bks.cpg/sg13_12_cif.got.tgz:23403.got - 2010.06.03 16:44:36.
