data_PCOD9231964
_publ_section_title
;
Structure prediction by ZEFSAII (Michael W. Deem and Ramdas Pophale) SiO2 
 PCOD9231964
Probable space group: P 2/C
;
_chemical_formula_sum "Si O2"
_cell_formula_units_Z 24
_cell_length_a 13.259723
_cell_length_b 14.194680
_cell_length_c 20.995360
_cell_angle_alpha 90.000000
_cell_angle_beta 18.754690
_cell_angle_gamma 90.000000
_cell_volume 1270.536928
_symmetry_space_group_name_H-M "P 2/C"
_symmetry_group_IT_number 13
_symmetry_cell_setting 'monoclinic'
loop_
_space_group_symop_operation_xyz
x,y,z
-x,y,1/2-z
-x,-y,-z
x,-y,1/2+z
loop_
_atom_site_type_symbol
_atom_site_label
_atom_site_fract_x
_atom_site_fract_y
_atom_site_fract_z
Si Si1 0.800346 0.905607 0.024337
Si Si2 0.176801 0.730341 0.581669
Si Si3 0.473802 0.082840 0.188400
Si Si4 0.313257 0.594008 0.679432
Si Si5 0.733030 0.625733 0.309042
Si Si6 0.585628 0.705464 0.624233
O O1 0.500000 0.891270 0.250000
O O2 0.694782 0.993105 0.042278
O O3 0.841207 0.810110 0.960569
O O4 0.119995 0.927982 0.872513
O O5 0.520997 0.697758 0.395652
O O6 0.000000 0.767244 0.750000
O O7 0.993543 0.635473 0.671208
O O8 0.500000 0.086234 0.250000
O O9 0.587242 0.186105 0.100083
O O10 0.599200 0.623870 0.461366
O O11 0.308807 0.482145 0.688101
O O12 0.338738 0.646341 0.731010
O O13 0.085567 0.657458 0.088250
O O14 0.500000 0.702927 0.750000
#
# Coordination Sequence:
#
# PCOD9231964 Si02
#       6
#     4   4   4   4   4   4
#     4  11  22  39  65  85 117 158 199 242 293 360
#     4  10  22  38  59  89 120 150 199 250 294 344
#     4  10  22  38  61  90 118 153 199 239 294 362
#     4  10  20  43  59  88 115 161 208 235 291 354
#     4  10  22  37  67  82 118 165 200 240 286 358
#     4  11  23  37  59  92 124 148 197 250 296 347
#
# _framework density 18.889651000000001
#
# number of rings (size 3 to 8) (size 9 to 14) (size 15 to 20)
#    0.000    1.667    1.667    3.500    7.000    3.333 
#    0.000    4.167    0.000    0.000    0.000    0.000 
#    0.000    0.000    0.000    0.000    0.000    0.000 
#
# Total GULP energy -133845.950300 kJ/mol
# GULP energy per Si atom -5576.914596 kJ/mol
# Density = 1.884666 g / cm^3
# Si number density = 18.889651 Si / 1000 Ang^3
#
#
#
# Elastic Constant Matrix: (Units=GPa)
#
#
# Indices 1 2 3 4 5 6 
#
# 1 72.0946 36.6957 25.1048 0.0000 -19.5572 0.0000
# 2 36.6957 105.0151 19.3306 0.0000 -0.1251 0.0000
# 3 25.1048 19.3306 71.4821 0.0000 -22.0911 0.0000
# 4 0.0000 0.0000 0.0000 48.3473 0.0000 42.1816
# 5 -19.5572 -0.1251 -22.0911 0.0000 22.6068 0.0000
# 6 0.0000 0.0000 0.0000 42.1816 0.0000 97.3452
#
#
#
# Elastic Compliance Matrix: (Units=1/GPa)
#
#
# Indices 1 2 3 4 5 6 
#
# 1 0.023575 -0.008279 0.000355 0.000000 0.020696 0.000000
# 2 -0.008279 0.013151 -0.004068 0.000000 -0.011065 0.000000
# 3 0.000355 -0.004068 0.021566 0.000000 0.021358 0.000000
# 4 0.000000 0.000000 0.000000 0.033257 0.000000 -0.014411
# 5 0.020696 -0.011065 0.021358 0.000000 0.082949 0.000000
# 6 0.000000 0.000000 0.000000 -0.014411 0.000000 0.016517
#
#
# Mechanical properties :
#
#
# Convention : Reuss Voigt Hill
#
# Bulk Modulus (GPa) = 29.14779 45.65044 37.39912
# Shear Modulus (GPa) = 22.08153 44.82390 33.45272
#
# Velocity S-wave (km/s) = 3.42274 4.87656 4.21284
# Velocity P-wave (km/s) = 5.57532 7.47845 6.59589
#
# Compressibility (1/GPa) = 0.03430792
#
# Stress axis : x y z
#
# Youngs Moduli (GPa) = 42.41790 76.04018 46.36999
#
# Poissons Ratio (x) = 0.62950 -0.01646
# Poissons Ratio (y) = 0.35116 0.18865
# Poissons Ratio (z) = -0.01506 0.30936
#
# Static dielectric constant tensor:
#      x y z
#    x 1.666240 0.000000 -0.017690 
#    y 0.000000 1.663690 0.000000 
#    z -0.017690 0.000000 1.654680 
# 
# From -- ./inp_files/78708.got.cif
#   From: 2010.05.17/outbox.cif.g08.bks.cpg/sg13_40_cif.got.tgz:78708.got - 2010.06.03 16:44:36.
