data_PCOD9231051
_publ_section_title
;
Structure prediction by ZEFSAII (Michael W. Deem and Ramdas Pophale) SiO2 
 PCOD9231051
Probable space group: P 2/C
;
_chemical_formula_sum "Si O2"
_cell_formula_units_Z 32
_cell_length_a 23.720273
_cell_length_b 14.616697
_cell_length_c 9.499643
_cell_angle_alpha 90.000000
_cell_angle_beta 149.717460
_cell_angle_gamma 90.000000
_cell_volume 1660.866028
_symmetry_space_group_name_H-M "P 2/C"
_symmetry_group_IT_number 13
_symmetry_cell_setting 'monoclinic'
loop_
_space_group_symop_operation_xyz
x,y,z
-x,y,1/2-z
-x,-y,-z
x,-y,1/2+z
loop_
_atom_site_type_symbol
_atom_site_label
_atom_site_fract_x
_atom_site_fract_y
_atom_site_fract_z
Si Si1 0.621723 0.055948 0.029887
Si Si2 0.818085 0.657508 0.741407
Si Si3 0.382162 0.207942 0.719477
Si Si4 0.082793 0.535281 0.060363
Si Si5 0.161037 0.711850 0.396267
Si Si6 0.637318 0.193958 0.296370
Si Si7 0.252138 0.881057 0.193281
Si Si8 0.960538 0.227090 0.322296
O O1 0.500000 0.009282 0.750000
O O2 0.620062 0.143583 0.923438
O O3 0.630870 0.095363 0.206460
O O4 0.719849 0.985444 0.210914
O O5 0.695614 0.702561 0.462127
O O6 0.829752 0.547887 0.771816
O O7 0.891674 0.699054 0.770100
O O8 0.860077 0.690028 0.986049
O O9 0.326252 0.146268 0.719172
O O10 0.510590 0.228225 0.033656
O O11 0.137718 0.625741 0.243584
O O12 0.000000 0.547976 0.750000
O O13 0.000000 0.500000 0.000000
O O14 0.286286 0.743352 0.637732
O O15 0.073345 0.788299 0.153990
O O16 0.702349 0.181981 0.582189
O O17 0.124878 0.856104 0.884330
O O18 0.000000 0.254062 0.250000
#
# Coordination Sequence:
#
# PCOD9231051 Si02
#       8
#     4   4   4   4   4   4   4   4
#     4  10  20  38  63  89 119 161 212 254 295 359
#     4  11  23  41  65  90 124 154 203 253 304 359
#     4  10  22  39  64  91 121 164 201 250 308 362
#     4  12  23  37  63  93 118 152 207 252 296 363
#     4  12  23  40  63  91 123 160 201 249 304 367
#     4  11  22  38  64  91 122 162 204 246 307 364
#     4  11  22  36  61  91 126 156 207 261 298 345
#     4  11  22  38  60  88 123 163 200 248 301 361
#
# _framework density 19.267057999999999
#
# number of rings (size 3 to 8) (size 9 to 14) (size 15 to 20)
#    0.000    1.000    5.000    2.625    0.000    2.000 
#    0.000    1.250    2.750    0.000    0.000    0.000 
#    0.000    0.000    0.000    0.000    0.000    0.000 
#
# Total GULP energy -178540.367901 kJ/mol
# GULP energy per Si atom -5579.386497 kJ/mol
# Density = 1.922321 g / cm^3
# Si number density = 19.267058 Si / 1000 Ang^3
#
#
#
# Elastic Constant Matrix: (Units=GPa)
#
#
# Indices 1 2 3 4 5 6 
#
# 1 90.9128 3.0473 33.1204 0.0000 -2.0111 0.0000
# 2 3.0473 60.3241 30.4725 0.0000 16.2039 0.0000
# 3 33.1204 30.4725 80.1079 0.0000 8.9474 0.0000
# 4 0.0000 0.0000 0.0000 23.4551 0.0000 4.2249
# 5 -2.0111 16.2039 8.9474 0.0000 42.5028 0.0000
# 6 0.0000 0.0000 0.0000 4.2249 0.0000 20.7659
#
#
#
# Elastic Compliance Matrix: (Units=1/GPa)
#
#
# Indices 1 2 3 4 5 6 
#
# 1 0.013319 0.002317 -0.006513 0.000000 0.001118 0.000000
# 2 0.002317 0.022732 -0.008858 0.000000 -0.006692 0.000000
# 3 -0.006513 -0.008858 0.018641 0.000000 -0.000855 0.000000
# 4 0.000000 0.000000 0.000000 0.044257 0.000000 -0.009004
# 5 0.001118 -0.006692 -0.000855 0.000000 0.026312 0.000000
# 6 0.000000 0.000000 0.000000 -0.009004 0.000000 0.049988
#
#
# Mechanical properties :
#
#
# Convention : Reuss Voigt Hill
#
# Bulk Modulus (GPa) = 34.98357 40.51392 37.74875
# Shear Modulus (GPa) = 23.70965 28.32506 26.01735
#
# Velocity S-wave (km/s) = 3.51177 3.83839 3.67870
# Velocity P-wave (km/s) = 5.88557 6.38102 6.13830
#
# Compressibility (1/GPa) = 0.02858485
#
# Stress axis : x y z
#
# Youngs Moduli (GPa) = 75.07848 43.99074 53.64555
#
# Poissons Ratio (x) = -0.10192 0.34940
# Poissons Ratio (y) = -0.17395 0.47517
# Poissons Ratio (z) = 0.48899 0.38965
#
# Static dielectric constant tensor:
#      x y z
#    x 1.694180 0.000000 -0.007290 
#    y 0.000000 1.699170 0.000000 
#    z -0.007290 0.000000 1.681840 
# 
# From -- ./inp_files/16761.got.cif
#   From: 2010.05.17/outbox.cif.g08.bks.cpg/sg13_9_cif.got.tgz:16761.got - 2010.06.03 16:44:36.
