data_PCOD9231881
_publ_section_title
;
Structure prediction by ZEFSAII (Michael W. Deem and Ramdas Pophale) SiO2 
 PCOD9231881
Probable space group: P 2/C
;
_chemical_formula_sum "Si O2"
_cell_formula_units_Z 20
_cell_length_a 11.758234
_cell_length_b 9.411311
_cell_length_c 18.972640
_cell_angle_alpha 90.000000
_cell_angle_beta 156.889886
_cell_angle_gamma 90.000000
_cell_volume 824.060458
_symmetry_space_group_name_H-M "P 2/C"
_symmetry_group_IT_number 13
_symmetry_cell_setting 'monoclinic'
loop_
_space_group_symop_operation_xyz
x,y,z
-x,y,1/2-z
-x,-y,-z
x,-y,1/2+z
loop_
_atom_site_type_symbol
_atom_site_label
_atom_site_fract_x
_atom_site_fract_y
_atom_site_fract_z
Si Si1 0.104206 0.339546 0.198984
Si Si2 0.588735 0.469545 0.376876
Si Si3 0.818822 0.081017 0.956451
Si Si4 0.447545 0.830029 0.468382
Si Si5 0.115628 0.804282 0.424252
O O1 0.322440 0.434664 0.276334
O O2 0.269509 0.265656 0.358696
O O3 0.821964 0.434323 0.050235
O O4 0.001169 0.209343 0.091430
O O5 0.500000 0.529968 0.250000
O O6 0.753306 0.320298 0.454278
O O7 0.500000 0.123778 0.750000
O O8 0.787567 0.959513 0.997169
O O9 0.000000 0.000000 0.000000
O O10 0.264519 0.787732 0.433288
O O11 0.231949 0.798189 0.280904
O O12 0.500000 0.000000 0.500000
#
# Coordination Sequence:
#
# PCOD9231881 Si02
#       5
#     4   4   4   4   4
#     4  11  24  42  66  96 134 180 223 272 337 397
#     4  11  23  43  63  96 138 176 218 275 334 405
#     4  12  24  41  68 102 133 174 230 280 337 401
#     4  10  20  42  66  94 130 172 231 281 329 395
#     4  10  22  39  67  94 133 175 220 284 338 390
#
# _framework density 24.270064000000001
#
# number of rings (size 3 to 8) (size 9 to 14) (size 15 to 20)
#    0.000    1.200    2.000    5.400    0.000    2.400 
#    0.000    0.000    0.000    0.000    0.000    0.000 
#    0.000    0.000    0.000    0.000    0.000    0.000 
#
# Total GULP energy -111960.375425 kJ/mol
# GULP energy per Si atom -5598.018771 kJ/mol
# Density = 2.421482 g / cm^3
# Si number density = 24.270064 Si / 1000 Ang^3
#
#
#
# Elastic Constant Matrix: (Units=GPa)
#
#
# Indices 1 2 3 4 5 6 
#
# 1 38.0606 13.6752 27.7237 0.0000 9.2074 0.0000
# 2 13.6752 114.4578 59.6086 0.0000 9.6982 0.0000
# 3 27.7237 59.6086 178.5058 0.0000 2.3440 0.0000
# 4 0.0000 0.0000 0.0000 64.7703 0.0000 -0.2056
# 5 9.2074 9.6982 2.3440 0.0000 25.0062 0.0000
# 6 0.0000 0.0000 0.0000 -0.2056 0.0000 22.2738
#
#
#
# Elastic Compliance Matrix: (Units=1/GPa)
#
#
# Indices 1 2 3 4 5 6 
#
# 1 0.032673 -0.000451 -0.004774 0.000000 -0.011408 0.000000
# 2 -0.000451 0.010951 -0.003538 0.000000 -0.003749 0.000000
# 3 -0.004774 -0.003538 0.007493 0.000000 0.002427 0.000000
# 4 0.000000 0.000000 0.000000 0.015440 0.000000 0.000143
# 5 -0.011408 -0.003749 0.002427 0.000000 0.045417 0.000000
# 6 0.000000 0.000000 0.000000 0.000143 0.000000 0.044897
#
#
# Mechanical properties :
#
#
# Convention : Reuss Voigt Hill
#
# Bulk Modulus (GPa) = 29.76907 59.22659 44.49783
# Shear Modulus (GPa) = 26.94069 37.74451 32.34260
#
# Velocity S-wave (km/s) = 3.33534 3.94787 3.65446
# Velocity P-wave (km/s) = 5.20817 6.72584 6.01506
#
# Compressibility (1/GPa) = 0.03359191
#
# Stress axis : x y z
#
# Youngs Moduli (GPa) = 30.60618 91.31815 133.45885
#
# Poissons Ratio (x) = 0.04116 0.63715
# Poissons Ratio (y) = 0.01380 0.47212
# Poissons Ratio (z) = 0.14612 0.32304
#
# Static dielectric constant tensor:
#      x y z
#    x 2.165820 0.000000 0.003740 
#    y 0.000000 1.924600 0.000000 
#    z 0.003740 0.000000 1.986260 
# 
# From -- ./inp_files/38665.got.cif
#   From: 2010.05.17/outbox.cif.g08.bks.cpg/sg13_20_cif.got.tgz:38665.got - 2010.06.03 16:44:36.
