data_PCOD9231228
_publ_section_title
;
Structure prediction by ZEFSAII (Michael W. Deem and Ramdas Pophale) SiO2 
 PCOD9231228
Probable space group: P 2/C
;
_chemical_formula_sum "Si O2"
_cell_formula_units_Z 16
_cell_length_a 14.633149
_cell_length_b 8.337677
_cell_length_c 12.682654
_cell_angle_alpha 90.000000
_cell_angle_beta 24.785649
_cell_angle_gamma 90.000000
_cell_volume 648.693976
_symmetry_space_group_name_H-M "P 2/C"
_symmetry_group_IT_number 13
_symmetry_cell_setting 'monoclinic'
loop_
_space_group_symop_operation_xyz
x,y,z
-x,y,1/2-z
-x,-y,-z
x,-y,1/2+z
loop_
_atom_site_type_symbol
_atom_site_label
_atom_site_fract_x
_atom_site_fract_y
_atom_site_fract_z
Si Si1 0.367748 0.128346 0.240380
Si Si2 0.182661 0.720579 0.742719
Si Si3 0.500000 0.846908 0.250000
Si Si4 0.000000 0.689618 0.250000
Si Si5 0.238428 0.372910 0.709802
O O1 0.246637 0.134512 0.254890
O O2 0.197820 0.206600 0.498757
O O3 0.422446 0.959955 0.235667
O O4 0.577890 0.243120 0.007919
O O5 0.296288 0.750094 0.511775
O O6 0.294063 0.558346 0.673558
O O7 0.925406 0.693839 0.029176
O O8 0.096810 0.602833 0.250474
#
# Coordination Sequence:
#
# PCOD9231228 Si02
#       5
#     4   4   2   2   4
#     4  11  22  44  66  92 135 175 210 273 327 383
#     4  10  25  42  66  99 130 168 227 267 323 384
#     4  12  24  42  64 102 134 174 214 266 326 400
#     4  10  20  38  72  94 124 174 224 258 328 382
#     4  10  21  45  68  94 130 173 219 275 319 381
#
# _framework density 24.664943000000001
#
# number of rings (size 3 to 8) (size 9 to 14) (size 15 to 20)
#    0.000    1.500    2.500    1.500    3.500    1.000 
#    4.500    0.000    0.000    0.000    0.000    0.000 
#    0.000    0.000    0.000    0.000    0.000    0.000 
#
# Total GULP energy -89412.140501 kJ/mol
# GULP energy per Si atom -5588.258781 kJ/mol
# Density = 2.460880 g / cm^3
# Si number density = 24.664943 Si / 1000 Ang^3
#
#
#
# Elastic Constant Matrix: (Units=GPa)
#
#
# Indices 1 2 3 4 5 6 
#
# 1 43.1388 17.8016 19.8895 0.0000 14.7984 0.0000
# 2 17.8016 89.9808 82.4671 0.0000 8.9551 0.0000
# 3 19.8895 82.4671 244.3484 0.0000 46.4776 0.0000
# 4 0.0000 0.0000 0.0000 33.0544 0.0000 11.2622
# 5 14.7984 8.9551 46.4776 0.0000 38.7088 0.0000
# 6 0.0000 0.0000 0.0000 11.2622 0.0000 29.6484
#
#
#
# Elastic Compliance Matrix: (Units=1/GPa)
#
#
# Indices 1 2 3 4 5 6 
#
# 1 0.029053 -0.006503 0.002147 0.000000 -0.012180 0.000000
# 2 -0.006503 0.017949 -0.006754 0.000000 0.006443 0.000000
# 3 0.002147 -0.006754 0.007849 0.000000 -0.008682 0.000000
# 4 0.000000 0.000000 0.000000 0.034751 0.000000 -0.013200
# 5 -0.012180 0.006443 -0.008682 0.000000 0.039424 0.000000
# 6 0.000000 0.000000 0.000000 -0.013200 0.000000 0.038743
#
#
# Mechanical properties :
#
#
# Convention : Reuss Voigt Hill
#
# Bulk Modulus (GPa) = 30.64677 68.64272 49.64474
# Shear Modulus (GPa) = 24.89233 37.43631 31.16432
#
# Velocity S-wave (km/s) = 3.18027 3.90011 3.55844
# Velocity P-wave (km/s) = 5.09290 6.94058 6.08726
#
# Compressibility (1/GPa) = 0.03262987
#
# Stress axis : x y z
#
# Youngs Moduli (GPa) = 34.41989 55.71448 127.41128
#
# Poissons Ratio (x) = 0.36231 -0.27351
# Poissons Ratio (y) = 0.22383 0.86052
# Poissons Ratio (z) = -0.07389 0.37629
#
# Static dielectric constant tensor:
#      x y z
#    x 2.019150 0.000000 -0.034850 
#    y 0.000000 1.961340 0.000000 
#    z -0.034850 0.000000 1.943220 
# 
# From -- ./inp_files/43244.got.cif
#   From: 2010.05.17/outbox.cif.g08.bks.cpg/sg13_22_cif.got.tgz:43244.got - 2010.06.03 16:44:36.
