data_PCOD9231981
_publ_section_title
;
Structure prediction by ZEFSAII (Michael W. Deem and Ramdas Pophale) SiO2 
 PCOD9231981
Probable space group: P 2/C
;
_chemical_formula_sum "Si O2"
_cell_formula_units_Z 26
_cell_length_a 7.055314
_cell_length_b 7.667448
_cell_length_c 26.653892
_cell_angle_alpha 90.000000
_cell_angle_beta 62.162016
_cell_angle_gamma 90.000000
_cell_volume 1275.009712
_symmetry_space_group_name_H-M "P 2/C"
_symmetry_group_IT_number 13
_symmetry_cell_setting 'monoclinic'
loop_
_space_group_symop_operation_xyz
x,y,z
-x,y,1/2-z
-x,-y,-z
x,-y,1/2+z
loop_
_atom_site_type_symbol
_atom_site_label
_atom_site_fract_x
_atom_site_fract_y
_atom_site_fract_z
Si Si1 0.269629 0.862479 0.927672
Si Si2 0.251967 0.399418 0.266081
Si Si3 0.722128 0.027939 0.863409
Si Si4 0.564655 0.282255 0.796957
Si Si5 0.840779 0.511642 0.618485
Si Si6 0.063890 0.841471 0.062423
Si Si7 0.000000 0.881469 0.750000
O O1 0.204423 0.677564 0.910909
O O2 0.525801 0.892615 0.894484
O O3 0.138403 0.022831 0.917134
O O4 0.191465 0.862016 0.994801
O O5 0.500000 0.374310 0.250000
O O6 0.244706 0.584996 0.239840
O O7 0.102839 0.408843 0.333635
O O8 0.196415 0.244519 0.236626
O O9 0.627357 0.155654 0.832964
O O10 0.790020 0.106208 0.908275
O O11 0.942757 0.975784 0.808294
O O12 0.500000 0.205076 0.750000
O O13 0.372269 0.401367 0.841600
O O14 0.993552 0.360725 0.578181
#
# Coordination Sequence:
#
# PCOD9231981 Si02
#       7
#     4   4   4   4   4   4   2
#     4  11  24  47  67  92 140 170 229 275 337 392
#     4   9  21  40  59  91 127 163 213 264 321 398
#     4  12  25  41  65  99 136 171 224 275 336 400
#     4   9  21  39  66  89 134 171 205 268 334 388
#     4  10  20  43  69  91 128 177 217 272 333 390
#     4  11  25  43  69 100 125 182 222 281 328 401
#     4  12  26  34  66  98 124 172 214 260 336 388
#
# _framework density 20.392002000000002
#
# number of rings (size 3 to 8) (size 9 to 14) (size 15 to 20)
#    0.000    1.846    1.538    3.692    6.462    1.846 
#    2.769    0.769    0.000    0.000    0.000    0.000 
#    0.000    0.000    0.000    0.000    0.000    0.000 
#
# Total GULP energy -144914.621212 kJ/mol
# GULP energy per Si atom -5573.639277 kJ/mol
# Density = 2.034559 g / cm^3
# Si number density = 20.392002 Si / 1000 Ang^3
#
#
#
# Elastic Constant Matrix: (Units=GPa)
#
#
# Indices 1 2 3 4 5 6 
#
# 1 63.5442 34.4728 39.0028 0.0000 7.2965 0.0000
# 2 34.4728 77.7051 36.2115 0.0000 17.0472 0.0000
# 3 39.0028 36.2115 112.2372 0.0000 18.8678 0.0000
# 4 0.0000 0.0000 0.0000 26.5324 0.0000 5.1772
# 5 7.2965 17.0472 18.8678 0.0000 30.5498 0.0000
# 6 0.0000 0.0000 0.0000 5.1772 0.0000 29.6305
#
#
#
# Elastic Compliance Matrix: (Units=1/GPa)
#
#
# Indices 1 2 3 4 5 6 
#
# 1 0.023582 -0.008262 -0.005978 0.000000 0.002670 0.000000
# 2 -0.008262 0.019119 -0.002048 0.000000 -0.007430 0.000000
# 3 -0.005978 -0.002048 0.012515 0.000000 -0.005159 0.000000
# 4 0.000000 0.000000 0.000000 0.039020 0.000000 -0.006818
# 5 0.002670 -0.007430 -0.005159 0.000000 0.039428 0.000000
# 6 0.000000 0.000000 0.000000 -0.006818 0.000000 0.034940
#
#
# Mechanical properties :
#
#
# Convention : Reuss Voigt Hill
#
# Bulk Modulus (GPa) = 44.17014 52.54007 48.35510
# Shear Modulus (GPa) = 23.95472 26.92916 25.44194
#
# Velocity S-wave (km/s) = 3.43112 3.63791 3.53603
# Velocity P-wave (km/s) = 6.11591 6.59294 6.35890
#
# Compressibility (1/GPa) = 0.02263973
#
# Stress axis : x y z
#
# Youngs Moduli (GPa) = 42.40570 52.30400 79.90287
#
# Poissons Ratio (x) = 0.43212 0.47767
# Poissons Ratio (y) = 0.35034 0.16367
# Poissons Ratio (z) = 0.25350 0.10714
#
# Static dielectric constant tensor:
#      x y z
#    x 1.774670 0.000000 -0.001560 
#    y 0.000000 1.802260 0.000000 
#    z -0.001560 0.000000 1.753730 
# 
# From -- ./inp_files/95777.got.cif
#   From: 2010.05.17/outbox.cif.g08.bks.cpg/sg13_48_cif.got.tgz:95777.got - 2010.06.03 16:44:36.
