data_PCOD9231600
_publ_section_title
;
Structure prediction by ZEFSAII (Michael W. Deem and Ramdas Pophale) SiO2 
 PCOD9231600
Probable space group: P 2/C
;
_chemical_formula_sum "Si O2"
_cell_formula_units_Z 30
_cell_length_a 11.588305
_cell_length_b 8.030569
_cell_length_c 27.321096
_cell_angle_alpha 90.000000
_cell_angle_beta 148.394310
_cell_angle_gamma 90.000000
_cell_volume 1332.459619
_symmetry_space_group_name_H-M "P 2/C"
_symmetry_group_IT_number 13
_symmetry_cell_setting 'monoclinic'
loop_
_space_group_symop_operation_xyz
x,y,z
-x,y,1/2-z
-x,-y,-z
x,-y,1/2+z
loop_
_atom_site_type_symbol
_atom_site_label
_atom_site_fract_x
_atom_site_fract_y
_atom_site_fract_z
Si Si1 0.780219 0.853136 0.255939
Si Si2 0.919930 0.577542 0.086462
Si Si3 0.716625 0.548880 0.849765
Si Si4 0.024775 0.339050 0.206839
Si Si5 0.000000 0.023507 0.250000
Si Si6 0.861353 0.910059 0.875620
Si Si7 0.550844 0.305547 0.389090
Si Si8 0.312412 0.068806 0.590016
O O1 0.522287 0.812342 0.165477
O O2 0.942851 0.709844 0.332062
O O3 0.824867 0.001740 0.311004
O O4 0.833672 0.912819 0.220522
O O5 0.918417 0.418078 0.120919
O O6 0.068701 0.546406 0.091567
O O7 0.680739 0.639719 0.984502
O O8 0.500000 0.463573 0.750000
O O9 0.740531 0.733595 0.834591
O O10 0.662059 0.586768 0.885984
O O11 0.000000 0.434534 0.250000
O O12 0.915134 0.159577 0.179789
O O13 0.288379 0.325186 0.294846
O O14 0.770058 0.034906 0.884589
O O15 0.111025 0.877397 0.983189
O O16 0.608493 0.112724 0.399899
#
# Coordination Sequence:
#
# PCOD9231600 Si02
#       8
#     4   4   4   4   2   4   4   4
#     4  12  23  42  66  95 132 170 226 283 328 381
#     4  12  26  40  67 102 134 171 221 287 335 405
#     4  11  22  41  68  96 140 182 214 262 346 416
#     4  10  23  46  69  91 132 181 226 269 340 398
#     4  10  24  44  74  86 124 186 232 270 326 400
#     4  10  21  38  65  94 126 176 218 264 332 401
#     4  11  21  45  68  99 138 176 222 275 335 408
#     4  10  20  40  65  97 130 172 216 278 329 399
#
# _framework density 22.514752999999999
#
# number of rings (size 3 to 8) (size 9 to 14) (size 15 to 20)
#    0.400    0.800    4.000    3.200    0.933    2.667 
#    0.000    2.667    0.000    0.000    0.000    0.000 
#    0.000    0.000    0.000    0.000    0.000    0.000 
#
# Total GULP energy -167663.763476 kJ/mol
# GULP energy per Si atom -5588.792116 kJ/mol
# Density = 2.246351 g / cm^3
# Si number density = 22.514753 Si / 1000 Ang^3
#
#
#
# Elastic Constant Matrix: (Units=GPa)
#
#
# Indices 1 2 3 4 5 6 
#
# 1 112.6639 18.2763 28.6298 0.0000 -2.8570 0.0000
# 2 18.2763 50.8281 13.5718 0.0000 -0.4733 0.0000
# 3 28.6298 13.5718 75.8831 0.0000 -2.0185 0.0000
# 4 0.0000 0.0000 0.0000 -0.0911 0.0000 22.9876
# 5 -2.8570 -0.4733 -2.0185 0.0000 6.0597 0.0000
# 6 0.0000 0.0000 0.0000 22.9876 0.0000 -4.5619
#
#
#
# Elastic Compliance Matrix: (Units=1/GPa)
#
#
# Indices 1 2 3 4 5 6 
#
# 1 0.010248 -0.002777 -0.003276 0.000000 0.003524 0.000000
# 2 -0.002777 0.021414 -0.002797 0.000000 -0.000569 0.000000
# 3 -0.003276 -0.002797 0.015001 0.000000 0.003234 0.000000
# 4 0.000000 0.000000 0.000000 0.008640 0.000000 0.043536
# 5 0.003524 -0.000569 0.003234 0.000000 0.167718 0.000000
# 6 0.000000 0.000000 0.000000 0.043536 0.000000 0.000173
#
#
# Mechanical properties :
#
#
# Convention : Reuss Voigt Hill
#
# Bulk Modulus (GPa) = 34.52831 40.03678 37.28255
# Shear Modulus (GPa) = 19.95617 12.20782 16.08200
#
# Velocity S-wave (km/s) = 2.98041 2.33108 2.67551
# Velocity P-wave (km/s) = 5.21660 5.00662 5.11269
#
# Compressibility (1/GPa) = 0.02896174
#
# Stress axis : x y z
#
# Youngs Moduli (GPa) = 97.57634 46.69746 66.66436
#
# Poissons Ratio (x) = 0.12970 0.21840
# Poissons Ratio (y) = 0.27101 0.18648
# Poissons Ratio (z) = 0.31967 0.13062
#
# Static dielectric constant tensor:
#      x y z
#    x 1.861070 0.000000 -0.001520 
#    y 0.000000 1.880730 0.000000 
#    z -0.001520 0.000000 1.799650 
# 
# From -- ./inp_files/96632.got.cif
#   From: 2010.05.17/outbox.cif.g08.bks.cpg/sg13_49_cif.got.tgz:96632.got - 2010.06.03 16:44:36.
