data_PCOD9231812
_publ_section_title
;
Structure prediction by ZEFSAII (Michael W. Deem and Ramdas Pophale) SiO2 
 PCOD9231812
Probable space group: P 2/C
;
_chemical_formula_sum "Si O2"
_cell_formula_units_Z 26
_cell_length_a 16.804801
_cell_length_b 5.327030
_cell_length_c 14.106022
_cell_angle_alpha 90.000000
_cell_angle_beta 120.237462
_cell_angle_gamma 90.000000
_cell_volume 1090.961773
_symmetry_space_group_name_H-M "P 2/C"
_symmetry_group_IT_number 13
_symmetry_cell_setting 'monoclinic'
loop_
_space_group_symop_operation_xyz
x,y,z
-x,y,1/2-z
-x,-y,-z
x,-y,1/2+z
loop_
_atom_site_type_symbol
_atom_site_label
_atom_site_fract_x
_atom_site_fract_y
_atom_site_fract_z
Si Si1 0.652112 0.260255 0.937559
Si Si2 0.044000 0.249230 0.569785
Si Si3 0.525105 0.751623 0.074103
Si Si4 0.000000 0.919281 0.250000
Si Si5 0.814129 0.890655 0.066178
Si Si6 0.282508 0.446909 0.840710
Si Si7 0.787056 0.479691 0.388837
O O1 0.676922 0.373600 0.055045
O O2 0.720771 0.025296 0.976172
O O3 0.542897 0.230228 0.876730
O O4 0.692309 0.445599 0.883316
O O5 0.031262 0.234963 0.675582
O O6 0.149400 0.279131 0.596827
O O7 0.000000 0.500000 0.500000
O O8 0.000000 0.000000 0.500000
O O9 0.634519 0.721340 0.152822
O O10 0.500000 0.500000 0.000000
O O11 0.500000 0.000000 0.000000
O O12 0.905014 0.047010 0.153614
O O13 0.784928 0.730171 0.140316
O O14 0.836248 0.703569 0.992484
O O15 0.235865 0.610728 0.730359
#
# Coordination Sequence:
#
# PCOD9231812 Si02
#       7
#     4   4   4   2   4   4   4
#     4  10  23  41  68  99 139 184 236 290 359 436
#     4  12  27  47  70 104 141 187 246 301 358 434
#     4  10  20  41  71 101 136 181 233 287 347 428
#     4  12  24  44  72 102 144 200 248 300 378 428
#     4  11  22  42  65  98 137 187 238 299 358 435
#     4  10  22  41  68  97 134 186 233 292 362 420
#     4  11  24  42  66 101 143 179 238 300 362 428
#
# _framework density 23.832183000000001
#
# number of rings (size 3 to 8) (size 9 to 14) (size 15 to 20)
#    0.000    1.231    4.615    0.923    0.000    3.692 
#    0.000    0.000    0.000    0.000    0.000    0.000 
#    0.000    0.000    0.000    0.000    0.000    0.000 
#
# Total GULP energy -145034.348167 kJ/mol
# GULP energy per Si atom -5578.244160 kJ/mol
# Density = 2.377794 g / cm^3
# Si number density = 23.832183 Si / 1000 Ang^3
#
#
#
# Elastic Constant Matrix: (Units=GPa)
#
#
# Indices 1 2 3 4 5 6 
#
# 1 140.3048 23.9281 27.5177 0.0000 -12.6162 0.0000
# 2 23.9281 79.5934 18.2515 0.0000 -5.0455 0.0000
# 3 27.5177 18.2515 114.2724 0.0000 -19.7445 0.0000
# 4 0.0000 0.0000 0.0000 2.2945 0.0000 4.1304
# 5 -12.6162 -5.0455 -19.7445 0.0000 32.7338 0.0000
# 6 0.0000 0.0000 0.0000 4.1304 0.0000 37.4059
#
#
#
# Elastic Compliance Matrix: (Units=1/GPa)
#
#
# Indices 1 2 3 4 5 6 
#
# 1 0.007884 -0.001959 -0.001242 0.000000 0.001987 0.000000
# 2 -0.001959 0.013549 -0.001632 0.000000 0.000349 0.000000
# 3 -0.001242 -0.001632 0.010253 0.000000 0.005454 0.000000
# 4 0.000000 0.000000 0.000000 0.543945 0.000000 -0.060063
# 5 0.001987 0.000349 0.005454 0.000000 0.034659 0.000000
# 6 0.000000 0.000000 0.000000 -0.060063 0.000000 0.033366
#
#
# Mechanical properties :
#
#
# Convention : Reuss Voigt Hill
#
# Bulk Modulus (GPa) = 45.41454 52.61835 49.01645
# Shear Modulus (GPa) = 7.56815 32.11840 19.84328
#
# Velocity S-wave (km/s) = 1.78396 3.67507 2.88866
# Velocity P-wave (km/s) = 4.83122 6.33521 5.63363
#
# Compressibility (1/GPa) = 0.02201938
#
# Stress axis : x y z
#
# Youngs Moduli (GPa) = 126.84226 73.80505 97.53034
#
# Poissons Ratio (x) = 0.14460 0.12115
# Poissons Ratio (y) = 0.24852 0.15917
# Poissons Ratio (z) = 0.15756 0.12045
#
# Static dielectric constant tensor:
#      x y z
#    x 2.088870 0.000000 0.096710 
#    y 0.000000 1.907280 0.000000 
#    z 0.096710 0.000000 1.927510 
# 
# From -- ./inp_files/54523.got.cif
#   From: 2010.05.17/outbox.cif.g08.bks.cpg/sg13_28_cif.got.tgz:54523.got - 2010.06.03 16:44:36.
