data_PCOD9231670
_publ_section_title
;
Structure prediction by ZEFSAII (Michael W. Deem and Ramdas Pophale) SiO2 
 PCOD9231670
Probable space group: P 2/C
;
_chemical_formula_sum "Si O2"
_cell_formula_units_Z 18
_cell_length_a 8.047931
_cell_length_b 7.855298
_cell_length_c 20.372937
_cell_angle_alpha 90.000000
_cell_angle_beta 145.094146
_cell_angle_gamma 90.000000
_cell_volume 737.005826
_symmetry_space_group_name_H-M "P 2/C"
_symmetry_group_IT_number 13
_symmetry_cell_setting 'monoclinic'
loop_
_space_group_symop_operation_xyz
x,y,z
-x,y,1/2-z
-x,-y,-z
x,-y,1/2+z
loop_
_atom_site_type_symbol
_atom_site_label
_atom_site_fract_x
_atom_site_fract_y
_atom_site_fract_z
Si Si1 0.671011 0.175473 0.056275
Si Si2 0.809319 0.811235 0.874669
Si Si3 0.110628 0.308605 0.850816
Si Si4 0.000000 0.366014 0.250000
Si Si5 0.195561 0.204169 0.620209
O O1 0.972421 0.168847 0.115994
O O2 0.732629 0.244941 0.148749
O O3 0.454564 0.311443 0.953924
O O4 0.500000 0.000000 0.000000
O O5 0.500000 0.736937 0.750000
O O6 0.739958 0.005690 0.875566
O O7 0.011980 0.729255 0.997738
O O8 0.000000 0.211753 0.750000
O O9 0.979287 0.497443 0.802060
O O10 0.019699 0.223925 0.888190
O O11 0.500000 0.273699 0.750000
#
# Coordination Sequence:
#
# PCOD9231670 Si02
#       5
#     4   4   4   2   4
#     4  12  24  43  74 105 132 191 247 292 353 431
#     4  10  23  39  66 109 146 174 242 308 353 412
#     4  10  23  44  68  98 145 189 232 291 359 429
#     4  10  28  42  70 100 152 176 244 300 364 424
#     4  10  20  40  68  99 142 191 234 298 362 421
#
# _framework density 24.423145999999999
#
# number of rings (size 3 to 8) (size 9 to 14) (size 15 to 20)
#    0.667    0.889    2.222    2.000    4.667    1.778 
#    0.000    2.222    0.000    0.000    0.000    0.000 
#    0.000    0.000    0.000    0.000    0.000    0.000 
#
# Total GULP energy -100299.635718 kJ/mol
# GULP energy per Si atom -5572.201984 kJ/mol
# Density = 2.436756 g / cm^3
# Si number density = 24.423146 Si / 1000 Ang^3
#
#
#
# Elastic Constant Matrix: (Units=GPa)
#
#
# Indices 1 2 3 4 5 6 
#
# 1 89.3246 10.2108 51.8679 0.0000 13.7049 0.0000
# 2 10.2108 76.2440 29.1193 0.0000 -6.1607 0.0000
# 3 51.8679 29.1193 238.8884 0.0000 7.8156 0.0000
# 4 0.0000 0.0000 0.0000 22.7675 0.0000 -0.9748
# 5 13.7049 -6.1607 7.8156 0.0000 44.9059 0.0000
# 6 0.0000 0.0000 0.0000 -0.9748 0.0000 7.4183
#
#
#
# Elastic Compliance Matrix: (Units=1/GPa)
#
#
# Indices 1 2 3 4 5 6 
#
# 1 0.013447 -0.001090 -0.002663 0.000000 -0.003790 0.000000
# 2 -0.001090 0.014062 -0.001560 0.000000 0.002534 0.000000
# 3 -0.002663 -0.001560 0.004963 0.000000 -0.000265 0.000000
# 4 0.000000 0.000000 0.000000 0.044171 0.000000 0.005804
# 5 -0.003790 0.002534 -0.000265 0.000000 0.023819 0.000000
# 6 0.000000 0.000000 0.000000 0.005804 0.000000 0.135564
#
#
# Mechanical properties :
#
#
# Convention : Reuss Voigt Hill
#
# Bulk Modulus (GPa) = 45.77437 65.20589 55.49013
# Shear Modulus (GPa) = 19.69004 35.90227 27.79616
#
# Velocity S-wave (km/s) = 2.84245 3.83823 3.37724
# Velocity P-wave (km/s) = 5.43651 6.81168 6.16258
#
# Compressibility (1/GPa) = 0.02184629
#
# Stress axis : x y z
#
# Youngs Moduli (GPa) = 74.36329 71.11155 201.48739
#
# Poissons Ratio (x) = 0.07752 0.53653
# Poissons Ratio (y) = 0.08107 0.31439
# Poissons Ratio (z) = 0.19802 0.11096
#
# Static dielectric constant tensor:
#      x y z
#    x 1.965430 0.000000 -0.023830 
#    y 0.000000 2.021460 0.000000 
#    z -0.023830 0.000000 2.090110 
# 
# From -- ./inp_files/27748.got.cif
#   From: 2010.05.17/outbox.cif.g08.bks.cpg/sg13_14_cif.got.tgz:27748.got - 2010.06.03 16:44:36.
