data_PCOD9231174
_publ_section_title
;
Structure prediction by ZEFSAII (Michael W. Deem and Ramdas Pophale) SiO2 
 PCOD9231174
Probable space group: P 2/C
;
_chemical_formula_sum "Si O2"
_cell_formula_units_Z 16
_cell_length_a 11.414345
_cell_length_b 9.110956
_cell_length_c 10.614659
_cell_angle_alpha 90.000000
_cell_angle_beta 138.809104
_cell_angle_gamma 90.000000
_cell_volume 726.980675
_symmetry_space_group_name_H-M "P 2/C"
_symmetry_group_IT_number 13
_symmetry_cell_setting 'monoclinic'
loop_
_space_group_symop_operation_xyz
x,y,z
-x,y,1/2-z
-x,-y,-z
x,-y,1/2+z
loop_
_atom_site_type_symbol
_atom_site_label
_atom_site_fract_x
_atom_site_fract_y
_atom_site_fract_z
Si Si1 0.276632 0.272736 0.139643
Si Si2 0.453166 0.765157 0.415169
Si Si3 0.500000 0.519296 0.250000
Si Si4 0.055694 0.877066 0.149832
Si Si5 0.500000 0.003222 0.250000
O O1 0.400770 0.278205 0.363142
O O2 0.337305 0.405527 0.099567
O O3 0.337872 0.113907 0.137662
O O4 0.068255 0.261922 0.986934
O O5 0.441796 0.624771 0.315475
O O6 0.260543 0.825116 0.303300
O O7 0.528341 0.898798 0.391599
O O8 0.000000 0.916130 0.250000
O O9 0.000000 0.000000 0.000000
#
# Coordination Sequence:
#
# PCOD9231174 Si02
#       5
#     4   4   2   4   2
#     4  11  23  42  68  97 136 179 221 277 341 396
#     4  11  24  43  67  99 137 177 229 276 339 404
#     4  10  24  44  68  98 132 186 226 276 338 402
#     4  12  27  42  69 105 137 176 227 282 341 404
#     4  10  20  38  66  96 130 174 224 276 330 398
#
# _framework density 22.008835999999999
#
# number of rings (size 3 to 8) (size 9 to 14) (size 15 to 20)
#    0.000    1.000    2.500    4.500    3.500    1.000 
#    0.000    2.500    0.000    0.000    0.000    0.000 
#    0.000    0.000    0.000    0.000    0.000    0.000 
#
# Total GULP energy -89275.451894 kJ/mol
# GULP energy per Si atom -5579.715743 kJ/mol
# Density = 2.195874 g / cm^3
# Si number density = 22.008836 Si / 1000 Ang^3
#
#
#
# Elastic Constant Matrix: (Units=GPa)
#
#
# Indices 1 2 3 4 5 6 
#
# 1 104.0557 35.5200 35.8109 0.0000 -17.9386 0.0000
# 2 35.5200 120.0036 9.1765 0.0000 -12.4244 0.0000
# 3 35.8109 9.1765 94.3188 0.0000 -13.7568 0.0000
# 4 0.0000 0.0000 0.0000 4.4242 0.0000 -2.8289
# 5 -17.9386 -12.4244 -13.7568 0.0000 28.9053 0.0000
# 6 0.0000 0.0000 0.0000 -2.8289 0.0000 44.1205
#
#
#
# Elastic Compliance Matrix: (Units=1/GPa)
#
#
# Indices 1 2 3 4 5 6 
#
# 1 0.012791 -0.002992 -0.003863 0.000000 0.004813 0.000000
# 2 -0.002992 0.009430 0.000579 0.000000 0.002472 0.000000
# 3 -0.003863 0.000579 0.012572 0.000000 0.003835 0.000000
# 4 0.000000 0.000000 0.000000 0.235690 0.000000 0.015112
# 5 0.004813 0.002472 0.003835 0.000000 0.040471 0.000000
# 6 0.000000 0.000000 0.000000 0.015112 0.000000 0.023634
#
#
# Mechanical properties :
#
#
# Convention : Reuss Voigt Hill
#
# Bulk Modulus (GPa) = 44.96257 53.26587 49.11422
# Shear Modulus (GPa) = 14.10218 31.34806 22.72512
#
# Velocity S-wave (km/s) = 2.53405 3.77814 3.21681
# Velocity P-wave (km/s) = 5.38847 6.57929 6.01343
#
# Compressibility (1/GPa) = 0.02224072
#
# Stress axis : x y z
#
# Youngs Moduli (GPa) = 78.17995 106.03977 79.54103
#
# Poissons Ratio (x) = 0.31730 0.30729
# Poissons Ratio (y) = 0.23393 -0.04607
# Poissons Ratio (z) = 0.30203 -0.06141
#
# Static dielectric constant tensor:
#      x y z
#    x 1.926740 0.000000 -0.022130 
#    y 0.000000 1.785550 0.000000 
#    z -0.022130 0.000000 1.889660 
# 
# From -- ./inp_files/27383.got.cif
#   From: 2010.05.17/outbox.cif.g08.bks.cpg/sg13_14_cif.got.tgz:27383.got - 2010.06.03 16:44:36.
