data_PCOD9231272
_publ_section_title
;
Structure prediction by ZEFSAII (Michael W. Deem and Ramdas Pophale) SiO2 
 PCOD9231272
Probable space group: P 2/C
;
_chemical_formula_sum "Si O2"
_cell_formula_units_Z 24
_cell_length_a 22.486628
_cell_length_b 7.437650
_cell_length_c 9.142027
_cell_angle_alpha 90.000000
_cell_angle_beta 46.718584
_cell_angle_gamma 90.000000
_cell_volume 1113.092017
_symmetry_space_group_name_H-M "P 2/C"
_symmetry_group_IT_number 13
_symmetry_cell_setting 'monoclinic'
loop_
_space_group_symop_operation_xyz
x,y,z
-x,y,1/2-z
-x,-y,-z
x,-y,1/2+z
loop_
_atom_site_type_symbol
_atom_site_label
_atom_site_fract_x
_atom_site_fract_y
_atom_site_fract_z
Si Si1 0.545141 0.230278 0.519584
Si Si2 0.162652 0.392953 0.356968
Si Si3 0.256123 0.235205 0.674506
Si Si4 0.942447 0.574471 0.726730
Si Si5 0.724726 0.105399 0.184489
Si Si6 0.569065 0.637506 0.513187
O O1 0.500000 0.210259 0.750000
O O2 0.626762 0.113858 0.371847
O O3 0.577904 0.435524 0.436013
O O4 0.470719 0.220592 0.530956
O O5 0.197031 0.594317 0.276443
O O6 0.100061 0.421542 0.599406
O O7 0.125004 0.332914 0.263922
O O8 0.233584 0.260758 0.288787
O O9 0.257024 0.145772 0.514343
O O10 0.346529 0.304881 0.559896
O O11 0.239019 0.082704 0.822562
O O12 0.000000 0.674060 0.750000
O O13 0.000000 0.500000 0.500000
O O14 0.500000 0.618369 0.750000
#
# Coordination Sequence:
#
# PCOD9231272 Si02
#       6
#     4   4   4   4   4   4
#     4  10  22  37  63  88 122 175 226 281 333 379
#     4  11  22  44  73  95 139 172 209 272 324 385
#     4  12  27  41  65  97 133 178 227 271 330 387
#     4   9  20  40  74 108 125 170 216 251 322 402
#     4  12  27  42  63  99 132 177 227 270 331 390
#     4  10  20  39  61  85 125 174 228 277 329 380
#
# _framework density 21.561561000000001
#
# number of rings (size 3 to 8) (size 9 to 14) (size 15 to 20)
#    0.000    1.333    5.000    0.000    4.667    1.333 
#    0.000    0.000    0.000   20.000    0.000    0.000 
#    0.000    0.000    0.000    0.000    0.000    0.000 
#
# Total GULP energy -133958.015615 kJ/mol
# GULP energy per Si atom -5581.583984 kJ/mol
# Density = 2.151249 g / cm^3
# Si number density = 21.561561 Si / 1000 Ang^3
#
#
#
# Elastic Constant Matrix: (Units=GPa)
#
#
# Indices 1 2 3 4 5 6 
#
# 1 167.5627 34.3557 37.4952 0.0000 21.2045 0.0000
# 2 34.3557 74.3881 23.5812 0.0000 -3.5345 0.0000
# 3 37.4952 23.5812 84.9590 0.0000 8.2063 0.0000
# 4 0.0000 0.0000 0.0000 21.8137 0.0000 9.6598
# 5 21.2045 -3.5345 8.2063 0.0000 29.4511 0.0000
# 6 0.0000 0.0000 0.0000 9.6598 0.0000 13.4833
#
#
#
# Elastic Compliance Matrix: (Units=1/GPa)
#
#
# Indices 1 2 3 4 5 6 
#
# 1 0.007760 -0.003203 -0.002013 0.000000 -0.005410 0.000000
# 2 -0.003203 0.016322 -0.003627 0.000000 0.005275 0.000000
# 3 -0.002013 -0.003627 0.013943 0.000000 -0.002871 0.000000
# 4 0.000000 0.000000 0.000000 0.067145 0.000000 -0.048104
# 5 -0.005410 0.005275 -0.002871 0.000000 0.039283 0.000000
# 6 0.000000 0.000000 0.000000 -0.048104 0.000000 0.108629
#
#
# Mechanical properties :
#
#
# Convention : Reuss Voigt Hill
#
# Bulk Modulus (GPa) = 49.16373 57.53045 53.34709
# Shear Modulus (GPa) = 18.01504 28.38146 23.19825
#
# Velocity S-wave (km/s) = 2.89367 3.63202 3.28366
# Velocity P-wave (km/s) = 5.83228 6.65797 6.25876
#
# Compressibility (1/GPa) = 0.02034020
#
# Stress axis : x y z
#
# Youngs Moduli (GPa) = 128.87104 61.26540 71.72210
#
# Poissons Ratio (x) = 0.19621 0.14438
# Poissons Ratio (y) = 0.41273 0.26010
# Poissons Ratio (z) = 0.25943 0.22218
#
# Static dielectric constant tensor:
#      x y z
#    x 1.934200 0.000000 0.080090 
#    y 0.000000 1.807650 0.000000 
#    z 0.080090 0.000000 1.850090 
# 
# From -- ./inp_files/22703.got.cif
#   From: 2010.05.17/outbox.cif.g08.bks.cpg/sg13_12_cif.got.tgz:22703.got - 2010.06.03 16:44:36.
