data_PCOD9231682
_publ_section_title
;
Structure prediction by ZEFSAII (Michael W. Deem and Ramdas Pophale) SiO2 
 PCOD9231682
Probable space group: P 2/C
;
_chemical_formula_sum "Si O2"
_cell_formula_units_Z 28
_cell_length_a 26.133726
_cell_length_b 8.582733
_cell_length_c 8.368529
_cell_angle_alpha 90.000000
_cell_angle_beta 136.424949
_cell_angle_gamma 90.000000
_cell_volume 1293.858997
_symmetry_space_group_name_H-M "P 2/C"
_symmetry_group_IT_number 13
_symmetry_cell_setting 'monoclinic'
loop_
_space_group_symop_operation_xyz
x,y,z
-x,y,1/2-z
-x,-y,-z
x,-y,1/2+z
loop_
_atom_site_type_symbol
_atom_site_label
_atom_site_fract_x
_atom_site_fract_y
_atom_site_fract_z
Si Si1 0.968440 0.661075 0.499539
Si Si2 0.805949 0.643013 0.034988
Si Si3 0.162382 0.868966 0.670524
Si Si4 0.500000 0.998575 0.750000
Si Si5 0.395830 0.137011 0.758154
Si Si6 0.000000 0.134695 0.750000
Si Si7 0.281580 0.125295 0.954294
Si Si8 0.267538 0.692872 0.116202
O O1 0.879676 0.639483 0.310282
O O2 0.000000 0.693767 0.750000
O O3 0.000000 0.500000 0.500000
O O4 0.986561 0.777617 0.391715
O O5 0.752140 0.772727 0.982648
O O6 0.833282 0.714097 0.929247
O O7 0.763495 0.480123 0.935006
O O8 0.080117 0.939456 0.469460
O O9 0.219875 0.002461 0.755249
O O10 0.195918 0.799640 0.909524
O O11 0.458897 0.883649 0.533752
O O12 0.439439 0.112655 0.692768
O O13 0.334556 0.273397 0.641847
O O14 0.347763 0.979702 0.663882
O O15 0.300661 0.240271 0.854306
#
# Coordination Sequence:
#
# PCOD9231682 Si02
#       8
#     4   4   4   2   4   2   4   4
#     4  11  23  39  60  88 128 178 230 283 352 412
#     4  11  25  40  63  95 125 171 224 280 333 388
#     4  10  22  41  62  90 128 171 223 276 336 394
#     4  10  20  40  70 102 130 168 216 238 322 388
#     4  10  21  40  69 100 128 173 207 258 302 403
#     4  10  22  40  60  90 130 170 232 298 342 394
#     4  11  23  42  64  98 127 171 220 267 328 400
#     4  11  22  38  64  94 130 168 214 270 319 385
#
# _framework density 21.640688999999998
#
# number of rings (size 3 to 8) (size 9 to 14) (size 15 to 20)
#    0.000    1.429    2.143    3.429    8.000    0.000 
#    1.286    2.143    0.000    5.143    0.000    0.000 
#    0.000    0.000    0.000    0.000    0.000    0.000 
#
# Total GULP energy -156191.362899 kJ/mol
# GULP energy per Si atom -5578.262961 kJ/mol
# Density = 2.159143 g / cm^3
# Si number density = 21.640689 Si / 1000 Ang^3
#
#
#
# Elastic Constant Matrix: (Units=GPa)
#
#
# Indices 1 2 3 4 5 6 
#
# 1 61.2408 16.5163 7.1651 0.0000 6.6200 0.0000
# 2 16.5163 83.1808 17.2665 0.0000 5.3913 0.0000
# 3 7.1651 17.2665 76.5534 0.0000 0.7879 0.0000
# 4 0.0000 0.0000 0.0000 18.2230 0.0000 7.0460
# 5 6.6200 5.3913 0.7879 0.0000 41.0461 0.0000
# 6 0.0000 0.0000 0.0000 7.0460 0.0000 10.9750
#
#
#
# Elastic Compliance Matrix: (Units=1/GPa)
#
#
# Indices 1 2 3 4 5 6 
#
# 1 0.017541 -0.003139 -0.000909 0.000000 -0.002399 0.000000
# 2 -0.003139 0.013280 -0.002689 0.000000 -0.001186 0.000000
# 3 -0.000909 -0.002689 0.013752 0.000000 0.000236 0.000000
# 4 0.000000 0.000000 0.000000 0.072995 0.000000 -0.046863
# 5 -0.002399 -0.001186 0.000236 0.000000 0.024901 0.000000
# 6 0.000000 0.000000 0.000000 -0.046863 0.000000 0.121202
#
#
# Mechanical properties :
#
#
# Convention : Reuss Voigt Hill
#
# Bulk Modulus (GPa) = 32.15533 33.65234 32.90383
# Shear Modulus (GPa) = 17.39053 26.05064 21.72058
#
# Velocity S-wave (km/s) = 2.83787 3.47332 3.17155
# Velocity P-wave (km/s) = 5.06251 5.62757 5.35250
#
# Compressibility (1/GPa) = 0.03109905
#
# Stress axis : x y z
#
# Youngs Moduli (GPa) = 57.00859 75.29902 72.71651
#
# Poissons Ratio (x) = 0.23634 0.06611
# Poissons Ratio (y) = 0.17894 0.19556
# Poissons Ratio (z) = 0.05183 0.20251
#
# Static dielectric constant tensor:
#      x y z
#    x 1.857310 0.000000 -0.008490 
#    y 0.000000 1.778160 0.000000 
#    z -0.008490 0.000000 1.682420 
# 
# From -- ./inp_files/24572.got.cif
#   From: 2010.05.17/outbox.cif.g08.bks.cpg/sg13_13_cif.got.tgz:24572.got - 2010.06.03 16:44:36.
