data_PCOD9231116
_publ_section_title
;
Structure prediction by ZEFSAII (Michael W. Deem and Ramdas Pophale) SiO2 
 PCOD9231116
Probable space group: P 2/C
;
_chemical_formula_sum "Si O2"
_cell_formula_units_Z 28
_cell_length_a 18.355462
_cell_length_b 5.997652
_cell_length_c 13.960651
_cell_angle_alpha 90.000000
_cell_angle_beta 58.627081
_cell_angle_gamma 90.000000
_cell_volume 1312.220617
_symmetry_space_group_name_H-M "P 2/C"
_symmetry_group_IT_number 13
_symmetry_cell_setting 'monoclinic'
loop_
_space_group_symop_operation_xyz
x,y,z
-x,y,1/2-z
-x,-y,-z
x,-y,1/2+z
loop_
_atom_site_type_symbol
_atom_site_label
_atom_site_fract_x
_atom_site_fract_y
_atom_site_fract_z
Si Si1 0.090681 0.481767 0.643025
Si Si2 0.500000 0.935847 0.250000
Si Si3 0.144376 0.187593 0.250716
Si Si4 0.722065 0.861851 0.283775
Si Si5 0.440677 0.608237 0.120833
Si Si6 0.813476 0.478540 0.100919
Si Si7 0.000000 0.938497 0.250000
Si Si8 0.650183 0.767527 0.688479
O O1 0.154868 0.604302 0.670926
O O2 0.114964 0.556957 0.521374
O O3 0.000000 0.549018 0.750000
O O4 0.073787 0.217464 0.652841
O O5 0.482949 0.780381 0.168401
O O6 0.419022 0.097769 0.325975
O O7 0.150618 0.293349 0.351356
O O8 0.218464 0.004425 0.187231
O O9 0.054542 0.068186 0.291619
O O10 0.638301 0.734086 0.376723
O O11 0.778068 0.680849 0.188326
O O12 0.687433 0.042519 0.232110
O O13 0.401185 0.411803 0.212891
O O14 0.500000 0.500000 0.000000
O O15 0.733814 0.368624 0.096548
#
# Coordination Sequence:
#
# PCOD9231116 Si02
#       8
#     4   2   4   4   4   4   2   4
#     4  10  24  43  61  94 127 160 215 269 312 381
#     4  10  20  38  64  94 130 168 212 260 314 374
#     4  11  21  42  63  91 126 167 212 261 318 379
#     4   9  21  40  63  89 125 168 213 259 317 380
#     4  10  21  41  65  95 132 168 214 263 313 378
#     4  10  22  43  66  88 127 168 209 266 321 376
#     4  10  22  42  58  90 128 158 216 264 312 386
#     4   9  20  41  61  91 125 164 212 256 315 382
#
# _framework density 21.337876000000001
#
# number of rings (size 3 to 8) (size 9 to 14) (size 15 to 20)
#    0.429    1.714    0.714    1.286    0.000    5.714 
#    0.000   34.286    0.000    0.000    0.000    0.000 
#    0.000    0.000    0.000    0.000    0.000    0.000 
#
# Total GULP energy -155911.502416 kJ/mol
# GULP energy per Si atom -5568.267943 kJ/mol
# Density = 2.128931 g / cm^3
# Si number density = 21.337876 Si / 1000 Ang^3
#
#
#
# Elastic Constant Matrix: (Units=GPa)
#
#
# Indices 1 2 3 4 5 6 
#
# 1 128.3496 64.3147 34.4876 0.0000 -2.9284 0.0000
# 2 64.3147 100.0374 24.1007 0.0000 -9.0857 0.0000
# 3 34.4876 24.1007 73.2277 0.0000 -7.7723 0.0000
# 4 0.0000 0.0000 0.0000 -9.4836 0.0000 30.0833
# 5 -2.9284 -9.0857 -7.7723 0.0000 16.2363 0.0000
# 6 0.0000 0.0000 0.0000 30.0833 0.0000 4.6076
#
#
#
# Elastic Compliance Matrix: (Units=1/GPa)
#
#
# Indices 1 2 3 4 5 6 
#
# 1 0.012453 -0.007426 -0.003817 0.000000 -0.003737 0.000000
# 2 -0.007426 0.015621 -0.000904 0.000000 0.006969 0.000000
# 3 -0.003817 -0.000904 0.016461 0.000000 0.006685 0.000000
# 4 0.000000 0.000000 0.000000 -0.004857 0.000000 0.031710
# 5 -0.003737 0.006969 0.006685 0.000000 0.068017 0.000000
# 6 0.000000 0.000000 0.000000 0.031710 0.000000 0.009996
#
#
# Mechanical properties :
#
#
# Convention : Reuss Voigt Hill
#
# Bulk Modulus (GPa) = 49.40685 60.82452 55.11568
# Shear Modulus (GPa) = 33.61744 14.18616 23.90180
#
# Velocity S-wave (km/s) = 3.97354 2.58124 3.35051
# Velocity P-wave (km/s) = 6.65258 6.11972 6.39171
#
# Compressibility (1/GPa) = 0.02024011
#
# Stress axis : x y z
#
# Youngs Moduli (GPa) = 80.30469 64.01626 60.74929
#
# Poissons Ratio (x) = 0.47536 0.23191
# Poissons Ratio (y) = 0.59631 0.05494
# Poissons Ratio (z) = 0.30656 0.05789
#
# Static dielectric constant tensor:
#      x y z
#    x 1.909190 0.000000 0.065000 
#    y 0.000000 1.848910 0.000000 
#    z 0.065000 0.000000 1.877660 
# 
# From -- ./inp_files/54420.got.cif
#   From: 2010.05.17/outbox.cif.g08.bks.cpg/sg13_28_cif.got.tgz:54420.got - 2010.06.03 16:44:36.
