data_PCOD9231394
_publ_section_title
;
Structure prediction by ZEFSAII (Michael W. Deem and Ramdas Pophale) SiO2 
 PCOD9231394
Probable space group: P 2/C
;
_chemical_formula_sum "Si O2"
_cell_formula_units_Z 22
_cell_length_a 8.452445
_cell_length_b 6.823267
_cell_length_c 19.469996
_cell_angle_alpha 90.000000
_cell_angle_beta 66.062141
_cell_angle_gamma 90.000000
_cell_volume 1026.313757
_symmetry_space_group_name_H-M "P 2/C"
_symmetry_group_IT_number 13
_symmetry_cell_setting 'monoclinic'
loop_
_space_group_symop_operation_xyz
x,y,z
-x,y,1/2-z
-x,-y,-z
x,-y,1/2+z
loop_
_atom_site_type_symbol
_atom_site_label
_atom_site_fract_x
_atom_site_fract_y
_atom_site_fract_z
Si Si1 0.500000 0.372724 0.250000
Si Si2 0.364734 0.766651 0.964580
Si Si3 0.371082 0.630704 0.398813
Si Si4 0.133309 0.979044 0.414610
Si Si5 0.658898 0.943671 0.392804
Si Si6 0.158553 0.135942 0.261647
O O1 0.436935 0.510670 0.322310
O O2 0.334693 0.251011 0.250547
O O3 0.345923 0.534832 0.961210
O O4 0.282254 0.867889 0.912284
O O5 0.560740 0.852401 0.929959
O O6 0.271964 0.853812 0.048362
O O7 0.206392 0.759215 0.406705
O O8 0.513438 0.787043 0.396941
O O9 0.090604 0.042067 0.344722
O O10 0.000000 0.000000 0.500000
O O11 0.780148 0.979581 0.306575
O O12 0.000000 0.244932 0.250000
#
# Coordination Sequence:
#
# PCOD9231394 Si02
#       6
#     2   4   4   4   4   4
#     4  12  22  46  70 106 136 182 242 284 352 416
#     4  10  20  39  66 101 133 184 228 282 350 413
#     4  11  21  40  72  97 135 188 230 289 350 416
#     4  11  24  43  65  97 140 187 231 285 353 417
#     4  10  21  39  66 101 137 173 236 284 343 420
#     4  12  24  45  70  98 141 187 232 293 349 414
#
# _framework density 21.435939000000001
#
# number of rings (size 3 to 8) (size 9 to 14) (size 15 to 20)
#    0.000    1.091    3.636    3.818    0.000    0.727 
#    3.273    3.636    0.000    0.000    0.000    0.000 
#    0.000    0.000    0.000    0.000    0.000    0.000 
#
# Total GULP energy -122778.037176 kJ/mol
# GULP energy per Si atom -5580.819872 kJ/mol
# Density = 2.138715 g / cm^3
# Si number density = 21.435939 Si / 1000 Ang^3
#
#
#
# Elastic Constant Matrix: (Units=GPa)
#
#
# Indices 1 2 3 4 5 6 
#
# 1 110.9788 45.2909 46.3166 0.0000 21.4079 0.0000
# 2 45.2909 103.2398 36.2163 0.0000 2.9265 0.0000
# 3 46.3166 36.2163 177.5156 0.0000 13.1015 0.0000
# 4 0.0000 0.0000 0.0000 43.2786 0.0000 -0.5608
# 5 21.4079 2.9265 13.1015 0.0000 37.7041 0.0000
# 6 0.0000 0.0000 0.0000 -0.5608 0.0000 13.7738
#
#
#
# Elastic Compliance Matrix: (Units=1/GPa)
#
#
# Indices 1 2 3 4 5 6 
#
# 1 0.013025 -0.004854 -0.001940 0.000000 -0.006345 0.000000
# 2 -0.004854 0.012242 -0.001400 0.000000 0.002292 0.000000
# 3 -0.001940 -0.001400 0.006503 0.000000 -0.001049 0.000000
# 4 0.000000 0.000000 0.000000 0.023118 0.000000 0.000941
# 5 -0.006345 0.002292 -0.001049 0.000000 0.030311 0.000000
# 6 0.000000 0.000000 0.000000 0.000941 0.000000 0.072640
#
#
# Mechanical properties :
#
#
# Convention : Reuss Voigt Hill
#
# Bulk Modulus (GPa) = 65.01300 71.93132 68.47216
# Shear Modulus (GPa) = 27.87781 36.54531 32.21156
#
# Velocity S-wave (km/s) = 3.61018 4.13348 3.88066
# Velocity P-wave (km/s) = 6.91178 7.51067 7.21744
#
# Compressibility (1/GPa) = 0.01538154
#
# Stress axis : x y z
#
# Youngs Moduli (GPa) = 76.77515 81.68782 153.78447
#
# Poissons Ratio (x) = 0.39649 0.29833
# Poissons Ratio (y) = 0.37264 0.21535
# Poissons Ratio (z) = 0.14894 0.11439
#
# Static dielectric constant tensor:
#      x y z
#    x 1.901990 0.000000 -0.001830 
#    y 0.000000 1.759950 0.000000 
#    z -0.001830 0.000000 1.784260 
# 
# From -- ./inp_files/74476.got.cif
#   From: 2010.05.17/outbox.cif.g08.bks.cpg/sg13_38_cif.got.tgz:74476.got - 2010.06.03 16:44:36.
