data_PCOD9231675
_publ_section_title
;
Structure prediction by ZEFSAII (Michael W. Deem and Ramdas Pophale) SiO2 
 PCOD9231675
Probable space group: P 2/C
;
_chemical_formula_sum "Si O2"
_cell_formula_units_Z 28
_cell_length_a 6.274870
_cell_length_b 17.666331
_cell_length_c 13.014644
_cell_angle_alpha 90.000000
_cell_angle_beta 123.279488
_cell_angle_gamma 90.000000
_cell_volume 1206.123200
_symmetry_space_group_name_H-M "P 2/C"
_symmetry_group_IT_number 13
_symmetry_cell_setting 'monoclinic'
loop_
_space_group_symop_operation_xyz
x,y,z
-x,y,1/2-z
-x,-y,-z
x,-y,1/2+z
loop_
_atom_site_type_symbol
_atom_site_label
_atom_site_fract_x
_atom_site_fract_y
_atom_site_fract_z
Si Si1 0.525720 0.399820 0.578677
Si Si2 0.728159 0.957277 0.929748
Si Si3 0.693808 0.075972 0.656608
Si Si4 0.270053 0.458461 0.075906
Si Si5 0.292904 0.239767 0.862979
Si Si6 0.715054 0.786337 0.891631
Si Si7 0.010669 0.339395 0.133385
O O1 0.699643 0.417238 0.526144
O O2 0.489081 0.476703 0.633891
O O3 0.610032 0.320920 0.649991
O O4 0.249995 0.381044 0.460655
O O5 0.752608 0.875945 0.881932
O O6 0.490534 0.012879 0.845721
O O7 0.666785 0.931619 0.028374
O O8 0.000000 0.000000 0.000000
O O9 0.604508 0.161303 0.657758
O O10 0.000000 0.065519 0.750000
O O11 0.232525 0.396374 0.154647
O O12 0.000000 0.500000 0.000000
O O13 0.000000 0.237586 0.750000
O O14 0.331690 0.233131 0.999036
O O15 0.500000 0.763144 0.750000
O O16 0.958182 0.737057 0.923164
O O17 0.000000 0.321929 0.250000
#
# Coordination Sequence:
#
# PCOD9231675 Si02
#       7
#     4   4   4   4   4   4   4
#     4  10  20  40  69  94 135 182 233 297 352 421
#     4  10  23  40  64  98 135 177 235 289 352 429
#     4   9  21  41  64  93 134 180 224 290 359 427
#     4   9  20  40  66  94 138 177 239 290 357 421
#     4  10  21  43  72  99 141 183 234 292 360 429
#     4  11  24  43  68 104 140 181 238 296 350 437
#     4  11  23  39  68 100 141 185 229 294 363 427
#
# _framework density 23.214876
#
# number of rings (size 3 to 8) (size 9 to 14) (size 15 to 20)
#    0.000    2.000    1.429    0.857    4.000    0.000 
#    2.571    8.571    3.143    0.000    0.000    0.000 
#    0.000    0.000    0.000    0.000    0.000    0.000 
#
# Total GULP energy -156144.873260 kJ/mol
# GULP energy per Si atom -5576.602616 kJ/mol
# Density = 2.316204 g / cm^3
# Si number density = 23.214876 Si / 1000 Ang^3
#
#
#
# Elastic Constant Matrix: (Units=GPa)
#
#
# Indices 1 2 3 4 5 6 
#
# 1 102.3602 57.7178 10.0302 0.0000 -5.1691 0.0000
# 2 57.7178 200.3303 6.9970 0.0000 1.6504 0.0000
# 3 10.0302 6.9970 63.9721 0.0000 -6.8940 0.0000
# 4 0.0000 0.0000 0.0000 15.5927 0.0000 31.5034
# 5 -5.1691 1.6504 -6.8940 0.0000 36.3509 0.0000
# 6 0.0000 0.0000 0.0000 31.5034 0.0000 -16.4836
#
#
#
# Elastic Compliance Matrix: (Units=1/GPa)
#
#
# Indices 1 2 3 4 5 6 
#
# 1 0.011893 -0.003393 -0.001322 0.000000 0.001595 0.000000
# 2 -0.003393 0.005983 -0.000208 0.000000 -0.000794 0.000000
# 3 -0.001322 -0.000208 0.016173 0.000000 0.002889 0.000000
# 4 0.000000 0.000000 0.000000 0.013192 0.000000 0.025213
# 5 0.001595 -0.000794 0.002889 0.000000 0.028320 0.000000
# 6 0.000000 0.000000 0.000000 0.025213 0.000000 -0.012479
#
#
# Mechanical properties :
#
#
# Convention : Reuss Voigt Hill
#
# Bulk Modulus (GPa) = 41.31689 57.35029 49.33359
# Shear Modulus (GPa) = 61.73111 26.55317 44.14214
#
# Velocity S-wave (km/s) = 5.16226 3.38568 4.36530
# Velocity P-wave (km/s) = 7.30535 6.32784 6.83409
#
# Compressibility (1/GPa) = 0.02420318
#
# Stress axis : x y z
#
# Youngs Moduli (GPa) = 84.08348 167.13282 61.83113
#
# Poissons Ratio (x) = 0.56716 0.08172
# Poissons Ratio (y) = 0.28534 0.01285
# Poissons Ratio (z) = 0.11113 0.03475
#
# Static dielectric constant tensor:
#      x y z
#    x 1.855690 0.000000 0.017090 
#    y 0.000000 1.940950 0.000000 
#    z 0.017090 0.000000 1.852320 
# 
# From -- ./inp_files/44520.got.cif
#   From: 2010.05.17/outbox.cif.g08.bks.cpg/sg13_23_cif.got.tgz:44520.got - 2010.06.03 16:44:36.
