data_PCOD9231155
_publ_section_title
;
Structure prediction by ZEFSAII (Michael W. Deem and Ramdas Pophale) SiO2 
 PCOD9231155
Probable space group: P 2/C
;
_chemical_formula_sum "Si O2"
_cell_formula_units_Z 26
_cell_length_a 22.094830
_cell_length_b 8.916535
_cell_length_c 9.486944
_cell_angle_alpha 90.000000
_cell_angle_beta 136.072198
_cell_angle_gamma 90.000000
_cell_volume 1296.632738
_symmetry_space_group_name_H-M "P 2/C"
_symmetry_group_IT_number 13
_symmetry_cell_setting 'monoclinic'
loop_
_space_group_symop_operation_xyz
x,y,z
-x,y,1/2-z
-x,-y,-z
x,-y,1/2+z
loop_
_atom_site_type_symbol
_atom_site_label
_atom_site_fract_x
_atom_site_fract_y
_atom_site_fract_z
Si Si1 0.614919 0.396204 0.694791
Si Si2 0.756164 0.762200 0.288097
Si Si3 0.500000 0.496308 0.750000
Si Si4 0.077672 0.118052 0.123849
Si Si5 0.183296 0.940296 0.536736
Si Si6 0.243404 0.363870 0.010362
Si Si7 0.913253 0.589744 0.688444
O O1 0.685003 0.265602 0.789688
O O2 0.565263 0.400141 0.760444
O O3 0.549609 0.406599 0.452742
O O4 0.678354 0.540764 0.793730
O O5 0.731094 0.672622 0.106705
O O6 0.849969 0.689969 0.483059
O O7 0.764306 0.938894 0.283196
O O8 0.109035 0.119699 0.016373
O O9 0.059748 0.287130 0.147782
O O10 0.146943 0.039885 0.346513
O O11 0.000000 0.000000 0.000000
O O12 0.232218 0.794809 0.565990
O O13 0.152396 0.459028 0.868111
O O14 0.000000 0.540688 0.750000
#
# Coordination Sequence:
#
# PCOD9231155 Si02
#       7
#     4   4   2   4   4   4   4
#     4  10  21  38  70  96 129 160 199 256 308 382
#     4  10  21  42  59  91 126 163 210 259 309 372
#     4  10  20  38  66 106 124 158 198 248 320 378
#     4  11  22  39  58  84 120 167 219 268 320 365
#     4  11  23  39  61  84 119 169 210 257 319 376
#     4  11  23  40  62  93 125 164 216 259 318 367
#     4  10  24  38  60  87 126 166 215 272 309 359
#
# _framework density 20.051939999999998
#
# number of rings (size 3 to 8) (size 9 to 14) (size 15 to 20)
#    0.000    1.538    3.077    2.308    4.308    3.077 
#    0.000    0.000    0.000    5.538    0.000    0.000 
#    0.000    0.000    0.000    0.000    0.000    0.000 
#
# Total GULP energy -144984.115501 kJ/mol
# GULP energy per Si atom -5576.312135 kJ/mol
# Density = 2.000630 g / cm^3
# Si number density = 20.051940 Si / 1000 Ang^3
#
#
#
# Elastic Constant Matrix: (Units=GPa)
#
#
# Indices 1 2 3 4 5 6 
#
# 1 127.6705 14.6735 8.8614 0.0000 -2.1817 0.0000
# 2 14.6735 83.7915 7.0367 0.0000 1.1787 0.0000
# 3 8.8614 7.0367 52.1640 0.0000 -0.7598 0.0000
# 4 0.0000 0.0000 0.0000 13.5811 0.0000 -7.3292
# 5 -2.1817 1.1787 -0.7598 0.0000 27.0975 0.0000
# 6 0.0000 0.0000 0.0000 -7.3292 0.0000 17.6659
#
#
#
# Elastic Compliance Matrix: (Units=1/GPa)
#
#
# Indices 1 2 3 4 5 6 
#
# 1 0.008079 -0.001325 -0.001184 0.000000 0.000675 0.000000
# 2 -0.001325 0.012297 -0.001444 0.000000 -0.000682 0.000000
# 3 -0.001184 -0.001444 0.019574 0.000000 0.000516 0.000000
# 4 0.000000 0.000000 0.000000 0.094873 0.000000 0.039361
# 5 0.000675 -0.000682 0.000516 0.000000 0.037002 0.000000
# 6 0.000000 0.000000 0.000000 0.039361 0.000000 0.072936
#
#
# Mechanical properties :
#
#
# Convention : Reuss Voigt Hill
#
# Bulk Modulus (GPa) = 31.20627 36.08547 33.64587
# Shear Modulus (GPa) = 18.98632 27.20589 23.09610
#
# Velocity S-wave (km/s) = 3.08044 3.68743 3.39752
# Velocity P-wave (km/s) = 5.31495 6.01370 5.67509
#
# Compressibility (1/GPa) = 0.03204484
#
# Stress axis : x y z
#
# Youngs Moduli (GPa) = 123.78348 81.31925 51.08898
#
# Poissons Ratio (x) = 0.10773 0.06048
# Poissons Ratio (y) = 0.16399 0.07376
# Poissons Ratio (z) = 0.14654 0.11740
#
# Static dielectric constant tensor:
#      x y z
#    x 1.746750 0.000000 -0.023060 
#    y 0.000000 1.842580 0.000000 
#    z -0.023060 0.000000 1.778690 
# 
# From -- ./inp_files/22945.got.cif
#   From: 2010.05.17/outbox.cif.g08.bks.cpg/sg13_12_cif.got.tgz:22945.got - 2010.06.03 16:44:36.
