data_PCOD9231371
_publ_section_title
;
Structure prediction by ZEFSAII (Michael W. Deem and Ramdas Pophale) SiO2 
 PCOD9231371
Probable space group: P 2/C
;
_chemical_formula_sum "Si O2"
_cell_formula_units_Z 30
_cell_length_a 21.289912
_cell_length_b 12.025718
_cell_length_c 12.921294
_cell_angle_alpha 90.000000
_cell_angle_beta 25.848733
_cell_angle_gamma 90.000000
_cell_volume 1442.361433
_symmetry_space_group_name_H-M "P 2/C"
_symmetry_group_IT_number 13
_symmetry_cell_setting 'monoclinic'
loop_
_space_group_symop_operation_xyz
x,y,z
-x,y,1/2-z
-x,-y,-z
x,-y,1/2+z
loop_
_atom_site_type_symbol
_atom_site_label
_atom_site_fract_x
_atom_site_fract_y
_atom_site_fract_z
Si Si1 0.733126 0.387278 0.384562
Si Si2 0.605257 0.061436 0.421933
Si Si3 0.145116 0.861444 0.090103
Si Si4 0.328775 0.878655 0.021909
Si Si5 0.258232 0.624791 0.185598
Si Si6 0.852402 0.597229 0.928606
Si Si7 0.500000 0.791198 0.250000
Si Si8 0.037884 0.372624 0.837209
O O1 0.671261 0.512916 0.466966
O O2 0.784290 0.358413 0.425017
O O3 0.621461 0.291906 0.530157
O O4 0.867983 0.380771 0.106572
O O5 0.495513 0.127293 0.659181
O O6 0.500000 0.000000 0.500000
O O7 0.695698 0.969853 0.352853
O O8 0.723908 0.134855 0.185869
O O9 0.091347 0.740069 0.206225
O O10 0.000000 0.911920 0.250000
O O11 0.223822 0.904328 0.079679
O O12 0.500000 0.889421 0.750000
O O13 0.310651 0.748889 0.082028
O O14 0.249557 0.605535 0.320934
O O15 0.103925 0.619387 0.355185
O O16 0.897060 0.473408 0.825288
O O17 0.000000 0.652812 0.750000
#
# Coordination Sequence:
#
# PCOD9231371 Si02
#       8
#     4   4   4   4   4   4   2   4
#     4  11  23  40  62 101 143 168 215 278 341 403
#     4  12  25  50  73  93 133 187 234 280 357 405
#     4  11  24  42  74 105 126 179 236 285 339 403
#     4  11  24  47  70  94 139 188 227 280 343 415
#     4  10  22  38  65 100 133 174 222 274 331 410
#     4  11  18  35  65  93 131 177 211 256 341 403
#     4  12  28  42  64 102 134 172 226 282 332 410
#     4  10  20  39  64  98 140 176 213 271 341 408
#
# _framework density 20.799223999999999
#
# number of rings (size 3 to 8) (size 9 to 14) (size 15 to 20)
#    0.000    1.067    4.667    2.000    4.667    0.533 
#    0.000    4.000    0.000    0.000    0.000    0.000 
#    0.000    0.000    0.000    0.000    0.000    0.000 
#
# Total GULP energy -167119.016281 kJ/mol
# GULP energy per Si atom -5570.633876 kJ/mol
# Density = 2.075188 g / cm^3
# Si number density = 20.799224 Si / 1000 Ang^3
#
#
#
# Elastic Constant Matrix: (Units=GPa)
#
#
# Indices 1 2 3 4 5 6 
#
# 1 99.0486 25.8358 24.4328 0.0000 15.2086 0.0000
# 2 25.8358 91.5058 28.3674 0.0000 5.5977 0.0000
# 3 24.4328 28.3674 88.0142 0.0000 10.3037 0.0000
# 4 0.0000 0.0000 0.0000 23.5037 0.0000 6.8791
# 5 15.2086 5.5977 10.3037 0.0000 33.4860 0.0000
# 6 0.0000 0.0000 0.0000 6.8791 0.0000 11.9708
#
#
#
# Elastic Compliance Matrix: (Units=1/GPa)
#
#
# Indices 1 2 3 4 5 6 
#
# 1 0.011906 -0.002475 -0.001995 0.000000 -0.004380 0.000000
# 2 -0.002475 0.012680 -0.003406 0.000000 0.000053 0.000000
# 3 -0.001995 -0.003406 0.013320 0.000000 -0.002623 0.000000
# 4 0.000000 0.000000 0.000000 0.051149 0.000000 -0.029393
# 5 -0.004380 0.000053 -0.002623 0.000000 0.032651 0.000000
# 6 0.000000 0.000000 0.000000 -0.029393 0.000000 0.100427
#
#
# Mechanical properties :
#
#
# Convention : Reuss Voigt Hill
#
# Bulk Modulus (GPa) = 45.13664 48.42673 46.78169
# Shear Modulus (GPa) = 20.38566 27.12096 23.75331
#
# Velocity S-wave (km/s) = 3.13408 3.61493 3.38306
# Velocity P-wave (km/s) = 5.90295 6.38413 6.14825
#
# Compressibility (1/GPa) = 0.02215495
#
# Stress axis : x y z
#
# Youngs Moduli (GPa) = 83.98921 78.86599 75.07333
#
# Poissons Ratio (x) = 0.19522 0.14974
# Poissons Ratio (y) = 0.20790 0.25568
# Poissons Ratio (z) = 0.16753 0.26860
#
# Static dielectric constant tensor:
#      x y z
#    x 1.813960 0.000000 -0.000810 
#    y 0.000000 1.748310 0.000000 
#    z -0.000810 0.000000 1.769590 
# 
# From -- ./inp_files/40875.got.cif
#   From: 2010.05.17/outbox.cif.g08.bks.cpg/sg13_21_cif.got.tgz:40875.got - 2010.06.03 16:44:36.
