data_PCOD9231844
_publ_section_title
;
Structure prediction by ZEFSAII (Michael W. Deem and Ramdas Pophale) SiO2 
 PCOD9231844
Probable space group: P 2/C
;
_chemical_formula_sum "Si O2"
_cell_formula_units_Z 28
_cell_length_a 12.621947
_cell_length_b 8.754687
_cell_length_c 13.091174
_cell_angle_alpha 90.000000
_cell_angle_beta 127.196695
_cell_angle_gamma 90.000000
_cell_volume 1152.302961
_symmetry_space_group_name_H-M "P 2/C"
_symmetry_group_IT_number 13
_symmetry_cell_setting 'monoclinic'
loop_
_space_group_symop_operation_xyz
x,y,z
-x,y,1/2-z
-x,-y,-z
x,-y,1/2+z
loop_
_atom_site_type_symbol
_atom_site_label
_atom_site_fract_x
_atom_site_fract_y
_atom_site_fract_z
Si Si1 0.000000 0.287253 0.250000
Si Si2 0.500000 0.180659 0.250000
Si Si3 0.868754 0.945023 0.542630
Si Si4 0.825972 0.569939 0.195087
Si Si5 0.620204 0.030749 0.996198
Si Si6 0.642140 0.271576 0.878905
Si Si7 0.082888 0.713720 0.451441
Si Si8 0.297933 0.432790 0.199356
O O1 0.976574 0.175733 0.141688
O O2 0.878494 0.404135 0.189603
O O3 0.419440 0.073552 0.125062
O O4 0.398444 0.292167 0.250424
O O5 0.762328 0.843147 0.415823
O O6 0.779585 0.991382 0.592304
O O7 0.920094 0.105183 0.532148
O O8 0.821817 0.671943 0.090931
O O9 0.704283 0.532492 0.198502
O O10 0.941508 0.647237 0.332880
O O11 0.621093 0.214549 0.981255
O O12 0.500000 0.000000 0.000000
O O13 0.500000 0.232860 0.750000
O O14 0.669868 0.444182 0.869795
O O15 0.151409 0.630258 0.586509
#
# Coordination Sequence:
#
# PCOD9231844 Si02
#       8
#     2   2   4   4   4   4   4   4
#     4  10  20  42  62  98 126 164 222 264 312 382
#     4  12  24  44  62 100 130 162 218 260 310 390
#     4  10  21  39  67  89 131 165 203 277 312 371
#     4  10  24  40  67  92 129 169 211 264 318 380
#     4  10  23  42  66  91 127 169 207 265 318 369
#     4  10  21  40  60  92 129 162 208 261 308 383
#     4  10  21  43  61  96 128 161 220 265 305 382
#     4  12  23  42  66  93 129 173 204 264 322 377
#
# _framework density 24.299166
#
# number of rings (size 3 to 8) (size 9 to 14) (size 15 to 20)
#    0.857    0.857    2.857    3.000    2.000    1.143 
#    0.000    7.143    0.000    0.000    0.000    0.000 
#    0.000    0.000    0.000    0.000    0.000    0.000 
#
# Total GULP energy -156009.556193 kJ/mol
# GULP energy per Si atom -5571.769864 kJ/mol
# Density = 2.424386 g / cm^3
# Si number density = 24.299166 Si / 1000 Ang^3
#
#
#
# Elastic Constant Matrix: (Units=GPa)
#
#
# Indices 1 2 3 4 5 6 
#
# 1 56.2576 10.0352 -3.8854 0.0000 -12.3277 0.0000
# 2 10.0352 164.4664 36.8365 0.0000 11.0428 0.0000
# 3 -3.8854 36.8365 47.0081 0.0000 15.3592 0.0000
# 4 0.0000 0.0000 0.0000 31.8266 0.0000 8.7680
# 5 -12.3277 11.0428 15.3592 0.0000 19.2442 0.0000
# 6 0.0000 0.0000 0.0000 8.7680 0.0000 35.4104
#
#
#
# Elastic Compliance Matrix: (Units=1/GPa)
#
#
# Indices 1 2 3 4 5 6 
#
# 1 0.021634 -0.001965 -0.002122 0.000000 0.016680 0.000000
# 2 -0.001965 0.007557 -0.005757 0.000000 -0.001000 0.000000
# 3 -0.002122 -0.005757 0.033784 0.000000 -0.025019 0.000000
# 4 0.000000 0.000000 0.000000 0.033721 0.000000 -0.008350
# 5 0.016680 -0.001000 -0.025019 0.000000 0.083191 0.000000
# 6 0.000000 0.000000 0.000000 -0.008350 0.000000 0.030308
#
#
# Mechanical properties :
#
#
# Convention : Reuss Voigt Hill
#
# Bulk Modulus (GPa) = 23.10195 39.30053 31.20124
# Shear Modulus (GPa) = 20.46566 32.27928 26.37247
#
# Velocity S-wave (km/s) = 2.90528 3.64869 3.29800
# Velocity P-wave (km/s) = 4.55874 5.82746 5.23171
#
# Compressibility (1/GPa) = 0.04328639
#
# Stress axis : x y z
#
# Youngs Moduli (GPa) = 46.22281 132.33127 29.59992
#
# Poissons Ratio (x) = 0.25999 0.06282
# Poissons Ratio (y) = 0.09081 0.17042
# Poissons Ratio (z) = 0.09810 0.76189
#
# Static dielectric constant tensor:
#      x y z
#    x 2.083400 0.000000 -0.023910 
#    y 0.000000 1.875740 0.000000 
#    z -0.023910 0.000000 1.995530 
# 
# From -- ./inp_files/53168.got.cif
#   From: 2010.05.17/outbox.cif.g08.bks.cpg/sg13_27_cif.got.tgz:53168.got - 2010.06.03 16:44:36.
