data_PCOD9231274
_publ_section_title
;
Structure prediction by ZEFSAII (Michael W. Deem and Ramdas Pophale) SiO2 
 PCOD9231274
Probable space group: P 2/C
;
_chemical_formula_sum "Si O2"
_cell_formula_units_Z 16
_cell_length_a 8.760983
_cell_length_b 11.060692
_cell_length_c 13.133414
_cell_angle_alpha 90.000000
_cell_angle_beta 38.435204
_cell_angle_gamma 90.000000
_cell_volume 791.123284
_symmetry_space_group_name_H-M "P 2/C"
_symmetry_group_IT_number 13
_symmetry_cell_setting 'monoclinic'
loop_
_space_group_symop_operation_xyz
x,y,z
-x,y,1/2-z
-x,-y,-z
x,-y,1/2+z
loop_
_atom_site_type_symbol
_atom_site_label
_atom_site_fract_x
_atom_site_fract_y
_atom_site_fract_z
Si Si1 0.869300 0.270973 0.208560
Si Si2 0.244253 0.986839 0.692151
Si Si3 0.259046 0.482864 0.804488
Si Si4 0.756984 0.777730 0.171220
O O1 0.727128 0.397074 0.270624
O O2 0.000000 0.276369 0.250000
O O3 0.722927 0.146012 0.276969
O O4 0.059305 0.252482 0.016768
O O5 0.196643 0.100670 0.790621
O O6 0.000000 0.980631 0.750000
O O7 0.500000 0.000000 0.500000
O O8 0.500000 0.482360 0.750000
O O9 0.252203 0.348063 0.759977
O O10 0.000000 0.500000 0.000000
O O11 0.500000 0.796727 0.250000
#
# Coordination Sequence:
#
# PCOD9231274 Si02
#       4
#     4   4   4   4
#     4  10  21  38  59  88 120 155 194 241 294 351
#     4  11  24  40  59  89 119 154 200 242 292 352
#     4   9  20  37  58  85 116 153 195 237 291 347
#     4  10  20  39  61  86 121 156 192 244 296 346
#
# _framework density 20.224408
#
# number of rings (size 3 to 8) (size 9 to 14) (size 15 to 20)
#    0.000    2.000    0.000    3.750    0.000    6.000 
#    0.000   17.500    0.000    0.000    0.000    0.000 
#    0.000    0.000    0.000    0.000    0.000    0.000 
#
# Total GULP energy -89091.874280 kJ/mol
# GULP energy per Si atom -5568.242143 kJ/mol
# Density = 2.017838 g / cm^3
# Si number density = 20.224408 Si / 1000 Ang^3
#
#
#
# Elastic Constant Matrix: (Units=GPa)
#
#
# Indices 1 2 3 4 5 6 
#
# 1 49.6740 45.7191 19.1990 0.0000 -6.6012 0.0000
# 2 45.7191 208.8456 14.4300 0.0000 26.4445 0.0000
# 3 19.1990 14.4300 63.3125 0.0000 -5.6439 0.0000
# 4 0.0000 0.0000 0.0000 -11.9894 0.0000 3.2476
# 5 -6.6012 26.4445 -5.6439 0.0000 29.6371 0.0000
# 6 0.0000 0.0000 0.0000 3.2476 0.0000 40.1025
#
#
#
# Elastic Compliance Matrix: (Units=1/GPa)
#
#
# Indices 1 2 3 4 5 6 
#
# 1 0.032029 -0.008223 -0.006661 0.000000 0.013202 0.000000
# 2 -0.008223 0.007693 -0.000036 0.000000 -0.008702 0.000000
# 3 -0.006661 -0.000036 0.017999 0.000000 0.001976 0.000000
# 4 0.000000 0.000000 0.000000 -0.081617 0.000000 0.006609
# 5 0.013202 -0.008702 0.001976 0.000000 0.044823 0.000000
# 6 0.000000 0.000000 0.000000 0.006609 0.000000 0.024401
#
#
# Mechanical properties :
#
#
# Convention : Reuss Voigt Hill
#
# Bulk Modulus (GPa) = 35.86732 53.39203 44.62968
# Shear Modulus (GPa) = 59.19935 27.71564 43.45750
#
# Velocity S-wave (km/s) = 5.41616 3.70592 4.64051
# Velocity P-wave (km/s) = 7.54230 6.69095 7.12934
#
# Compressibility (1/GPa) = 0.02788053
#
# Stress axis : x y z
#
# Youngs Moduli (GPa) = 31.22210 129.99334 55.55908
#
# Poissons Ratio (x) = 1.06893 0.37010
# Poissons Ratio (y) = 0.25674 0.00197
# Poissons Ratio (z) = 0.20798 0.00462
#
# Static dielectric constant tensor:
#      x y z
#    x 1.697520 0.000000 0.016750 
#    y 0.000000 1.823670 0.000000 
#    z 0.016750 0.000000 1.650810 
# 
# From -- ./inp_files/11488.got.cif
#   From: 2010.05.17/outbox.cif.g08.bks.cpg/sg13_6_cif.got.tgz:11488.got - 2010.06.03 16:44:36.
