data_PCOD9231860
_publ_section_title
;
Structure prediction by ZEFSAII (Michael W. Deem and Ramdas Pophale) SiO2 
 PCOD9231860
Probable space group: P 2/C
;
_chemical_formula_sum "Si O2"
_cell_formula_units_Z 24
_cell_length_a 12.441147
_cell_length_b 7.667805
_cell_length_c 12.734334
_cell_angle_alpha 90.000000
_cell_angle_beta 64.682810
_cell_angle_gamma 90.000000
_cell_volume 1098.131094
_symmetry_space_group_name_H-M "P 2/C"
_symmetry_group_IT_number 13
_symmetry_cell_setting 'monoclinic'
loop_
_space_group_symop_operation_xyz
x,y,z
-x,y,1/2-z
-x,-y,-z
x,-y,1/2+z
loop_
_atom_site_type_symbol
_atom_site_label
_atom_site_fract_x
_atom_site_fract_y
_atom_site_fract_z
Si Si1 0.177643 0.746123 0.686870
Si Si2 0.264035 0.598149 0.254729
Si Si3 0.500000 0.306726 0.750000
Si Si4 0.000000 0.966650 0.250000
Si Si5 0.879427 0.431714 0.500652
Si Si6 0.209616 0.225236 0.559544
Si Si7 0.610734 0.927727 0.020422
O O1 0.202451 0.585172 0.752092
O O2 0.108918 0.671784 0.612711
O O3 0.303634 0.813682 0.590398
O O4 0.099926 0.907661 0.759772
O O5 0.398934 0.581567 0.235104
O O6 0.189802 0.676662 0.382395
O O7 0.255434 0.716199 0.155392
O O8 0.438411 0.185603 0.863247
O O9 0.077630 0.852511 0.136513
O O10 0.800940 0.601117 0.504021
O O11 0.000000 0.500000 0.500000
O O12 0.301881 0.083529 0.478910
O O13 0.500000 0.000000 0.000000
#
# Coordination Sequence:
#
# PCOD9231860 Si02
#       7
#     4   4   2   2   4   4   4
#     4  10  23  41  65  91 129 168 214 265 320 376
#     4  11  23  42  66  92 127 171 216 262 319 379
#     4  12  24  42  68  94 128 168 220 266 318 392
#     4  10  20  42  64  92 126 170 204 258 330 374
#     4  11  22  40  64  97 127 170 221 260 313 385
#     4  10  23  42  67  93 135 169 210 269 324 377
#     4  11  23  43  65  94 129 169 211 269 326 379
#
# _framework density 21.855314
#
# number of rings (size 3 to 8) (size 9 to 14) (size 15 to 20)
#    0.000    1.333    3.333    2.000    0.000    6.000 
#    3.000    5.000    0.000    0.000    0.000    0.000 
#    0.000    0.000    0.000    0.000    0.000    0.000 
#
# Total GULP energy -134190.653517 kJ/mol
# GULP energy per Si atom -5591.277230 kJ/mol
# Density = 2.180557 g / cm^3
# Si number density = 21.855314 Si / 1000 Ang^3
#
#
#
# Elastic Constant Matrix: (Units=GPa)
#
#
# Indices 1 2 3 4 5 6 
#
# 1 121.0742 3.0793 34.7357 0.0000 2.8067 0.0000
# 2 3.0793 36.2313 -2.2454 0.0000 5.5269 0.0000
# 3 34.7357 -2.2454 66.1768 0.0000 1.7160 0.0000
# 4 0.0000 0.0000 0.0000 12.7572 0.0000 -21.3917
# 5 2.8067 5.5269 1.7160 0.0000 35.5962 0.0000
# 6 0.0000 0.0000 0.0000 -21.3917 0.0000 24.6057
#
#
#
# Elastic Compliance Matrix: (Units=1/GPa)
#
#
# Indices 1 2 3 4 5 6 
#
# 1 0.009776 -0.001097 -0.005159 0.000000 -0.000352 0.000000
# 2 -0.001097 0.028470 0.001656 0.000000 -0.004414 0.000000
# 3 -0.005159 0.001656 0.017894 0.000000 -0.000713 0.000000
# 4 0.000000 0.000000 0.000000 -0.171223 0.000000 -0.148858
# 5 -0.000352 -0.004414 -0.000713 0.000000 0.028840 0.000000
# 6 0.000000 0.000000 0.000000 -0.148858 0.000000 -0.088773
#
#
# Mechanical properties :
#
#
# Convention : Reuss Voigt Hill
#
# Bulk Modulus (GPa) = 21.30417 32.73569 27.01993
# Shear Modulus (GPa) = -33.29553 27.11935 -3.08809
#
# Velocity S-wave (km/s) = -3.90738 3.52640 -1.18997
# Velocity P-wave (km/s) = 3.25389 5.62064 3.24066
#
# Compressibility (1/GPa) = 0.04693916
#
# Stress axis : x y z
#
# Youngs Moduli (GPa) = 102.29536 35.12512 55.88543
#
# Poissons Ratio (x) = 0.03853 0.28833
# Poissons Ratio (y) = 0.11221 -0.09256
# Poissons Ratio (z) = 0.52777 -0.05817
#
# Static dielectric constant tensor:
#      x y z
#    x 1.792710 0.000000 -0.008460 
#    y 0.000000 1.799560 0.000000 
#    z -0.008460 0.000000 1.768100 
# 
# From -- ./inp_files/32543.got.cif
#   From: 2010.05.17/outbox.cif.g08.bks.cpg/sg13_17_cif.got.tgz:32543.got - 2010.06.03 16:44:36.
