data_PCOD9231959
_publ_section_title
;
Structure prediction by ZEFSAII (Michael W. Deem and Ramdas Pophale) SiO2 
 PCOD9231959
Probable space group: P 2/C
;
_chemical_formula_sum "Si O2"
_cell_formula_units_Z 20
_cell_length_a 4.906810
_cell_length_b 5.079365
_cell_length_c 28.907014
_cell_angle_alpha 90.000000
_cell_angle_beta 73.671087
_cell_angle_gamma 90.000000
_cell_volume 691.402413
_symmetry_space_group_name_H-M "P 2/C"
_symmetry_group_IT_number 13
_symmetry_cell_setting 'monoclinic'
loop_
_space_group_symop_operation_xyz
x,y,z
-x,y,1/2-z
-x,-y,-z
x,-y,1/2+z
loop_
_atom_site_type_symbol
_atom_site_label
_atom_site_fract_x
_atom_site_fract_y
_atom_site_fract_z
Si Si1 0.500000 0.500000 0.500000
Si Si2 0.855738 0.996868 0.666080
Si Si3 0.162918 0.323372 0.081008
Si Si4 0.000000 0.000000 0.500000
Si Si5 0.500000 0.360810 0.250000
Si Si6 0.000000 0.691111 0.250000
Si Si7 0.657300 0.707137 0.093787
O O1 0.244068 0.282527 0.502587
O O2 0.579381 0.541146 0.424532
O O3 0.681829 0.785177 0.702990
O O4 0.118971 0.893905 0.622061
O O5 0.633466 0.145087 0.643672
O O6 0.969512 0.163861 0.703168
O O7 0.237484 0.248286 0.025036
O O8 0.875922 0.481090 0.097522
O O9 0.801132 0.075534 0.555072
O O10 0.722354 0.522224 0.268184
#
# Coordination Sequence:
#
# PCOD9231959 Si02
#       7
#     2   4   4   2   2   2   4
#     4  10  20  42  74 114 162 214 272 340 410 502
#     4  11  26  53  80 120 160 223 282 349 456 512
#     4  10  21  43  70 108 158 207 272 339 411 507
#     4   8  16  34  66  90 152 198 246 320 388 478
#     4  12  28  58  90 120 176 220 294 378 438 534
#     4  12  28  58  90 120 176 220 294 378 438 534
#     4  10  21  43  70 108 158 207 272 339 411 507
#
# _framework density 28.926712999999999
#
# number of rings (size 3 to 8) (size 9 to 14) (size 15 to 20)
#    0.000    1.600    0.000    4.800    0.000    0.000 
#   36.000   34.000    0.000    0.000    0.000    0.000 
#    0.000    0.000    0.000    0.000    0.000    0.000 
#
# Total GULP energy -111468.157525 kJ/mol
# GULP energy per Si atom -5573.407876 kJ/mol
# Density = 2.886087 g / cm^3
# Si number density = 28.926713 Si / 1000 Ang^3
#
#
#
# Elastic Constant Matrix: (Units=GPa)
#
#
# Indices 1 2 3 4 5 6 
#
# 1 208.1434 70.8142 55.9068 0.0000 25.5479 0.0000
# 2 70.8142 165.5994 81.9020 0.0000 20.4586 0.0000
# 3 55.9068 81.9020 199.8936 0.0000 15.4729 0.0000
# 4 0.0000 0.0000 0.0000 147.7117 0.0000 -8.6477
# 5 25.5479 20.4586 15.4729 0.0000 57.9752 0.0000
# 6 0.0000 0.0000 0.0000 -8.6477 0.0000 30.2458
#
#
#
# Elastic Compliance Matrix: (Units=1/GPa)
#
#
# Indices 1 2 3 4 5 6 
#
# 1 0.005867 -0.001946 -0.000711 0.000000 -0.001709 0.000000
# 2 -0.001946 0.008426 -0.002802 0.000000 -0.001368 0.000000
# 3 -0.000711 -0.002802 0.006381 0.000000 -0.000401 0.000000
# 4 0.000000 0.000000 0.000000 0.006885 0.000000 0.001969
# 5 -0.001709 -0.001368 -0.000401 0.000000 0.018591 0.000000
# 6 0.000000 0.000000 0.000000 0.001969 0.000000 0.033625
#
#
# Mechanical properties :
#
#
# Convention : Reuss Voigt Hill
#
# Bulk Modulus (GPa) = 102.51424 110.09806 106.30615
# Shear Modulus (GPa) = 53.22194 71.52076 62.37135
#
# Velocity S-wave (km/s) = 4.29405 4.97780 4.64851
# Velocity P-wave (km/s) = 7.75251 8.43692 8.10194
#
# Compressibility (1/GPa) = 0.00975474
#
# Stress axis : x y z
#
# Youngs Moduli (GPa) = 170.43655 118.68465 156.72212
#
# Poissons Ratio (x) = 0.23097 0.11148
# Poissons Ratio (y) = 0.33168 0.43915
# Poissons Ratio (z) = 0.12124 0.33256
#
# Static dielectric constant tensor:
#      x y z
#    x 2.406790 0.000000 -2.116350 
#    y 0.000000 5.250300 0.000000 
#    z -2.116350 0.000000 -2.126270 
# 
# From -- ./inp_files/89795.got.cif
#   From: 2010.05.17/outbox.cif.g08.bks.cpg/sg13_45_cif.got.tgz:89795.got - 2010.06.03 16:44:36.
