data_PCOD9231133
_publ_section_title
;
Structure prediction by ZEFSAII (Michael W. Deem and Ramdas Pophale) SiO2 
 PCOD9231133
Probable space group: P 2/C
;
_chemical_formula_sum "Si O2"
_cell_formula_units_Z 24
_cell_length_a 8.996922
_cell_length_b 8.961620
_cell_length_c 30.413631
_cell_angle_alpha 90.000000
_cell_angle_beta 29.919941
_cell_angle_gamma 90.000000
_cell_volume 1223.111321
_symmetry_space_group_name_H-M "P 2/C"
_symmetry_group_IT_number 13
_symmetry_cell_setting 'monoclinic'
loop_
_space_group_symop_operation_xyz
x,y,z
-x,y,1/2-z
-x,-y,-z
x,-y,1/2+z
loop_
_atom_site_type_symbol
_atom_site_label
_atom_site_fract_x
_atom_site_fract_y
_atom_site_fract_z
Si Si1 0.147083 0.380914 0.495347
Si Si2 0.500000 0.703710 0.750000
Si Si3 0.953821 0.559672 0.145522
Si Si4 0.746598 0.952367 0.625983
Si Si5 0.725601 0.159094 0.556870
Si Si6 0.297755 0.562689 0.144565
Si Si7 0.500000 0.800217 0.250000
O O1 0.494681 0.417787 0.400896
O O2 0.000000 0.500000 0.500000
O O3 0.056971 0.408738 0.569131
O O4 0.993955 0.231035 0.517488
O O5 0.224196 0.595745 0.809806
O O6 0.577783 0.810493 0.689242
O O7 0.714387 0.687185 0.220986
O O8 0.209524 0.562903 0.115992
O O9 0.089098 0.903726 0.531662
O O10 0.613421 0.021754 0.615138
O O11 0.704403 0.088932 0.670119
O O12 0.489852 0.288097 0.606578
O O13 0.000000 0.559059 0.250000
#
# Coordination Sequence:
#
# PCOD9231133 Si02
#       7
#     4   2   4   4   4   4   2
#     4  10  21  38  63  92 125 166 213 257 321 377
#     4  10  22  34  66  98 124 162 212 272 316 382
#     4  11  22  39  65  95 132 161 216 269 322 372
#     4  10  20  38  65  88 125 164 216 251 315 392
#     4  10  21  40  65  88 125 174 210 256 324 393
#     4  11  24  37  64  96 129 162 215 273 319 370
#     4  10  20  38  66  96 114 172 216 258 310 386
#
# _framework density 19.622091000000001
#
# number of rings (size 3 to 8) (size 9 to 14) (size 15 to 20)
#    0.000    1.667    1.667    3.500    9.333    0.000 
#    0.000    0.833   25.667    0.000    0.000    0.000 
#    0.000    0.000    0.000    0.000    0.000    0.000 
#
# Total GULP energy -133815.103803 kJ/mol
# GULP energy per Si atom -5575.629325 kJ/mol
# Density = 1.957743 g / cm^3
# Si number density = 19.622091 Si / 1000 Ang^3
#
#
#
# Elastic Constant Matrix: (Units=GPa)
#
#
# Indices 1 2 3 4 5 6 
#
# 1 101.6981 34.3573 38.3840 0.0000 -4.0133 0.0000
# 2 34.3573 118.7918 56.9910 0.0000 1.2872 0.0000
# 3 38.3840 56.9910 108.4141 0.0000 1.5483 0.0000
# 4 0.0000 0.0000 0.0000 39.5239 0.0000 3.6059
# 5 -4.0133 1.2872 1.5483 0.0000 31.3917 0.0000
# 6 0.0000 0.0000 0.0000 3.6059 0.0000 15.5943
#
#
#
# Elastic Compliance Matrix: (Units=1/GPa)
#
#
# Indices 1 2 3 4 5 6 
#
# 1 0.011743 -0.001884 -0.003192 0.000000 0.001736 0.000000
# 2 -0.001884 0.011560 -0.005404 0.000000 -0.000448 0.000000
# 3 -0.003192 -0.005404 0.013207 0.000000 -0.000838 0.000000
# 4 0.000000 0.000000 0.000000 0.025846 0.000000 -0.005977
# 5 0.001736 -0.000448 -0.000838 0.000000 0.032137 0.000000
# 6 0.000000 0.000000 0.000000 -0.005977 0.000000 0.065508
#
#
# Mechanical properties :
#
#
# Convention : Reuss Voigt Hill
#
# Bulk Modulus (GPa) = 64.30574 65.37429 64.84001
# Shear Modulus (GPa) = 26.86103 30.58010 28.72057
#
# Velocity S-wave (km/s) = 3.70390 3.95201 3.82996
# Velocity P-wave (km/s) = 7.15088 7.36298 7.25771
#
# Compressibility (1/GPa) = 0.01555071
#
# Stress axis : x y z
#
# Youngs Moduli (GPa) = 85.15931 86.50406 75.71980
#
# Poissons Ratio (x) = 0.16294 0.24171
# Poissons Ratio (y) = 0.16041 0.40916
# Poissons Ratio (z) = 0.27184 0.46743
#
# Static dielectric constant tensor:
#      x y z
#    x 1.711300 0.000000 0.038030 
#    y 0.000000 1.710350 0.000000 
#    z 0.038030 0.000000 1.758120 
# 
# From -- ./inp_files/68328.got.cif
#   From: 2010.05.17/outbox.cif.g08.bks.cpg/sg13_35_cif.got.tgz:68328.got - 2010.06.03 16:44:36.
