data_PCOD9231742
_publ_section_title
;
Structure prediction by ZEFSAII (Michael W. Deem and Ramdas Pophale) SiO2 
 PCOD9231742
Probable space group: P 2/C
;
_chemical_formula_sum "Si O2"
_cell_formula_units_Z 20
_cell_length_a 9.332256
_cell_length_b 6.861673
_cell_length_c 27.270190
_cell_angle_alpha 90.000000
_cell_angle_beta 148.091375
_cell_angle_gamma 90.000000
_cell_volume 923.005214
_symmetry_space_group_name_H-M "P 2/C"
_symmetry_group_IT_number 13
_symmetry_cell_setting 'monoclinic'
loop_
_space_group_symop_operation_xyz
x,y,z
-x,y,1/2-z
-x,-y,-z
x,-y,1/2+z
loop_
_atom_site_type_symbol
_atom_site_label
_atom_site_fract_x
_atom_site_fract_y
_atom_site_fract_z
Si Si1 0.204988 0.680533 0.639660
Si Si2 0.650160 0.272928 0.841456
Si Si3 0.340748 0.924038 0.589661
Si Si4 0.207803 0.002576 0.940995
Si Si5 0.837424 0.181799 0.750781
O O1 0.500000 0.712761 0.750000
O O2 0.169222 0.448258 0.625083
O O3 0.255985 0.747095 0.598788
O O4 0.967077 0.804785 0.596853
O O5 0.500000 0.180834 0.750000
O O6 0.389552 0.338041 0.798311
O O7 0.775870 0.110126 0.912975
O O8 0.270153 0.912194 0.512652
O O9 0.658951 0.988418 0.685923
O O10 0.025888 0.128261 0.851128
O O11 0.500000 0.000000 0.000000
O O12 0.000000 0.241237 0.750000
#
# Coordination Sequence:
#
# PCOD9231742 Si02
#       5
#     4   4   4   4   4
#     4  11  21  39  65  93 123 174 216 255 318 389
#     4   9  20  38  64  90 124 171 213 259 312 382
#     4  10  21  39  65  92 124 170 211 267 317 382
#     4  12  22  37  68 100 127 167 216 268 328 382
#     4  10  20  41  63  91 133 169 209 268 333 373
#
# _framework density 21.66835
#
# number of rings (size 3 to 8) (size 9 to 14) (size 15 to 20)
#    1.200    0.400    4.000    2.400    0.000    0.800 
#    0.000    7.000    0.000   13.200    0.000    0.000 
#    0.000    0.000    0.000    0.000    0.000    0.000 
#
# Total GULP energy -111363.045507 kJ/mol
# GULP energy per Si atom -5568.152275 kJ/mol
# Density = 2.161903 g / cm^3
# Si number density = 21.668350 Si / 1000 Ang^3
#
#
#
# Elastic Constant Matrix: (Units=GPa)
#
#
# Indices 1 2 3 4 5 6 
#
# 1 175.0330 35.4221 52.8736 0.0000 0.6265 0.0000
# 2 35.4221 78.8271 23.5670 0.0000 -5.1792 0.0000
# 3 52.8736 23.5670 119.6997 0.0000 -23.1726 0.0000
# 4 0.0000 0.0000 0.0000 24.5797 0.0000 8.3938
# 5 0.6265 -5.1792 -23.1726 0.0000 66.0712 0.0000
# 6 0.0000 0.0000 0.0000 8.3938 0.0000 31.7848
#
#
#
# Elastic Compliance Matrix: (Units=1/GPa)
#
#
# Indices 1 2 3 4 5 6 
#
# 1 0.007079 -0.002397 -0.002901 0.000000 -0.001273 0.000000
# 2 -0.002397 0.014292 -0.001645 0.000000 0.000566 0.000000
# 3 -0.002901 -0.001645 0.010664 0.000000 0.003639 0.000000
# 4 0.000000 0.000000 0.000000 0.044717 0.000000 -0.011809
# 5 -0.001273 0.000566 0.003639 0.000000 0.016468 0.000000
# 6 0.000000 0.000000 0.000000 -0.011809 0.000000 0.034580
#
#
# Mechanical properties :
#
#
# Convention : Reuss Voigt Hill
#
# Bulk Modulus (GPa) = 55.10397 66.36503 60.73450
# Shear Modulus (GPa) = 33.84362 41.93360 37.88861
#
# Velocity S-wave (km/s) = 3.95637 4.40392 4.18613
# Velocity P-wave (km/s) = 6.80854 7.52020 7.17320
#
# Compressibility (1/GPa) = 0.01814751
#
# Stress axis : x y z
#
# Youngs Moduli (GPa) = 141.25481 69.96719 93.77129
#
# Poissons Ratio (x) = 0.16774 0.27207
# Poissons Ratio (y) = 0.33864 0.15429
# Poissons Ratio (z) = 0.40985 0.11512
#
# Static dielectric constant tensor:
#      x y z
#    x 1.822850 0.000000 0.034120 
#    y 0.000000 1.846630 0.000000 
#    z 0.034120 0.000000 1.922100 
# 
# From -- ./inp_files/91370.got.cif
#   From: 2010.05.17/outbox.cif.g08.bks.cpg/sg13_46_cif.got.tgz:91370.got - 2010.06.03 16:44:36.
