data_PCOD9231684
_publ_section_title
;
Structure prediction by ZEFSAII (Michael W. Deem and Ramdas Pophale) SiO2 
 PCOD9231684
Probable space group: P 2/C
;
_chemical_formula_sum "Si O2"
_cell_formula_units_Z 24
_cell_length_a 11.654663
_cell_length_b 9.007110
_cell_length_c 9.339033
_cell_angle_alpha 90.000000
_cell_angle_beta 102.568374
_cell_angle_gamma 90.000000
_cell_volume 956.870991
_symmetry_space_group_name_H-M "P 2/C"
_symmetry_group_IT_number 13
_symmetry_cell_setting 'monoclinic'
loop_
_space_group_symop_operation_xyz
x,y,z
-x,y,1/2-z
-x,-y,-z
x,-y,1/2+z
loop_
_atom_site_type_symbol
_atom_site_label
_atom_site_fract_x
_atom_site_fract_y
_atom_site_fract_z
Si Si1 0.759233 0.328730 0.652487
Si Si2 0.605386 0.973998 0.861936
Si Si3 0.000000 0.808164 0.750000
Si Si4 0.493630 0.696138 0.996289
Si Si5 0.120818 0.558587 0.598752
Si Si6 0.226839 0.024077 0.348115
Si Si7 0.500000 0.533450 0.250000
O O1 0.619597 0.334964 0.606592
O O2 0.819973 0.433596 0.786081
O O3 0.799694 0.388128 0.509444
O O4 0.787881 0.153581 0.673935
O O5 0.500000 0.057523 0.750000
O O6 0.703210 0.921157 0.774386
O O7 0.532242 0.849285 0.928361
O O8 0.683018 0.059430 0.998909
O O9 0.079666 0.701032 0.676494
O O10 0.099881 0.909583 0.848220
O O11 0.422389 0.636288 0.116975
O O12 0.455301 0.592707 0.854282
O O13 0.000000 0.500000 0.500000
#
# Coordination Sequence:
#
# PCOD9231684 Si02
#       7
#     4   4   2   4   4   4   2
#     4  11  25  46  68 105 142 194 244 294 377 438
#     4  11  24  51  71 107 147 198 254 309 369 445
#     4  12  26  46  76 114 150 190 252 300 384 448
#     4  10  21  41  69 103 143 186 251 301 367 441
#     4  12  25  46  72 103 144 192 236 308 366 455
#     4  11  28  46  79 109 151 199 245 317 370 451
#     4  10  20  40  70 104 136 198 230 314 364 430
#
# _framework density 25.08175
#
# number of rings (size 3 to 8) (size 9 to 14) (size 15 to 20)
#    0.000    1.000    2.500    3.500    4.667    1.333 
#   12.000    0.000    0.000    0.000    0.000    0.000 
#    0.000    0.000    0.000    0.000    0.000    0.000 
#
# Total GULP energy -133942.581939 kJ/mol
# GULP energy per Si atom -5580.940914 kJ/mol
# Density = 2.502466 g / cm^3
# Si number density = 25.081750 Si / 1000 Ang^3
#
#
#
# Elastic Constant Matrix: (Units=GPa)
#
#
# Indices 1 2 3 4 5 6 
#
# 1 99.3635 28.6589 30.9896 0.0000 16.7688 0.0000
# 2 28.6589 135.5016 23.9348 0.0000 12.4687 0.0000
# 3 30.9896 23.9348 153.1801 0.0000 -18.0462 0.0000
# 4 0.0000 0.0000 0.0000 18.6163 0.0000 11.1411
# 5 16.7688 12.4687 -18.0462 0.0000 45.9828 0.0000
# 6 0.0000 0.0000 0.0000 11.1411 0.0000 -181.6699
#
#
#
# Elastic Compliance Matrix: (Units=1/GPa)
#
#
# Indices 1 2 3 4 5 6 
#
# 1 0.012288 -0.001623 -0.002840 0.000000 -0.005155 0.000000
# 2 -0.001623 0.008124 -0.001186 0.000000 -0.002076 0.000000
# 3 -0.002840 -0.001186 0.007809 0.000000 0.004422 0.000000
# 4 0.000000 0.000000 0.000000 0.051815 0.000000 0.003178
# 5 -0.005155 -0.002076 0.004422 0.000000 0.025926 0.000000
# 6 0.000000 0.000000 0.000000 0.003178 0.000000 -0.005310
#
#
# Mechanical properties :
#
#
# Convention : Reuss Voigt Hill
#
# Bulk Modulus (GPa) = 59.08771 61.69020 60.38896
# Shear Modulus (GPa) = 42.52095 -3.11671 19.70212
#
# Velocity S-wave (km/s) = 4.12186 -1.11594 2.80575
# Velocity P-wave (km/s) = 6.80163 4.79465 5.88434
#
# Compressibility (1/GPa) = 0.01692399
#
# Stress axis : x y z
#
# Youngs Moduli (GPa) = 81.38128 123.09627 128.05824
#
# Poissons Ratio (x) = 0.19977 0.36365
# Poissons Ratio (y) = 0.13207 0.15183
# Poissons Ratio (z) = 0.23110 0.14595
#
# Static dielectric constant tensor:
#      x y z
#    x 2.869390 0.000000 -0.493410 
#    y 0.000000 2.016440 0.000000 
#    z -0.493410 0.000000 2.010830 
# 
# From -- ./inp_files/18196.got.cif
#   From: 2010.05.17/outbox.cif.g08.bks.cpg/sg13_10_cif.got.tgz:18196.got - 2010.06.03 16:44:36.
