data_PCOD9231915
_publ_section_title
;
Structure prediction by ZEFSAII (Michael W. Deem and Ramdas Pophale) SiO2 
 PCOD9231915
Probable space group: P 2/C
;
_chemical_formula_sum "Si O2"
_cell_formula_units_Z 26
_cell_length_a 15.350196
_cell_length_b 13.625485
_cell_length_c 8.591612
_cell_angle_alpha 90.000000
_cell_angle_beta 38.641586
_cell_angle_gamma 90.000000
_cell_volume 1122.111220
_symmetry_space_group_name_H-M "P 2/C"
_symmetry_group_IT_number 13
_symmetry_cell_setting 'monoclinic'
loop_
_space_group_symop_operation_xyz
x,y,z
-x,y,1/2-z
-x,-y,-z
x,-y,1/2+z
loop_
_atom_site_type_symbol
_atom_site_label
_atom_site_fract_x
_atom_site_fract_y
_atom_site_fract_z
Si Si1 0.500000 0.534043 0.750000
Si Si2 0.334236 0.785242 0.464173
Si Si3 0.329788 0.150746 0.473213
Si Si4 0.897229 0.492053 0.503192
Si Si5 0.358922 0.386298 0.719843
Si Si6 0.161303 0.714798 0.007784
Si Si7 0.660373 0.971754 0.238373
O O1 0.391696 0.454172 0.824439
O O2 0.515563 0.605033 0.577166
O O3 0.500000 0.766521 0.250000
O O4 0.305178 0.716320 0.356612
O O5 0.323911 0.898312 0.429911
O O6 0.243293 0.752407 0.738449
O O7 0.500000 0.162879 0.250000
O O8 0.250070 0.248940 0.533271
O O9 0.287454 0.091335 0.687837
O O10 0.285909 0.076505 0.393971
O O11 0.757397 0.435916 0.723108
O O12 0.854503 0.597240 0.491424
O O13 0.000000 0.500000 0.500000
O O14 0.000000 0.430793 0.250000
O O15 0.000000 0.750260 0.250000
O O16 0.500000 0.000000 0.500000
#
# Coordination Sequence:
#
# PCOD9231915 Si02
#       7
#     2   4   4   4   4   4   4
#     4  10  22  40  60 100 142 168 218 302 360 396
#     4  12  23  42  68 101 138 184 235 293 355 430
#     4  10  20  42  69 102 134 182 234 293 357 425
#     4  11  24  44  66  92 137 193 233 275 348 439
#     4  11  23  42  66  98 138 177 234 292 355 414
#     4  11  26  46  70 102 144 189 240 296 363 429
#     4  10  21  40  68 103 140 177 232 290 360 433
#
# _framework density 23.17061
#
# number of rings (size 3 to 8) (size 9 to 14) (size 15 to 20)
#    0.000    1.231    0.769    6.923    2.154    3.692 
#    5.538    5.385    0.000    0.000    0.000    0.000 
#    0.000    0.000    0.000    0.000    0.000    0.000 
#
# Total GULP energy -144959.006335 kJ/mol
# GULP energy per Si atom -5575.346398 kJ/mol
# Density = 2.311787 g / cm^3
# Si number density = 23.170610 Si / 1000 Ang^3
#
#
#
# Elastic Constant Matrix: (Units=GPa)
#
#
# Indices 1 2 3 4 5 6 
#
# 1 115.0335 42.4123 4.9188 0.0000 -7.1850 0.0000
# 2 42.4123 120.5008 27.7461 0.0000 1.4813 0.0000
# 3 4.9188 27.7461 74.6356 0.0000 2.9215 0.0000
# 4 0.0000 0.0000 0.0000 20.3689 0.0000 17.6227
# 5 -7.1850 1.4813 2.9215 0.0000 29.5757 0.0000
# 6 0.0000 0.0000 0.0000 17.6227 0.0000 38.0523
#
#
#
# Elastic Compliance Matrix: (Units=1/GPa)
#
#
# Indices 1 2 3 4 5 6 
#
# 1 0.010221 -0.003774 0.000627 0.000000 0.002610 0.000000
# 2 -0.003774 0.010469 -0.003601 0.000000 -0.001085 0.000000
# 3 0.000627 -0.003601 0.014740 0.000000 -0.001123 0.000000
# 4 0.000000 0.000000 0.000000 0.081917 0.000000 -0.037937
# 5 0.002610 -0.001085 -0.001123 0.000000 0.034611 0.000000
# 6 0.000000 0.000000 0.000000 -0.037937 0.000000 0.043849
#
#
# Mechanical properties :
#
#
# Convention : Reuss Voigt Hill
#
# Bulk Modulus (GPa) = 45.58961 51.14713 48.36837
# Shear Modulus (GPa) = 23.08262 33.27224 28.17743
#
# Velocity S-wave (km/s) = 3.15969 3.79353 3.49102
# Velocity P-wave (km/s) = 5.74716 6.42727 6.09671
#
# Compressibility (1/GPa) = 0.02193482
#
# Stress axis : x y z
#
# Youngs Moduli (GPa) = 97.84042 95.51614 67.84401
#
# Poissons Ratio (x) = 0.36046 -0.04255
# Poissons Ratio (y) = 0.36924 0.24430
# Poissons Ratio (z) = -0.06136 0.34394
#
# Static dielectric constant tensor:
#      x y z
#    x 1.893380 0.000000 0.043910 
#    y 0.000000 1.963450 0.000000 
#    z 0.043910 0.000000 2.137710 
# 
# From -- ./inp_files/19848.got.cif
#   From: 2010.05.17/outbox.cif.g08.bks.cpg/sg13_10_cif.got.tgz:19848.got - 2010.06.03 16:44:36.
