data_PCOD9231100
_publ_section_title
;
Structure prediction by ZEFSAII (Michael W. Deem and Ramdas Pophale) SiO2 
 PCOD9231100
Probable space group: P 2/C
;
_chemical_formula_sum "Si O2"
_cell_formula_units_Z 28
_cell_length_a 22.056559
_cell_length_b 11.149605
_cell_length_c 18.650730
_cell_angle_alpha 90.000000
_cell_angle_beta 18.682434
_cell_angle_gamma 90.000000
_cell_volume 1469.199001
_symmetry_space_group_name_H-M "P 2/C"
_symmetry_group_IT_number 13
_symmetry_cell_setting 'monoclinic'
loop_
_space_group_symop_operation_xyz
x,y,z
-x,y,1/2-z
-x,-y,-z
x,-y,1/2+z
loop_
_atom_site_type_symbol
_atom_site_label
_atom_site_fract_x
_atom_site_fract_y
_atom_site_fract_z
Si Si1 0.997042 0.731254 0.337134
Si Si2 0.205321 0.377692 0.725511
Si Si3 0.369953 0.152148 0.964649
Si Si4 0.605696 0.267032 0.317397
Si Si5 0.202769 0.340117 0.251805
Si Si6 0.617741 0.992551 0.295432
Si Si7 0.979712 0.988302 0.109872
O O1 0.152858 0.647447 0.200825
O O2 0.000000 0.760845 0.250000
O O3 0.790783 0.669331 0.577043
O O4 0.013291 0.852438 0.367477
O O5 0.398968 0.314811 0.532108
O O6 0.231380 0.518082 0.712344
O O7 0.018981 0.329678 0.977300
O O8 0.263785 0.269864 0.112525
O O9 0.203856 0.051922 0.151875
O O10 0.500000 0.171188 0.750000
O O11 0.516628 0.097202 0.856711
O O12 0.664249 0.280871 0.335370
O O13 0.616687 0.132041 0.273674
O O14 0.500000 0.000000 0.500000
O O15 0.829860 0.952963 0.073490
O O16 0.000000 0.000000 0.000000
#
# Coordination Sequence:
#
# PCOD9231100 Si02
#       7
#     4   4   4   4   4   4   4
#     4  10  23  39  58  93 128 154 206 266 309 372
#     4  10  21  40  69  88 116 166 215 262 310 355
#     4  12  26  39  59  93 134 166 199 256 327 381
#     4  10  20  38  64  92 116 157 212 259 305 366
#     4  10  22  41  62  92 122 159 218 261 295 379
#     4  11  21  37  63  92 120 162 208 249 308 383
#     4  11  22  40  65  89 124 166 207 255 308 382
#
# _framework density 19.058005000000001
#
# number of rings (size 3 to 8) (size 9 to 14) (size 15 to 20)
#    0.000    1.429    2.857    3.000    6.000    0.571 
#    2.571    0.000    0.000    0.000    0.000    0.000 
#    0.000    0.000    0.000    0.000    0.000    0.000 
#
# Total GULP energy -155971.039478 kJ/mol
# GULP energy per Si atom -5570.394267 kJ/mol
# Density = 1.901463 g / cm^3
# Si number density = 19.058005 Si / 1000 Ang^3
#
#
#
# Elastic Constant Matrix: (Units=GPa)
#
#
# Indices 1 2 3 4 5 6 
#
# 1 94.6609 34.2062 65.7329 0.0000 3.6804 0.0000
# 2 34.2062 64.6882 46.8971 0.0000 4.8726 0.0000
# 3 65.7329 46.8971 134.0782 0.0000 -20.7740 0.0000
# 4 0.0000 0.0000 0.0000 21.9150 0.0000 -3.9147
# 5 3.6804 4.8726 -20.7740 0.0000 44.2672 0.0000
# 6 0.0000 0.0000 0.0000 -3.9147 0.0000 16.4718
#
#
#
# Elastic Compliance Matrix: (Units=1/GPa)
#
#
# Indices 1 2 3 4 5 6 
#
# 1 0.017662 -0.002811 -0.008471 0.000000 -0.005134 0.000000
# 2 -0.002811 0.022821 -0.007503 0.000000 -0.005799 0.000000
# 3 -0.008471 -0.007503 0.015607 0.000000 0.008854 0.000000
# 4 0.000000 0.000000 0.000000 0.047654 0.000000 0.011325
# 5 -0.005134 -0.005799 0.008854 0.000000 0.027811 0.000000
# 6 0.000000 0.000000 0.000000 0.011325 0.000000 0.063401
#
#
# Mechanical properties :
#
#
# Convention : Reuss Voigt Hill
#
# Bulk Modulus (GPa) = 53.99344 65.23331 59.61337
# Shear Modulus (GPa) = 20.94682 26.30355 23.62518
#
# Velocity S-wave (km/s) = 3.31888 3.71911 3.52468
# Velocity P-wave (km/s) = 6.56348 7.26261 6.92188
#
# Compressibility (1/GPa) = 0.01852077
#
# Stress axis : x y z
#
# Youngs Moduli (GPa) = 56.61921 43.81869 64.07207
#
# Poissons Ratio (x) = 0.12319 0.54276
# Poissons Ratio (y) = 0.15918 0.48070
# Poissons Ratio (z) = 0.47962 0.32875
#
# Static dielectric constant tensor:
#      x y z
#    x 1.688710 0.000000 0.015070 
#    y 0.000000 1.090380 0.000000 
#    z 0.015070 0.000000 1.687180 
# 
# From -- ./inp_files/70668.got.cif
#   From: 2010.05.17/outbox.cif.g08.bks.cpg/sg13_36_cif.got.tgz:70668.got - 2010.06.03 16:44:36.
