data_PCOD9231978
_publ_section_title
;
Structure prediction by ZEFSAII (Michael W. Deem and Ramdas Pophale) SiO2 
 PCOD9231978
Probable space group: P 2/C
;
_chemical_formula_sum "Si O2"
_cell_formula_units_Z 32
_cell_length_a 9.419225
_cell_length_b 15.286426
_cell_length_c 24.009477
_cell_angle_alpha 90.000000
_cell_angle_beta 28.274574
_cell_angle_gamma 90.000000
_cell_volume 1637.588812
_symmetry_space_group_name_H-M "P 2/C"
_symmetry_group_IT_number 13
_symmetry_cell_setting 'monoclinic'
loop_
_space_group_symop_operation_xyz
x,y,z
-x,y,1/2-z
-x,-y,-z
x,-y,1/2+z
loop_
_atom_site_type_symbol
_atom_site_label
_atom_site_fract_x
_atom_site_fract_y
_atom_site_fract_z
Si Si1 0.241083 0.069154 0.465539
Si Si2 0.792306 0.823403 0.775762
Si Si3 0.393915 0.379135 0.992945
Si Si4 0.245538 0.056892 0.059401
Si Si5 0.611521 0.100087 0.649303
Si Si6 0.694142 0.340730 0.238654
Si Si7 0.639780 0.565942 0.872509
Si Si8 0.649655 0.799623 0.359025
O O1 0.480911 0.138068 0.405222
O O2 0.971305 0.114957 0.526252
O O3 0.111167 0.007432 0.559117
O O4 0.409419 0.997723 0.368939
O O5 0.720922 0.759792 0.749536
O O6 0.000000 0.775916 0.750000
O O7 0.997617 0.903714 0.685069
O O8 0.501591 0.470120 0.929202
O O9 0.561048 0.298543 0.906033
O O10 0.455056 0.381109 0.038791
O O11 0.035747 0.370677 0.110130
O O12 0.425407 0.137849 0.970966
O O13 0.500000 0.000000 0.000000
O O14 0.500000 0.103338 0.750000
O O15 0.431576 0.170065 0.675184
O O16 0.500000 0.350828 0.250000
O O17 0.569120 0.390806 0.337042
O O18 0.000000 0.558087 0.750000
O O19 0.000000 0.816039 0.250000
#
# Coordination Sequence:
#
# PCOD9231978 Si02
#       8
#     4   4   4   4   4   4   4   4
#     4  10  23  37  63  83 120 170 215 259 323 369
#     4  12  23  38  64  92 125 166 222 266 310 373
#     4  10  20  43  67  95 125 159 210 258 319 382
#     4  11  23  37  60  91 123 163 213 273 312 362
#     4  10  23  42  57  84 124 167 210 262 317 384
#     4  11  25  40  63  97 133 167 205 263 324 385
#     4   9  20  41  72  95 123 160 205 256 319 387
#     4  11  25  39  62  89 123 162 211 262 315 377
#
# _framework density 19.540924
#
# number of rings (size 3 to 8) (size 9 to 14) (size 15 to 20)
#    0.000    1.500    2.500    2.250    7.000    2.000 
#    0.000    0.625    0.000    0.000    0.000    0.000 
#    0.000    0.000    0.000    0.000    0.000    0.000 
#
# Total GULP energy -178663.212393 kJ/mol
# GULP energy per Si atom -5583.225387 kJ/mol
# Density = 1.949645 g / cm^3
# Si number density = 19.540924 Si / 1000 Ang^3
#
#
#
# Elastic Constant Matrix: (Units=GPa)
#
#
# Indices 1 2 3 4 5 6 
#
# 1 148.0561 46.5711 36.1976 0.0000 -3.3555 0.0000
# 2 46.5711 77.1611 25.6378 0.0000 -4.8887 0.0000
# 3 36.1976 25.6378 64.3560 0.0000 -4.8952 0.0000
# 4 0.0000 0.0000 0.0000 22.0896 0.0000 -0.1771
# 5 -3.3555 -4.8887 -4.8952 0.0000 31.8990 0.0000
# 6 0.0000 0.0000 0.0000 -0.1771 0.0000 13.5726
#
#
#
# Elastic Compliance Matrix: (Units=1/GPa)
#
#
# Indices 1 2 3 4 5 6 
#
# 1 0.008910 -0.004289 -0.003320 0.000000 -0.000230 0.000000
# 2 -0.004289 0.017063 -0.004270 0.000000 0.001509 0.000000
# 3 -0.003320 -0.004270 0.019256 0.000000 0.001951 0.000000
# 4 0.000000 0.000000 0.000000 0.045275 0.000000 0.000591
# 5 -0.000230 0.001509 0.001951 0.000000 0.031855 0.000000
# 6 0.000000 0.000000 0.000000 0.000591 0.000000 0.073685
#
#
# Mechanical properties :
#
#
# Convention : Reuss Voigt Hill
#
# Bulk Modulus (GPa) = 46.57797 56.26512 51.42155
# Shear Modulus (GPa) = 22.03033 25.59003 23.81018
#
# Velocity S-wave (km/s) = 3.36131 3.62271 3.49446
# Velocity P-wave (km/s) = 6.24119 6.80843 6.53097
#
# Compressibility (1/GPa) = 0.02146938
#
# Stress axis : x y z
#
# Youngs Moduli (GPa) = 112.23547 58.60641 51.93263
#
# Poissons Ratio (x) = 0.25136 0.17243
# Poissons Ratio (y) = 0.48137 0.22177
# Poissons Ratio (z) = 0.37265 0.25027
#
# Static dielectric constant tensor:
#      x y z
#    x 1.731730 0.000000 0.025390 
#    y 0.000000 1.694440 0.000000 
#    z 0.025390 0.000000 1.676250 
# 
# From -- ./inp_files/85335.got.cif
#   From: 2010.05.17/outbox.cif.g08.bks.cpg/sg13_43_cif.got.tgz:85335.got - 2010.06.03 16:44:36.
