data_PCOD9231569
_publ_section_title
;
Structure prediction by ZEFSAII (Michael W. Deem and Ramdas Pophale) SiO2 
 PCOD9231569
Probable space group: P 2/C
;
_chemical_formula_sum "Si O2"
_cell_formula_units_Z 24
_cell_length_a 6.761431
_cell_length_b 11.962434
_cell_length_c 17.521355
_cell_angle_alpha 90.000000
_cell_angle_beta 49.316074
_cell_angle_gamma 90.000000
_cell_volume 1074.674140
_symmetry_space_group_name_H-M "P 2/C"
_symmetry_group_IT_number 13
_symmetry_cell_setting 'monoclinic'
loop_
_space_group_symop_operation_xyz
x,y,z
-x,y,1/2-z
-x,-y,-z
x,-y,1/2+z
loop_
_atom_site_type_symbol
_atom_site_label
_atom_site_fract_x
_atom_site_fract_y
_atom_site_fract_z
Si Si1 0.946603 0.943030 0.878580
Si Si2 0.812189 0.175921 0.871010
Si Si3 0.500000 0.941408 0.250000
Si Si4 0.000000 0.751115 0.750000
Si Si5 0.367236 0.365568 0.969243
Si Si6 0.861585 0.819623 0.055219
Si Si7 0.728510 0.454124 0.337941
O O1 0.908989 0.831646 0.839531
O O2 0.763038 0.041462 0.891394
O O3 0.245446 0.986133 0.794452
O O4 0.919850 0.907081 0.973107
O O5 0.958851 0.188115 0.915724
O O6 0.000000 0.191649 0.750000
O O7 0.583902 0.267903 0.928401
O O8 0.586114 0.861278 0.159358
O O9 0.231292 0.664669 0.714201
O O10 0.143573 0.301078 0.981569
O O11 0.492008 0.462970 0.886323
O O12 0.281368 0.418943 0.070593
O O13 0.000000 0.515535 0.250000
#
# Coordination Sequence:
#
# PCOD9231569 Si02
#       7
#     4   4   2   2   4   4   4
#     4  11  22  41  61  94 133 166 211 262 316 390
#     4  11  23  38  64  99 128 166 210 263 318 383
#     4  10  22  36  60  88 136 168 198 262 320 374
#     4  10  20  40  64  86 132 160 210 266 302 382
#     4  11  21  40  68  87 123 173 207 263 334 355
#     4  11  23  41  61  97 131 162 219 262 308 394
#     4   9  21  40  61  89 126 163 215 267 300 380
#
# _framework density 22.332352
#
# number of rings (size 3 to 8) (size 9 to 14) (size 15 to 20)
#    0.500    1.000    2.500    4.500    0.000    3.333 
#    0.000    3.333    3.667    2.000    0.000    0.000 
#    0.000    0.000    0.000    0.000    0.000    0.000 
#
# Total GULP energy -133817.091875 kJ/mol
# GULP energy per Si atom -5575.712161 kJ/mol
# Density = 2.228152 g / cm^3
# Si number density = 22.332352 Si / 1000 Ang^3
#
#
#
# Elastic Constant Matrix: (Units=GPa)
#
#
# Indices 1 2 3 4 5 6 
#
# 1 39.3715 13.3360 14.0014 0.0000 18.7206 0.0000
# 2 13.3360 106.0472 15.6529 0.0000 6.2590 0.0000
# 3 14.0014 15.6529 108.8594 0.0000 17.9063 0.0000
# 4 0.0000 0.0000 0.0000 5.4136 0.0000 -0.9851
# 5 18.7206 6.2590 17.9063 0.0000 30.9640 0.0000
# 6 0.0000 0.0000 0.0000 -0.9851 0.0000 1.8311
#
#
#
# Elastic Compliance Matrix: (Units=1/GPa)
#
#
# Indices 1 2 3 4 5 6 
#
# 1 0.036849 -0.003269 -0.000789 0.000000 -0.021162 0.000000
# 2 -0.003269 0.009969 -0.001112 0.000000 0.000604 0.000000
# 3 -0.000789 -0.001112 0.010313 0.000000 -0.005262 0.000000
# 4 0.000000 0.000000 0.000000 0.204763 0.000000 0.110157
# 5 -0.021162 0.000604 -0.005262 0.000000 0.048011 0.000000
# 6 0.000000 0.000000 0.000000 0.110157 0.000000 0.605393
#
#
# Mechanical properties :
#
#
# Convention : Reuss Voigt Hill
#
# Bulk Modulus (GPa) = 21.37115 37.80654 29.58884
# Shear Modulus (GPa) = 5.31217 21.72759 13.51988
#
# Velocity S-wave (km/s) = 1.54397 3.12255 2.46315
# Velocity P-wave (km/s) = 3.57335 5.47414 4.62250
#
# Compressibility (1/GPa) = 0.04679206
#
# Stress axis : x y z
#
# Youngs Moduli (GPa) = 27.13795 100.30752 96.96342
#
# Poissons Ratio (x) = 0.32786 0.07646
# Poissons Ratio (y) = 0.08870 0.10787
# Poissons Ratio (z) = 0.02140 0.11159
#
# Static dielectric constant tensor:
#      x y z
#    x 1.903140 0.000000 -0.031700 
#    y 0.000000 1.861750 0.000000 
#    z -0.031700 0.000000 1.857410 
# 
# From -- ./inp_files/76202.got.cif
#   From: 2010.05.17/outbox.cif.g08.bks.cpg/sg13_39_cif.got.tgz:76202.got - 2010.06.03 16:44:36.
