data_PCOD9231887
_publ_section_title
;
Structure prediction by ZEFSAII (Michael W. Deem and Ramdas Pophale) SiO2 
 PCOD9231887
Probable space group: P 2/C
;
_chemical_formula_sum "Si O2"
_cell_formula_units_Z 28
_cell_length_a 6.319020
_cell_length_b 18.947759
_cell_length_c 11.590648
_cell_angle_alpha 90.000000
_cell_angle_beta 65.871972
_cell_angle_gamma 90.000000
_cell_volume 1266.520127
_symmetry_space_group_name_H-M "P 2/C"
_symmetry_group_IT_number 13
_symmetry_cell_setting 'monoclinic'
loop_
_space_group_symop_operation_xyz
x,y,z
-x,y,1/2-z
-x,-y,-z
x,-y,1/2+z
loop_
_atom_site_type_symbol
_atom_site_label
_atom_site_fract_x
_atom_site_fract_y
_atom_site_fract_z
Si Si1 0.986427 0.092732 0.619905
Si Si2 0.090383 0.426654 0.355338
Si Si3 0.124392 0.773667 0.485910
Si Si4 0.614082 0.361052 0.543784
Si Si5 0.355638 0.294142 0.382216
Si Si6 0.000000 0.172929 0.250000
Si Si7 0.249863 0.940949 0.852663
Si Si8 0.500000 0.464855 0.750000
O O1 0.838550 0.151680 0.584150
O O2 0.000000 0.113378 0.750000
O O3 0.221122 0.084088 0.491564
O O4 0.882896 0.014394 0.635896
O O5 0.231843 0.354416 0.333599
O O6 0.284353 0.485968 0.335654
O O7 0.000000 0.443962 0.250000
O O8 0.850897 0.406488 0.473222
O O9 0.297134 0.710775 0.414820
O O10 0.857861 0.750778 0.519547
O O11 0.134427 0.781954 0.623508
O O12 0.492786 0.334306 0.453295
O O13 0.449099 0.411693 0.655205
O O14 0.500000 0.253887 0.250000
O O15 0.148354 0.120761 0.295951
O O16 0.500000 0.954679 0.750000
#
# Coordination Sequence:
#
# PCOD9231887 Si02
#       8
#     4   4   4   4   4   2   4   2
#     4  10  22  44  63  98 140 169 223 278 337 403
#     4  11  22  42  69  96 125 168 218 284 330 381
#     4  10  24  39  64  92 134 179 212 278 337 392
#     4  11  25  43  63  95 135 171 225 274 324 411
#     4  11  21  42  68  96 124 174 229 271 328 391
#     4  10  20  42  66  98 132 162 232 280 318 390
#     4  10  22  42  69  98 128 178 224 278 331 392
#     4  12  26  42  64  98 134 178 216 266 344 402
#
# _framework density 22.107821000000001
#
# number of rings (size 3 to 8) (size 9 to 14) (size 15 to 20)
#    0.000    1.429    2.857    1.286    2.000   10.857 
#    3.857    0.000    0.000    0.000    0.000    0.000 
#    0.000    0.000    0.000    0.000    0.000    0.000 
#
# Total GULP energy -156138.741605 kJ/mol
# GULP energy per Si atom -5576.383629 kJ/mol
# Density = 2.205750 g / cm^3
# Si number density = 22.107821 Si / 1000 Ang^3
#
#
#
# Elastic Constant Matrix: (Units=GPa)
#
#
# Indices 1 2 3 4 5 6 
#
# 1 53.5985 11.7150 16.6102 0.0000 2.6936 0.0000
# 2 11.7150 103.8789 12.4832 0.0000 4.1249 0.0000
# 3 16.6102 12.4832 82.1978 0.0000 11.7128 0.0000
# 4 0.0000 0.0000 0.0000 -1.6270 0.0000 72.3554
# 5 2.6936 4.1249 11.7128 0.0000 26.8668 0.0000
# 6 0.0000 0.0000 0.0000 72.3554 0.0000 -135.8292
#
#
#
# Elastic Compliance Matrix: (Units=1/GPa)
#
#
# Indices 1 2 3 4 5 6 
#
# 1 0.020238 -0.001822 -0.003800 0.000000 -0.000093 0.000000
# 2 -0.001822 0.009991 -0.001020 0.000000 -0.000907 0.000000
# 3 -0.003800 -0.001020 0.013874 0.000000 -0.005511 0.000000
# 4 0.000000 0.000000 0.000000 0.027088 0.000000 0.014430
# 5 -0.000093 -0.000907 -0.005511 0.000000 0.039772 0.000000
# 6 0.000000 0.000000 0.000000 0.014430 0.000000 0.000324
#
#
# Mechanical properties :
#
#
# Convention : Reuss Voigt Hill
#
# Bulk Modulus (GPa) = 32.44754 35.69912 34.07333
# Shear Modulus (GPa) = 37.08030 -8.86009 14.11011
#
# Velocity S-wave (km/s) = 4.09987 -2.00409 2.52908
# Velocity P-wave (km/s) = 6.09267 3.29054 4.89634
#
# Compressibility (1/GPa) = 0.03081897
#
# Stress axis : x y z
#
# Youngs Moduli (GPa) = 49.41288 100.09380 72.07858
#
# Poissons Ratio (x) = 0.18237 0.27387
# Poissons Ratio (y) = 0.09003 0.07351
# Poissons Ratio (z) = 0.18775 0.10208
#
# Static dielectric constant tensor:
#      x y z
#    x 1.857280 0.000000 -0.058660 
#    y 0.000000 1.813980 0.000000 
#    z -0.058660 0.000000 1.883330 
# 
# From -- ./inp_files/26720.got.cif
#   From: 2010.05.17/outbox.cif.g08.bks.cpg/sg13_14_cif.got.tgz:26720.got - 2010.06.03 16:44:36.
