data_PCOD9231698
_publ_section_title
;
Structure prediction by ZEFSAII (Michael W. Deem and Ramdas Pophale) SiO2 
 PCOD9231698
Probable space group: P 2/C
;
_chemical_formula_sum "Si O2"
_cell_formula_units_Z 24
_cell_length_a 9.277612
_cell_length_b 9.558444
_cell_length_c 14.033388
_cell_angle_alpha 90.000000
_cell_angle_beta 120.436241
_cell_angle_gamma 90.000000
_cell_volume 1072.977566
_symmetry_space_group_name_H-M "P 2/C"
_symmetry_group_IT_number 13
_symmetry_cell_setting 'monoclinic'
loop_
_space_group_symop_operation_xyz
x,y,z
-x,y,1/2-z
-x,-y,-z
x,-y,1/2+z
loop_
_atom_site_type_symbol
_atom_site_label
_atom_site_fract_x
_atom_site_fract_y
_atom_site_fract_z
Si Si1 0.000000 0.623338 0.250000
Si Si2 0.511112 0.260915 0.962125
Si Si3 0.500000 0.341334 0.250000
Si Si4 0.807274 0.862543 0.072561
Si Si5 0.218669 0.885483 0.647752
Si Si6 0.680297 0.538320 0.637619
Si Si7 0.500000 0.879529 0.250000
Si Si8 0.000000 0.089098 0.250000
O O1 0.916479 0.729038 0.145231
O O2 0.855994 0.517437 0.235816
O O3 0.393887 0.154502 0.982212
O O4 0.395313 0.398497 0.933034
O O5 0.522904 0.208314 0.856669
O O6 0.677090 0.323256 0.068854
O O7 0.655413 0.242834 0.322542
O O8 0.446688 0.431089 0.320672
O O9 0.859896 0.988922 0.157453
O O10 0.857552 0.900024 0.982480
O O11 0.336092 0.021256 0.707302
O O12 0.092537 0.845967 0.690067
#
# Coordination Sequence:
#
# PCOD9231698 Si02
#       8
#     2   4   2   4   4   4   2   2
#     4   9  22  41  72  96 132 171 223 288 336 382
#     4  10  20  40  71  95 131 176 225 273 331 403
#     4  11  23  40  64  94 135 171 226 276 322 405
#     4  10  20  42  67  96 134 175 221 272 330 403
#     4  11  24  39  66  97 136 184 217 271 334 401
#     4  10  21  41  68  95 129 175 222 279 338 385
#     4  11  23  40  66 104 129 177 230 264 328 399
#     4  11  22  41  62  94 144 175 213 276 332 388
#
# _framework density 22.367664000000001
#
# number of rings (size 3 to 8) (size 9 to 14) (size 15 to 20)
#    0.000    1.667    3.333    1.000    0.000    2.667 
#    0.000    2.500    3.667    0.000    0.000    0.000 
#    0.000    0.000    0.000    0.000    0.000    0.000 
#
# Total GULP energy -133787.062736 kJ/mol
# GULP energy per Si atom -5574.460947 kJ/mol
# Density = 2.231675 g / cm^3
# Si number density = 22.367664 Si / 1000 Ang^3
#
#
#
# Elastic Constant Matrix: (Units=GPa)
#
#
# Indices 1 2 3 4 5 6 
#
# 1 114.9292 34.3474 38.8839 0.0000 -26.0040 0.0000
# 2 34.3474 52.7035 24.8932 0.0000 3.2807 0.0000
# 3 38.8839 24.8932 112.8860 0.0000 -34.1436 0.0000
# 4 0.0000 0.0000 0.0000 21.9607 0.0000 -23.3408
# 5 -26.0040 3.2807 -34.1436 0.0000 35.1123 0.0000
# 6 0.0000 0.0000 0.0000 -23.3408 0.0000 16.6643
#
#
#
# Elastic Compliance Matrix: (Units=1/GPa)
#
#
# Indices 1 2 3 4 5 6 
#
# 1 0.014434 -0.010863 0.001365 0.000000 0.013033 0.000000
# 2 -0.010863 0.031705 -0.009320 0.000000 -0.020071 0.000000
# 3 0.001365 -0.009320 0.015601 0.000000 0.017053 0.000000
# 4 0.000000 0.000000 0.000000 -0.093182 0.000000 -0.130516
# 5 0.013033 -0.020071 0.017053 0.000000 0.056590 0.000000
# 6 0.000000 0.000000 0.000000 -0.130516 0.000000 -0.122798
#
#
# Mechanical properties :
#
#
# Convention : Reuss Voigt Hill
#
# Bulk Modulus (GPa) = 41.48538 52.97420 47.22979
# Shear Modulus (GPa) = -96.19313 26.90708 -34.64302
#
# Velocity S-wave (km/s) = -6.56497 3.47211 -3.93975
# Velocity P-wave (km/s) = 6.23520 6.30943 0.68232
#
# Compressibility (1/GPa) = 0.02410488
#
# Stress axis : x y z
#
# Youngs Moduli (GPa) = 69.27885 31.54040 64.09730
#
# Poissons Ratio (x) = 0.34263 -0.08752
# Poissons Ratio (y) = 0.75260 0.59741
# Poissons Ratio (z) = -0.09460 0.29397
#
# Static dielectric constant tensor:
#      x y z
#    x 1.854110 0.000000 0.100950 
#    y 0.000000 1.892290 0.000000 
#    z 0.100950 0.000000 1.669460 
# 
# From -- ./inp_files/29607.got.cif
#   From: 2010.05.17/outbox.cif.g08.bks.cpg/sg13_15_cif.got.tgz:29607.got - 2010.06.03 16:44:36.
