data_PCOD9231382
_publ_section_title
;
Structure prediction by ZEFSAII (Michael W. Deem and Ramdas Pophale) SiO2 
 PCOD9231382
Probable space group: P 2/C
;
_chemical_formula_sum "Si O2"
_cell_formula_units_Z 16
_cell_length_a 9.417557
_cell_length_b 8.526239
_cell_length_c 11.525528
_cell_angle_alpha 90.000000
_cell_angle_beta 141.191746
_cell_angle_gamma 90.000000
_cell_volume 579.999240
_symmetry_space_group_name_H-M "P 2/C"
_symmetry_group_IT_number 13
_symmetry_cell_setting 'monoclinic'
loop_
_space_group_symop_operation_xyz
x,y,z
-x,y,1/2-z
-x,-y,-z
x,-y,1/2+z
loop_
_atom_site_type_symbol
_atom_site_label
_atom_site_fract_x
_atom_site_fract_y
_atom_site_fract_z
Si Si1 0.220740 0.457411 0.940037
Si Si2 0.850103 0.239480 0.399227
Si Si3 0.500184 0.267799 0.965044
Si Si4 0.807608 0.066457 0.026670
O O1 0.423962 0.579070 0.058542
O O2 0.000000 0.542142 0.750000
O O3 0.175050 0.389955 0.036345
O O4 0.266391 0.313624 0.877753
O O5 0.667138 0.252285 0.181448
O O6 0.092193 0.200306 0.495579
O O7 0.795607 0.091356 0.446269
O O8 0.569957 0.119795 0.931796
O O9 0.000000 0.049674 0.250000
#
# Coordination Sequence:
#
# PCOD9231382 Si02
#       4
#     4   4   4   4
#     4  11  23  40  62  89 125 162 202 250 303 363
#     4  10  20  39  65  90 123 161 199 249 307 358
#     4  10  23  41  62  91 124 159 203 253 303 362
#     4   9  19  38  65  95 123 156 202 253 305 360
#
# _framework density 27.586241999999999
#
# number of rings (size 3 to 8) (size 9 to 14) (size 15 to 20)
#    0.000    2.000    0.000    3.750    0.000    5.000 
#    0.000    8.750    0.000    0.000    0.000    0.000 
#    0.000    0.000    0.000    0.000    0.000    0.000 
#
# Total GULP energy -89780.213439 kJ/mol
# GULP energy per Si atom -5611.263340 kJ/mol
# Density = 2.752345 g / cm^3
# Si number density = 27.586242 Si / 1000 Ang^3
#
#
#
# Elastic Constant Matrix: (Units=GPa)
#
#
# Indices 1 2 3 4 5 6 
#
# 1 139.4794 53.9939 33.2072 0.0000 -17.4488 0.0000
# 2 53.9939 104.2849 29.7047 0.0000 -24.7031 0.0000
# 3 33.2072 29.7047 74.7069 0.0000 -15.0911 0.0000
# 4 0.0000 0.0000 0.0000 41.4872 0.0000 -14.9033
# 5 -17.4488 -24.7031 -15.0911 0.0000 46.4581 0.0000
# 6 0.0000 0.0000 0.0000 -14.9033 0.0000 73.6729
#
#
#
# Elastic Compliance Matrix: (Units=1/GPa)
#
#
# Indices 1 2 3 4 5 6 
#
# 1 0.009384 -0.004020 -0.002453 0.000000 0.000590 0.000000
# 2 -0.004020 0.013568 -0.002628 0.000000 0.004851 0.000000
# 3 -0.002453 -0.002628 0.016110 0.000000 0.002914 0.000000
# 4 0.000000 0.000000 0.000000 0.025993 0.000000 0.005258
# 5 0.000590 0.004851 0.002914 0.000000 0.025272 0.000000
# 6 0.000000 0.000000 0.000000 0.005258 0.000000 0.014637
#
#
# Mechanical properties :
#
#
# Convention : Reuss Voigt Hill
#
# Bulk Modulus (GPa) = 47.94175 61.36474 54.65325
# Shear Modulus (GPa) = 38.42623 45.76134 42.09378
#
# Velocity S-wave (km/s) = 3.73627 4.07731 3.91051
# Velocity P-wave (km/s) = 6.00246 6.66775 6.34384
#
# Compressibility (1/GPa) = 0.02085865
#
# Stress axis : x y z
#
# Youngs Moduli (GPa) = 106.56972 73.70219 62.07370
#
# Poissons Ratio (x) = 0.29627 0.15230
# Poissons Ratio (y) = 0.42839 0.16314
# Poissons Ratio (z) = 0.26147 0.19370
#
# Static dielectric constant tensor:
#      x y z
#    x 2.159310 0.000000 0.013680 
#    y 0.000000 2.149520 0.000000 
#    z 0.013680 0.000000 2.099910 
# 
# From -- ./inp_files/27558.got.cif
#   From: 2010.05.17/outbox.cif.g08.bks.cpg/sg13_14_cif.got.tgz:27558.got - 2010.06.03 16:44:36.
