data_PCOD9231584
_publ_section_title
;
Structure prediction by ZEFSAII (Michael W. Deem and Ramdas Pophale) SiO2 
 PCOD9231584
Probable space group: P 2/C
;
_chemical_formula_sum "Si O2"
_cell_formula_units_Z 28
_cell_length_a 15.633689
_cell_length_b 17.271064
_cell_length_c 5.191014
_cell_angle_alpha 90.000000
_cell_angle_beta 53.610868
_cell_angle_gamma 90.000000
_cell_volume 1128.319425
_symmetry_space_group_name_H-M "P 2/C"
_symmetry_group_IT_number 13
_symmetry_cell_setting 'monoclinic'
loop_
_space_group_symop_operation_xyz
x,y,z
-x,y,1/2-z
-x,-y,-z
x,-y,1/2+z
loop_
_atom_site_type_symbol
_atom_site_label
_atom_site_fract_x
_atom_site_fract_y
_atom_site_fract_z
Si Si1 0.572297 0.907187 0.867079
Si Si2 0.202068 0.038006 0.392128
Si Si3 0.184843 0.795683 0.666256
Si Si4 0.836068 0.676177 0.180220
Si Si5 0.642736 0.740228 0.813976
Si Si6 0.705763 0.449336 0.666697
Si Si7 0.000000 0.303775 0.750000
Si Si8 0.500000 0.362376 0.250000
O O1 0.500000 0.929481 0.750000
O O2 0.670876 0.961356 0.773143
O O3 0.625970 0.823967 0.710668
O O4 0.500000 0.895440 0.250000
O O5 0.181886 0.117399 0.273944
O O6 0.161653 0.025417 0.756258
O O7 0.154586 0.764727 0.439840
O O8 0.305561 0.765264 0.505901
O O9 0.095343 0.750058 0.984608
O O10 0.735053 0.684397 0.544862
O O11 0.796120 0.615764 0.040926
O O12 0.943434 0.650370 0.124033
O O13 0.541362 0.692356 0.907466
O O14 0.715870 0.484585 0.366186
O O15 0.592051 0.412218 0.948627
#
# Coordination Sequence:
#
# PCOD9231584 Si02
#       8
#     4   4   4   4   4   4   2   2
#     4  11  23  37  60  89 131 177 238 285 322 377
#     4  11  26  43  65  94 138 184 219 274 346 403
#     4  10  23  42  73  96 134 170 226 285 339 403
#     4  10  23  43  73  96 131 174 224 281 339 405
#     4   9  21  36  61  98 129 176 231 283 324 383
#     4  11  26  45  65  99 145 184 223 274 335 399
#     4  10  22  44  74 108 118 162 228 286 340 410
#     4  10  20  40  64  94 138 186 236 272 324 386
#
# _framework density 24.815664999999999
#
# number of rings (size 3 to 8) (size 9 to 14) (size 15 to 20)
#    0.000    1.714    0.714    1.714   16.000    1.714 
#    2.571    1.429    0.000    0.000    0.000    0.000 
#    0.000    0.000    0.000    0.000    0.000    0.000 
#
# Total GULP energy -156253.470700 kJ/mol
# GULP energy per Si atom -5580.481096 kJ/mol
# Density = 2.475918 g / cm^3
# Si number density = 24.815665 Si / 1000 Ang^3
#
#
#
# Elastic Constant Matrix: (Units=GPa)
#
#
# Indices 1 2 3 4 5 6 
#
# 1 119.0261 42.0398 23.6569 0.0000 4.7438 0.0000
# 2 42.0398 90.5259 1.3682 0.0000 7.3820 0.0000
# 3 23.6569 1.3682 62.2665 0.0000 20.1649 0.0000
# 4 0.0000 0.0000 0.0000 18.5487 0.0000 -1.6760
# 5 4.7438 7.3820 20.1649 0.0000 33.2311 0.0000
# 6 0.0000 0.0000 0.0000 -1.6760 0.0000 -7.7538
#
#
#
# Elastic Compliance Matrix: (Units=1/GPa)
#
#
# Indices 1 2 3 4 5 6 
#
# 1 0.011165 -0.005322 -0.004968 0.000000 0.002603 0.000000
# 2 -0.005322 0.013812 0.003069 0.000000 -0.004171 0.000000
# 3 -0.004968 0.003069 0.022242 0.000000 -0.013469 0.000000
# 4 0.000000 0.000000 0.000000 0.052879 0.000000 -0.011430
# 5 0.002603 -0.004171 -0.013469 0.000000 0.038821 0.000000
# 6 0.000000 0.000000 0.000000 -0.011430 0.000000 -0.126498
#
#
# Mechanical properties :
#
#
# Convention : Reuss Voigt Hill
#
# Bulk Modulus (GPa) = 30.50892 45.10537 37.80714
# Shear Modulus (GPa) = 132.31877 22.45545 77.38711
#
# Velocity S-wave (km/s) = 7.31002 3.01140 5.59039
# Velocity P-wave (km/s) = 9.14163 5.50518 7.54574
#
# Compressibility (1/GPa) = 0.03277730
#
# Stress axis : x y z
#
# Youngs Moduli (GPa) = 89.56601 72.40142 44.95988
#
# Poissons Ratio (x) = 0.38533 0.22336
# Poissons Ratio (y) = 0.47668 -0.13800
# Poissons Ratio (z) = 0.44496 -0.22222
#
# Static dielectric constant tensor:
#      x y z
#    x 2.035470 0.000000 0.095220 
#    y 0.000000 1.983730 0.000000 
#    z 0.095220 0.000000 2.145230 
# 
# From -- ./inp_files/5334.got.cif
#   From: 2010.05.17/outbox.cif.g08.bks.cpg/sg13_3_cif.got.tgz:5334.got - 2010.06.03 16:44:36.
