data_PCOD9231211
_publ_section_title
;
Structure prediction by ZEFSAII (Michael W. Deem and Ramdas Pophale) SiO2 
 PCOD9231211
Probable space group: P 2/C
;
_chemical_formula_sum "Si O2"
_cell_formula_units_Z 26
_cell_length_a 19.854329
_cell_length_b 9.371170
_cell_length_c 8.572804
_cell_angle_alpha 90.000000
_cell_angle_beta 130.335290
_cell_angle_gamma 90.000000
_cell_volume 1215.851808
_symmetry_space_group_name_H-M "P 2/C"
_symmetry_group_IT_number 13
_symmetry_cell_setting 'monoclinic'
loop_
_space_group_symop_operation_xyz
x,y,z
-x,y,1/2-z
-x,-y,-z
x,-y,1/2+z
loop_
_atom_site_type_symbol
_atom_site_label
_atom_site_fract_x
_atom_site_fract_y
_atom_site_fract_z
Si Si1 0.730849 0.383285 0.321362
Si Si2 0.766993 0.677370 0.226670
Si Si3 0.500000 0.944305 0.750000
Si Si4 0.386508 0.142428 0.359799
Si Si5 0.218270 0.049048 0.556808
Si Si6 0.870379 0.174175 0.384339
Si Si7 0.976324 0.655478 0.531609
O O1 0.737940 0.548910 0.295058
O O2 0.726636 0.355081 0.498825
O O3 0.647699 0.294811 0.130884
O O4 0.818332 0.307976 0.381463
O O5 0.748506 0.828571 0.276631
O O6 0.872481 0.676813 0.360770
O O7 0.545443 0.853605 0.681546
O O8 0.429641 0.047669 0.559809
O O9 0.298906 0.061049 0.165877
O O10 0.185397 0.121947 0.349708
O O11 0.137597 0.957450 0.508628
O O12 0.965670 0.227758 0.473216
O O13 0.000000 0.661729 0.750000
O O14 0.000000 0.500000 0.500000
#
# Coordination Sequence:
#
# PCOD9231211 Si02
#       7
#     4   4   2   4   4   4   4
#     4  11  23  40  64  93 122 174 216 264 314 394
#     4  12  23  39  64  89 127 173 221 268 323 368
#     4  10  20  38  70 102 126 158 198 262 330 396
#     4  10  21  40  67  96 128 161 205 257 326 393
#     4  11  22  41  64  94 130 170 215 269 318 393
#     4  11  23  41  62  89 128 169 224 266 330 362
#     4  12  24  42  61  89 127 174 223 280 313 369
#
# _framework density 21.384184000000001
#
# number of rings (size 3 to 8) (size 9 to 14) (size 15 to 20)
#    0.000    0.923    3.077    6.462    0.000    0.615 
#    0.000    0.000    0.000   15.692    0.000    0.000 
#    0.000    0.000    0.000    0.000    0.000    0.000 
#
# Total GULP energy -145493.345915 kJ/mol
# GULP energy per Si atom -5595.897920 kJ/mol
# Density = 2.133551 g / cm^3
# Si number density = 21.384184 Si / 1000 Ang^3
#
#
#
# Elastic Constant Matrix: (Units=GPa)
#
#
# Indices 1 2 3 4 5 6 
#
# 1 46.7300 25.3941 -13.5426 0.0000 -0.6052 0.0000
# 2 25.3941 109.8525 -5.3004 0.0000 -0.2583 0.0000
# 3 -13.5426 -5.3004 32.2497 0.0000 -0.3238 0.0000
# 4 0.0000 0.0000 0.0000 9.8161 0.0000 -7.2785
# 5 -0.6052 -0.2583 -0.3238 0.0000 34.6405 0.0000
# 6 0.0000 0.0000 0.0000 -7.2785 0.0000 22.9719
#
#
#
# Elastic Compliance Matrix: (Units=1/GPa)
#
#
# Indices 1 2 3 4 5 6 
#
# 1 0.027697 -0.005887 0.010669 0.000000 0.000540 0.000000
# 2 -0.005887 0.010427 -0.000759 0.000000 -0.000032 0.000000
# 3 0.010669 -0.000759 0.035369 0.000000 0.000511 0.000000
# 4 0.000000 0.000000 0.000000 0.133157 0.000000 0.042190
# 5 0.000540 -0.000032 0.000511 0.000000 0.028882 0.000000
# 6 0.000000 0.000000 0.000000 0.042190 0.000000 0.056899
#
#
# Mechanical properties :
#
#
# Convention : Reuss Voigt Hill
#
# Bulk Modulus (GPa) = 12.26383 22.43716 17.35050
# Shear Modulus (GPa) = 16.04808 25.63779 20.84293
#
# Velocity S-wave (km/s) = 2.74243 3.46629 3.12539
# Velocity P-wave (km/s) = 3.97182 5.15125 4.59950
#
# Compressibility (1/GPa) = 0.08154058
#
# Stress axis : x y z
#
# Youngs Moduli (GPa) = 36.10459 95.90276 28.27362
#
# Poissons Ratio (x) = 0.56454 -0.30165
# Poissons Ratio (y) = 0.21253 0.02145
# Poissons Ratio (z) = -0.38519 0.07275
#
# Static dielectric constant tensor:
#      x y z
#    x 1.811250 0.000000 -0.025650 
#    y 0.000000 1.778610 0.000000 
#    z -0.025650 0.000000 1.792730 
# 
# From -- ./inp_files/21203.got.cif
#   From: 2010.05.17/outbox.cif.g08.bks.cpg/sg13_11_cif.got.tgz:21203.got - 2010.06.03 16:44:36.
