data_PCOD9231647
_publ_section_title
;
Structure prediction by ZEFSAII (Michael W. Deem and Ramdas Pophale) SiO2 
 PCOD9231647
Probable space group: P 2/C
;
_chemical_formula_sum "Si O2"
_cell_formula_units_Z 30
_cell_length_a 12.344010
_cell_length_b 8.434347
_cell_length_c 13.875733
_cell_angle_alpha 90.000000
_cell_angle_beta 109.754871
_cell_angle_gamma 90.000000
_cell_volume 1359.631623
_symmetry_space_group_name_H-M "P 2/C"
_symmetry_group_IT_number 13
_symmetry_cell_setting 'monoclinic'
loop_
_space_group_symop_operation_xyz
x,y,z
-x,y,1/2-z
-x,-y,-z
x,-y,1/2+z
loop_
_atom_site_type_symbol
_atom_site_label
_atom_site_fract_x
_atom_site_fract_y
_atom_site_fract_z
Si Si1 0.201341 0.371436 0.499262
Si Si2 0.000000 0.036037 0.250000
Si Si3 0.596204 0.173600 0.431369
Si Si4 0.018835 0.826308 0.549781
Si Si5 0.369785 0.870669 0.948424
Si Si6 0.767969 0.148221 0.652525
Si Si7 0.860990 0.468416 0.715317
Si Si8 0.754994 0.649358 0.857783
O O1 0.276328 0.235644 0.472427
O O2 0.167009 0.483307 0.401297
O O3 0.264431 0.482353 0.594443
O O4 0.087020 0.288338 0.507033
O O5 0.974398 0.144267 0.333700
O O6 0.893906 0.929402 0.181768
O O7 0.471388 0.228820 0.429827
O O8 0.695361 0.213830 0.539641
O O9 0.644481 0.239799 0.345761
O O10 0.585485 0.984584 0.450132
O O11 0.137845 0.742389 0.560945
O O12 0.000000 0.000000 0.500000
O O13 0.310679 0.991048 0.853025
O O14 0.798483 0.302387 0.723679
O O15 0.803592 0.599065 0.768190
O O16 0.000000 0.454587 0.750000
#
# Coordination Sequence:
#
# PCOD9231647 Si02
#       8
#     4   2   4   4   4   4   4   4
#     4  12  23  42  63  94 133 176 219 276 338 400
#     4  12  22  38  68  92 130 164 212 270 338 392
#     4   9  20  45  68  97 125 177 233 273 325 393
#     4  12  25  38  62  96 134 174 221 273 328 403
#     4   9  20  42  76  91 127 180 226 280 331 388
#     4  10  20  40  67  98 126 175 218 271 336 399
#     4  12  25  40  63  95 148 177 207 280 354 407
#     4  12  25  39  64  98 135 175 225 272 341 413
#
# _framework density 22.064800000000002
#
# number of rings (size 3 to 8) (size 9 to 14) (size 15 to 20)
#    0.800    0.267    4.667    2.800    1.867    0.533 
#    0.000    0.667    0.000    1.600    0.000    0.000 
#    0.000    0.000    0.000    0.000    0.000    0.000 
#
# Total GULP energy -167052.663915 kJ/mol
# GULP energy per Si atom -5568.422131 kJ/mol
# Density = 2.201458 g / cm^3
# Si number density = 22.064800 Si / 1000 Ang^3
#
#
#
# Elastic Constant Matrix: (Units=GPa)
#
#
# Indices 1 2 3 4 5 6 
#
# 1 124.7903 18.7195 6.6219 0.0000 -6.3273 0.0000
# 2 18.7195 67.2809 -2.8944 0.0000 -13.0963 0.0000
# 3 6.6219 -2.8944 44.0812 0.0000 -15.0569 0.0000
# 4 0.0000 0.0000 0.0000 -27.5669 0.0000 -43.3579
# 5 -6.3273 -13.0963 -15.0569 0.0000 23.2104 0.0000
# 6 0.0000 0.0000 0.0000 -43.3579 0.0000 -8.3864
#
#
#
# Elastic Compliance Matrix: (Units=1/GPa)
#
#
# Indices 1 2 3 4 5 6 
#
# 1 0.008451 -0.002408 -0.001419 0.000000 0.000025 0.000000
# 2 -0.002408 0.018508 0.006320 0.000000 0.013887 0.000000
# 3 -0.001419 0.006320 0.031345 0.000000 0.023513 0.000000
# 4 0.000000 0.000000 0.000000 0.005087 0.000000 -0.026298
# 5 0.000025 0.013887 0.023513 0.000000 0.066179 0.000000
# 6 0.000000 0.000000 0.000000 -0.026298 0.000000 0.016720
#
#
# Mechanical properties :
#
#
# Convention : Reuss Voigt Hill
#
# Bulk Modulus (GPa) = 15.80009 31.22740 23.51374
# Shear Modulus (GPa) = 30.78809 11.69846 21.24328
#
# Velocity S-wave (km/s) = 3.73949 2.30508 3.10622
# Velocity P-wave (km/s) = 5.08147 4.61170 4.85228
#
# Compressibility (1/GPa) = 0.06329077
#
# Stress axis : x y z
#
# Youngs Moduli (GPa) = 118.32690 54.03119 31.90296
#
# Poissons Ratio (x) = 0.13009 0.04528
# Poissons Ratio (y) = 0.28488 -0.20163
# Poissons Ratio (z) = 0.16793 -0.34149
#
# Static dielectric constant tensor:
#      x y z
#    x 1.938690 0.000000 -0.000640 
#    y 0.000000 1.863710 0.000000 
#    z -0.000640 0.000000 1.834910 
# 
# From -- ./inp_files/50396.got.cif
#   From: 2010.05.17/outbox.cif.g08.bks.cpg/sg13_26_cif.got.tgz:50396.got - 2010.06.03 16:44:36.
