data_PCOD9231033
_publ_section_title
;
Structure prediction by ZEFSAII (Michael W. Deem and Ramdas Pophale) SiO2 
 PCOD9231033
Probable space group: P 2/C
;
_chemical_formula_sum "Si O2"
_cell_formula_units_Z 22
_cell_length_a 13.921456
_cell_length_b 6.493651
_cell_length_c 11.050915
_cell_angle_alpha 90.000000
_cell_angle_beta 89.551724
_cell_angle_gamma 90.000000
_cell_volume 998.984038
_symmetry_space_group_name_H-M "P 2/C"
_symmetry_group_IT_number 13
_symmetry_cell_setting 'monoclinic'
loop_
_space_group_symop_operation_xyz
x,y,z
-x,y,1/2-z
-x,-y,-z
x,-y,1/2+z
loop_
_atom_site_type_symbol
_atom_site_label
_atom_site_fract_x
_atom_site_fract_y
_atom_site_fract_z
Si Si1 0.207464 0.180500 0.502205
Si Si2 0.783664 0.566278 0.263697
Si Si3 0.318542 0.803406 0.609259
Si Si4 0.500000 0.230789 0.250000
Si Si5 0.947600 0.597106 0.619412
Si Si6 0.365842 0.499067 0.903501
O O1 0.183439 0.289440 0.629546
O O2 0.111280 0.199538 0.423192
O O3 0.289299 0.324568 0.442060
O O4 0.257656 0.968615 0.535923
O O5 0.757620 0.340471 0.318089
O O6 0.863210 0.559799 0.159486
O O7 0.682779 0.628090 0.205704
O O8 0.405859 0.881724 0.694734
O O9 0.370750 0.653168 0.514287
O O10 0.544096 0.381352 0.148161
O O11 0.000000 0.628767 0.750000
O O12 0.000000 0.500000 0.500000
#
# Coordination Sequence:
#
# PCOD9231033 Si02
#       6
#     4   4   4   2   4   4
#     4  10  21  39  64  94 134 180 215 278 351 395
#     4   9  20  39  64  91 130 173 218 274 346 401
#     4  10  21  39  63  94 134 178 227 280 337 410
#     4  10  20  38  62  96 132 180 236 278 332 404
#     4  11  21  40  74 101 132 178 230 280 340 417
#     4   9  20  37  62  91 129 177 226 276 335 398
#
# _framework density 22.022373999999999
#
# number of rings (size 3 to 8) (size 9 to 14) (size 15 to 20)
#    0.000    2.182    1.818    0.545    0.000    5.091 
#    0.000   10.000    4.000    0.000    0.000    0.000 
#    0.000    0.000    0.000    0.000    0.000    0.000 
#
# Total GULP energy -122525.988296 kJ/mol
# GULP energy per Si atom -5569.363104 kJ/mol
# Density = 2.197225 g / cm^3
# Si number density = 22.022374 Si / 1000 Ang^3
#
#
#
# Elastic Constant Matrix: (Units=GPa)
#
#
# Indices 1 2 3 4 5 6 
#
# 1 115.2581 38.9336 60.7275 0.0000 11.9041 0.0000
# 2 38.9336 43.8904 41.1704 0.0000 8.7195 0.0000
# 3 60.7275 41.1704 131.3329 0.0000 1.6923 0.0000
# 4 0.0000 0.0000 0.0000 5.8282 0.0000 11.1914
# 5 11.9041 8.7195 1.6923 0.0000 56.5687 0.0000
# 6 0.0000 0.0000 0.0000 11.1914 0.0000 11.2405
#
#
#
# Elastic Compliance Matrix: (Units=1/GPa)
#
#
# Indices 1 2 3 4 5 6 
#
# 1 0.013556 -0.008319 -0.003642 0.000000 -0.001461 0.000000
# 2 -0.008319 0.038664 -0.008223 0.000000 -0.003963 0.000000
# 3 -0.003642 -0.008223 0.011854 0.000000 0.001679 0.000000
# 4 0.000000 0.000000 0.000000 -0.188169 0.000000 0.187347
# 5 -0.001461 -0.003963 0.001679 0.000000 0.018546 0.000000
# 6 0.000000 0.000000 0.000000 0.187347 0.000000 -0.097565
#
#
# Mechanical properties :
#
#
# Convention : Reuss Voigt Hill
#
# Bulk Modulus (GPa) = 42.18043 63.57161 52.87602
# Shear Modulus (GPa) = -32.29030 24.70413 -3.79309
#
# Velocity S-wave (km/s) = -3.83332 3.35292 -1.31382
# Velocity P-wave (km/s) = 0.63041 6.62714 4.66484
#
# Compressibility (1/GPa) = 0.02370768
#
# Stress axis : x y z
#
# Youngs Moduli (GPa) = 73.76934 25.86401 84.35882
#
# Poissons Ratio (x) = 0.21515 0.30720
# Poissons Ratio (y) = 0.61366 0.69367
# Poissons Ratio (z) = 0.26863 0.21268
#
# Static dielectric constant tensor:
#      x y z
#    x 1.862410 0.000000 0.073790 
#    y 0.000000 1.805180 0.000000 
#    z 0.073790 0.000000 1.915840 
# 
# From -- ./inp_files/35423.got.cif
#   From: 2010.05.17/outbox.cif.g08.bks.cpg/sg13_18_cif.got.tgz:35423.got - 2010.06.03 16:44:36.
