data_PCOD9231111
_publ_section_title
;
Structure prediction by ZEFSAII (Michael W. Deem and Ramdas Pophale) SiO2 
 PCOD9231111
Probable space group: P 2/C
;
_chemical_formula_sum "Si O2"
_cell_formula_units_Z 24
_cell_length_a 16.293744
_cell_length_b 5.410704
_cell_length_c 15.622865
_cell_angle_alpha 90.000000
_cell_angle_beta 46.404185
_cell_angle_gamma 90.000000
_cell_volume 997.486890
_symmetry_space_group_name_H-M "P 2/C"
_symmetry_group_IT_number 13
_symmetry_cell_setting 'monoclinic'
loop_
_space_group_symop_operation_xyz
x,y,z
-x,y,1/2-z
-x,-y,-z
x,-y,1/2+z
loop_
_atom_site_type_symbol
_atom_site_label
_atom_site_fract_x
_atom_site_fract_y
_atom_site_fract_z
Si Si1 0.313618 0.575972 0.788686
Si Si2 0.401943 0.241529 0.865593
Si Si3 0.181985 0.217900 0.676559
Si Si4 0.089872 0.286067 0.917118
Si Si5 0.171140 0.041095 0.499730
Si Si6 0.328775 0.281076 0.094185
O O1 0.391539 0.467497 0.806526
O O2 0.222060 0.369294 0.827582
O O3 0.232700 0.774650 0.890694
O O4 0.369423 0.675706 0.661982
O O5 0.500000 0.080061 0.750000
O O6 0.275096 0.134551 0.954035
O O7 0.421578 0.279783 0.951925
O O8 0.088046 0.220162 0.818324
O O9 0.137125 0.170400 0.612755
O O10 0.247728 0.482563 0.629909
O O11 0.263005 0.982063 0.640164
O O12 0.082927 0.100155 0.002314
O O13 0.000000 0.500000 0.000000
#
# Coordination Sequence:
#
# PCOD9231111 Si02
#       6
#     4   4   4   4   4   4
#     4  10  20  39  65  85 129 171 215 267 345 386
#     4  10  22  38  61  94 129 171 227 275 323 396
#     4  10  20  39  67  91 131 174 217 264 340 391
#     4  10  22  40  68  97 130 169 225 280 332 399
#     4  10  20  40  65  91 133 181 213 275 337 400
#     4  10  20  38  64  93 127 176 213 273 330 395
#
# _framework density 24.060466000000002
#
# number of rings (size 3 to 8) (size 9 to 14) (size 15 to 20)
#    0.000    2.000    3.333    0.000    0.000    2.000 
#    0.000    1.667    7.333    0.000    0.000    0.000 
#    0.000    0.000    0.000    0.000    0.000    0.000 
#
# Total GULP energy -133889.065838 kJ/mol
# GULP energy per Si atom -5578.711077 kJ/mol
# Density = 2.400570 g / cm^3
# Si number density = 24.060466 Si / 1000 Ang^3
#
#
#
# Elastic Constant Matrix: (Units=GPa)
#
#
# Indices 1 2 3 4 5 6 
#
# 1 62.3103 20.1960 26.6094 0.0000 11.6028 0.0000
# 2 20.1960 92.0641 38.1711 0.0000 12.5914 0.0000
# 3 26.6094 38.1711 215.7281 0.0000 49.5100 0.0000
# 4 0.0000 0.0000 0.0000 18.9575 0.0000 18.1764
# 5 11.6028 12.5914 49.5100 0.0000 46.1387 0.0000
# 6 0.0000 0.0000 0.0000 18.1764 0.0000 8.4552
#
#
#
# Elastic Compliance Matrix: (Units=1/GPa)
#
#
# Indices 1 2 3 4 5 6 
#
# 1 0.018002 -0.003156 -0.001089 0.000000 -0.002497 0.000000
# 2 -0.003156 0.012334 -0.001596 0.000000 -0.000860 0.000000
# 3 -0.001089 -0.001596 0.006487 0.000000 -0.006252 0.000000
# 4 0.000000 0.000000 0.000000 -0.049710 0.000000 0.106863
# 5 -0.002497 -0.000860 -0.006252 0.000000 0.029245 0.000000
# 6 0.000000 0.000000 0.000000 0.106863 0.000000 -0.111455
#
#
# Mechanical properties :
#
#
# Convention : Reuss Voigt Hill
#
# Bulk Modulus (GPa) = 39.77576 60.00614 49.89095
# Shear Modulus (GPa) = -66.63440 33.71867 -16.45786
#
# Velocity S-wave (km/s) = -5.26827 3.74761 -2.61822
# Velocity P-wave (km/s) = 4.52093 6.61211 3.41183
#
# Compressibility (1/GPa) = 0.02514094
#
# Stress axis : x y z
#
# Youngs Moduli (GPa) = 55.55046 81.07984 154.15784
#
# Poissons Ratio (x) = 0.25589 0.16786
# Poissons Ratio (y) = 0.17532 0.24598
# Poissons Ratio (z) = 0.06049 0.12938
#
# Static dielectric constant tensor:
#      x y z
#    x 2.271670 0.000000 -0.005370 
#    y 0.000000 2.074690 0.000000 
#    z -0.005370 0.000000 1.971000 
# 
# From -- ./inp_files/52078.got.cif
#   From: 2010.05.17/outbox.cif.g08.bks.cpg/sg13_27_cif.got.tgz:52078.got - 2010.06.03 16:44:36.
