data_PCOD9231349
_publ_section_title
;
Structure prediction by ZEFSAII (Michael W. Deem and Ramdas Pophale) SiO2 
 PCOD9231349
Probable space group: P 2/C
;
_chemical_formula_sum "Si O2"
_cell_formula_units_Z 22
_cell_length_a 9.514364
_cell_length_b 8.110292
_cell_length_c 18.807312
_cell_angle_alpha 90.000000
_cell_angle_beta 130.553605
_cell_angle_gamma 90.000000
_cell_volume 1102.658780
_symmetry_space_group_name_H-M "P 2/C"
_symmetry_group_IT_number 13
_symmetry_cell_setting 'monoclinic'
loop_
_space_group_symop_operation_xyz
x,y,z
-x,y,1/2-z
-x,-y,-z
x,-y,1/2+z
loop_
_atom_site_type_symbol
_atom_site_label
_atom_site_fract_x
_atom_site_fract_y
_atom_site_fract_z
Si Si1 0.257900 0.374997 0.279885
Si Si2 0.156300 0.438893 0.399560
Si Si3 0.554051 0.131562 0.349067
Si Si4 0.735138 0.204242 0.938252
Si Si5 0.500000 0.584528 0.250000
Si Si6 0.092599 0.331631 0.999659
O O1 0.257576 0.455935 0.357747
O O2 0.368062 0.203874 0.322110
O O3 0.366481 0.478406 0.256390
O O4 0.046756 0.365131 0.184604
O O5 0.252510 0.312313 0.485859
O O6 0.128705 0.613441 0.430526
O O7 0.500000 0.092642 0.250000
O O8 0.712878 0.272820 0.404557
O O9 0.641826 0.973011 0.415392
O O10 0.618277 0.304805 0.842073
O O11 0.940012 0.197216 0.970633
O O12 0.000000 0.500000 0.000000
#
# Coordination Sequence:
#
# PCOD9231349 Si02
#       6
#     4   4   4   4   2   4
#     4  11  23  41  68  94 125 168 218 266 315 377
#     4  10  23  43  65  94 128 167 214 269 320 370
#     4  12  23  37  62  95 129 168 212 258 321 390
#     4  11  23  39  61  95 131 166 209 263 328 382
#     4  12  22  40  68  92 124 166 224 266 304 388
#     4  10  20  39  64  89 123 163 214 258 315 376
#
# _framework density 19.951775000000001
#
# number of rings (size 3 to 8) (size 9 to 14) (size 15 to 20)
#    0.000    1.091    3.636    4.909    0.000    3.636 
#    0.000    0.000    0.000    4.364    0.000    0.000 
#    0.000    0.000    0.000    0.000    0.000    0.000 
#
# Total GULP energy -122837.602575 kJ/mol
# GULP energy per Si atom -5583.527390 kJ/mol
# Density = 1.990636 g / cm^3
# Si number density = 19.951775 Si / 1000 Ang^3
#
#
#
# Elastic Constant Matrix: (Units=GPa)
#
#
# Indices 1 2 3 4 5 6 
#
# 1 88.1310 20.1702 30.1339 0.0000 -20.1244 0.0000
# 2 20.1702 71.6643 23.7126 0.0000 0.1716 0.0000
# 3 30.1339 23.7126 122.7257 0.0000 -5.3315 0.0000
# 4 0.0000 0.0000 0.0000 35.8287 0.0000 11.0893
# 5 -20.1244 0.1716 -5.3315 0.0000 38.5106 0.0000
# 6 0.0000 0.0000 0.0000 11.0893 0.0000 13.8673
#
#
#
# Elastic Compliance Matrix: (Units=1/GPa)
#
#
# Indices 1 2 3 4 5 6 
#
# 1 0.014672 -0.003269 -0.002653 0.000000 0.007315 0.000000
# 2 -0.003269 0.015644 -0.002311 0.000000 -0.002098 0.000000
# 3 -0.002653 -0.002311 0.009242 0.000000 -0.000097 0.000000
# 4 0.000000 0.000000 0.000000 0.037091 0.000000 -0.029661
# 5 0.007315 -0.002098 -0.000097 0.000000 0.029785 0.000000
# 6 0.000000 0.000000 0.000000 -0.029661 0.000000 0.095831
#
#
# Mechanical properties :
#
#
# Convention : Reuss Voigt Hill
#
# Bulk Modulus (GPa) = 43.30636 47.83936 45.57286
# Shear Modulus (GPa) = 22.08192 31.54160 26.81176
#
# Velocity S-wave (km/s) = 3.33042 3.98036 3.66980
# Velocity P-wave (km/s) = 6.04496 6.71966 6.39122
#
# Compressibility (1/GPa) = 0.02309130
#
# Stress axis : x y z
#
# Youngs Moduli (GPa) = 68.15517 63.92310 108.20112
#
# Poissons Ratio (x) = 0.20898 0.28708
# Poissons Ratio (y) = 0.22281 0.25006
# Poissons Ratio (z) = 0.18083 0.14773
#
# Static dielectric constant tensor:
#      x y z
#    x 1.724440 0.000000 0.007750 
#    y 0.000000 1.739970 0.000000 
#    z 0.007750 0.000000 1.720150 
# 
# From -- ./inp_files/63953.got.cif
#   From: 2010.05.17/outbox.cif.g08.bks.cpg/sg13_32_cif.got.tgz:63953.got - 2010.06.03 16:44:36.
