data_PCOD9231799
_publ_section_title
;
Structure prediction by ZEFSAII (Michael W. Deem and Ramdas Pophale) SiO2 
 PCOD9231799
Probable space group: P 2/C
;
_chemical_formula_sum "Si O2"
_cell_formula_units_Z 24
_cell_length_a 17.904922
_cell_length_b 10.663416
_cell_length_c 8.789784
_cell_angle_alpha 90.000000
_cell_angle_beta 41.617377
_cell_angle_gamma 90.000000
_cell_volume 1114.589925
_symmetry_space_group_name_H-M "P 2/C"
_symmetry_group_IT_number 13
_symmetry_cell_setting 'monoclinic'
loop_
_space_group_symop_operation_xyz
x,y,z
-x,y,1/2-z
-x,-y,-z
x,-y,1/2+z
loop_
_atom_site_type_symbol
_atom_site_label
_atom_site_fract_x
_atom_site_fract_y
_atom_site_fract_z
Si Si1 0.306029 0.678086 0.292868
Si Si2 0.752919 0.225489 0.110348
Si Si3 0.948469 0.121001 0.659406
Si Si4 0.244133 0.532397 0.087004
Si Si5 0.881428 0.704559 0.712677
Si Si6 0.494830 0.860897 0.441532
O O1 0.291619 0.604365 0.158815
O O2 0.327805 0.572859 0.390397
O O3 0.184301 0.732037 0.530553
O O4 0.401517 0.780699 0.151767
O O5 0.808408 0.225838 0.192877
O O6 0.622398 0.199094 0.325950
O O7 0.816236 0.131916 0.896521
O O8 0.776236 0.363675 0.009175
O O9 0.000000 0.127710 0.750000
O O10 0.004744 0.240541 0.005014
O O11 0.000000 0.000000 0.500000
O O12 0.135924 0.444419 0.284078
O O13 0.500000 0.861736 0.250000
O O14 0.500000 0.000000 0.500000
#
# Coordination Sequence:
#
# PCOD9231799 Si02
#       6
#     4   4   4   4   4   4
#     4  10  22  42  68  97 134 170 223 273 334 388
#     4  11  23  42  64  96 128 175 217 270 339 382
#     4  10  24  41  67  91 131 176 220 272 325 392
#     4  10  20  41  69 100 127 173 217 274 335 394
#     4   9  19  43  61  94 128 164 212 277 326 377
#     4  12  28  45  65  96 138 178 222 278 325 400
#
# _framework density 21.532581
#
# number of rings (size 3 to 8) (size 9 to 14) (size 15 to 20)
#    1.000    0.667    3.333    0.000    4.667    2.667 
#    3.000    0.000    0.000    0.000    0.000    0.000 
#    0.000    0.000    0.000    0.000    0.000    0.000 
#
# Total GULP energy -133880.490678 kJ/mol
# GULP energy per Si atom -5578.353778 kJ/mol
# Density = 2.148357 g / cm^3
# Si number density = 21.532581 Si / 1000 Ang^3
#
#
#
# Elastic Constant Matrix: (Units=GPa)
#
#
# Indices 1 2 3 4 5 6 
#
# 1 44.4030 9.3676 33.8656 0.0000 2.1583 0.0000
# 2 9.3676 90.8080 39.9262 0.0000 0.2180 0.0000
# 3 33.8656 39.9262 120.3329 0.0000 -10.0860 0.0000
# 4 0.0000 0.0000 0.0000 54.4696 0.0000 1.9453
# 5 2.1583 0.2180 -10.0860 0.0000 15.6801 0.0000
# 6 0.0000 0.0000 0.0000 1.9453 0.0000 25.1020
#
#
#
# Elastic Compliance Matrix: (Units=1/GPa)
#
#
# Indices 1 2 3 4 5 6 
#
# 1 0.030242 0.001210 -0.009791 0.000000 -0.010477 0.000000
# 2 0.001210 0.013086 -0.004980 0.000000 -0.003552 0.000000
# 3 -0.009791 -0.004980 0.013568 0.000000 0.010145 0.000000
# 4 0.000000 0.000000 0.000000 0.018410 0.000000 -0.001427
# 5 -0.010477 -0.003552 0.010145 0.000000 0.071792 0.000000
# 6 0.000000 0.000000 0.000000 -0.001427 0.000000 0.039948
#
#
# Mechanical properties :
#
#
# Convention : Reuss Voigt Hill
#
# Bulk Modulus (GPa) = 33.58537 46.87364 40.22950
# Shear Modulus (GPa) = 22.31223 30.54265 26.42744
#
# Velocity S-wave (km/s) = 3.22251 3.77030 3.50712
# Velocity P-wave (km/s) = 5.42931 6.38510 5.92651
#
# Compressibility (1/GPa) = 0.02977487
#
# Stress axis : x y z
#
# Youngs Moduli (GPa) = 33.06618 76.42022 73.70053
#
# Poissons Ratio (x) = -0.09249 0.72160
# Poissons Ratio (y) = -0.04002 0.36703
# Poissons Ratio (z) = 0.32375 0.38058
#
# Static dielectric constant tensor:
#      x y z
#    x 1.767180 0.000000 -0.003180 
#    y 0.000000 1.797110 0.000000 
#    z -0.003180 0.000000 1.831730 
# 
# From -- ./inp_files/23166.got.cif
#   From: 2010.05.17/outbox.cif.g08.bks.cpg/sg13_12_cif.got.tgz:23166.got - 2010.06.03 16:44:36.
