data_PCOD9231657
_publ_section_title
;
Structure prediction by ZEFSAII (Michael W. Deem and Ramdas Pophale) SiO2 
 PCOD9231657
Probable space group: P 2/C
;
_chemical_formula_sum "Si O2"
_cell_formula_units_Z 28
_cell_length_a 19.872875
_cell_length_b 8.458598
_cell_length_c 13.904915
_cell_angle_alpha 90.000000
_cell_angle_beta 32.867088
_cell_angle_gamma 90.000000
_cell_volume 1268.472029
_symmetry_space_group_name_H-M "P 2/C"
_symmetry_group_IT_number 13
_symmetry_cell_setting 'monoclinic'
loop_
_space_group_symop_operation_xyz
x,y,z
-x,y,1/2-z
-x,-y,-z
x,-y,1/2+z
loop_
_atom_site_type_symbol
_atom_site_label
_atom_site_fract_x
_atom_site_fract_y
_atom_site_fract_z
Si Si1 0.270397 0.122437 0.980414
Si Si2 0.930395 0.275071 0.657187
Si Si3 0.161356 0.876023 0.966192
Si Si4 0.294124 0.934003 0.135425
Si Si5 0.114339 0.622178 0.776357
Si Si6 0.695372 0.598050 0.776116
Si Si7 0.425493 0.267280 0.627706
O O1 0.375123 0.185631 0.783514
O O2 0.193070 0.991480 0.014564
O O3 0.177103 0.261232 0.125575
O O4 0.328252 0.044329 0.005792
O O5 0.798745 0.197831 0.795186
O O6 0.922628 0.448123 0.714042
O O7 0.019945 0.164271 0.611975
O O8 0.998623 0.300230 0.471784
O O9 0.235047 0.709688 0.884140
O O10 0.216815 0.961718 0.804517
O O11 0.401443 0.848576 0.066308
O O12 0.214234 0.590877 0.741207
O O13 0.658037 0.424435 0.786332
O O14 0.567299 0.681625 0.959537
#
# Coordination Sequence:
#
# PCOD9231657 Si02
#       7
#     4   4   4   4   4   4   4
#     4  11  24  41  63 102 134 171 230 269 336 402
#     4  10  20  40  68  89 130 178 210 272 337 384
#     4  10  23  41  64  97 132 172 216 280 326 401
#     4  11  21  41  63  96 137 168 215 275 338 386
#     4  10  21  41  70  93 127 178 223 270 327 403
#     4  10  20  47  68  91 130 175 226 271 339 383
#     4  10  24  42  70  93 132 179 217 282 322 399
#
# _framework density 22.073799999999999
#
# number of rings (size 3 to 8) (size 9 to 14) (size 15 to 20)
#    0.000    1.714    4.286    0.429    0.000    4.571 
#    5.143    1.429    0.000    0.000    0.000    0.000 
#    0.000    0.000    0.000    0.000    0.000    0.000 
#
# Total GULP energy -156742.380438 kJ/mol
# GULP energy per Si atom -5597.942159 kJ/mol
# Density = 2.202356 g / cm^3
# Si number density = 22.073800 Si / 1000 Ang^3
#
#
#
# Elastic Constant Matrix: (Units=GPa)
#
#
# Indices 1 2 3 4 5 6 
#
# 1 68.9572 41.2258 35.7208 0.0000 18.7011 0.0000
# 2 41.2258 91.3757 25.0948 0.0000 11.2162 0.0000
# 3 35.7208 25.0948 63.4107 0.0000 9.0210 0.0000
# 4 0.0000 0.0000 0.0000 40.7904 0.0000 -1.2423
# 5 18.7011 11.2162 9.0210 0.0000 31.4590 0.0000
# 6 0.0000 0.0000 0.0000 -1.2423 0.0000 36.1790
#
#
#
# Elastic Compliance Matrix: (Units=1/GPa)
#
#
# Indices 1 2 3 4 5 6 
#
# 1 0.028043 -0.008337 -0.010998 0.000000 -0.010544 0.000000
# 2 -0.008337 0.015056 -0.001254 0.000000 -0.000052 0.000000
# 3 -0.010998 -0.001254 0.022381 0.000000 0.000567 0.000000
# 4 0.000000 0.000000 0.000000 0.024541 0.000000 0.000843
# 5 -0.010544 -0.000052 0.000567 0.000000 0.037911 0.000000
# 6 0.000000 0.000000 0.000000 0.000843 0.000000 0.027669
#
#
# Mechanical properties :
#
#
# Convention : Reuss Voigt Hill
#
# Bulk Modulus (GPa) = 41.15006 47.53628 44.34317
# Shear Modulus (GPa) = 24.40436 29.79917 27.10176
#
# Velocity S-wave (km/s) = 3.32863 3.67819 3.50777
# Velocity P-wave (km/s) = 5.78408 6.29450 6.04468
#
# Compressibility (1/GPa) = 0.02430130
#
# Stress axis : x y z
#
# Youngs Moduli (GPa) = 35.65992 66.41733 44.68030
#
# Poissons Ratio (x) = 0.55375 0.49138
# Poissons Ratio (y) = 0.29731 0.05605
# Poissons Ratio (z) = 0.39217 0.08332
#
# Static dielectric constant tensor:
#      x y z
#    x 1.782960 0.000000 0.015310 
#    y 0.000000 1.838090 0.000000 
#    z 0.015310 0.000000 1.786220 
# 
# From -- ./inp_files/57441.got.cif
#   From: 2010.05.17/outbox.cif.g08.bks.cpg/sg13_29_cif.got.tgz:57441.got - 2010.06.03 16:44:36.
