data_PCOD9231793
_publ_section_title
;
Structure prediction by ZEFSAII (Michael W. Deem and Ramdas Pophale) SiO2 
 PCOD9231793
Probable space group: P 2/C
;
_chemical_formula_sum "Si O2"
_cell_formula_units_Z 32
_cell_length_a 28.018839
_cell_length_b 9.196032
_cell_length_c 10.709531
_cell_angle_alpha 90.000000
_cell_angle_beta 148.245775
_cell_angle_gamma 90.000000
_cell_volume 1452.229132
_symmetry_space_group_name_H-M "P 2/C"
_symmetry_group_IT_number 13
_symmetry_cell_setting 'monoclinic'
loop_
_space_group_symop_operation_xyz
x,y,z
-x,y,1/2-z
-x,-y,-z
x,-y,1/2+z
loop_
_atom_site_type_symbol
_atom_site_label
_atom_site_fract_x
_atom_site_fract_y
_atom_site_fract_z
Si Si1 0.395293 0.333937 0.482567
Si Si2 0.713450 0.607328 0.337765
Si Si3 0.290440 0.166169 0.465170
Si Si4 0.292069 0.879295 0.582314
Si Si5 0.880691 0.483808 0.799744
Si Si6 0.840760 0.724703 0.405105
Si Si7 0.977637 0.713785 0.343704
Si Si8 0.853792 0.961568 0.032235
O O1 0.500000 0.330595 0.750000
O O2 0.363753 0.496467 0.375968
O O3 0.337916 0.269188 0.470424
O O4 0.367361 0.223202 0.310120
O O5 0.694663 0.754888 0.369393
O O6 0.776873 0.525276 0.579145
O O7 0.778274 0.643872 0.366073
O O8 0.189458 0.126525 0.184292
O O9 0.329924 0.005423 0.576858
O O10 0.224347 0.785133 0.348474
O O11 0.227258 0.950239 0.546064
O O12 0.905638 0.387394 0.975936
O O13 0.895137 0.382418 0.711996
O O14 0.937728 0.631346 0.905007
O O15 0.877631 0.873574 0.548784
O O16 0.000000 0.695870 0.250000
O O17 0.942043 0.877005 0.278944
#
# Coordination Sequence:
#
# PCOD9231793 Si02
#       8
#     4   4   4   4   4   4   4   4
#     4  11  25  42  65  99 140 172 210 278 335 386
#     4  12  22  41  66 100 128 174 225 266 326 406
#     4  10  22  40  69  95 126 178 220 266 326 394
#     4  10  20  44  68  95 126 169 233 267 322 402
#     4  11  22  38  63  91 130 171 224 270 327 394
#     4  11  21  39  71  94 121 177 223 274 323 396
#     4  11  22  39  59  90 131 169 209 279 331 376
#     4  10  20  41  68  94 128 168 229 274 325 390
#
# _framework density 22.035091000000001
#
# number of rings (size 3 to 8) (size 9 to 14) (size 15 to 20)
#    0.000    1.250    3.750    3.000    0.000    1.000 
#    0.000    5.000    0.000    0.000    0.000    0.000 
#    0.000    0.000    0.000    0.000    0.000    0.000 
#
# Total GULP energy -178567.416725 kJ/mol
# GULP energy per Si atom -5580.231773 kJ/mol
# Density = 2.198494 g / cm^3
# Si number density = 22.035091 Si / 1000 Ang^3
#
#
#
# Elastic Constant Matrix: (Units=GPa)
#
#
# Indices 1 2 3 4 5 6 
#
# 1 36.3513 18.1980 7.7171 0.0000 -10.7392 0.0000
# 2 18.1980 127.8284 59.4653 0.0000 -1.4568 0.0000
# 3 7.7171 59.4653 81.2135 0.0000 -2.9770 0.0000
# 4 0.0000 0.0000 0.0000 37.9756 0.0000 -14.4196
# 5 -10.7392 -1.4568 -2.9770 0.0000 17.9318 0.0000
# 6 0.0000 0.0000 0.0000 -14.4196 0.0000 34.9563
#
#
#
# Elastic Compliance Matrix: (Units=1/GPa)
#
#
# Indices 1 2 3 4 5 6 
#
# 1 0.036381 -0.005601 0.001435 0.000000 0.021572 0.000000
# 2 -0.005601 0.012731 -0.008929 0.000000 -0.003802 0.000000
# 3 0.001435 -0.008929 0.018834 0.000000 0.003261 0.000000
# 4 0.000000 0.000000 0.000000 0.031223 0.000000 0.012880
# 5 0.021572 -0.003802 0.003261 0.000000 0.068918 0.000000
# 6 0.000000 0.000000 0.000000 0.012880 0.000000 0.033920
#
#
# Mechanical properties :
#
#
# Convention : Reuss Voigt Hill
#
# Bulk Modulus (GPa) = 23.94840 46.23934 35.09387
# Shear Modulus (GPa) = 20.65126 28.84027 24.74576
#
# Velocity S-wave (km/s) = 3.06469 3.62171 3.35478
# Velocity P-wave (km/s) = 4.83891 6.20637 5.56480
#
# Compressibility (1/GPa) = 0.04175645
#
# Stress axis : x y z
#
# Youngs Moduli (GPa) = 27.48650 78.55095 53.09536
#
# Poissons Ratio (x) = 0.43996 -0.07618
# Poissons Ratio (y) = 0.15395 0.47407
# Poissons Ratio (z) = -0.03944 0.70135
#
# Static dielectric constant tensor:
#      x y z
#    x 1.832830 0.000000 -0.025760 
#    y 0.000000 1.844360 0.000000 
#    z -0.025760 0.000000 1.817920 
# 
# From -- ./inp_files/42784.got.cif
#   From: 2010.05.17/outbox.cif.g08.bks.cpg/sg13_22_cif.got.tgz:42784.got - 2010.06.03 16:44:36.
