data_PCOD9231987
_publ_section_title
;
Structure prediction by ZEFSAII (Michael W. Deem and Ramdas Pophale) SiO2 
 PCOD9231987
Probable space group: P 2/C
;
_chemical_formula_sum "Si O2"
_cell_formula_units_Z 16
_cell_length_a 7.278907
_cell_length_b 7.731000
_cell_length_c 15.146942
_cell_angle_alpha 90.000000
_cell_angle_beta 137.317396
_cell_angle_gamma 90.000000
_cell_volume 577.850944
_symmetry_space_group_name_H-M "P 2/C"
_symmetry_group_IT_number 13
_symmetry_cell_setting 'monoclinic'
loop_
_space_group_symop_operation_xyz
x,y,z
-x,y,1/2-z
-x,-y,-z
x,-y,1/2+z
loop_
_atom_site_type_symbol
_atom_site_label
_atom_site_fract_x
_atom_site_fract_y
_atom_site_fract_z
Si Si1 0.083322 0.511889 0.423508
Si Si2 0.266937 0.949360 0.789942
Si Si3 0.635010 0.351248 0.656155
Si Si4 0.795483 0.158669 0.428700
O O1 0.312455 0.367960 0.527381
O O2 0.227996 0.598733 0.387879
O O3 0.105956 0.653621 0.509107
O O4 0.772972 0.519454 0.276730
O O5 0.259723 0.848716 0.695207
O O6 0.568628 0.890865 0.922772
O O7 0.000000 0.904567 0.750000
O O8 0.287647 0.156500 0.787358
O O9 0.000000 0.000000 0.500000
#
# Coordination Sequence:
#
# PCOD9231987 Si02
#       4
#     4   4   4   4
#     4  10  21  42  72 111 147 199 250 309 378 452
#     4  11  23  45  72 108 151 196 247 320 380 448
#     4  10  20  43  71 108 151 194 249 309 381 446
#     4  11  23  44  74 107 150 196 257 306 380 456
#
# _framework density 27.688800000000001
#
# number of rings (size 3 to 8) (size 9 to 14) (size 15 to 20)
#    0.000    1.500    5.000    0.000    0.000    4.000 
#   18.000    6.250    0.000    0.000    0.000    0.000 
#    0.000    0.000    0.000    0.000    0.000    0.000 
#
# Total GULP energy -89395.838368 kJ/mol
# GULP energy per Si atom -5587.239898 kJ/mol
# Density = 2.762578 g / cm^3
# Si number density = 27.688800 Si / 1000 Ang^3
#
#
#
# Elastic Constant Matrix: (Units=GPa)
#
#
# Indices 1 2 3 4 5 6 
#
# 1 184.5946 21.9204 35.5399 0.0000 39.8925 0.0000
# 2 21.9204 125.1983 20.2394 0.0000 7.6770 0.0000
# 3 35.5399 20.2394 89.6732 0.0000 6.2609 0.0000
# 4 0.0000 0.0000 0.0000 30.7769 0.0000 -15.8487
# 5 39.8925 7.6770 6.2609 0.0000 51.6927 0.0000
# 6 0.0000 0.0000 0.0000 -15.8487 0.0000 -15.9573
#
#
#
# Elastic Compliance Matrix: (Units=1/GPa)
#
#
# Indices 1 2 3 4 5 6 
#
# 1 0.007019 -0.000546 -0.002305 0.000000 -0.005056 0.000000
# 2 -0.000546 0.008385 -0.001632 0.000000 -0.000626 0.000000
# 3 -0.002305 -0.001632 0.012397 0.000000 0.000520 0.000000
# 4 0.000000 0.000000 0.000000 0.021497 0.000000 -0.021351
# 5 -0.005056 -0.000626 0.000520 0.000000 0.023277 0.000000
# 6 0.000000 0.000000 0.000000 -0.021351 0.000000 -0.041462
#
#
# Mechanical properties :
#
#
# Convention : Reuss Voigt Hill
#
# Bulk Modulus (GPa) = 53.09706 61.65173 57.37440
# Shear Modulus (GPa) = 107.85248 34.75354 71.30301
#
# Velocity S-wave (km/s) = 6.24790 3.54665 5.08011
# Velocity P-wave (km/s) = 8.44194 6.25187 7.42806
#
# Compressibility (1/GPa) = 0.01883343
#
# Stress axis : x y z
#
# Youngs Moduli (GPa) = 142.47726 119.25719 80.66194
#
# Poissons Ratio (x) = 0.06513 0.18596
# Poissons Ratio (y) = 0.07781 0.13167
# Poissons Ratio (z) = 0.32847 0.19468
#
# Static dielectric constant tensor:
#      x y z
#    x 2.199420 0.000000 0.241260 
#    y 0.000000 2.131360 0.000000 
#    z 0.241260 0.000000 3.999700 
# 
# From -- ./inp_files/63131.got.cif
#   From: 2010.05.17/outbox.cif.g08.bks.cpg/sg13_32_cif.got.tgz:63131.got - 2010.06.03 16:44:36.
