data_PCOD9231178
_publ_section_title
;
Structure prediction by ZEFSAII (Michael W. Deem and Ramdas Pophale) SiO2 
 PCOD9231178
Probable space group: P 2/C
;
_chemical_formula_sum "Si O2"
_cell_formula_units_Z 20
_cell_length_a 8.456538
_cell_length_b 21.296944
_cell_length_c 5.563964
_cell_angle_alpha 90.000000
_cell_angle_beta 123.823992
_cell_angle_gamma 90.000000
_cell_volume 832.463719
_symmetry_space_group_name_H-M "P 2/C"
_symmetry_group_IT_number 13
_symmetry_cell_setting 'monoclinic'
loop_
_space_group_symop_operation_xyz
x,y,z
-x,y,1/2-z
-x,-y,-z
x,-y,1/2+z
loop_
_atom_site_type_symbol
_atom_site_label
_atom_site_fract_x
_atom_site_fract_y
_atom_site_fract_z
Si Si1 0.721781 0.975949 0.872908
Si Si2 0.717282 0.523770 0.138896
Si Si3 0.823315 0.160972 0.437854
Si Si4 0.500000 0.243882 0.250000
Si Si5 0.000000 0.267304 0.250000
Si Si6 0.657585 0.655268 0.216143
O O1 0.500000 0.989749 0.750000
O O2 0.742530 0.905408 0.784711
O O3 0.800670 0.017381 0.715531
O O4 0.801852 0.509259 0.474333
O O5 0.722797 0.598860 0.099122
O O6 0.500000 0.500000 0.000000
O O7 0.664880 0.195655 0.456221
O O8 0.882540 0.217515 0.312083
O O9 0.000000 0.145395 0.750000
O O10 0.520765 0.292248 0.484294
O O11 0.155306 0.310913 0.516943
O O12 0.500000 0.622406 0.250000
#
# Coordination Sequence:
#
# PCOD9231178 Si02
#       6
#     4   4   4   2   2   4
#     4  10  24  46  73 104 138 187 242 293 356 428
#     4  10  20  38  67 100 130 182 242 285 348 433
#     4  12  26  45  70 104 144 181 243 293 355 433
#     4  12  24  44  70 102 134 202 228 298 360 414
#     4  12  28  44  64 114 138 186 242 296 354 440
#     4  12  24  42  71  97 144 184 234 294 359 421
#
# _framework density 24.025069999999999
#
# number of rings (size 3 to 8) (size 9 to 14) (size 15 to 20)
#    0.000    0.800    7.000    1.200    2.800    0.800 
#    3.600    1.000    0.000    0.000    0.000    0.000 
#    0.000    0.000    0.000    0.000    0.000    0.000 
#
# Total GULP energy -111369.778712 kJ/mol
# GULP energy per Si atom -5568.488936 kJ/mol
# Density = 2.397039 g / cm^3
# Si number density = 24.025070 Si / 1000 Ang^3
#
#
#
# Elastic Constant Matrix: (Units=GPa)
#
#
# Indices 1 2 3 4 5 6 
#
# 1 46.8954 28.5014 34.5018 0.0000 -1.5378 0.0000
# 2 28.5014 147.2865 16.1640 0.0000 0.8266 0.0000
# 3 34.5018 16.1640 94.3393 0.0000 -4.5165 0.0000
# 4 0.0000 0.0000 0.0000 49.7455 0.0000 -22.3087
# 5 -1.5378 0.8266 -4.5165 0.0000 26.1599 0.0000
# 6 0.0000 0.0000 0.0000 -22.3087 0.0000 78.6173
#
#
#
# Elastic Compliance Matrix: (Units=1/GPa)
#
#
# Indices 1 2 3 4 5 6 
#
# 1 0.032525 -0.005086 -0.011015 0.000000 0.000171 0.000000
# 2 -0.005086 0.007720 0.000516 0.000000 -0.000454 0.000000
# 3 -0.011015 0.000516 0.014629 0.000000 0.001862 0.000000
# 4 0.000000 0.000000 0.000000 0.023033 0.000000 0.006536
# 5 0.000171 -0.000454 0.001862 0.000000 0.038572 0.000000
# 6 0.000000 0.000000 0.000000 0.006536 0.000000 0.014575
#
#
# Mechanical properties :
#
#
# Convention : Reuss Voigt Hill
#
# Bulk Modulus (GPa) = 42.18971 49.65064 45.92017
# Shear Modulus (GPa) = 29.38986 44.86147 37.12566
#
# Velocity S-wave (km/s) = 3.50136 4.32589 3.93528
# Velocity P-wave (km/s) = 5.82622 6.75738 6.30900
#
# Compressibility (1/GPa) = 0.02370246
#
# Stress axis : x y z
#
# Youngs Moduli (GPa) = 30.74558 129.53990 68.35550
#
# Poissons Ratio (x) = 0.65884 0.75297
# Poissons Ratio (y) = 0.15637 -0.03525
# Poissons Ratio (z) = 0.33868 -0.06680
#
# Static dielectric constant tensor:
#      x y z
#    x 2.183910 0.000000 -0.099330 
#    y 0.000000 1.857760 0.000000 
#    z -0.099330 0.000000 2.079270 
# 
# From -- ./inp_files/2232.got.cif
#   From: 2010.05.17/outbox.cif.g08.bks.cpg/sg13_2_cif.got.tgz:2232.got - 2010.06.03 16:44:36.
