data_PCOD9231416
_publ_section_title
;
Structure prediction by ZEFSAII (Michael W. Deem and Ramdas Pophale) SiO2 
 PCOD9231416
Probable space group: P 2/C
;
_chemical_formula_sum "Si O2"
_cell_formula_units_Z 28
_cell_length_a 15.488331
_cell_length_b 5.411599
_cell_length_c 15.549397
_cell_angle_alpha 90.000000
_cell_angle_beta 75.446055
_cell_angle_gamma 90.000000
_cell_volume 1261.477240
_symmetry_space_group_name_H-M "P 2/C"
_symmetry_group_IT_number 13
_symmetry_cell_setting 'monoclinic'
loop_
_space_group_symop_operation_xyz
x,y,z
-x,y,1/2-z
-x,-y,-z
x,-y,1/2+z
loop_
_atom_site_type_symbol
_atom_site_label
_atom_site_fract_x
_atom_site_fract_y
_atom_site_fract_z
Si Si1 0.585058 0.363601 0.444055
Si Si2 0.603794 0.096599 0.270210
Si Si3 0.253728 0.470536 0.325798
Si Si4 0.711986 0.254431 0.846918
Si Si5 0.817650 0.983378 0.956155
Si Si6 0.898490 0.474017 0.997123
Si Si7 0.356768 0.123790 0.904365
O O1 0.500000 0.500000 0.500000
O O2 0.568014 0.286809 0.349755
O O3 0.673424 0.537528 0.420612
O O4 0.600752 0.156248 0.512583
O O5 0.698804 0.224195 0.220096
O O6 0.625363 0.859016 0.322086
O O7 0.577623 0.010600 0.180396
O O8 0.234369 0.625601 0.244430
O O9 0.165950 0.453555 0.404098
O O10 0.327385 0.619753 0.365296
O O11 0.765977 0.041147 0.880903
O O12 0.882618 0.216451 0.951850
O O13 0.864796 0.718662 0.954441
O O14 0.738976 0.996613 0.047968
O O15 0.000000 0.500000 0.000000
#
# Coordination Sequence:
#
# PCOD9231416 Si02
#       7
#     4   4   4   4   4   4   4
#     4  11  24  41  64  98 140 173 227 303 353 401
#     4  10  20  40  66  94 123 177 237 276 333 423
#     4   9  20  37  64  93 128 172 226 277 321 425
#     4  10  21  39  66  92 123 177 236 271 338 418
#     4  11  21  40  70  93 126 186 230 271 335 426
#     4  11  23  40  66 101 137 174 225 288 352 400
#     4  10  20  39  67  90 126 183 231 270 336 414
#
# _framework density 22.196199
#
# number of rings (size 3 to 8) (size 9 to 14) (size 15 to 20)
#    0.000    1.714    2.857    2.143    2.000    0.571 
#    0.000    8.571    3.143    0.000    0.000    0.000 
#    0.000    0.000    0.000    0.000    0.000    0.000 
#
# Total GULP energy -156246.156704 kJ/mol
# GULP energy per Si atom -5580.219882 kJ/mol
# Density = 2.214568 g / cm^3
# Si number density = 22.196199 Si / 1000 Ang^3
#
#
#
# Elastic Constant Matrix: (Units=GPa)
#
#
# Indices 1 2 3 4 5 6 
#
# 1 68.9356 17.6170 22.0974 0.0000 13.0655 0.0000
# 2 17.6170 83.4586 24.1595 0.0000 12.5141 0.0000
# 3 22.0974 24.1595 92.7955 0.0000 11.8373 0.0000
# 4 0.0000 0.0000 0.0000 39.9251 0.0000 8.7223
# 5 13.0655 12.5141 11.8373 0.0000 25.3943 0.0000
# 6 0.0000 0.0000 0.0000 8.7223 0.0000 35.8756
#
#
#
# Elastic Compliance Matrix: (Units=1/GPa)
#
#
# Indices 1 2 3 4 5 6 
#
# 1 0.017110 -0.001821 -0.002756 0.000000 -0.006621 0.000000
# 2 -0.001821 0.013810 -0.002566 0.000000 -0.004672 0.000000
# 3 -0.002756 -0.002566 0.012502 0.000000 -0.003145 0.000000
# 4 0.000000 0.000000 0.000000 0.026452 0.000000 -0.006431
# 5 -0.006621 -0.004672 -0.003145 0.000000 0.046554 0.000000
# 6 0.000000 0.000000 0.000000 -0.006431 0.000000 0.029438
#
#
# Mechanical properties :
#
#
# Convention : Reuss Voigt Hill
#
# Bulk Modulus (GPa) = 34.32124 41.43750 37.87937
# Shear Modulus (GPa) = 29.43560 32.32674 30.88117
#
# Velocity S-wave (km/s) = 3.64559 3.82043 3.73404
# Velocity P-wave (km/s) = 5.76339 6.17820 5.97440
#
# Compressibility (1/GPa) = 0.02913648
#
# Stress axis : x y z
#
# Youngs Moduli (GPa) = 58.44552 72.41277 79.98839
#
# Poissons Ratio (x) = 0.13188 0.22042
# Poissons Ratio (y) = 0.10644 0.20523
# Poissons Ratio (z) = 0.16105 0.18579
#
# Static dielectric constant tensor:
#      x y z
#    x 1.893840 0.000000 0.046080 
#    y 0.000000 1.930810 0.000000 
#    z 0.046080 0.000000 1.817570 
# 
# From -- ./inp_files/54571.got.cif
#   From: 2010.05.17/outbox.cif.g08.bks.cpg/sg13_28_cif.got.tgz:54571.got - 2010.06.03 16:44:36.
