data_PCOD9231685
_publ_section_title
;
Structure prediction by ZEFSAII (Michael W. Deem and Ramdas Pophale) SiO2 
 PCOD9231685
Probable space group: P 2/C
;
_chemical_formula_sum "Si O2"
_cell_formula_units_Z 26
_cell_length_a 20.263885
_cell_length_b 9.279144
_cell_length_c 7.665485
_cell_angle_alpha 90.000000
_cell_angle_beta 133.913893
_cell_angle_gamma 90.000000
_cell_volume 1038.325915
_symmetry_space_group_name_H-M "P 2/C"
_symmetry_group_IT_number 13
_symmetry_cell_setting 'monoclinic'
loop_
_space_group_symop_operation_xyz
x,y,z
-x,y,1/2-z
-x,-y,-z
x,-y,1/2+z
loop_
_atom_site_type_symbol
_atom_site_label
_atom_site_fract_x
_atom_site_fract_y
_atom_site_fract_z
Si Si1 0.698319 0.043682 0.348229
Si Si2 0.500000 0.000000 0.000000
Si Si3 0.500000 0.270463 0.250000
Si Si4 0.297689 0.685555 0.413688
Si Si5 0.016662 0.166827 0.986619
Si Si6 0.195210 0.524949 0.534542
Si Si7 0.222312 0.204642 0.314344
Si Si8 0.000000 0.387122 0.250000
O O1 0.702708 0.148914 0.525429
O O2 0.773176 0.103017 0.352980
O O3 0.596497 0.055201 0.083291
O O4 0.708855 0.882611 0.436971
O O5 0.488040 0.159655 0.067591
O O6 0.594745 0.355604 0.394319
O O7 0.232496 0.609266 0.436283
O O8 0.250530 0.624406 0.154658
O O9 0.000000 0.193000 0.750000
O O10 0.123399 0.190266 0.215629
O O11 0.971372 0.280806 0.037303
O O12 0.000000 0.000000 0.000000
O O13 0.227586 0.637195 0.743651
O O14 0.087755 0.484705 0.356408
#
# Coordination Sequence:
#
# PCOD9231685 Si02
#       8
#     4   2   2   4   4   4   4   2
#     4  10  22  41  71 102 144 187 241 318 368 461
#     4  10  20  40  70 108 142 190 238 296 394 448
#     4  10  22  42  70 108 150 184 238 318 364 472
#     4  10  24  44  70 104 146 190 248 305 383 457
#     4  12  27  46  75 113 147 194 261 329 392 457
#     4  11  27  48  71 104 146 209 252 308 391 468
#     4  11  25  43  69 102 143 191 250 310 379 451
#     4  12  30  50  78 104 158 214 258 330 388 478
#
# _framework density 25.040306000000001
#
# number of rings (size 3 to 8) (size 9 to 14) (size 15 to 20)
#    0.000    1.231    0.769    3.692    7.538    5.538 
#    0.000    3.077    0.000    0.000    0.000    0.000 
#    0.000    0.000    0.000    0.000    0.000    0.000 
#
# Total GULP energy -144782.785571 kJ/mol
# GULP energy per Si atom -5568.568676 kJ/mol
# Density = 2.498331 g / cm^3
# Si number density = 25.040306 Si / 1000 Ang^3
#
#
#
# Elastic Constant Matrix: (Units=GPa)
#
#
# Indices 1 2 3 4 5 6 
#
# 1 133.2902 47.8377 29.7414 0.0000 9.9499 0.0000
# 2 47.8377 147.6443 26.8700 0.0000 1.8273 0.0000
# 3 29.7414 26.8700 66.7746 0.0000 16.6886 0.0000
# 4 0.0000 0.0000 0.0000 21.5980 0.0000 -23.0061
# 5 9.9499 1.8273 16.6886 0.0000 38.5264 0.0000
# 6 0.0000 0.0000 0.0000 -23.0061 0.0000 36.2739
#
#
#
# Elastic Compliance Matrix: (Units=1/GPa)
#
#
# Indices 1 2 3 4 5 6 
#
# 1 0.009073 -0.002414 -0.002818 0.000000 -0.001008 0.000000
# 2 -0.002414 0.007988 -0.002467 0.000000 0.001313 0.000000
# 3 -0.002818 -0.002467 0.019078 0.000000 -0.007419 0.000000
# 4 0.000000 0.000000 0.000000 0.142718 0.000000 0.090516
# 5 -0.001008 0.001313 -0.007419 0.000000 0.029368 0.000000
# 6 0.000000 0.000000 0.000000 0.090516 0.000000 0.084976
#
#
# Mechanical properties :
#
#
# Convention : Reuss Voigt Hill
#
# Bulk Modulus (GPa) = 48.21533 61.84528 55.03030
# Shear Modulus (GPa) = 15.84718 35.49699 25.67208
#
# Velocity S-wave (km/s) = 2.51841 3.76918 3.20540
# Velocity P-wave (km/s) = 5.26815 6.61016 5.97694
#
# Compressibility (1/GPa) = 0.02074029
#
# Stress axis : x y z
#
# Youngs Moduli (GPa) = 110.21823 125.18634 52.41701
#
# Poissons Ratio (x) = 0.30225 0.14769
# Poissons Ratio (y) = 0.26611 0.12933
# Poissons Ratio (z) = 0.31054 0.30887
#
# Static dielectric constant tensor:
#      x y z
#    x 1.947070 0.000000 0.036970 
#    y 0.000000 2.319410 0.000000 
#    z 0.036970 0.000000 1.932750 
# 
# From -- ./inp_files/23021.got.cif
#   From: 2010.05.17/outbox.cif.g08.bks.cpg/sg13_12_cif.got.tgz:23021.got - 2010.06.03 16:44:36.
