data_PCOD9231199
_publ_section_title
;
Structure prediction by ZEFSAII (Michael W. Deem and Ramdas Pophale) SiO2 
 PCOD9231199
Probable space group: P 2/C
;
_chemical_formula_sum "Si O2"
_cell_formula_units_Z 24
_cell_length_a 6.896619
_cell_length_b 13.705004
_cell_length_c 15.430450
_cell_angle_alpha 90.000000
_cell_angle_beta 49.812918
_cell_angle_gamma 90.000000
_cell_volume 1114.176812
_symmetry_space_group_name_H-M "P 2/C"
_symmetry_group_IT_number 13
_symmetry_cell_setting 'monoclinic'
loop_
_space_group_symop_operation_xyz
x,y,z
-x,y,1/2-z
-x,-y,-z
x,-y,1/2+z
loop_
_atom_site_type_symbol
_atom_site_label
_atom_site_fract_x
_atom_site_fract_y
_atom_site_fract_z
Si Si1 0.483715 0.687157 0.532573
Si Si2 0.999937 0.565733 0.085585
Si Si3 0.292128 0.106770 0.141999
Si Si4 0.959086 0.904861 0.956207
Si Si5 0.500000 0.922531 0.750000
Si Si6 0.000000 0.430563 0.250000
Si Si7 0.647823 0.735201 0.126534
O O1 0.732174 0.622992 0.481279
O O2 0.462371 0.796367 0.579203
O O3 0.472903 0.700523 0.430541
O O4 0.236312 0.632681 0.644523
O O5 0.935720 0.500284 0.187493
O O6 0.785347 0.644970 0.131503
O O7 0.000000 0.500000 0.000000
O O8 0.411898 0.036676 0.181256
O O9 0.000000 0.136230 0.250000
O O10 0.232388 0.064506 0.065242
O O11 0.237149 0.869036 0.845354
O O12 0.843614 0.816448 0.040579
O O13 0.000000 0.000000 0.000000
O O14 0.500000 0.781569 0.250000
#
# Coordination Sequence:
#
# PCOD9231199 Si02
#       7
#     4   4   4   4   2   2   4
#     4  11  23  43  64  98 134 177 237 284 342 413
#     4  12  26  40  64  97 136 188 230 284 349 410
#     4   9  19  38  65  96 126 169 218 288 346 406
#     4  10  23  41  68 101 132 176 228 286 361 427
#     4  10  20  38  68  92 136 164 224 284 332 426
#     4  12  24  40  66  94 134 178 234 288 336 414
#     4  11  25  46  68  97 142 183 227 291 358 421
#
# _framework density 21.540565999999998
#
# number of rings (size 3 to 8) (size 9 to 14) (size 15 to 20)
#    0.000    1.333    2.500    2.500    3.500    2.000 
#    0.000    0.000    9.167    0.000    0.000    0.000 
#    0.000    0.000    0.000    0.000    0.000    0.000 
#
# Total GULP energy -133717.334719 kJ/mol
# GULP energy per Si atom -5571.555613 kJ/mol
# Density = 2.149154 g / cm^3
# Si number density = 21.540566 Si / 1000 Ang^3
#
#
#
# Elastic Constant Matrix: (Units=GPa)
#
#
# Indices 1 2 3 4 5 6 
#
# 1 117.0035 33.3540 46.6766 0.0000 21.3507 0.0000
# 2 33.3540 42.7838 -0.5308 0.0000 22.7413 0.0000
# 3 46.6766 -0.5308 122.9964 0.0000 14.0811 0.0000
# 4 0.0000 0.0000 0.0000 15.6151 0.0000 -1.8293
# 5 21.3507 22.7413 14.0811 0.0000 48.4845 0.0000
# 6 0.0000 0.0000 0.0000 -1.8293 0.0000 24.7556
#
#
#
# Elastic Compliance Matrix: (Units=1/GPa)
#
#
# Indices 1 2 3 4 5 6 
#
# 1 0.013723 -0.011159 -0.005341 0.000000 0.000742 0.000000
# 2 -0.011159 0.040631 0.006237 0.000000 -0.015955 0.000000
# 3 -0.005341 0.006237 0.010602 0.000000 -0.003653 0.000000
# 4 0.000000 0.000000 0.000000 0.064600 0.000000 0.004774
# 5 0.000742 -0.015955 -0.003653 0.000000 0.028843 0.000000
# 6 0.000000 0.000000 0.000000 0.004774 0.000000 0.040748
#
#
# Mechanical properties :
#
#
# Convention : Reuss Voigt Hill
#
# Bulk Modulus (GPa) = 22.50750 49.08703 35.79726
# Shear Modulus (GPa) = 21.32345 31.32329 26.32337
#
# Velocity S-wave (km/s) = 3.14971 3.81747 3.49956
# Velocity P-wave (km/s) = 4.86818 6.50142 5.74315
#
# Compressibility (1/GPa) = 0.04442964
#
# Stress axis : x y z
#
# Youngs Moduli (GPa) = 72.86940 24.61167 94.31938
#
# Poissons Ratio (x) = 0.27465 0.50376
# Poissons Ratio (y) = 0.81317 -0.58825
# Poissons Ratio (z) = 0.38920 -0.15350
#
# Static dielectric constant tensor:
#      x y z
#    x 1.797330 0.000000 0.023990 
#    y 0.000000 1.656320 0.000000 
#    z 0.023990 0.000000 1.651050 
# 
# From -- ./inp_files/43924.got.cif
#   From: 2010.05.17/outbox.cif.g08.bks.cpg/sg13_22_cif.got.tgz:43924.got - 2010.06.03 16:44:36.
