data_PCOD9231945
_publ_section_title
;
Structure prediction by ZEFSAII (Michael W. Deem and Ramdas Pophale) SiO2 
 PCOD9231945
Probable space group: P 2/C
;
_chemical_formula_sum "Si O2"
_cell_formula_units_Z 20
_cell_length_a 6.737392
_cell_length_b 15.371617
_cell_length_c 10.180988
_cell_angle_alpha 90.000000
_cell_angle_beta 99.664790
_cell_angle_gamma 90.000000
_cell_volume 1039.424903
_symmetry_space_group_name_H-M "P 2/C"
_symmetry_group_IT_number 13
_symmetry_cell_setting 'monoclinic'
loop_
_space_group_symop_operation_xyz
x,y,z
-x,y,1/2-z
-x,-y,-z
x,-y,1/2+z
loop_
_atom_site_type_symbol
_atom_site_label
_atom_site_fract_x
_atom_site_fract_y
_atom_site_fract_z
Si Si1 0.576476 0.068076 0.114291
Si Si2 0.832330 0.553591 0.613374
Si Si3 0.275162 0.225720 0.077703
Si Si4 0.000000 0.878762 0.750000
Si Si5 0.500000 0.375059 0.250000
Si Si6 0.945750 0.636866 0.091073
O O1 0.500000 0.041665 0.250000
O O2 0.464147 0.161061 0.075207
O O3 0.817972 0.072934 0.154102
O O4 0.500000 0.000000 0.000000
O O5 0.620686 0.570987 0.657324
O O6 0.830820 0.455345 0.557992
O O7 0.000000 0.560301 0.750000
O O8 0.882741 0.622046 0.502202
O O9 0.117648 0.175906 0.152702
O O10 0.345614 0.309778 0.165093
O O11 0.167031 0.272107 0.944509
O O12 0.000000 0.634617 0.250000
#
# Coordination Sequence:
#
# PCOD9231945 Si02
#       6
#     4   4   4   2   2   4
#     4  10  23  43  65  97 123 156 207 254 322 389
#     4  10  21  39  62  83 125 170 217 267 310 376
#     4  11  21  38  63  92 121 162 219 251 308 390
#     4  10  20  42  72  88 120 170 200 260 304 380
#     4  12  20  36  68  92 110 174 230 254 300 374
#     4  10  22  41  56  90 131 166 208 269 327 360
#
# _framework density 19.241410999999999
#
# number of rings (size 3 to 8) (size 9 to 14) (size 15 to 20)
#    0.000    1.600    5.000    1.200    0.000    4.000 
#    5.400    0.000    0.000    0.000    0.000    0.000 
#    0.000    0.000    0.000    0.000    0.000    0.000 
#
# Total GULP energy -111444.648272 kJ/mol
# GULP energy per Si atom -5572.232414 kJ/mol
# Density = 1.919762 g / cm^3
# Si number density = 19.241411 Si / 1000 Ang^3
#
#
#
# Elastic Constant Matrix: (Units=GPa)
#
#
# Indices 1 2 3 4 5 6 
#
# 1 125.5906 34.4178 33.1997 0.0000 1.4553 0.0000
# 2 34.4178 72.1096 35.3945 0.0000 8.1902 0.0000
# 3 33.1997 35.3945 99.5242 0.0000 2.6309 0.0000
# 4 0.0000 0.0000 0.0000 45.2878 0.0000 9.9366
# 5 1.4553 8.1902 2.6309 0.0000 27.2936 0.0000
# 6 0.0000 0.0000 0.0000 9.9366 0.0000 13.0321
#
#
#
# Elastic Compliance Matrix: (Units=1/GPa)
#
#
# Indices 1 2 3 4 5 6 
#
# 1 0.009457 -0.003688 -0.001864 0.000000 0.000782 0.000000
# 2 -0.003688 0.018802 -0.005326 0.000000 -0.004932 0.000000
# 3 -0.001864 -0.005326 0.012551 0.000000 0.000488 0.000000
# 4 0.000000 0.000000 0.000000 0.026517 0.000000 -0.020219
# 5 0.000782 -0.004932 0.000488 0.000000 0.038030 0.000000
# 6 0.000000 0.000000 0.000000 -0.020219 0.000000 0.092150
#
#
# Mechanical properties :
#
#
# Convention : Reuss Voigt Hill
#
# Bulk Modulus (GPa) = 52.48118 55.91650 54.19884
# Shear Modulus (GPa) = 22.16178 30.07019 26.11598
#
# Velocity S-wave (km/s) = 3.39746 3.95750 3.68812
# Velocity P-wave (km/s) = 6.53641 7.07149 6.80921
#
# Compressibility (1/GPa) = 0.01905445
#
# Stress axis : x y z
#
# Youngs Moduli (GPa) = 105.74638 53.18450 79.67561
#
# Poissons Ratio (x) = 0.19612 0.14850
# Poissons Ratio (y) = 0.38995 0.42438
# Poissons Ratio (z) = 0.19709 0.28328
#
# Static dielectric constant tensor:
#      x y z
#    x 1.759800 0.000000 0.090780 
#    y 0.000000 1.660830 0.000000 
#    z 0.090780 0.000000 1.843540 
# 
# From -- ./inp_files/26098.got.cif
#   From: 2010.05.17/outbox.cif.g08.bks.cpg/sg13_14_cif.got.tgz:26098.got - 2010.06.03 16:44:36.
