data_PCOD9231454
_publ_section_title
;
Structure prediction by ZEFSAII (Michael W. Deem and Ramdas Pophale) SiO2 
 PCOD9231454
Probable space group: P 2/C
;
_chemical_formula_sum "Si O2"
_cell_formula_units_Z 28
_cell_length_a 18.723043
_cell_length_b 10.383638
_cell_length_c 16.927261
_cell_angle_alpha 90.000000
_cell_angle_beta 158.378865
_cell_angle_gamma 90.000000
_cell_volume 1212.584050
_symmetry_space_group_name_H-M "P 2/C"
_symmetry_group_IT_number 13
_symmetry_cell_setting 'monoclinic'
loop_
_space_group_symop_operation_xyz
x,y,z
-x,y,1/2-z
-x,-y,-z
x,-y,1/2+z
loop_
_atom_site_type_symbol
_atom_site_label
_atom_site_fract_x
_atom_site_fract_y
_atom_site_fract_z
Si Si1 0.576189 0.191430 0.662806
Si Si2 0.121365 0.479261 0.297467
Si Si3 0.706547 0.367744 0.228907
Si Si4 0.605550 0.982653 0.943716
Si Si5 0.575760 0.693362 0.917619
Si Si6 0.772599 0.223032 0.035167
Si Si7 0.878219 0.360618 0.903707
O O1 0.517596 0.042657 0.610930
O O2 0.760069 0.232881 0.800514
O O3 0.936407 0.665647 0.961040
O O4 0.644613 0.214739 0.824250
O O5 0.246649 0.595942 0.394946
O O6 0.264365 0.363242 0.467456
O O7 0.000000 0.517885 0.250000
O O8 0.978916 0.415895 0.087016
O O9 0.597244 0.339602 0.198937
O O10 0.724906 0.521881 0.230971
O O11 0.593403 0.281840 0.047434
O O12 0.500000 0.968508 0.750000
O O13 0.656243 0.837129 0.015753
O O14 0.746544 0.101613 0.066881
O O15 0.500000 0.683987 0.750000
O O16 0.000000 0.224004 0.250000
#
# Coordination Sequence:
#
# PCOD9231454 Si02
#       7
#     4   4   4   4   4   4   4
#     4  11  22  42  71  97 136 175 227 283 335 401
#     4  11  22  40  68 105 136 175 229 284 336 403
#     4  11  27  41  68 100 142 180 219 287 351 405
#     4   9  22  42  67  98 133 184 229 275 341 405
#     4  11  26  45  66  96 141 184 226 279 346 418
#     4  10  20  39  71 106 130 171 233 286 332 396
#     4  11  24  42  66 106 137 173 229 282 347 403
#
# _framework density 23.091183000000001
#
# number of rings (size 3 to 8) (size 9 to 14) (size 15 to 20)
#    0.000    1.429    2.857    2.143    8.000    1.714 
#    0.000    2.143    0.000    0.000    0.000    0.000 
#    0.000    0.000    0.000    0.000    0.000    0.000 
#
# Total GULP energy -156279.044845 kJ/mol
# GULP energy per Si atom -5581.394459 kJ/mol
# Density = 2.303863 g / cm^3
# Si number density = 23.091183 Si / 1000 Ang^3
#
#
#
# Elastic Constant Matrix: (Units=GPa)
#
#
# Indices 1 2 3 4 5 6 
#
# 1 177.8523 70.4125 48.5558 0.0000 19.4269 0.0000
# 2 70.4125 163.7326 38.8022 0.0000 21.4847 0.0000
# 3 48.5558 38.8022 105.3606 0.0000 -5.8441 0.0000
# 4 0.0000 0.0000 0.0000 9.4101 0.0000 -0.4592
# 5 19.4269 21.4847 -5.8441 0.0000 51.8575 0.0000
# 6 0.0000 0.0000 0.0000 -0.4592 0.0000 33.8381
#
#
#
# Elastic Compliance Matrix: (Units=1/GPa)
#
#
# Indices 1 2 3 4 5 6 
#
# 1 0.007518 -0.002299 -0.002738 0.000000 -0.002172 0.000000
# 2 -0.002299 0.007918 -0.002003 0.000000 -0.002645 0.000000
# 3 -0.002738 -0.002003 0.011667 0.000000 0.003171 0.000000
# 4 0.000000 0.000000 0.000000 0.106340 0.000000 0.001443
# 5 -0.002172 -0.002645 0.003171 0.000000 0.021551 0.000000
# 6 0.000000 0.000000 0.000000 0.001443 0.000000 0.029572
#
#
# Mechanical properties :
#
#
# Convention : Reuss Voigt Hill
#
# Bulk Modulus (GPa) = 76.79721 84.72074 80.75897
# Shear Modulus (GPa) = 24.63219 38.29946 31.46582
#
# Velocity S-wave (km/s) = 3.26964 4.07703 3.69545
# Velocity P-wave (km/s) = 6.89815 7.67673 7.29783
#
# Compressibility (1/GPa) = 0.01302131
#
# Stress axis : x y z
#
# Youngs Moduli (GPa) = 133.01898 126.29480 85.71288
#
# Poissons Ratio (x) = 0.29034 0.23472
# Poissons Ratio (y) = 0.30580 0.17171
# Poissons Ratio (z) = 0.36426 0.25300
#
# Static dielectric constant tensor:
#      x y z
#    x 1.968130 0.000000 -0.024530 
#    y 0.000000 1.871670 0.000000 
#    z -0.024530 0.000000 1.919660 
# 
# From -- ./inp_files/82221.got.cif
#   From: 2010.05.17/outbox.cif.g08.bks.cpg/sg13_42_cif.got.tgz:82221.got - 2010.06.03 16:44:36.
