data_PCOD9231585
_publ_section_title
;
Structure prediction by ZEFSAII (Michael W. Deem and Ramdas Pophale) SiO2 
 PCOD9231585
Probable space group: P 2/C
;
_chemical_formula_sum "Si O2"
_cell_formula_units_Z 30
_cell_length_a 14.408786
_cell_length_b 14.854895
_cell_length_c 20.162356
_cell_angle_alpha 90.000000
_cell_angle_beta 20.706579
_cell_angle_gamma 90.000000
_cell_volume 1525.909287
_symmetry_space_group_name_H-M "P 2/C"
_symmetry_group_IT_number 13
_symmetry_cell_setting 'monoclinic'
loop_
_space_group_symop_operation_xyz
x,y,z
-x,y,1/2-z
-x,-y,-z
x,-y,1/2+z
loop_
_atom_site_type_symbol
_atom_site_label
_atom_site_fract_x
_atom_site_fract_y
_atom_site_fract_z
Si Si1 0.414307 0.905225 0.201879
Si Si2 0.620822 0.094728 0.042991
Si Si3 0.846301 0.755859 0.918477
Si Si4 0.500000 0.419701 0.250000
Si Si5 0.519042 0.405400 0.661274
Si Si6 0.130487 0.844060 0.263019
Si Si7 0.038133 0.168212 0.425765
Si Si8 0.045434 0.683288 0.404480
O O1 0.256633 0.900574 0.238174
O O2 0.195916 0.903935 0.405679
O O3 0.609221 0.988754 0.065828
O O4 0.580299 0.814059 0.098647
O O5 0.322068 0.126243 0.245589
O O6 0.731667 0.124003 0.896821
O O7 0.821068 0.138434 0.961093
O O8 0.000000 0.781723 0.750000
O O9 0.007088 0.783946 0.875856
O O10 0.763126 0.651285 0.970810
O O11 0.463044 0.488395 0.336926
O O12 0.233402 0.363596 0.421781
O O13 0.500000 0.367908 0.750000
O O14 0.264940 0.383315 0.787228
O O15 0.153427 0.739436 0.269054
O O16 0.998121 0.242204 0.509506
#
# Coordination Sequence:
#
# PCOD9231585 Si02
#       8
#     4   4   4   2   4   4   4   4
#     4  11  23  40  60  87 124 168 221 265 304 364
#     4  11  24  38  58  92 127 170 212 260 312 362
#     4  12  23  39  65  89 125 169 208 262 333 380
#     4  10  22  36  74  98 122 160 214 264 322 384
#     4  10  20  40  64  95 125 153 208 268 310 386
#     4  10  23  40  60  87 134 165 210 257 312 386
#     4  11  22  39  62  91 124 165 217 266 306 376
#     4  11  20  41  66  92 127 166 209 255 327 378
#
# _framework density 19.660409000000001
#
# number of rings (size 3 to 8) (size 9 to 14) (size 15 to 20)
#    0.400    0.800    4.000    3.200    3.733    1.600 
#    4.800    0.000    5.867    1.600    0.000    0.000 
#    0.000    0.000    0.000    0.000    0.000    0.000 
#
# Total GULP energy -167425.469068 kJ/mol
# GULP energy per Si atom -5580.848969 kJ/mol
# Density = 1.961566 g / cm^3
# Si number density = 19.660409 Si / 1000 Ang^3
#
#
#
# Elastic Constant Matrix: (Units=GPa)
#
#
# Indices 1 2 3 4 5 6 
#
# 1 61.4317 21.4333 2.6505 0.0000 -9.9305 0.0000
# 2 21.4333 75.8148 13.2581 0.0000 -1.2823 0.0000
# 3 2.6505 13.2581 59.7635 0.0000 -5.6751 0.0000
# 4 0.0000 0.0000 0.0000 32.6308 0.0000 -6.9754
# 5 -9.9305 -1.2823 -5.6751 0.0000 28.5242 0.0000
# 6 0.0000 0.0000 0.0000 -6.9754 0.0000 19.7587
#
#
#
# Elastic Compliance Matrix: (Units=1/GPa)
#
#
# Indices 1 2 3 4 5 6 
#
# 1 0.019228 -0.005498 0.000998 0.000000 0.006645 0.000000
# 2 -0.005498 0.015294 -0.003328 0.000000 -0.001889 0.000000
# 3 0.000998 -0.003328 0.017781 0.000000 0.003736 0.000000
# 4 0.000000 0.000000 0.000000 0.033147 0.000000 0.011702
# 5 0.006645 -0.001889 0.003736 0.000000 0.038030 0.000000
# 6 0.000000 0.000000 0.000000 0.011702 0.000000 0.054742
#
#
# Mechanical properties :
#
#
# Convention : Reuss Voigt Hill
#
# Bulk Modulus (GPa) = 27.28758 30.18820 28.73789
# Shear Modulus (GPa) = 24.26066 26.82727 25.54397
#
# Velocity S-wave (km/s) = 3.51662 3.69797 3.60843
# Velocity P-wave (km/s) = 5.51348 5.79840 5.65773
#
# Compressibility (1/GPa) = 0.03664671
#
# Stress axis : x y z
#
# Youngs Moduli (GPa) = 52.00859 65.38318 56.23825
#
# Poissons Ratio (x) = 0.35947 -0.05612
# Poissons Ratio (y) = 0.28594 0.18719
# Poissons Ratio (z) = -0.05190 0.21763
#
# Static dielectric constant tensor:
#      x y z
#    x 1.697060 0.000000 0.002440 
#    y 0.000000 1.702610 0.000000 
#    z 0.002440 0.000000 1.688560 
# 
# From -- ./inp_files/80287.got.cif
#   From: 2010.05.17/outbox.cif.g08.bks.cpg/sg13_41_cif.got.tgz:80287.got - 2010.06.03 16:44:36.
