data_PCOD9231088
_publ_section_title
;
Structure prediction by ZEFSAII (Michael W. Deem and Ramdas Pophale) SiO2 
 PCOD9231088
Probable space group: P 2/C
;
_chemical_formula_sum "Si O2"
_cell_formula_units_Z 28
_cell_length_a 8.939615
_cell_length_b 15.058017
_cell_length_c 13.364379
_cell_angle_alpha 90.000000
_cell_angle_beta 130.586524
_cell_angle_gamma 90.000000
_cell_volume 1366.217674
_symmetry_space_group_name_H-M "P 2/C"
_symmetry_group_IT_number 13
_symmetry_cell_setting 'monoclinic'
loop_
_space_group_symop_operation_xyz
x,y,z
-x,y,1/2-z
-x,-y,-z
x,-y,1/2+z
loop_
_atom_site_type_symbol
_atom_site_label
_atom_site_fract_x
_atom_site_fract_y
_atom_site_fract_z
Si Si1 0.856480 0.591249 0.339379
Si Si2 0.437706 0.821997 0.483408
Si Si3 0.459957 0.374066 0.970078
Si Si4 0.840338 0.931822 0.269213
Si Si5 0.261832 0.502197 0.515225
Si Si6 0.302214 0.117113 0.229586
Si Si7 0.928397 0.221350 0.525993
O O1 0.719102 0.606367 0.184408
O O2 0.734813 0.544241 0.375316
O O3 0.036806 0.525727 0.395992
O O4 0.961534 0.684179 0.417942
O O5 0.508152 0.727936 0.473600
O O6 0.354918 0.892646 0.368806
O O7 0.613445 0.860780 0.625104
O O8 0.249531 0.791534 0.470545
O O9 0.386065 0.407578 0.047080
O O10 0.644772 0.433240 0.020913
O O11 0.000000 0.944998 0.250000
O O12 0.918904 0.854999 0.375827
O O13 0.806476 0.023286 0.311639
O O14 0.500000 0.107883 0.250000
O O15 0.169187 0.193669 0.121762
#
# Coordination Sequence:
#
# PCOD9231088 Si02
#       7
#     4   4   4   4   4   4   4
#     4  11  21  43  63  92 126 163 213 255 315 374
#     4  10  20  38  64  88 121 166 203 246 310 380
#     4  11  21  43  63  92 126 163 213 255 315 374
#     4  10  20  38  66  87 115 164 206 245 307 378
#     4  10  24  38  62  94 118 160 208 266 306 368
#     4  10  22  40  56  91 125 156 202 257 309 364
#     4  10  20  38  64  88 121 166 203 246 310 380
#
# _framework density 20.494537000000001
#
# number of rings (size 3 to 8) (size 9 to 14) (size 15 to 20)
#    0.000    1.714    2.857    1.714    0.000    0.000 
#   20.571    0.000    0.000    0.000    0.000    0.000 
#    0.000    0.000    0.000    0.000    0.000    0.000 
#
# Total GULP energy -156281.265820 kJ/mol
# GULP energy per Si atom -5581.473779 kJ/mol
# Density = 2.044789 g / cm^3
# Si number density = 20.494537 Si / 1000 Ang^3
#
#
#
# Elastic Constant Matrix: (Units=GPa)
#
#
# Indices 1 2 3 4 5 6 
#
# 1 48.8604 16.5666 7.6477 0.0000 6.3520 0.0000
# 2 16.5666 97.9582 36.2639 0.0000 12.3588 0.0000
# 3 7.6477 36.2639 90.5312 0.0000 12.7460 0.0000
# 4 0.0000 0.0000 0.0000 33.1143 0.0000 3.6735
# 5 6.3520 12.3588 12.7460 0.0000 16.4715 0.0000
# 6 0.0000 0.0000 0.0000 3.6735 0.0000 24.6734
#
#
#
# Elastic Compliance Matrix: (Units=1/GPa)
#
#
# Indices 1 2 3 4 5 6 
#
# 1 0.022306 -0.003044 0.000252 0.000000 -0.006513 0.000000
# 2 -0.003044 0.012939 -0.004180 0.000000 -0.005300 0.000000
# 3 0.000252 -0.004180 0.013771 0.000000 -0.007618 0.000000
# 4 0.000000 0.000000 0.000000 0.030706 0.000000 -0.004572
# 5 -0.006513 -0.005300 -0.007618 0.000000 0.073094 0.000000
# 6 0.000000 0.000000 0.000000 -0.004572 0.000000 0.041210
#
#
# Mechanical properties :
#
#
# Convention : Reuss Voigt Hill
#
# Bulk Modulus (GPa) = 28.51176 39.81179 34.16178
# Shear Modulus (GPa) = 22.76237 26.64327 24.70282
#
# Velocity S-wave (km/s) = 3.33627 3.60949 3.47556
# Velocity P-wave (km/s) = 5.36498 6.06951 5.72808
#
# Compressibility (1/GPa) = 0.03507324
#
# Stress axis : x y z
#
# Youngs Moduli (GPa) = 44.83140 77.28434 72.61433
#
# Poissons Ratio (x) = 0.23525 -0.01830
# Poissons Ratio (y) = 0.13646 0.30350
# Poissons Ratio (z) = -0.01130 0.32302
#
# Static dielectric constant tensor:
#      x y z
#    x 1.753950 0.000000 -0.022480 
#    y 0.000000 1.735540 0.000000 
#    z -0.022480 0.000000 1.721910 
# 
# From -- ./inp_files/47737.got.cif
#   From: 2010.05.17/outbox.cif.g08.bks.cpg/sg13_24_cif.got.tgz:47737.got - 2010.06.03 16:44:36.
