data_PCOD9231032
_publ_section_title
;
Structure prediction by ZEFSAII (Michael W. Deem and Ramdas Pophale) SiO2 
 PCOD9231032
Probable space group: P 2/C
;
_chemical_formula_sum "Si O2"
_cell_formula_units_Z 28
_cell_length_a 8.544500
_cell_length_b 14.634352
_cell_length_c 11.767550
_cell_angle_alpha 90.000000
_cell_angle_beta 124.485172
_cell_angle_gamma 90.000000
_cell_volume 1212.878069
_symmetry_space_group_name_H-M "P 2/C"
_symmetry_group_IT_number 13
_symmetry_cell_setting 'monoclinic'
loop_
_space_group_symop_operation_xyz
x,y,z
-x,y,1/2-z
-x,-y,-z
x,-y,1/2+z
loop_
_atom_site_type_symbol
_atom_site_label
_atom_site_fract_x
_atom_site_fract_y
_atom_site_fract_z
Si Si1 0.984157 0.399473 0.866486
Si Si2 0.408764 0.756444 0.984664
Si Si3 0.731470 0.036453 0.847214
Si Si4 0.178273 0.202009 0.746489
Si Si5 0.591850 0.401104 0.410541
Si Si6 0.674228 0.405854 0.904728
Si Si7 0.712671 0.958067 0.594314
O O1 0.869067 0.306886 0.794335
O O2 0.850281 0.443266 0.905113
O O3 0.000000 0.448347 0.750000
O O4 0.189509 0.370460 0.994080
O O5 0.610992 0.796106 0.113192
O O6 0.292140 0.690330 0.021193
O O7 0.473922 0.678495 0.922604
O O8 0.297510 0.847658 0.905982
O O9 0.500000 0.033144 0.750000
O O10 0.801988 0.139421 0.855367
O O11 0.788679 0.988519 0.750215
O O12 0.792065 0.010891 0.001500
O O13 0.000000 0.168935 0.750000
O O14 0.500000 0.409199 0.250000
O O15 0.614038 0.507996 0.456664
O O16 0.500000 0.387021 0.750000
O O17 0.500000 0.000000 0.500000
#
# Coordination Sequence:
#
# PCOD9231032 Si02
#       7
#     4   4   4   4   4   4   4
#     4  11  21  39  65  95 128 170 230 284 333 401
#     4  12  21  40  64  96 130 174 224 280 333 423
#     4  10  20  38  62  96 131 171 224 275 342 424
#     4  11  20  36  65  97 126 163 227 282 337 393
#     4  11  25  42  58  96 139 180 224 282 353 402
#     4  11  22  37  67  98 128 178 231 286 335 405
#     4  10  21  35  65  95 130 168 229 273 347 409
#
# _framework density 23.085584999999998
#
# number of rings (size 3 to 8) (size 9 to 14) (size 15 to 20)
#    0.000    1.143    7.143    1.714    0.000    2.857 
#    0.000    1.429    0.000    1.714    0.000    0.000 
#    0.000    0.000    0.000    0.000    0.000    0.000 
#
# Total GULP energy -156004.332658 kJ/mol
# GULP energy per Si atom -5571.583309 kJ/mol
# Density = 2.303304 g / cm^3
# Si number density = 23.085585 Si / 1000 Ang^3
#
#
#
# Elastic Constant Matrix: (Units=GPa)
#
#
# Indices 1 2 3 4 5 6 
#
# 1 95.8720 12.5549 64.1019 0.0000 -36.5093 0.0000
# 2 12.5549 124.1767 26.0556 0.0000 -27.1073 0.0000
# 3 64.1019 26.0556 83.9634 0.0000 -12.1675 0.0000
# 4 0.0000 0.0000 0.0000 23.6257 0.0000 -2.0154
# 5 -36.5093 -27.1073 -12.1675 0.0000 43.3735 0.0000
# 6 0.0000 0.0000 0.0000 -2.0154 0.0000 26.3356
#
#
#
# Elastic Compliance Matrix: (Units=1/GPa)
#
#
# Indices 1 2 3 4 5 6 
#
# 1 0.041376 0.009078 -0.029746 0.000000 0.032157 0.000000
# 2 0.009078 0.011700 -0.008750 0.000000 0.012499 0.000000
# 3 -0.029746 -0.008750 0.034308 0.000000 -0.020882 0.000000
# 4 0.000000 0.000000 0.000000 0.042605 0.000000 0.003260
# 5 0.032157 0.012499 -0.020882 0.000000 0.052077 0.000000
# 6 0.000000 0.000000 0.000000 0.003260 0.000000 0.038221
#
#
# Mechanical properties :
#
#
# Convention : Reuss Voigt Hill
#
# Bulk Modulus (GPa) = 35.02781 56.60410 45.81595
# Shear Modulus (GPa) = 17.32270 32.08694 24.70482
#
# Velocity S-wave (km/s) = 2.74226 3.73220 3.27485
# Velocity P-wave (km/s) = 5.02321 6.56847 5.84711
#
# Compressibility (1/GPa) = 0.02854874
#
# Stress axis : x y z
#
# Youngs Moduli (GPa) = 24.16849 85.47324 29.14733
#
# Poissons Ratio (x) = -0.77591 0.86701
# Poissons Ratio (y) = -0.21940 0.25504
# Poissons Ratio (z) = 0.71891 0.74788
#
# Static dielectric constant tensor:
#      x y z
#    x 1.968480 0.000000 -0.114950 
#    y 0.000000 1.905910 0.000000 
#    z -0.114950 0.000000 1.923170 
# 
# From -- ./inp_files/30474.got.cif
#   From: 2010.05.17/outbox.cif.g08.bks.cpg/sg13_16_cif.got.tgz:30474.got - 2010.06.03 16:44:36.
