data_PCOD9231433
_publ_section_title
;
Structure prediction by ZEFSAII (Michael W. Deem and Ramdas Pophale) SiO2 
 PCOD9231433
Probable space group: P 2/C
;
_chemical_formula_sum "Si O2"
_cell_formula_units_Z 22
_cell_length_a 19.183111
_cell_length_b 5.171956
_cell_length_c 8.798457
_cell_angle_alpha 90.000000
_cell_angle_beta 71.925411
_cell_angle_gamma 90.000000
_cell_volume 829.855725
_symmetry_space_group_name_H-M "P 2/C"
_symmetry_group_IT_number 13
_symmetry_cell_setting 'monoclinic'
loop_
_space_group_symop_operation_xyz
x,y,z
-x,y,1/2-z
-x,-y,-z
x,-y,1/2+z
loop_
_atom_site_type_symbol
_atom_site_label
_atom_site_fract_x
_atom_site_fract_y
_atom_site_fract_z
Si Si1 0.724546 0.528308 0.992798
Si Si2 0.500000 0.408094 0.250000
Si Si3 0.150864 0.272379 0.761530
Si Si4 0.594873 0.732415 0.417989
Si Si5 0.055098 0.436955 0.097423
Si Si6 0.723118 0.971970 0.703909
O O1 0.723160 0.791258 0.084521
O O2 0.727669 0.289356 0.107906
O O3 0.792364 0.489476 0.833504
O O4 0.652508 0.475694 0.944233
O O5 0.554589 0.598147 0.304420
O O6 0.461168 0.233383 0.404652
O O7 0.118334 0.306969 0.953012
O O8 0.204948 0.028058 0.740892
O O9 0.088524 0.323487 0.674223
O O10 0.646004 0.975101 0.341095
O O11 0.000000 0.287137 0.250000
O O12 0.000000 0.500000 0.000000
#
# Coordination Sequence:
#
# PCOD9231433 Si02
#       6
#     4   2   4   4   4   4
#     4  11  24  44  71 105 138 183 235 302 358 416
#     4  10  20  44  74 104 142 198 240 292 372 438
#     4  10  20  39  68 105 142 185 242 295 354 428
#     4  10  22  42  73 100 147 181 246 294 361 434
#     4   9  18  36  68 106 146 194 234 291 354 428
#     4  11  24  44  71 105 139 181 236 301 358 416
#
# _framework density 26.510629000000002
#
# number of rings (size 3 to 8) (size 9 to 14) (size 15 to 20)
#    0.000    1.818    3.636    0.000    0.000    5.818 
#    0.000    2.727    0.000   14.182    0.000    0.000 
#    0.000    0.000    0.000    0.000    0.000    0.000 
#
# Total GULP energy -123046.530561 kJ/mol
# GULP energy per Si atom -5593.024116 kJ/mol
# Density = 2.645029 g / cm^3
# Si number density = 26.510629 Si / 1000 Ang^3
#
#
#
# Elastic Constant Matrix: (Units=GPa)
#
#
# Indices 1 2 3 4 5 6 
#
# 1 169.7843 31.9022 67.3437 0.0000 24.9227 0.0000
# 2 31.9022 155.0686 71.0990 0.0000 10.8492 0.0000
# 3 67.3437 71.0990 204.0025 0.0000 -24.0274 0.0000
# 4 0.0000 0.0000 0.0000 43.7906 0.0000 32.6441
# 5 24.9227 10.8492 -24.0274 0.0000 82.4690 0.0000
# 6 0.0000 0.0000 0.0000 32.6441 0.0000 -47.3220
#
#
#
# Elastic Compliance Matrix: (Units=1/GPa)
#
#
# Indices 1 2 3 4 5 6 
#
# 1 0.007463 -0.000030 -0.002815 0.000000 -0.003072 0.000000
# 2 -0.000030 0.007959 -0.002989 0.000000 -0.001909 0.000000
# 3 -0.002815 -0.002989 0.007269 0.000000 0.003362 0.000000
# 4 0.000000 0.000000 0.000000 0.015081 0.000000 0.010403
# 5 -0.003072 -0.001909 0.003362 0.000000 0.014285 0.000000
# 6 0.000000 0.000000 0.000000 0.010403 0.000000 -0.013955
#
#
# Mechanical properties :
#
#
# Convention : Reuss Voigt Hill
#
# Bulk Modulus (GPa) = 90.71675 96.61612 93.66644
# Shear Modulus (GPa) = 93.55973 39.68822 66.62397
#
# Velocity S-wave (km/s) = 5.94710 3.87339 5.01853
# Velocity P-wave (km/s) = 9.02500 7.51849 8.30597
#
# Compressibility (1/GPa) = 0.01102332
#
# Stress axis : x y z
#
# Youngs Moduli (GPa) = 133.99746 125.64719 137.57539
#
# Poissons Ratio (x) = 0.00374 0.38727
# Poissons Ratio (y) = 0.00399 0.41118
# Poissons Ratio (z) = 0.37720 0.37553
#
# Static dielectric constant tensor:
#      x y z
#    x 2.176020 0.000000 -0.026170 
#    y 0.000000 2.050050 0.000000 
#    z -0.026170 0.000000 2.022600 
# 
# From -- ./inp_files/20497.got.cif
#   From: 2010.05.17/outbox.cif.g08.bks.cpg/sg13_11_cif.got.tgz:20497.got - 2010.06.03 16:44:36.
