data_PCOD9231902
_publ_section_title
;
Structure prediction by ZEFSAII (Michael W. Deem and Ramdas Pophale) SiO2 
 PCOD9231902
Probable space group: P 2/C
;
_chemical_formula_sum "Si O2"
_cell_formula_units_Z 22
_cell_length_a 13.790688
_cell_length_b 11.134937
_cell_length_c 17.786675
_cell_angle_alpha 90.000000
_cell_angle_beta 158.988846
_cell_angle_gamma 90.000000
_cell_volume 979.304645
_symmetry_space_group_name_H-M "P 2/C"
_symmetry_group_IT_number 13
_symmetry_cell_setting 'monoclinic'
loop_
_space_group_symop_operation_xyz
x,y,z
-x,y,1/2-z
-x,-y,-z
x,-y,1/2+z
loop_
_atom_site_type_symbol
_atom_site_label
_atom_site_fract_x
_atom_site_fract_y
_atom_site_fract_z
Si Si1 0.256109 0.678901 0.664617
Si Si2 0.771772 0.582290 0.699872
Si Si3 0.076268 0.843008 0.720944
Si Si4 0.500000 0.104486 0.750000
Si Si5 0.864824 0.625268 0.080838
Si Si6 0.709760 0.047749 0.265063
O O1 0.138674 0.608079 0.649673
O O2 0.087718 0.682914 0.466293
O O3 0.322790 0.814063 0.735560
O O4 0.546956 0.618663 0.862196
O O5 0.500000 0.500000 0.500000
O O6 0.761175 0.716317 0.658022
O O7 0.001823 0.504163 0.828627
O O8 0.249822 0.937716 0.796709
O O9 0.000000 0.880067 0.750000
O O10 0.785495 0.826220 0.467487
O O11 0.476999 0.026874 0.811341
O O12 0.000000 0.689554 0.250000
O O13 0.000000 0.000000 0.500000
#
# Coordination Sequence:
#
# PCOD9231902 Si02
#       6
#     4   4   4   2   4   4
#     4  10  22  39  61  90 120 165 211 254 319 381
#     4  11  22  41  59  89 132 166 209 263 315 384
#     4  10  23  41  65  97 130 168 216 262 322 385
#     4  10  20  42  68  92 132 172 210 270 316 376
#     4  11  21  37  61  90 123 162 204 261 313 375
#     4   9  20  43  66  91 129 165 213 266 320 378
#
# _framework density 22.464918999999998
#
# number of rings (size 3 to 8) (size 9 to 14) (size 15 to 20)
#    0.000    1.818    1.818    2.182    0.000    2.182 
#    9.818    8.182    0.000    0.000    0.000    0.000 
#    0.000    0.000    0.000    0.000    0.000    0.000 
#
# Total GULP energy -122491.559339 kJ/mol
# GULP energy per Si atom -5567.798152 kJ/mol
# Density = 2.241379 g / cm^3
# Si number density = 22.464919 Si / 1000 Ang^3
#
#
#
# Elastic Constant Matrix: (Units=GPa)
#
#
# Indices 1 2 3 4 5 6 
#
# 1 170.7631 34.8757 36.5301 0.0000 -26.1711 0.0000
# 2 34.8757 60.2657 36.3113 0.0000 21.6726 0.0000
# 3 36.5301 36.3113 90.5534 0.0000 -4.5543 0.0000
# 4 0.0000 0.0000 0.0000 18.2858 0.0000 3.9297
# 5 -26.1711 21.6726 -4.5543 0.0000 45.4167 0.0000
# 6 0.0000 0.0000 0.0000 3.9297 0.0000 16.0861
#
#
#
# Elastic Compliance Matrix: (Units=1/GPa)
#
#
# Indices 1 2 3 4 5 6 
#
# 1 0.009039 -0.008876 0.000390 0.000000 0.009483 0.000000
# 2 -0.008876 0.038580 -0.013139 0.000000 -0.024842 0.000000
# 3 0.000390 -0.013139 0.016565 0.000000 0.008156 0.000000
# 4 0.000000 0.000000 0.000000 0.057717 0.000000 -0.014100
# 5 0.009483 -0.024842 0.008156 0.000000 0.040156 0.000000
# 6 0.000000 0.000000 0.000000 -0.014100 0.000000 0.065610
#
#
# Mechanical properties :
#
#
# Convention : Reuss Voigt Hill
#
# Bulk Modulus (GPa) = 47.77109 59.66849 53.71979
# Shear Modulus (GPa) = 17.99241 30.21537 24.10389
#
# Velocity S-wave (km/s) = 2.83311 3.67141 3.27916
# Velocity P-wave (km/s) = 5.65800 6.67763 6.18885
#
# Compressibility (1/GPa) = 0.02093316
#
# Stress axis : x y z
#
# Youngs Moduli (GPa) = 110.63350 25.92013 60.36881
#
# Poissons Ratio (x) = 0.23007 -0.02353
# Poissons Ratio (y) = 0.98198 0.79319
# Poissons Ratio (z) = -0.04312 0.34057
#
# Static dielectric constant tensor:
#      x y z
#    x 1.949720 0.000000 -0.042430 
#    y 0.000000 1.820250 0.000000 
#    z -0.042430 0.000000 1.849030 
# 
# From -- ./inp_files/68618.got.cif
#   From: 2010.05.17/outbox.cif.g08.bks.cpg/sg13_35_cif.got.tgz:68618.got - 2010.06.03 16:44:36.
