data_PCOD9231074
_publ_section_title
;
Structure prediction by ZEFSAII (Michael W. Deem and Ramdas Pophale) SiO2 
 PCOD9231074
Probable space group: P 2/C
;
_chemical_formula_sum "Si O2"
_cell_formula_units_Z 18
_cell_length_a 9.224790
_cell_length_b 8.451147
_cell_length_c 9.769679
_cell_angle_alpha 90.000000
_cell_angle_beta 117.046224
_cell_angle_gamma 90.000000
_cell_volume 678.351237
_symmetry_space_group_name_H-M "P 2/C"
_symmetry_group_IT_number 13
_symmetry_cell_setting 'monoclinic'
loop_
_space_group_symop_operation_xyz
x,y,z
-x,y,1/2-z
-x,-y,-z
x,-y,1/2+z
loop_
_atom_site_type_symbol
_atom_site_label
_atom_site_fract_x
_atom_site_fract_y
_atom_site_fract_z
Si Si1 0.734551 0.306981 0.241080
Si Si2 0.160769 0.667673 0.221381
Si Si3 0.276613 0.120252 0.997686
Si Si4 0.631231 0.772827 0.414744
Si Si5 0.000000 0.939556 0.750000
O O1 0.799429 0.483448 0.275735
O O2 0.684965 0.245461 0.368229
O O3 0.865751 0.172375 0.257989
O O4 0.619203 0.301591 0.059452
O O5 0.280340 0.785140 0.357128
O O6 0.192521 0.730954 0.080012
O O7 0.000000 0.666381 0.250000
O O8 0.093331 0.046982 0.901911
O O9 0.379610 0.962246 0.069079
O O10 0.500000 0.711005 0.250000
#
# Coordination Sequence:
#
# PCOD9231074 Si02
#       5
#     4   4   4   4   2
#     4  11  24  41  71 103 141 181 226 286 347 411
#     4  12  26  44  71 108 143 179 227 288 352 410
#     4  11  24  42  70 101 139 182 232 283 342 408
#     4  11  27  49  70 100 140 188 236 283 341 412
#     4  10  20  38  64 104 140 178 222 286 340 410
#
# _framework density 26.534925000000001
#
# number of rings (size 3 to 8) (size 9 to 14) (size 15 to 20)
#    0.000    0.889    2.222    4.667    6.222    6.222 
#    0.000    2.222    0.000    0.000    0.000    0.000 
#    0.000    0.000    0.000    0.000    0.000    0.000 
#
# Total GULP energy -100607.231677 kJ/mol
# GULP energy per Si atom -5589.290649 kJ/mol
# Density = 2.647453 g / cm^3
# Si number density = 26.534925 Si / 1000 Ang^3
#
#
#
# Elastic Constant Matrix: (Units=GPa)
#
#
# Indices 1 2 3 4 5 6 
#
# 1 87.6617 11.3881 22.8635 0.0000 -12.2507 0.0000
# 2 11.3881 173.0351 20.7629 0.0000 -18.6139 0.0000
# 3 22.8635 20.7629 138.9081 0.0000 -8.1092 0.0000
# 4 0.0000 0.0000 0.0000 53.5103 0.0000 -23.5013
# 5 -12.2507 -18.6139 -8.1092 0.0000 53.5361 0.0000
# 6 0.0000 0.0000 0.0000 -23.5013 0.0000 20.4126
#
#
#
# Elastic Compliance Matrix: (Units=1/GPa)
#
#
# Indices 1 2 3 4 5 6 
#
# 1 0.012265 -0.000328 -0.001829 0.000000 0.002416 0.000000
# 2 -0.000328 0.006098 -0.000745 0.000000 0.001932 0.000000
# 3 -0.001829 -0.000745 0.007639 0.000000 0.000480 0.000000
# 4 0.000000 0.000000 0.000000 0.037803 0.000000 0.043523
# 5 0.002416 0.001932 0.000480 0.000000 0.019976 0.000000
# 6 0.000000 0.000000 0.000000 0.043523 0.000000 0.099098
#
#
# Mechanical properties :
#
#
# Convention : Reuss Voigt Hill
#
# Bulk Modulus (GPa) = 49.50656 56.62600 53.06628
# Shear Modulus (GPa) = 25.58656 48.46450 37.02553
#
# Velocity S-wave (km/s) = 3.10862 4.27833 3.73949
# Velocity P-wave (km/s) = 5.61982 6.76697 6.21990
#
# Compressibility (1/GPa) = 0.02019934
#
# Stress axis : x y z
#
# Youngs Moduli (GPa) = 81.53553 163.98860 130.90190
#
# Poissons Ratio (x) = 0.05377 0.23937
# Poissons Ratio (y) = 0.02674 0.09748
# Poissons Ratio (z) = 0.14910 0.12212
#
# Static dielectric constant tensor:
#      x y z
#    x 2.313750 0.000000 0.086170 
#    y 0.000000 1.950470 0.000000 
#    z 0.086170 0.000000 2.063980 
# 
# From -- ./inp_files/15083.got.cif
#   From: 2010.05.17/outbox.cif.g08.bks.cpg/sg13_8_cif.got.tgz:15083.got - 2010.06.03 16:44:36.
