data_PCOD9231542
_publ_section_title
;
Structure prediction by ZEFSAII (Michael W. Deem and Ramdas Pophale) SiO2 
 PCOD9231542
Probable space group: P 2/C
;
_chemical_formula_sum "Si O2"
_cell_formula_units_Z 28
_cell_length_a 10.875910
_cell_length_b 5.850252
_cell_length_c 20.649605
_cell_angle_alpha 90.000000
_cell_angle_beta 61.387833
_cell_angle_gamma 90.000000
_cell_volume 1153.420663
_symmetry_space_group_name_H-M "P 2/C"
_symmetry_group_IT_number 13
_symmetry_cell_setting 'monoclinic'
loop_
_space_group_symop_operation_xyz
x,y,z
-x,y,1/2-z
-x,-y,-z
x,-y,1/2+z
loop_
_atom_site_type_symbol
_atom_site_label
_atom_site_fract_x
_atom_site_fract_y
_atom_site_fract_z
Si Si1 0.500000 0.736756 0.250000
Si Si2 0.608737 0.307475 0.996689
Si Si3 0.197843 0.650408 0.482795
Si Si4 0.000000 0.807303 0.250000
Si Si5 0.754842 0.600499 0.651571
Si Si6 0.814525 0.066089 0.392046
Si Si7 0.417481 0.017645 0.379130
Si Si8 0.157662 0.382701 0.227687
O O1 0.370848 0.574121 0.299153
O O2 0.528173 0.904044 0.303354
O O3 0.684193 0.108189 0.936090
O O4 0.500000 0.500000 0.000000
O O5 0.742681 0.439391 0.991794
O O6 0.536768 0.178011 0.074590
O O7 0.149755 0.537479 0.425922
O O8 0.131064 0.813831 0.554803
O O9 0.330384 0.807856 0.430206
O O10 0.056273 0.929160 0.171793
O O11 0.138158 0.655662 0.231638
O O12 0.688172 0.822228 0.634812
O O13 0.810969 0.677099 0.706863
O O14 0.767934 0.258958 0.350905
O O15 0.000000 0.317376 0.250000
#
# Coordination Sequence:
#
# PCOD9231542 Si02
#       8
#     2   4   4   2   4   4   4   4
#     4  10  20  40  62  98 132 178 230 276 346 424
#     4  10  22  42  64  99 136 179 230 284 345 416
#     4   9  21  42  64  93 132 180 221 280 342 418
#     4  10  22  44  64  98 136 172 238 290 346 400
#     4  10  21  44  66  96 138 179 228 291 348 422
#     4  11  21  43  70  94 137 182 228 291 348 415
#     4   9  20  40  62  89 139 175 221 274 342 419
#     4  10  24  45  67 100 138 175 235 293 351 408
#
# _framework density 24.275618000000001
#
# number of rings (size 3 to 8) (size 9 to 14) (size 15 to 20)
#    0.429    1.714    0.714    1.286    0.000    4.571 
#   33.429    1.429    0.000    0.000    0.000    0.000 
#    0.000    0.000    0.000    0.000    0.000    0.000 
#
# Total GULP energy -155953.018649 kJ/mol
# GULP energy per Si atom -5569.750666 kJ/mol
# Density = 2.422037 g / cm^3
# Si number density = 24.275618 Si / 1000 Ang^3
#
#
#
# Elastic Constant Matrix: (Units=GPa)
#
#
# Indices 1 2 3 4 5 6 
#
# 1 52.1980 20.7005 39.2290 0.0000 25.4481 0.0000
# 2 20.7005 80.8155 49.0694 0.0000 15.2434 0.0000
# 3 39.2290 49.0694 152.1707 0.0000 25.7591 0.0000
# 4 0.0000 0.0000 0.0000 61.4588 0.0000 15.7117
# 5 25.4481 15.2434 25.7591 0.0000 31.4809 0.0000
# 6 0.0000 0.0000 0.0000 15.7117 0.0000 15.5230
#
#
#
# Elastic Compliance Matrix: (Units=1/GPa)
#
#
# Indices 1 2 3 4 5 6 
#
# 1 0.034631 -0.001775 -0.004367 0.000000 -0.023562 0.000000
# 2 -0.001775 0.015909 -0.004192 0.000000 -0.002839 0.000000
# 3 -0.004367 -0.004192 0.009412 0.000000 -0.002141 0.000000
# 4 0.000000 0.000000 0.000000 0.021951 0.000000 -0.022218
# 5 -0.023562 -0.002839 -0.002141 0.000000 0.053938 0.000000
# 6 0.000000 0.000000 0.000000 -0.022218 0.000000 0.086909
#
#
# Mechanical properties :
#
#
# Convention : Reuss Voigt Hill
#
# Bulk Modulus (GPa) = 25.45576 55.90910 40.68243
# Shear Modulus (GPa) = 19.49233 33.43822 26.46528
#
# Velocity S-wave (km/s) = 2.83673 3.71541 3.30540
# Velocity P-wave (km/s) = 4.60850 6.44102 5.60022
#
# Compressibility (1/GPa) = 0.03928384
#
# Stress axis : x y z
#
# Youngs Moduli (GPa) = 28.87625 62.85665 106.25234
#
# Poissons Ratio (x) = 0.11156 0.46399
# Poissons Ratio (y) = 0.05125 0.44542
# Poissons Ratio (z) = 0.12610 0.26350
#
# Static dielectric constant tensor:
#      x y z
#    x 1.958110 0.000000 0.025080 
#    y 0.000000 2.119670 0.000000 
#    z 0.025080 0.000000 1.947160 
# 
# From -- ./inp_files/77444.got.cif
#   From: 2010.05.17/outbox.cif.g08.bks.cpg/sg13_39_cif.got.tgz:77444.got - 2010.06.03 16:44:36.
