data_PCOD9231038
_publ_section_title
;
Structure prediction by ZEFSAII (Michael W. Deem and Ramdas Pophale) SiO2 
 PCOD9231038
Probable space group: P 2/C
;
_chemical_formula_sum "Si O2"
_cell_formula_units_Z 24
_cell_length_a 5.260843
_cell_length_b 7.903602
_cell_length_c 23.168036
_cell_angle_alpha 90.000000
_cell_angle_beta 101.309306
_cell_angle_gamma 90.000000
_cell_volume 944.612967
_symmetry_space_group_name_H-M "P 2/C"
_symmetry_group_IT_number 13
_symmetry_cell_setting 'monoclinic'
loop_
_space_group_symop_operation_xyz
x,y,z
-x,y,1/2-z
-x,-y,-z
x,-y,1/2+z
loop_
_atom_site_type_symbol
_atom_site_label
_atom_site_fract_x
_atom_site_fract_y
_atom_site_fract_z
Si Si1 0.277352 0.929777 0.530817
Si Si2 0.000000 0.523863 0.750000
Si Si3 0.114758 0.387592 0.883033
Si Si4 0.730396 0.200647 0.185388
Si Si5 0.109789 0.048400 0.641723
Si Si6 0.626443 0.584798 0.915376
Si Si7 0.500000 0.914110 0.250000
O O1 0.286485 0.725698 0.534661
O O2 0.500000 0.000000 0.500000
O O3 0.293505 0.004207 0.596511
O O4 0.000000 0.000000 0.500000
O O5 0.072057 0.430450 0.812373
O O6 0.776186 0.665907 0.739559
O O7 0.096624 0.186683 0.888027
O O8 0.875414 0.482929 0.903607
O O9 0.389587 0.457413 0.917759
O O10 0.651986 0.030834 0.212760
O O11 0.970434 0.125808 0.157104
O O12 0.521738 0.296777 0.137881
O O13 0.275860 0.151555 0.698003
#
# Coordination Sequence:
#
# PCOD9231038 Si02
#       7
#     4   2   4   4   4   4   2
#     4  12  26  49  80 105 136 190 263 315 358 440
#     4  10  20  38  62  98 144 192 230 272 368 428
#     4  11  27  42  68 104 158 185 235 295 376 448
#     4  11  21  40  68 102 142 192 242 287 342 449
#     4  12  27  44  70 113 144 193 245 309 370 432
#     4  11  24  48  70 102 143 189 238 297 370 432
#     4  12  22  36  76  98 152 174 256 284 368 414
#
# _framework density 25.407229999999998
#
# number of rings (size 3 to 8) (size 9 to 14) (size 15 to 20)
#    0.000    0.667    3.333    5.000    4.667    3.333 
#    0.000    5.000    0.000    0.000    0.000    0.000 
#    0.000    0.000    0.000    0.000    0.000    0.000 
#
# Total GULP energy -133945.912671 kJ/mol
# GULP energy per Si atom -5581.079695 kJ/mol
# Density = 2.534940 g / cm^3
# Si number density = 25.407230 Si / 1000 Ang^3
#
#
#
# Elastic Constant Matrix: (Units=GPa)
#
#
# Indices 1 2 3 4 5 6 
#
# 1 140.3704 20.2726 37.4089 0.0000 -23.9433 0.0000
# 2 20.2726 86.7525 20.3997 0.0000 -12.5498 0.0000
# 3 37.4089 20.3997 88.7089 0.0000 -13.3421 0.0000
# 4 0.0000 0.0000 0.0000 30.9478 0.0000 5.3978
# 5 -23.9433 -12.5498 -13.3421 0.0000 49.2443 0.0000
# 6 0.0000 0.0000 0.0000 5.3978 0.0000 34.9043
#
#
#
# Elastic Compliance Matrix: (Units=1/GPa)
#
#
# Indices 1 2 3 4 5 6 
#
# 1 0.008569 -0.000855 -0.002943 0.000000 0.003151 0.000000
# 2 -0.000855 0.012561 -0.002199 0.000000 0.002190 0.000000
# 3 -0.002943 -0.002199 0.013260 0.000000 0.001601 0.000000
# 4 0.000000 0.000000 0.000000 0.033208 0.000000 -0.005135
# 5 0.003151 0.002190 0.001601 0.000000 0.022831 0.000000
# 6 0.000000 0.000000 0.000000 -0.005135 0.000000 0.029444
#
#
# Mechanical properties :
#
#
# Convention : Reuss Voigt Hill
#
# Bulk Modulus (GPa) = 44.64816 52.44380 48.54598
# Shear Modulus (GPa) = 35.88540 38.86930 37.37735
#
# Velocity S-wave (km/s) = 3.76228 3.91558 3.83969
# Velocity P-wave (km/s) = 6.04021 6.41314 6.22947
#
# Compressibility (1/GPa) = 0.02239734
#
# Stress axis : x y z
#
# Youngs Moduli (GPa) = 116.69524 79.61430 75.41211
#
# Poissons Ratio (x) = 0.06803 0.22196
# Poissons Ratio (y) = 0.09972 0.16581
# Poissons Ratio (z) = 0.34346 0.17505
#
# Static dielectric constant tensor:
#      x y z
#    x 2.122510 0.000000 0.140080 
#    y 0.000000 1.999240 0.000000 
#    z 0.140080 0.000000 2.120140 
# 
# From -- ./inp_files/83378.got.cif
#   From: 2010.05.17/outbox.cif.g08.bks.cpg/sg13_42_cif.got.tgz:83378.got - 2010.06.03 16:44:36.
