data_PCOD9231751
_publ_section_title
;
Structure prediction by ZEFSAII (Michael W. Deem and Ramdas Pophale) SiO2 
 PCOD9231751
Probable space group: P 2/C
;
_chemical_formula_sum "Si O2"
_cell_formula_units_Z 24
_cell_length_a 5.336292
_cell_length_b 8.868268
_cell_length_c 25.247891
_cell_angle_alpha 90.000000
_cell_angle_beta 117.289935
_cell_angle_gamma 90.000000
_cell_volume 1061.836381
_symmetry_space_group_name_H-M "P 2/C"
_symmetry_group_IT_number 13
_symmetry_cell_setting 'monoclinic'
loop_
_space_group_symop_operation_xyz
x,y,z
-x,y,1/2-z
-x,-y,-z
x,-y,1/2+z
loop_
_atom_site_type_symbol
_atom_site_label
_atom_site_fract_x
_atom_site_fract_y
_atom_site_fract_z
Si Si1 0.527966 0.482123 0.907018
Si Si2 0.109526 0.246220 0.032025
Si Si3 0.814608 0.753199 0.079323
Si Si4 0.987737 0.681253 0.685155
Si Si5 0.731086 0.101052 0.086124
Si Si6 0.698773 0.389703 0.815276
O O1 0.802688 0.584757 0.942040
O O2 0.427824 0.375168 0.944773
O O3 0.282900 0.597749 0.866310
O O4 0.552186 0.381455 0.857380
O O5 0.408637 0.155747 0.062653
O O6 0.879347 0.173161 0.048258
O O7 0.032133 0.248107 0.962751
O O8 0.015944 0.700451 0.146640
O O9 0.718697 0.922155 0.079607
O O10 0.944105 0.843406 0.653640
O O11 0.000000 0.686978 0.750000
O O12 0.232474 0.566677 0.689971
O O13 0.500000 0.332105 0.750000
#
# Coordination Sequence:
#
# PCOD9231751 Si02
#       6
#     4   4   4   4   4   4
#     4  10  22  40  66  94 129 170 227 275 336 399
#     4  11  24  45  69  97 136 181 225 274 339 422
#     4  11  26  40  65 101 136 174 220 288 347 402
#     4  10  20  41  64  91 124 173 227 270 323 405
#     4  11  25  44  67 100 134 180 224 277 343 407
#     4  11  22  41  67  90 130 172 224 277 334 396
#
# _framework density 22.602350999999999
#
# number of rings (size 3 to 8) (size 9 to 14) (size 15 to 20)
#    0.000    1.333    3.333    1.500    4.667    0.667 
#    3.000    0.833    0.000    0.000    0.000    0.000 
#    0.000    0.000    0.000    0.000    0.000    0.000 
#
# Total GULP energy -134075.534050 kJ/mol
# GULP energy per Si atom -5586.480585 kJ/mol
# Density = 2.255091 g / cm^3
# Si number density = 22.602351 Si / 1000 Ang^3
#
#
#
# Elastic Constant Matrix: (Units=GPa)
#
#
# Indices 1 2 3 4 5 6 
#
# 1 63.2305 10.8734 0.2676 0.0000 -4.8848 0.0000
# 2 10.8734 98.1701 26.4319 0.0000 3.0849 0.0000
# 3 0.2676 26.4319 98.6966 0.0000 0.8443 0.0000
# 4 0.0000 0.0000 0.0000 18.7609 0.0000 0.2656
# 5 -4.8848 3.0849 0.8443 0.0000 40.0919 0.0000
# 6 0.0000 0.0000 0.0000 0.2656 0.0000 15.7582
#
#
#
# Elastic Compliance Matrix: (Units=1/GPa)
#
#
# Indices 1 2 3 4 5 6 
#
# 1 0.016322 -0.002002 0.000474 0.000000 0.002133 0.000000
# 2 -0.002002 0.011248 -0.002998 0.000000 -0.001046 0.000000
# 3 0.000474 -0.002998 0.010933 0.000000 0.000058 0.000000
# 4 0.000000 0.000000 0.000000 0.053315 0.000000 -0.000899
# 5 0.002133 -0.001046 0.000058 0.000000 0.025282 0.000000
# 6 0.000000 0.000000 0.000000 -0.000899 0.000000 0.063474
#
#
# Mechanical properties :
#
#
# Convention : Reuss Voigt Hill
#
# Bulk Modulus (GPa) = 33.95546 37.24922 35.60234
# Shear Modulus (GPa) = 25.06961 29.75717 27.41339
#
# Velocity S-wave (km/s) = 3.33402 3.63237 3.48639
# Velocity P-wave (km/s) = 5.46594 5.84022 5.65618
#
# Compressibility (1/GPa) = 0.02945035
#
# Stress axis : x y z
#
# Youngs Moduli (GPa) = 61.26598 88.90251 91.46473
#
# Poissons Ratio (x) = 0.17802 -0.04333
# Poissons Ratio (y) = 0.12268 0.27421
# Poissons Ratio (z) = -0.02903 0.26653
#
# Static dielectric constant tensor:
#      x y z
#    x 1.915960 0.000000 0.038780 
#    y 0.000000 1.870130 0.000000 
#    z 0.038780 0.000000 1.831420 
# 
# From -- ./inp_files/83290.got.cif
#   From: 2010.05.17/outbox.cif.g08.bks.cpg/sg13_42_cif.got.tgz:83290.got - 2010.06.03 16:44:36.
