data_PCOD9231036
_publ_section_title
;
Structure prediction by ZEFSAII (Michael W. Deem and Ramdas Pophale) SiO2 
 PCOD9231036
Probable space group: P 2/C
;
_chemical_formula_sum "Si O2"
_cell_formula_units_Z 22
_cell_length_a 12.929995
_cell_length_b 5.640796
_cell_length_c 13.207461
_cell_angle_alpha 90.000000
_cell_angle_beta 85.205832
_cell_angle_gamma 90.000000
_cell_volume 959.922095
_symmetry_space_group_name_H-M "P 2/C"
_symmetry_group_IT_number 13
_symmetry_cell_setting 'monoclinic'
loop_
_space_group_symop_operation_xyz
x,y,z
-x,y,1/2-z
-x,-y,-z
x,-y,1/2+z
loop_
_atom_site_type_symbol
_atom_site_label
_atom_site_fract_x
_atom_site_fract_y
_atom_site_fract_z
Si Si1 0.738642 0.107134 0.073330
Si Si2 0.000000 0.811074 0.250000
Si Si3 0.831343 0.103442 0.378110
Si Si4 0.551955 0.252116 0.963163
Si Si5 0.827021 0.462628 0.215604
Si Si6 0.658114 0.829103 0.258637
O O1 0.819791 0.256975 0.133246
O O2 0.658471 0.983603 0.157411
O O3 0.800095 0.923443 0.996873
O O4 0.665994 0.260510 0.005684
O O5 0.934113 0.966663 0.334099
O O6 0.918550 0.649063 0.195967
O O7 0.737367 0.980052 0.323259
O O8 0.840409 0.360653 0.327994
O O9 0.565031 0.234129 0.840754
O O10 0.500000 0.500000 0.000000
O O11 0.500000 0.000000 0.000000
O O12 0.716608 0.590572 0.222488
#
# Coordination Sequence:
#
# PCOD9231036 Si02
#       6
#     4   2   4   4   4   4
#     4  10  23  42  67  96 131 181 226 281 351 409
#     4  10  20  38  62  98 130 174 224 278 336 408
#     4   9  20  39  62  92 134 171 217 280 335 404
#     4  11  27  46  70 102 140 179 229 294 349 412
#     4  10  21  40  67  90 134 178 224 278 339 418
#     4   9  22  41  65  94 129 177 223 275 345 408
#
# _framework density 22.918527000000001
#
# number of rings (size 3 to 8) (size 9 to 14) (size 15 to 20)
#    0.000    2.182    0.000    0.545   10.182    4.364 
#    0.000   12.727    0.000    0.000    0.000    0.000 
#    0.000    0.000    0.000    0.000    0.000    0.000 
#
# Total GULP energy -122842.075156 kJ/mol
# GULP energy per Si atom -5583.730689 kJ/mol
# Density = 2.286636 g / cm^3
# Si number density = 22.918527 Si / 1000 Ang^3
#
#
#
# Elastic Constant Matrix: (Units=GPa)
#
#
# Indices 1 2 3 4 5 6 
#
# 1 57.9950 11.1626 24.9892 0.0000 -7.2040 0.0000
# 2 11.1626 64.3709 8.0767 0.0000 2.9926 0.0000
# 3 24.9892 8.0767 125.0962 0.0000 0.1761 0.0000
# 4 0.0000 0.0000 0.0000 3.0630 0.0000 -1.3962
# 5 -7.2040 2.9926 0.1761 0.0000 19.3002 0.0000
# 6 0.0000 0.0000 0.0000 -1.3962 0.0000 32.0982
#
#
#
# Elastic Compliance Matrix: (Units=1/GPa)
#
#
# Indices 1 2 3 4 5 6 
#
# 1 0.020622 -0.003470 -0.003907 0.000000 0.008271 0.000000
# 2 -0.003470 0.016360 -0.000358 0.000000 -0.003829 0.000000
# 3 -0.003907 -0.000358 0.008799 0.000000 -0.001483 0.000000
# 4 0.000000 0.000000 0.000000 0.333078 0.000000 0.014489
# 5 0.008271 -0.003829 -0.001483 0.000000 0.055507 0.000000
# 6 0.000000 0.000000 0.000000 0.014489 0.000000 0.031785
#
#
# Mechanical properties :
#
#
# Convention : Reuss Voigt Hill
#
# Bulk Modulus (GPa) = 32.99136 37.32434 35.15785
# Shear Modulus (GPa) = 10.16830 24.44119 17.30474
#
# Velocity S-wave (km/s) = 2.10864 3.26918 2.75081
# Velocity P-wave (km/s) = 4.51163 5.52911 5.04608
#
# Compressibility (1/GPa) = 0.03031097
#
# Stress axis : x y z
#
# Youngs Moduli (GPa) = 48.49263 61.12611 113.64306
#
# Poissons Ratio (x) = 0.21213 0.44400
# Poissons Ratio (y) = 0.16829 0.04064
# Poissons Ratio (z) = 0.18946 0.02186
#
# Static dielectric constant tensor:
#      x y z
#    x 1.909070 0.000000 0.034630 
#    y 0.000000 1.908620 0.000000 
#    z 0.034630 0.000000 1.877670 
# 
# From -- ./inp_files/35341.got.cif
#   From: 2010.05.17/outbox.cif.g08.bks.cpg/sg13_18_cif.got.tgz:35341.got - 2010.06.03 16:44:36.
